AV-unprocessed.smi:3265|AV-procd|sdf|12496|dock1
  -GOLD-   2272018393D 1   1.00000     0.00000
 Structure written by MMmdl.
 41 42  0  0  0  0  0  0  0  0  2 V2000
  144.3558  135.2786  150.3241 C   0  0  0  0  0  0  0  0  0  0  0  0
  145.6284  134.7358  150.9894 C   0  0  2  0  0  0  0  0  0  0  0  0
  145.6944  133.2017  150.9079 C   0  0  0  0  0  0  0  0  0  0  0  0
  146.9627  132.6881  151.6000 C   0  0  0  0  0  0  0  0  0  0  0  0
  147.0442  133.1989  153.0472 C   0  0  0  0  0  0  0  0  0  0  0  0
  146.9798  134.6826  153.0983 N   0  3  2  0  0  0  0  0  0  0  0  0
  147.1903  135.2029  154.4732 C   0  0  0  0  0  0  0  0  0  0  0  0
  148.6511  135.0577  154.9420 C   0  0  0  0  0  0  0  0  0  0  0  0
  149.4936  136.1221  154.4103 N   0  0  0  0  0  0  0  0  0  0  0  0
  150.2980  136.9057  155.1470 C   0  0  0  0  0  0  0  0  0  0  0  0
  150.3807  136.8236  156.3724 O   0  0  0  0  0  0  0  0  0  0  0  0
  151.1276  137.9485  154.3929 C   0  0  0  0  0  0  0  0  0  0  0  0
  150.7675  139.3026  154.7774 N   0  0  0  0  0  0  0  0  0  0  0  0
  151.4260  140.1519  155.6425 C   0  0  0  0  0  0  0  0  0  0  0  0
  150.7091  141.3126  155.6973 C   0  0  0  0  0  0  0  0  0  0  0  0
  149.6168  141.0774  154.8162 C   0  0  0  0  0  0  0  0  0  0  0  0
  149.6544  139.8742  154.2671 N   0  0  0  0  0  0  0  0  0  0  0  0
  145.7403  135.1984  152.4565 C   0  0  0  0  0  0  0  0  0  0  0  0
  143.4589  134.9177  150.8286 H   0  0  0  0  0  0  0  0  0  0  0  0
  144.2960  134.9705  149.2798 H   0  0  0  0  0  0  0  0  0  0  0  0
  144.3350  136.3685  150.3463 H   0  0  0  0  0  0  0  0  0  0  0  0
  146.4815  135.1407  150.4425 H   0  0  0  0  0  0  0  0  0  0  0  0
  144.8147  132.7643  151.3820 H   0  0  0  0  0  0  0  0  0  0  0  0
  145.6824  132.8761  149.8671 H   0  0  0  0  0  0  0  0  0  0  0  0
  146.9772  131.5979  151.5884 H   0  0  0  0  0  0  0  0  0  0  0  0
  147.8429  133.0149  151.0446 H   0  0  0  0  0  0  0  0  0  0  0  0
  146.2331  132.7769  153.6431 H   0  0  0  0  0  0  0  0  0  0  0  0
  147.9781  132.8536  153.4927 H   0  0  0  0  0  0  0  0  0  0  0  0
  146.8654  136.2430  154.5303 H   0  0  0  0  0  0  0  0  0  0  0  0
  146.5534  134.6451  155.1611 H   0  0  0  0  0  0  0  0  0  0  0  0
  148.7048  135.0507  156.0323 H   0  0  0  0  0  0  0  0  0  0  0  0
  149.0767  134.1134  154.6049 H   0  0  0  0  0  0  0  0  0  0  0  0
  149.4864  136.2571  153.4093 H   0  0  0  0  0  0  0  0  0  0  0  0
  152.1873  137.7910  154.5971 H   0  0  0  0  0  0  0  0  0  0  0  0
  150.9873  137.8356  153.3164 H   0  0  0  0  0  0  0  0  0  0  0  0
  152.3381  139.8620  156.1435 H   0  0  0  0  0  0  0  0  0  0  0  0
  150.9314  142.1960  156.2773 H   0  0  0  0  0  0  0  0  0  0  0  0
  148.8027  141.7401  154.5618 H   0  0  0  0  0  0  0  0  0  0  0  0
  145.7313  136.2873  152.4818 H   0  0  0  0  0  0  0  0  0  0  0  0
  144.8713  134.8634  153.0254 H   0  0  0  0  0  0  0  0  0  0  0  0
  147.7583  135.0145  152.5471 H   0  0  0  0  0  0  0  0  0  0  0  0
  1  2  1  0  0  0  0
  1 19  1  0  0  0  0
  1 20  1  0  0  0  0
  1 21  1  0  0  0  0
  2 18  1  0  0  0  0
  2  3  1  0  0  0  0
  2 22  1  0  0  0  0
  3  4  1  0  0  0  0
  3 23  1  0  0  0  0
  3 24  1  0  0  0  0
  4  5  1  0  0  0  0
  4 25  1  0  0  0  0
  4 26  1  0  0  0  0
  5  6  1  0  0  0  0
  5 27  1  0  0  0  0
  5 28  1  0  0  0  0
  6  7  1  0  0  0  0
  6 18  1  0  0  0  0
  6 41  1  0  0  0  0
  7  8  1  0  0  0  0
  7 29  1  0  0  0  0
  7 30  1  0  0  0  0
  8  9  1  0  0  0  0
  8 31  1  0  0  0  0
  8 32  1  0  0  0  0
  9 10  1  0  0  0  0
  9 33  1  0  0  0  0
 10 11  2  0  0  0  0
 10 12  1  0  0  0  0
 12 13  1  0  0  0  0
 12 34  1  0  0  0  0
 12 35  1  0  0  0  0
 13 17  1  0  0  0  0
 13 14  1  0  0  0  0
 14 15  2  0  0  0  0
 14 36  1  0  0  0  0
 15 16  1  0  0  0  0
 15 37  1  0  0  0  0
 16 17  2  0  0  0  0
 16 38  1  0  0  0  0
 18 39  1  0  0  0  0
 18 40  1  0  0  0  0
M  CHG  1   6   1
M  END
> <s_m_source_file>
AV-unprocessed.smi

> <i_m_source_file_index>
3265

> <i_lp_mmshare_version>
43012

> <i_f3d_flags>
0

> <s_epik_input>
W0NIM11bQ0BASF0xW0NIMl1bQ0gyXVtDSDJdTihbQ0gyXTEpW0NIMl1bQ0gyXVtOSF1DKD1PKVtDSDJdbjJbY0hdW2NIXVtjSF1uMg==

> <s_epik_cmdline>
J2VwaWtfcHl0aG9uJywgJy1waCcsICc3LjAnLCAnLXRuJywgJzgnLCAnLW1hJywgJzIwMCcsICctbWV0YWxfYmluZGluZycsICctaW1hZScsICc8aW5maWxlLm1hZT4nLCAnLW9tYWUnLCAnPG91dGZpbGUubWFlPic=

> <r_lp_tautomer_probability>
1

> <r_epik_Ionization_Penalty>
0.00231455

> <r_epik_Ionization_Penalty_Charging>
0.00230623

> <r_epik_Ionization_Penalty_Neutral>
8.31727e-06

> <r_epik_State_Penalty>
0.00159065

> <r_epik_Charging_Adjusted_Penalty>
0.00389688

> <i_epik_Tot_Q>
1

> <i_epik_Tot_abs_Q>
1

> <r_epik_Metal_State_Penalty>
-0

> <b_epik_Metal_Only>
0

> <s_lp_Force_Field>
OPLS_2005

> <r_lp_Energy>
16.3652

> <b_lp_Chiralities_Consistent>
1

> <s_lp_Variant>
AV-unprocessed.smi:3265-1

> <Gold.Version>
5.8.1

> <Gold.Id.Protein>
6NUR|6NUR_protein|mol2

> <Gold.PLP.Fitness>
40.7048

> <Gold.PLP.PLP>
-32.7030

> <Gold.PLP.part.hbond>
-2.6195

> <Gold.PLP.part.metal>
0.0000

> <Gold.PLP.part.buried>
-0.3841

> <Gold.PLP.part.nonpolar>
-28.9800

> <Gold.PLP.part.repulsive>
0.1605

> <Gold.PLP.ligand.clash>
0.0000

> <Gold.PLP.ligand.torsion>
0.5197

> <Gold.PLP.Chemscore.Hbond>
3.0000

> <Gold.PLP.Chemscore.CHOScore>
0.0000

> <Gold.PLP.Chemscore.Metal>
0.0000

> <Gold.Chemscore.Hbonds>
donor molecule, donor type, donor heavy atom, donor atom, acceptor molecule, acceptor atom, score
      L1  H     6    41       P1  7948  2.00
      L1  H     9    33       P1  7948  1.00

> <Gold.PLP.Chemscore.Internal.Correction>
0.0413

> <Gold.Rescore>
     Score         DG    S(hbond)    S(metal)    S(lipo)     H(rot)  DE(clash)    DE(int)     intcor
     14.20     -14.55       1.86        0.00      64.61       1.84       0.01       0.33       ----

> <Gold.Chemscore.Fitness>
14.2049

> <Gold.Chemscore.DG>
-14.5464

> <Gold.Chemscore.ZeroCoef>
-5.4800

> <Gold.Chemscore.Hbond>
1.8605

> <Gold.Chemscore.Metal>
0.0000

> <Gold.Chemscore.Lipo>
64.6076

> <Gold.Chemscore.Internal_Hbond>
0.0000

> <Gold.Chemscore.DEClash>
0.0126

> <Gold.Chemscore.DEInternal>
0.3289

> <Gold.Chemscore.Rot>
1.8386

> <Gold.Chemscore.Internal.Correction>
   9.000000E+99

> <Gold.Chemscore.Hbonds>
donor molecule, donor type, donor heavy atom, donor atom, acceptor molecule, acceptor atom, score
      L1  H     6    41       P1  7948  0.96
      L1  H     9    33       P1  7948  0.54

> <Gold.Chemscore.Hbond.Weighted>
-6.2142

> <Gold.Chemscore.Metal.Weighted>
-0.0000

> <Gold.Chemscore.Lipo.Weighted>
-7.5591

> <Gold.Chemscore.Internal_Hbond.Weighted>
0.0000

> <Gold.Chemscore.DEClash.Weighted>
0.0126

> <Gold.Chemscore.DEInternal.Weighted>
0.3289

> <Gold.Chemscore.Rot.Weighted>
4.7069

> <Gold.Chemscore.Internal.Correction.Weighted>
   9.000000E+99

> <Gold.Protein.RotatedTorsions>
[ 6907 6896 6895 6894 ] final   72.69 input  -60.11 | X-H torsion
[ 7974 7965 7964 7962 ] final -133.28 input  175.53 | X-H torsion
[ 8008 7997 7996 7995 ] final   22.11 input   59.86 | X-H torsion
[ 10167 10162 10161 10158 ] final -120.96 input  -65.29 | X-H torsion
[ 10718 10713 10712 10709 ] final   94.29 input   66.30 | X-H torsion
[ 10763 10752 10751 10750 ] final   77.19 input  -60.55 | X-H torsion
[ 11005 11000 10999 10996 ] final   49.17 input  -57.11 | X-H torsion

> <Gold.Protein.ActiveResidues>
 VAL166  LYS551  ARG553  GLY616  TRP617  ASP618  TYR619  PRO620  LYS621  CYS622 
 ASP623  PHE694  ASN695  SER759  ASP760  ASP761  ALA762  ILE779  LEU786  VAL792 
 PHE793  MET794  SER795  GLU796  ALA797  LYS798  CYS799  TRP800  GLU811  SER814 

> <Gold.Protein.RotatedAtoms>
  152.4882  134.4533  159.9581 H   0  0  0  0  0  0  0  0  0  0  0  0  # atno 6907 bound_to 6896
  151.4526  133.3607  159.2805 H   0  0  0  0  0  0  0  0  0  0  0  0  # atno 6908 bound_to 6896
  150.9011  134.8448  159.7421 H   0  0  0  0  0  0  0  0  0  0  0  0  # atno 6909 bound_to 6896
  144.9208  140.7011  143.4967 H   0  0  0  0  0  0  0  0  0  0  0  0  # atno 7974 bound_to 7965
  154.9608  140.3077  155.5032 H   0  0  0  0  0  0  0  0  0  0  0  0  # atno 8008 bound_to 7997
  156.2977  140.2301  156.4632 H   0  0  0  0  0  0  0  0  0  0  0  0  # atno 8009 bound_to 7997
  154.7967  140.0436  157.1230 H   0  0  0  0  0  0  0  0  0  0  0  0  # atno 8010 bound_to 7997
  140.0302  143.5255  152.2180 H   0  0  0  0  0  0  0  0  0  0  0  0  # atno 10167 bound_to 10162
  157.6949  131.0507  150.4164 H   0  0  0  0  0  0  0  0  0  0  0  0  # atno 10718 bound_to 10713
  153.0780  135.4923  154.8444 H   0  0  0  0  0  0  0  0  0  0  0  0  # atno 10763 bound_to 10752
  154.7113  135.3020  154.9195 H   0  0  0  0  0  0  0  0  0  0  0  0  # atno 10764 bound_to 10752
  153.9887  135.6781  153.4806 H   0  0  0  0  0  0  0  0  0  0  0  0  # atno 10765 bound_to 10752
  140.1127  134.4934  155.8664 H   0  0  0  0  0  0  0  0  0  0  0  0  # atno 11005 bound_to 11000
  145.3300  139.1762  143.4542 LP  0  0  0  0  0  0  0  0  0  0  0  0  # atno 17320 bound_to 7965
  146.3203  140.3328  142.8642 LP  0  0  0  0  0  0  0  0  0  0  0  0  # atno 17321 bound_to 7965
  139.6081  144.7601  151.3015 LP  0  0  0  0  0  0  0  0  0  0  0  0  # atno 17342 bound_to 10162
  140.7305  143.6878  150.7947 LP  0  0  0  0  0  0  0  0  0  0  0  0  # atno 17343 bound_to 10162
  156.4543  130.4018  149.6616 LP  0  0  0  0  0  0  0  0  0  0  0  0  # atno 17370 bound_to 10713
  156.3754  130.7552  151.2539 LP  0  0  0  0  0  0  0  0  0  0  0  0  # atno 17371 bound_to 10713
  141.2134  133.6733  156.6736 LP  0  0  0  0  0  0  0  0  0  0  0  0  # atno 17394 bound_to 11000
  140.3070  134.8117  157.4145 LP  0  0  0  0  0  0  0  0  0  0  0  0  # atno 17395 bound_to 11000

$$$$
