AV-unprocessed.smi:2877|AV-procd|sdf|11043|dock6
  -GOLD-   2272015513D 1   1.00000     0.00000
 Structure written by MMmdl.
 41 42  0  0  0  0  0  0  0  0  1 V2000
  152.6104  140.2272  159.4779 O   0  0  0  0  0  0  0  0  0  0  0  0
  152.9003  141.3504  159.8939 C   0  0  0  0  0  0  0  0  0  0  0  0
  153.7180  141.4756  161.1915 C   0  0  0  0  0  0  0  0  0  0  0  0
  155.0299  140.6634  161.1878 C   0  0  0  0  0  0  0  0  0  0  0  0
  155.7425  140.7927  162.4541 N   0  0  0  0  0  0  0  0  0  0  0  0
  155.9972  139.7871  163.3076 C   0  0  0  0  0  0  0  0  0  0  0  0
  155.6374  138.6272  163.0976 O   0  0  0  0  0  0  0  0  0  0  0  0
  156.7975  140.1544  164.5692 C   0  0  0  0  0  0  0  0  0  0  0  0
  156.8974  139.0587  165.3244 F   0  0  0  0  0  0  0  0  0  0  0  0
  158.0325  140.5129  164.2090 F   0  0  0  0  0  0  0  0  0  0  0  0
  156.1427  141.2851  165.3624 C   0  0  0  0  0  0  0  0  0  0  0  0
  155.7635  141.1033  166.7123 C   0  0  0  0  0  0  0  0  0  0  0  0
  155.1546  142.1748  167.3933 C   0  0  0  0  0  0  0  0  0  0  0  0
  154.9458  143.3850  166.7053 C   0  0  0  0  0  0  0  0  0  0  0  0
  155.3546  143.4693  165.3600 C   0  0  0  0  0  0  0  0  0  0  0  0
  155.9389  142.4481  164.6978 N   0  0  0  0  0  0  0  0  0  0  0  0
  152.5189  142.4797  159.2476 N   0  0  0  0  0  0  0  0  0  0  0  0
  151.6766  142.4579  158.0438 C   0  0  0  0  0  0  0  0  0  0  0  0
  150.2848  143.0129  158.3993 C   0  0  0  0  0  0  0  0  0  0  0  0
  150.3921  144.4243  159.0070 C   0  0  0  0  0  0  0  0  0  0  0  0
  151.4215  144.4733  160.1516 C   0  0  0  0  0  0  0  0  0  0  0  0
  152.7604  143.8534  159.7124 C   0  0  0  0  0  0  0  0  0  0  0  0
  153.9501  142.5286  161.3543 H   0  0  0  0  0  0  0  0  0  0  0  0
  153.0965  141.1467  162.0254 H   0  0  0  0  0  0  0  0  0  0  0  0
  154.8181  139.6043  161.0360 H   0  0  0  0  0  0  0  0  0  0  0  0
  155.6766  140.9749  160.3654 H   0  0  0  0  0  0  0  0  0  0  0  0
  156.0722  141.7152  162.6996 H   0  0  0  0  0  0  0  0  0  0  0  0
  155.9276  140.1631  167.2175 H   0  0  0  0  0  0  0  0  0  0  0  0
  154.8519  142.0693  168.4246 H   0  0  0  0  0  0  0  0  0  0  0  0
  154.4818  144.2275  167.1964 H   0  0  0  0  0  0  0  0  0  0  0  0
  155.2084  144.3815  164.8007 H   0  0  0  0  0  0  0  0  0  0  0  0
  152.1385  143.0709  157.2685 H   0  0  0  0  0  0  0  0  0  0  0  0
  151.5780  141.4611  157.6119 H   0  0  0  0  0  0  0  0  0  0  0  0
  149.6512  143.0356  157.5122 H   0  0  0  0  0  0  0  0  0  0  0  0
  149.7985  142.3441  159.1108 H   0  0  0  0  0  0  0  0  0  0  0  0
  150.6940  145.1250  158.2276 H   0  0  0  0  0  0  0  0  0  0  0  0
  149.4167  144.7589  159.3609 H   0  0  0  0  0  0  0  0  0  0  0  0
  151.5721  145.5042  160.4734 H   0  0  0  0  0  0  0  0  0  0  0  0
  151.0353  143.9315  161.0160 H   0  0  0  0  0  0  0  0  0  0  0  0
  153.4819  143.9252  160.5244 H   0  0  0  0  0  0  0  0  0  0  0  0
  153.1885  144.4357  158.8951 H   0  0  0  0  0  0  0  0  0  0  0  0
  1  2  2  0  0  0  0
  2  3  1  0  0  0  0
  2 17  1  0  0  0  0
  3  4  1  0  0  0  0
  3 23  1  0  0  0  0
  3 24  1  0  0  0  0
  4  5  1  0  0  0  0
  4 25  1  0  0  0  0
  4 26  1  0  0  0  0
  5  6  1  0  0  0  0
  5 27  1  0  0  0  0
  6  7  2  0  0  0  0
  6  8  1  0  0  0  0
  8  9  1  0  0  0  0
  8 10  1  0  0  0  0
  8 11  1  0  0  0  0
 11 16  1  0  0  0  0
 11 12  2  0  0  0  0
 12 13  1  0  0  0  0
 12 28  1  0  0  0  0
 13 14  2  0  0  0  0
 13 29  1  0  0  0  0
 14 15  1  0  0  0  0
 14 30  1  0  0  0  0
 15 16  2  0  0  0  0
 15 31  1  0  0  0  0
 17 22  1  0  0  0  0
 17 18  1  0  0  0  0
 18 19  1  0  0  0  0
 18 32  1  0  0  0  0
 18 33  1  0  0  0  0
 19 20  1  0  0  0  0
 19 34  1  0  0  0  0
 19 35  1  0  0  0  0
 20 21  1  0  0  0  0
 20 36  1  0  0  0  0
 20 37  1  0  0  0  0
 21 22  1  0  0  0  0
 21 38  1  0  0  0  0
 21 39  1  0  0  0  0
 22 40  1  0  0  0  0
 22 41  1  0  0  0  0
M  END
> <s_m_source_file>
AV-unprocessed.smi

> <i_m_source_file_index>
2877

> <i_lp_mmshare_version>
43012

> <i_f3d_flags>
0

> <s_epik_input>
W0NIMl0xW0NIMl1bQ0gyXVtDSDJdW0NIMl1OMUMoPU8pW0NIMl1bQ0gyXVtOSF1DKD1PKUMoRikoRiljMltjSF1bY0hdW2NIXVtjSF1uMg==

> <s_epik_cmdline>
J2VwaWtfcHl0aG9uJywgJy1waCcsICc3LjAnLCAnLXRuJywgJzgnLCAnLW1hJywgJzIwMCcsICctbWV0YWxfYmluZGluZycsICctaW1hZScsICc8aW5maWxlLm1hZT4nLCAnLW9tYWUnLCAnPG91dGZpbGUubWFlPic=

> <r_lp_tautomer_probability>
1

> <r_epik_Ionization_Penalty>
7.88991e-05

> <r_epik_Ionization_Penalty_Charging>
0

> <r_epik_Ionization_Penalty_Neutral>
7.88991e-05

> <r_epik_State_Penalty>
-0

> <r_epik_Charging_Adjusted_Penalty>
0

> <i_epik_Tot_Q>
0

> <i_epik_Tot_abs_Q>
0

> <r_epik_Metal_State_Penalty>
0.0639978

> <b_epik_Metal_Only>
0

> <s_lp_Force_Field>
OPLS_2005

> <r_lp_Energy>
32.8241

> <b_lp_Chiralities_Consistent>
1

> <s_lp_Variant>
AV-unprocessed.smi:2877-1

> <Gold.Version>
5.8.1

> <Gold.Id.Protein>
6NUR|6NUR_protein|mol2

> <Gold.PLP.Fitness>
44.6821

> <Gold.PLP.PLP>
-46.0970

> <Gold.PLP.part.hbond>
-2.0000

> <Gold.PLP.part.metal>
0.0000

> <Gold.PLP.part.buried>
-6.8017

> <Gold.PLP.part.nonpolar>
-36.7692

> <Gold.PLP.part.repulsive>
0.0000

> <Gold.PLP.ligand.clash>
1.1242

> <Gold.PLP.ligand.torsion>
0.1641

> <Gold.PLP.Chemscore.Hbond>
0.0000

> <Gold.PLP.Chemscore.CHOScore>
0.0000

> <Gold.PLP.Chemscore.Metal>
0.0000

> <Gold.PLP.Chemscore.Internal.Correction>
0.0375

> <Gold.Rescore>
     Score         DG    S(hbond)    S(metal)    S(lipo)     H(rot)  DE(clash)    DE(int)     intcor
     11.76     -13.44       0.00        0.00     110.70       1.95       0.20       1.49       ----

> <Gold.Chemscore.Fitness>
11.7594

> <Gold.Chemscore.DG>
-13.4435

> <Gold.Chemscore.ZeroCoef>
-5.4800

> <Gold.Chemscore.Hbond>
0.0000

> <Gold.Chemscore.Metal>
0.0000

> <Gold.Chemscore.Lipo>
110.7022

> <Gold.Chemscore.Internal_Hbond>
0.0000

> <Gold.Chemscore.DEClash>
0.1957

> <Gold.Chemscore.DEInternal>
1.4884

> <Gold.Chemscore.Rot>
1.9487

> <Gold.Chemscore.Internal.Correction>
   9.000000E+99

> <Gold.Chemscore.Hbond.Weighted>
-0.0000

> <Gold.Chemscore.Metal.Weighted>
-0.0000

> <Gold.Chemscore.Lipo.Weighted>
-12.9522

> <Gold.Chemscore.Internal_Hbond.Weighted>
0.0000

> <Gold.Chemscore.DEClash.Weighted>
0.1957

> <Gold.Chemscore.DEInternal.Weighted>
1.4884

> <Gold.Chemscore.Rot.Weighted>
4.9886

> <Gold.Chemscore.Internal.Correction.Weighted>
   9.000000E+99

> <Gold.Protein.RotatedTorsions>
[ 6907 6896 6895 6894 ] final  -51.94 input  -60.11 | X-H torsion
[ 7974 7965 7964 7962 ] final  118.52 input  175.53 | X-H torsion
[ 8008 7997 7996 7995 ] final  105.04 input   59.86 | X-H torsion
[ 10167 10162 10161 10158 ] final -158.95 input  -65.29 | X-H torsion
[ 10718 10713 10712 10709 ] final -157.53 input   66.30 | X-H torsion
[ 10763 10752 10751 10750 ] final  116.75 input  -60.55 | X-H torsion
[ 11005 11000 10999 10996 ] final   82.42 input  -57.11 | X-H torsion

> <Gold.Protein.ActiveResidues>
 VAL166  LYS551  ARG553  GLY616  TRP617  ASP618  TYR619  PRO620  LYS621  CYS622 
 ASP623  PHE694  ASN695  SER759  ASP760  ASP761  ALA762  ILE779  LEU786  VAL792 
 PHE793  MET794  SER795  GLU796  ALA797  LYS798  CYS799  TRP800  GLU811  SER814 

> <Gold.Protein.RotatedAtoms>
  150.8564  134.7904  159.7048 H   0  0  0  0  0  0  0  0  0  0  0  0  # atno 6907 bound_to 6896
  152.4614  134.5172  159.9781 H   0  0  0  0  0  0  0  0  0  0  0  0  # atno 6908 bound_to 6896
  151.5283  133.3415  159.2949 H   0  0  0  0  0  0  0  0  0  0  0  0  # atno 6909 bound_to 6896
  145.1542  139.3192  143.4550 H   0  0  0  0  0  0  0  0  0  0  0  0  # atno 7974 bound_to 7965
  156.1625  140.3137  155.8832 H   0  0  0  0  0  0  0  0  0  0  0  0  # atno 8008 bound_to 7997
  155.3753  140.0484  157.3062 H   0  0  0  0  0  0  0  0  0  0  0  0  # atno 8009 bound_to 7997
  154.5160  140.2181  155.9075 H   0  0  0  0  0  0  0  0  0  0  0  0  # atno 8010 bound_to 7997
  139.6652  143.9841  152.2250 H   0  0  0  0  0  0  0  0  0  0  0  0  # atno 10167 bound_to 10162
  156.5415  130.8565  151.2750 H   0  0  0  0  0  0  0  0  0  0  0  0  # atno 10718 bound_to 10713
  153.5419  135.3557  155.2722 H   0  0  0  0  0  0  0  0  0  0  0  0  # atno 10763 bound_to 10752
  154.8716  135.4093  154.3034 H   0  0  0  0  0  0  0  0  0  0  0  0  # atno 10764 bound_to 10752
  153.3743  135.7065  153.6682 H   0  0  0  0  0  0  0  0  0  0  0  0  # atno 10765 bound_to 10752
  139.9064  134.8070  156.2172 H   0  0  0  0  0  0  0  0  0  0  0  0  # atno 11005 bound_to 11000
  146.3491  140.1628  142.8590 LP  0  0  0  0  0  0  0  0  0  0  0  0  # atno 17320 bound_to 7965
  145.0398  140.8937  143.5059 LP  0  0  0  0  0  0  0  0  0  0  0  0  # atno 17321 bound_to 7965
  139.9591  144.6570  150.8097 LP  0  0  0  0  0  0  0  0  0  0  0  0  # atno 17342 bound_to 10162
  140.7596  143.3133  151.2792 LP  0  0  0  0  0  0  0  0  0  0  0  0  # atno 17343 bound_to 10162
  157.7404  130.9850  150.2377 LP  0  0  0  0  0  0  0  0  0  0  0  0  # atno 17370 bound_to 10713
  156.2967  130.3753  149.7789 LP  0  0  0  0  0  0  0  0  0  0  0  0  # atno 17371 bound_to 10713
  141.0428  133.6929  156.1629 LP  0  0  0  0  0  0  0  0  0  0  0  0  # atno 17394 bound_to 11000
  140.6929  134.4646  157.5588 LP  0  0  0  0  0  0  0  0  0  0  0  0  # atno 17395 bound_to 11000

$$$$
