#       Name:                AV-unprocessed.smi:2825
#       Creating user name   scv26
#       Creation time:       Fri Mar 27 15:33:13 2020


#       File generated by GOLD software.
#

@<TRIPOS>MOLECULE
AV-unprocessed.smi:2825
    51    52     1
SMALL
NO_CHARGES


@<TRIPOS>ATOM
      1 ****        -2.7707  -1.3992   0.4930 C.3            1 S1                 0.0000
      2 ****        -3.0817   0.0084  -0.0257 C.3            1 S1                 0.0000
      3 ****        -2.3516   0.3306  -1.3375 C.3            1 S1                 0.0000
      4 ****        -2.7604   2.0254  -1.9545 S.o2           1 S1                 0.0000
      5 ****        -3.3358   1.8863  -3.3011 O.2            1 S1                 0.0000
      6 ****        -3.4951   2.7609  -0.9132 O.2            1 S1                 0.0000
      7 ****        -1.2063   2.7776  -2.1405 N.pl3          1 S1                 0.0000
      8 ****        -0.3397   2.3608  -3.2500 C.3            1 S1                 0.0000
      9 ****        -0.5706   3.4918  -1.0148 C.3            1 S1                 0.0000
     10 ****         0.0678   2.5637   0.0420 C.3            1 S1                 0.0000
     11 ****         0.3350   3.3600   1.1798 O.3            1 S1                 0.0000
     12 ****         1.3855   1.9009  -0.4190 C.3            1 S1                 0.0000
     13 ****         1.9986   1.0817   0.6129 N.pl3          1 S1                 0.0000
     14 ****         2.8572   1.4851   1.5699 C.2            1 S1                 0.0000
     15 ****         3.2910   0.5655   2.4267 N.2            1 S1                 0.0000
     16 ****         2.6487  -0.5703   1.9651 C.ar           1 S1                 0.0000
     17 ****         2.6837  -1.8996   2.4400 C.ar           1 S1                 0.0000
     18 ****         1.9393  -2.9174   1.8021 C.ar           1 S1                 0.0000
     19 ****         2.0035  -4.3328   2.3486 C.3            1 S1                 0.0000
     20 ****         1.1469  -2.6117   0.6669 C.ar           1 S1                 0.0000
     21 ****         0.3376  -3.6872  -0.0361 C.3            1 S1                 0.0000
     22 ****         1.1028  -1.2895   0.1784 C.ar           1 S1                 0.0000
     23 ****         1.8399  -0.2833   0.8268 C.ar           1 S1                 0.0000
     24 ****        -3.3276  -1.6073   1.4068 H              1 S1                 0.0000
     25 ****        -1.7112  -1.5093   0.7205 H              1 S1                 0.0000
     26 ****        -3.0389  -2.1595  -0.2410 H              1 S1                 0.0000
     27 ****        -4.1574   0.1046  -0.1772 H              1 S1                 0.0000
     28 ****        -2.8106   0.7375   0.7383 H              1 S1                 0.0000
     29 ****        -1.2740   0.2555  -1.2126 H              1 S1                 0.0000
     30 ****        -2.6303  -0.3814  -2.1146 H              1 S1                 0.0000
     31 ****        -0.0966   1.3020  -3.1665 H              1 S1                 0.0000
     32 ****         0.5871   2.9347  -3.2693 H              1 S1                 0.0000
     33 ****        -0.8516   2.5166  -4.1996 H              1 S1                 0.0000
     34 ****         0.1695   4.1959  -1.3972 H              1 S1                 0.0000
     35 ****        -1.3338   4.1099  -0.5403 H              1 S1                 0.0000
     36 ****        -0.6454   1.8036   0.3556 H              1 S1                 0.0000
     37 ****         0.6527   2.7982   1.8702 H              1 S1                 0.0000
     38 ****         1.2140   1.2651  -1.2854 H              1 S1                 0.0000
     39 ****         2.1056   2.6595  -0.7291 H              1 S1                 0.0000
     40 ****         3.1742   2.5151   1.6470 H              1 S1                 0.0000
     41 ****         3.2905  -2.1323   3.3028 H              1 S1                 0.0000
     42 ****         2.3719  -5.0205   1.5874 H              1 S1                 0.0000
     43 ****         1.0149  -4.6647   2.6664 H              1 S1                 0.0000
     44 ****         2.6707  -4.3981   3.2084 H              1 S1                 0.0000
     45 ****        -0.2275  -3.2764  -0.8734 H              1 S1                 0.0000
     46 ****        -0.3733  -4.1425   0.6538 H              1 S1                 0.0000
     47 ****         0.9934  -4.4666  -0.4246 H              1 S1                 0.0000
     48 ****         0.5077  -1.0478  -0.6883 H              1 S1                 0.0000
     49 ****        -0.5034   3.8176   1.4760 LP             1 S1                 0.0000
     50 ****         1.0280   4.0456   0.9568 LP             1 S1                 0.0000
     51 ****         3.9163   0.6676   3.2004 LP             1 S1                 0.0000
@<TRIPOS>BOND
    1    1    2 1     
    2    1   24 1     
    3    1   25 1     
    4    1   26 1     
    5    2    3 1     
    6    2   27 1     
    7    2   28 1     
    8    3    4 1     
    9    3   29 1     
   10    3   30 1     
   11    4    5 2     
   12    4    6 2     
   13    4    7 1     
   14    7    8 1     
   15    7    9 1     
   16    8   31 1     
   17    8   32 1     
   18    8   33 1     
   19    9   10 1     
   20    9   34 1     
   21    9   35 1     
   22   10   11 1     
   23   10   12 1     
   24   10   36 1     
   25   11   37 1     
   26   12   13 1     
   27   12   38 1     
   28   12   39 1     
   29   13   23 1     
   30   13   14 1     
   31   14   15 2     
   32   14   40 1     
   33   15   16 1     
   34   16   23 ar    
   35   16   17 ar    
   36   17   18 ar    
   37   17   41 1     
   38   18   19 1     
   39   18   20 ar    
   40   19   42 1     
   41   19   43 1     
   42   19   44 1     
   43   20   21 1     
   44   20   22 ar    
   45   21   45 1     
   46   21   46 1     
   47   21   47 1     
   48   22   23 ar    
   49   22   48 1     
   50   11   49 1     
   51   11   50 1     
   52   15   51 1     
@<TRIPOS>SUBSTRUCTURE
      1 S1             1
@<TRIPOS>SET
LONE_PAIRS      STATIC     ATOMS    <user>   **** ""
5 5 6 49 50 51
DONOR_HYDROGENS      STATIC     ATOMS    <user>   **** ""
1 37
ATOM$BLUE        STATIC     ATOMS    COLORGROUP SYSTEM
5 5 6 49 50 51
ATOM$RED        STATIC     ATOMS    COLORGROUP SYSTEM
1 37
