#       Name:                AV-unprocessed.smi:2434
#       Creating user name   scv26
#       Creation time:       Fri Mar 27 13:22:27 2020


#       File generated by GOLD software.
#

@<TRIPOS>MOLECULE
AV-unprocessed.smi:2434
    39    40     1
SMALL
NO_CHARGES


@<TRIPOS>ATOM
      1 ****        -1.8466   0.6580  -2.3256 C.3            1 S1                 0.0000
      2 ****        -2.1752  -0.0894  -1.0238 C.3            1 S1                 0.0000
      3 ****        -1.6428  -1.5353  -0.9599 C.3            1 S1                 0.0000
      4 ****        -0.0990  -1.5258  -0.9363 C.3            1 S1                 0.0000
      5 ****         0.4364  -0.8127   0.2213 N.am           1 S1                 0.0000
      6 ****         1.2472   0.2541   0.1746 C.2            1 S1                 0.0000
      7 ****         1.6614   0.7576  -0.8700 O.2            1 S1                 0.0000
      8 ****         1.5200   0.7150   1.4060 N.am           1 S1                 0.0000
      9 ****         2.3107   1.8470   1.7288 C.ar           1 S1                 0.0000
     10 ****         1.8337   2.7407   2.7096 C.ar           1 S1                 0.0000
     11 ****         2.6239   3.8576   3.0479 C.ar           1 S1                 0.0000
     12 ****         3.8280   4.1108   2.4925 N.ar           1 S1                 0.0000
     13 ****         4.2932   3.2388   1.5724 C.ar           1 S1                 0.0000
     14 ****         3.5849   2.0915   1.1610 C.ar           1 S1                 0.0000
     15 ****         4.1415   1.2414   0.2649 F              1 S1                 0.0000
     16 ****        -2.3008  -2.4317   0.1140 C.3            1 S1                 0.0000
     17 ****        -2.3514  -3.5771  -0.8954 C.3            1 S1                 0.0000
     18 ****        -2.2619  -2.5109  -1.9853 C.3            1 S1                 0.0000
     19 ****        -2.3286   1.6357  -2.3366 H              1 S1                 0.0000
     20 ****        -2.1965   0.1087  -3.1996 H              1 S1                 0.0000
     21 ****        -0.7761   0.8260  -2.4391 H              1 S1                 0.0000
     22 ****        -1.8234   0.4960  -0.1742 H              1 S1                 0.0000
     23 ****        -3.2608  -0.1007  -0.9195 H              1 S1                 0.0000
     24 ****         0.2863  -2.5441  -0.8802 H              1 S1                 0.0000
     25 ****         0.2989  -1.1303  -1.8713 H              1 S1                 0.0000
     26 ****         0.1490  -1.1493   1.1287 H              1 S1                 0.0000
     27 ****         1.0143   0.2932   2.1707 H              1 S1                 0.0000
     28 ****         0.8772   2.5841   3.1867 H              1 S1                 0.0000
     29 ****         2.2795   4.5658   3.7868 H              1 S1                 0.0000
     30 ****         5.2677   3.4548   1.1599 H              1 S1                 0.0000
     31 ****        -1.6837  -2.6317   0.9905 H              1 S1                 0.0000
     32 ****        -3.2972  -2.0949   0.4052 H              1 S1                 0.0000
     33 ****        -1.4732  -4.2231  -0.8557 H              1 S1                 0.0000
     34 ****        -3.2792  -4.1499  -0.8919 H              1 S1                 0.0000
     35 ****        -3.2461  -2.1963  -2.3375 H              1 S1                 0.0000
     36 ****        -1.6108  -2.7720  -2.8205 H              1 S1                 0.0000
     37 ****         1.3944   0.3697  -1.7522 LP             1 S1                 0.0000
     38 ****         2.2648   1.5543  -0.8361 LP             1 S1                 0.0000
     39 ****         4.3580   4.9175   2.7539 LP             1 S1                 0.0000
@<TRIPOS>BOND
    1    1    2 1     
    2    1   19 1     
    3    1   20 1     
    4    1   21 1     
    5    2    3 1     
    6    2   22 1     
    7    2   23 1     
    8    3   18 1     
    9    3    4 1     
   10    3   16 1     
   11    4    5 1     
   12    4   24 1     
   13    4   25 1     
   14    5    6 am    
   15    5   26 1     
   16    6    7 2     
   17    6    8 am    
   18    8    9 1     
   19    8   27 1     
   20    9   14 ar    
   21    9   10 ar    
   22   10   11 ar    
   23   10   28 1     
   24   11   12 ar    
   25   11   29 1     
   26   12   13 ar    
   27   13   14 ar    
   28   13   30 1     
   29   14   15 1     
   30   16   17 1     
   31   16   31 1     
   32   16   32 1     
   33   17   18 1     
   34   17   33 1     
   35   17   34 1     
   36   18   35 1     
   37   18   36 1     
   38    7   37 1     
   39    7   38 1     
   40   12   39 1     
@<TRIPOS>SUBSTRUCTURE
      1 S1             1
@<TRIPOS>SET
LONE_PAIRS      STATIC     ATOMS    <user>   **** ""
3 37 38 39
DONOR_HYDROGENS      STATIC     ATOMS    <user>   **** ""
2 26 27
ATOM$BLUE        STATIC     ATOMS    COLORGROUP SYSTEM
3 37 38 39
ATOM$RED        STATIC     ATOMS    COLORGROUP SYSTEM
2 26 27
