#       Name:                AV-unprocessed.smi:79
#       Creating user name   scv26
#       Creation time:       Thu Mar 26 17:14:00 2020


#       File generated by GOLD software.
#

@<TRIPOS>MOLECULE
AV-unprocessed.smi:79
    66    69     1
SMALL
NO_CHARGES


@<TRIPOS>ATOM
      1 ****        -4.6378   0.9455  -4.9472 C.3            1 S1                 0.0000
      2 ****        -3.1225   0.9340  -5.1971 C.3            1 S1                 0.0000
      3 ****        -2.8766   1.5552  -6.4409 O.3            1 S1                 0.0000
      4 ****        -2.3248   1.6848  -4.1120 C.3            1 S1                 0.0000
      5 ****        -2.4112   1.0361  -2.7786 N.4            1 S1                 1.0000
      6 ****        -1.5776  -0.1917  -2.6631 C.3            1 S1                 0.0000
      7 ****        -1.7440  -0.8544  -1.2824 C.3            1 S1                 0.0000
      8 ****        -1.4689   0.0982  -0.2122 N.3            1 S1                 0.0000
      9 ****        -0.1512   0.1613   0.1095 C.ar           1 S1                 0.0000
     10 ****         0.6211   1.1926  -0.3225 N.ar           1 S1                 0.0000
     11 ****         1.9222   1.2322  -0.0201 C.ar           1 S1                 0.0000
     12 ****         2.6414   0.3564   0.6842 N.ar           1 S1                 0.0000
     13 ****         1.8723  -0.6852   1.1131 C.ar           1 S1                 0.0000
     14 ****         0.4822  -0.8608   0.8667 C.ar           1 S1                 0.0000
     15 ****         0.0405  -2.0413   1.4495 N.2            1 S1                 0.0000
     16 ****         1.1089  -2.5337   2.0155 C.2            1 S1                 0.0000
     17 ****         2.2516  -1.7778   1.8742 N.pl3          1 S1                 0.0000
     18 ****         3.5733  -2.0827   2.4001 C.3            1 S1                 0.0000
     19 ****         3.7859  -1.7063   3.8829 C.3            1 S1                 0.0000
     20 ****         3.5676  -0.1967   4.0962 C.3            1 S1                 0.0000
     21 ****         2.1972   0.1354   4.2009 O.3            1 S1                 0.0000
     22 ****         3.1493  -2.6393   4.9251 C.3            1 S1                 0.0000
     23 ****         4.4051  -3.2959   5.1962 O.3            1 S1                 0.0000
     24 ****         5.0946  -2.2588   4.4679 C.3            1 S1                 0.0000
     25 ****        -2.2889   1.3128  -0.2926 C.3            1 S1                 0.0000
     26 ****        -2.0977   2.2790   0.8923 C.3            1 S1                 0.0000
     27 ****        -2.1583   1.9963  -1.6718 C.3            1 S1                 0.0000
     28 ****        -4.8889   0.4402  -4.0146 H              1 S1                 0.0000
     29 ****        -5.1711   0.4327  -5.7485 H              1 S1                 0.0000
     30 ****        -5.0247   1.9636  -4.8892 H              1 S1                 0.0000
     31 ****        -2.7766  -0.0953  -5.2857 H              1 S1                 0.0000
     32 ****        -3.2177   2.4364  -6.4156 H              1 S1                 0.0000
     33 ****        -1.2750   1.7735  -4.3975 H              1 S1                 0.0000
     34 ****        -2.7084   2.7043  -4.0474 H              1 S1                 0.0000
     35 ****        -1.8497  -0.9116  -3.4335 H              1 S1                 0.0000
     36 ****        -0.5301   0.0650  -2.8293 H              1 S1                 0.0000
     37 ****        -2.7650  -1.2193  -1.1661 H              1 S1                 0.0000
     38 ****        -1.0975  -1.7300  -1.2062 H              1 S1                 0.0000
     39 ****         2.4642   2.0875  -0.3962 H              1 S1                 0.0000
     40 ****         1.0895  -3.4693   2.5544 H              1 S1                 0.0000
     41 ****         3.7442  -3.1500   2.2536 H              1 S1                 0.0000
     42 ****         4.3134  -1.5821   1.7748 H              1 S1                 0.0000
     43 ****         4.0476   0.1390   5.0159 H              1 S1                 0.0000
     44 ****         4.0145   0.3847   3.2893 H              1 S1                 0.0000
     45 ****         2.1244   1.0677   4.3375 H              1 S1                 0.0000
     46 ****         2.7662  -2.1241   5.8073 H              1 S1                 0.0000
     47 ****         2.4027  -3.3231   4.5232 H              1 S1                 0.0000
     48 ****         5.7815  -2.6599   3.7217 H              1 S1                 0.0000
     49 ****         5.6141  -1.5730   5.1390 H              1 S1                 0.0000
     50 ****        -3.3182   0.9596  -0.2170 H              1 S1                 0.0000
     51 ****        -2.8440   3.0732   0.8637 H              1 S1                 0.0000
     52 ****        -1.1200   2.7594   0.8887 H              1 S1                 0.0000
     53 ****        -2.2117   1.7585   1.8438 H              1 S1                 0.0000
     54 ****        -1.1712   2.4420  -1.7976 H              1 S1                 0.0000
     55 ****        -2.8772   2.8141  -1.7359 H              1 S1                 0.0000
     56 ****        -3.3709   0.7419  -2.6680 H              1 S1                 0.0000
     57 ****        -3.3298   1.0405  -7.1686 LP             1 S1                 0.0000
     58 ****        -1.8921   1.5811  -6.6144 LP             1 S1                 0.0000
     59 ****        -1.8205  -0.2502   0.6567 LP             1 S1                 0.0000
     60 ****         0.2143   1.9247  -0.8688 LP             1 S1                 0.0000
     61 ****         3.6188   0.4514   0.8733 LP             1 S1                 0.0000
     62 ****        -0.8827  -2.4255   1.4383 LP             1 S1                 0.0000
     63 ****         1.7901  -0.3516   4.9737 LP             1 S1                 0.0000
     64 ****         1.7228  -0.1202   3.3586 LP             1 S1                 0.0000
     65 ****         4.4876  -4.2058   4.7897 LP             1 S1                 0.0000
     66 ****         4.6422  -3.3417   6.1667 LP             1 S1                 0.0000
@<TRIPOS>BOND
    1    1    2 1     
    2    1   28 1     
    3    1   29 1     
    4    1   30 1     
    5    2    3 1     
    6    2    4 1     
    7    2   31 1     
    8    3   32 1     
    9    4    5 1     
   10    4   33 1     
   11    4   34 1     
   12    5   27 1     
   13    5    6 1     
   14    5   56 1     
   15    6    7 1     
   16    6   35 1     
   17    6   36 1     
   18    7    8 1     
   19    7   37 1     
   20    7   38 1     
   21    8    9 1     
   22    8   25 1     
   23    9   14 ar    
   24    9   10 ar    
   25   10   11 ar    
   26   11   12 ar    
   27   11   39 1     
   28   12   13 ar    
   29   13   17 1     
   30   13   14 ar    
   31   14   15 1     
   32   15   16 2     
   33   16   17 1     
   34   16   40 1     
   35   17   18 1     
   36   18   19 1     
   37   18   41 1     
   38   18   42 1     
   39   19   24 1     
   40   19   20 1     
   41   19   22 1     
   42   20   21 1     
   43   20   43 1     
   44   20   44 1     
   45   21   45 1     
   46   22   23 1     
   47   22   46 1     
   48   22   47 1     
   49   23   24 1     
   50   24   48 1     
   51   24   49 1     
   52   25   26 1     
   53   25   27 1     
   54   25   50 1     
   55   26   51 1     
   56   26   52 1     
   57   26   53 1     
   58   27   54 1     
   59   27   55 1     
   60    3   57 1     
   61    3   58 1     
   62    8   59 1     
   63   10   60 1     
   64   12   61 1     
   65   15   62 1     
   66   21   63 1     
   67   21   64 1     
   68   23   65 1     
   69   23   66 1     
@<TRIPOS>SUBSTRUCTURE
      1 S1             1
@<TRIPOS>SET
LONE_PAIRS      STATIC     ATOMS    <user>   **** ""
10 57 58 59 60 61 62 63 64 65 66
DONOR_HYDROGENS      STATIC     ATOMS    <user>   **** ""
3 32 56 45
ATOM$BLUE        STATIC     ATOMS    COLORGROUP SYSTEM
10 57 58 59 60 61 62 63 64 65 66
ATOM$RED        STATIC     ATOMS    COLORGROUP SYSTEM
3 32 56 45
