AV-unprocessed.smi:3126|AV-procd|sdf|11913|dock6
  -GOLD-   2272017293D 1   1.00000     0.00000
 Structure written by MMmdl.
 42 43  0  0  0  0  0  0  0  0  2 V2000
  154.7700  135.5341  164.0160 C   0  0  0  0  0  0  0  0  0  0  0  0
  154.0478  136.8368  164.3860 C   0  0  0  0  0  0  0  0  0  0  0  0
  154.8687  138.1132  164.1109 C   0  0  1  0  0  0  0  0  0  0  0  0
  156.2360  138.1007  164.8271 C   0  0  0  0  0  0  0  0  0  0  0  0
  157.0508  139.3676  164.5227 C   0  0  0  0  0  0  0  0  0  0  0  0
  157.2422  139.5644  163.0101 C   0  0  0  0  0  0  0  0  0  0  0  0
  155.9019  139.5642  162.2517 C   0  0  2  0  0  0  0  0  0  0  0  0
  155.1342  140.7984  162.5337 N   0  3  0  0  0  0  0  0  0  0  0  0
  154.0702  141.1058  161.5579 C   0  0  0  0  0  0  0  0  0  0  0  0
  153.1616  142.2301  162.0710 C   0  0  0  0  0  0  0  0  0  0  0  0
  152.6990  143.1425  160.9525 C   0  0  0  0  0  0  0  0  0  0  0  0
  153.1012  142.9145  159.6201 C   0  0  0  0  0  0  0  0  0  0  0  0
  152.6506  143.7919  158.6155 C   0  0  0  0  0  0  0  0  0  0  0  0
  151.8148  144.8640  158.9868 C   0  0  0  0  0  0  0  0  0  0  0  0
  151.4245  145.0926  160.2594 N   0  0  0  0  0  0  0  0  0  0  0  0
  151.8596  144.2458  161.2166 C   0  0  0  0  0  0  0  0  0  0  0  0
  155.0700  138.3124  162.5925 C   0  0  0  0  0  0  0  0  0  0  0  0
  154.1703  134.6692  164.3004 H   0  0  0  0  0  0  0  0  0  0  0  0
  155.7282  135.4540  164.5298 H   0  0  0  0  0  0  0  0  0  0  0  0
  154.9533  135.4635  162.9442 H   0  0  0  0  0  0  0  0  0  0  0  0
  153.0934  136.8873  163.8604 H   0  0  0  0  0  0  0  0  0  0  0  0
  153.8028  136.7930  165.4478 H   0  0  0  0  0  0  0  0  0  0  0  0
  154.2954  138.9622  164.4867 H   0  0  0  0  0  0  0  0  0  0  0  0
  156.1013  138.0209  165.9054 H   0  0  0  0  0  0  0  0  0  0  0  0
  156.8043  137.2208  164.5220 H   0  0  0  0  0  0  0  0  0  0  0  0
  156.5486  140.2368  164.9488 H   0  0  0  0  0  0  0  0  0  0  0  0
  158.0234  139.3062  165.0119 H   0  0  0  0  0  0  0  0  0  0  0  0
  157.7888  140.4883  162.8162 H   0  0  0  0  0  0  0  0  0  0  0  0
  157.8675  138.7571  162.6264 H   0  0  0  0  0  0  0  0  0  0  0  0
  156.1235  139.5306  161.1837 H   0  0  0  0  0  0  0  0  0  0  0  0
  154.7085  140.7025  163.4446 H   0  0  0  0  0  0  0  0  0  0  0  0
  154.5242  141.3945  160.6085 H   0  0  0  0  0  0  0  0  0  0  0  0
  153.4822  140.2047  161.3773 H   0  0  0  0  0  0  0  0  0  0  0  0
  152.2871  141.8082  162.5685 H   0  0  0  0  0  0  0  0  0  0  0  0
  153.6862  142.8247  162.8206 H   0  0  0  0  0  0  0  0  0  0  0  0
  153.7448  142.0835  159.3709 H   0  0  0  0  0  0  0  0  0  0  0  0
  152.9379  143.6475  157.5844 H   0  0  0  0  0  0  0  0  0  0  0  0
  151.4509  145.5561  158.2419 H   0  0  0  0  0  0  0  0  0  0  0  0
  151.5304  144.4575  162.2232 H   0  0  0  0  0  0  0  0  0  0  0  0
  155.5721  137.4342  162.1835 H   0  0  0  0  0  0  0  0  0  0  0  0
  154.1042  138.3660  162.0880 H   0  0  0  0  0  0  0  0  0  0  0  0
  155.7800  141.5746  162.5641 H   0  0  0  0  0  0  0  0  0  0  0  0
  1  2  1  0  0  0  0
  1 18  1  0  0  0  0
  1 19  1  0  0  0  0
  1 20  1  0  0  0  0
  2  3  1  0  0  0  0
  2 21  1  0  0  0  0
  2 22  1  0  0  0  0
  3 17  1  0  0  0  0
  3  4  1  0  0  0  0
  3 23  1  0  0  0  0
  4  5  1  0  0  0  0
  4 24  1  0  0  0  0
  4 25  1  0  0  0  0
  5  6  1  0  0  0  0
  5 26  1  0  0  0  0
  5 27  1  0  0  0  0
  6  7  1  0  0  0  0
  6 28  1  0  0  0  0
  6 29  1  0  0  0  0
  7  8  1  0  0  0  0
  7 17  1  0  0  0  0
  7 30  1  0  0  0  0
  8  9  1  0  0  0  0
  8 31  1  0  0  0  0
  8 42  1  0  0  0  0
  9 10  1  0  0  0  0
  9 32  1  0  0  0  0
  9 33  1  0  0  0  0
 10 11  1  0  0  0  0
 10 34  1  0  0  0  0
 10 35  1  0  0  0  0
 11 16  1  0  0  0  0
 11 12  2  0  0  0  0
 12 13  1  0  0  0  0
 12 36  1  0  0  0  0
 13 14  2  0  0  0  0
 13 37  1  0  0  0  0
 14 15  1  0  0  0  0
 14 38  1  0  0  0  0
 15 16  2  0  0  0  0
 16 39  1  0  0  0  0
 17 40  1  0  0  0  0
 17 41  1  0  0  0  0
M  CHG  1   8   1
M  END
> <s_m_source_file>
AV-unprocessed.smi

> <i_m_source_file_index>
3126

> <i_lp_mmshare_version>
43012

> <i_f3d_flags>
0

> <s_epik_input>
W0NIM11bQ0gyXVtDQEBIXTFbQ0gyXVtDSDJdW0NIMl1bQ0BIXShbQ0gyXTEpW05IXVtDSDJdW0NIMl1jMltjSF1bY0hdW2NIXW5bY0hdMg==

> <s_epik_cmdline>
J2VwaWtfcHl0aG9uJywgJy1waCcsICc3LjAnLCAnLXRuJywgJzgnLCAnLW1hJywgJzIwMCcsICctbWV0YWxfYmluZGluZycsICctaW1hZScsICc8aW5maWxlLm1hZT4nLCAnLW9tYWUnLCAnPG91dGZpbGUubWFlPic=

> <r_lp_tautomer_probability>
1

> <r_epik_Ionization_Penalty>
0.000947364

> <r_epik_Ionization_Penalty_Charging>
0.000286103

> <r_epik_Ionization_Penalty_Neutral>
0.000661261

> <r_epik_State_Penalty>
-0

> <r_epik_Charging_Adjusted_Penalty>
0.000286103

> <i_epik_Tot_Q>
1

> <i_epik_Tot_abs_Q>
1

> <r_epik_Metal_State_Penalty>
-0

> <b_epik_Metal_Only>
0

> <s_lp_Force_Field>
OPLS_2005

> <r_lp_Energy>
19.3892

> <b_lp_Chiralities_Consistent>
1

> <s_lp_Variant>
AV-unprocessed.smi:3126-4

> <Gold.Version>
5.8.1

> <Gold.Id.Protein>
6NUR|6NUR_protein|mol2

> <Gold.PLP.Fitness>
42.9418

> <Gold.PLP.PLP>
-43.7636

> <Gold.PLP.part.hbond>
-1.0000

> <Gold.PLP.part.metal>
0.0000

> <Gold.PLP.part.buried>
-5.6828

> <Gold.PLP.part.nonpolar>
-37.5398

> <Gold.PLP.part.repulsive>
0.1616

> <Gold.PLP.ligand.clash>
0.0000

> <Gold.PLP.ligand.torsion>
0.4305

> <Gold.PLP.Chemscore.Hbond>
0.0000

> <Gold.PLP.Chemscore.CHOScore>
0.0000

> <Gold.PLP.Chemscore.Metal>
0.0000

> <Gold.PLP.Chemscore.Internal.Correction>
0.0392

> <Gold.Rescore>
     Score         DG    S(hbond)    S(metal)    S(lipo)     H(rot)  DE(clash)    DE(int)     intcor
     17.30     -17.80       0.00        0.00     134.88       1.35       0.01       0.49       ----

> <Gold.Chemscore.Fitness>
17.3029

> <Gold.Chemscore.DG>
-17.8034

> <Gold.Chemscore.ZeroCoef>
-5.4800

> <Gold.Chemscore.Hbond>
0.0000

> <Gold.Chemscore.Metal>
0.0000

> <Gold.Chemscore.Lipo>
134.8826

> <Gold.Chemscore.Internal_Hbond>
0.0000

> <Gold.Chemscore.DEClash>
0.0095

> <Gold.Chemscore.DEInternal>
0.4911

> <Gold.Chemscore.Rot>
1.3507

> <Gold.Chemscore.Internal.Correction>
   9.000000E+99

> <Gold.Chemscore.Hbond.Weighted>
-0.0000

> <Gold.Chemscore.Metal.Weighted>
-0.0000

> <Gold.Chemscore.Lipo.Weighted>
-15.7813

> <Gold.Chemscore.Internal_Hbond.Weighted>
0.0000

> <Gold.Chemscore.DEClash.Weighted>
0.0095

> <Gold.Chemscore.DEInternal.Weighted>
0.4911

> <Gold.Chemscore.Rot.Weighted>
3.4579

> <Gold.Chemscore.Internal.Correction.Weighted>
   9.000000E+99

> <Gold.Protein.RotatedTorsions>
[ 6907 6896 6895 6894 ] final -122.60 input  -60.11 | X-H torsion
[ 7974 7965 7964 7962 ] final -103.13 input  175.53 | X-H torsion
[ 8008 7997 7996 7995 ] final -112.64 input   59.86 | X-H torsion
[ 10167 10162 10161 10158 ] final   42.90 input  -65.29 | X-H torsion
[ 10718 10713 10712 10709 ] final -151.29 input   66.30 | X-H torsion
[ 10763 10752 10751 10750 ] final   62.37 input  -60.55 | X-H torsion
[ 11005 11000 10999 10996 ] final   35.92 input  -57.11 | X-H torsion

> <Gold.Protein.ActiveResidues>
 VAL166  LYS551  ARG553  GLY616  TRP617  ASP618  TYR619  PRO620  LYS621  CYS622 
 ASP623  PHE694  ASN695  SER759  ASP760  ASP761  ALA762  ILE779  LEU786  VAL792 
 PHE793  MET794  SER795  GLU796  ALA797  LYS798  CYS799  TRP800  GLU811  SER814 

> <Gold.Protein.RotatedAtoms>
  150.8591  133.7670  159.2998 H   0  0  0  0  0  0  0  0  0  0  0  0  # atno 6907 bound_to 6896
  151.5318  135.1067  159.9914 H   0  0  0  0  0  0  0  0  0  0  0  0  # atno 6908 bound_to 6896
  152.4612  133.7783  159.6892 H   0  0  0  0  0  0  0  0  0  0  0  0  # atno 6909 bound_to 6896
  145.2598  140.9265  143.3047 H   0  0  0  0  0  0  0  0  0  0  0  0  # atno 7974 bound_to 7965
  155.0083  140.0394  157.2389 H   0  0  0  0  0  0  0  0  0  0  0  0  # atno 8008 bound_to 7997
  154.7482  140.2762  155.6291 H   0  0  0  0  0  0  0  0  0  0  0  0  # atno 8009 bound_to 7997
  156.2879  140.2652  156.2229 H   0  0  0  0  0  0  0  0  0  0  0  0  # atno 8010 bound_to 7997
  140.3498  144.2365  150.6147 H   0  0  0  0  0  0  0  0  0  0  0  0  # atno 10167 bound_to 10162
  156.4572  130.8196  151.2427 H   0  0  0  0  0  0  0  0  0  0  0  0  # atno 10718 bound_to 10713
  152.9980  135.5467  154.6182 H   0  0  0  0  0  0  0  0  0  0  0  0  # atno 10763 bound_to 10752
  154.5487  135.2825  155.1031 H   0  0  0  0  0  0  0  0  0  0  0  0  # atno 10764 bound_to 10752
  154.2279  135.6439  153.5218 H   0  0  0  0  0  0  0  0  0  0  0  0  # atno 10765 bound_to 10752
  140.2378  134.3451  155.7938 H   0  0  0  0  0  0  0  0  0  0  0  0  # atno 11005 bound_to 11000
  144.9428  139.4169  143.6440 LP  0  0  0  0  0  0  0  0  0  0  0  0  # atno 17320 bound_to 7965
  146.3278  139.8397  142.8893 LP  0  0  0  0  0  0  0  0  0  0  0  0  # atno 17321 bound_to 7965
  140.5230  143.2261  151.8359 LP  0  0  0  0  0  0  0  0  0  0  0  0  # atno 17342 bound_to 10162
  139.4828  144.4813  151.9302 LP  0  0  0  0  0  0  0  0  0  0  0  0  # atno 17343 bound_to 10162
  157.7500  131.0119  150.3362 LP  0  0  0  0  0  0  0  0  0  0  0  0  # atno 17370 bound_to 10713
  156.3754  130.3871  149.7143 LP  0  0  0  0  0  0  0  0  0  0  0  0  # atno 17371 bound_to 10713
  141.2213  133.7281  156.8836 LP  0  0  0  0  0  0  0  0  0  0  0  0  # atno 17394 bound_to 11000
  140.1684  134.9117  157.2803 LP  0  0  0  0  0  0  0  0  0  0  0  0  # atno 17395 bound_to 11000

$$$$
