AV-unprocessed.smi:2614|AV-procd|sdf|10214|dock8
  -GOLD-   2272014223D 1   1.00000     0.00000
 Structure written by MMmdl.
 24 25  0  0  0  0  0  0  0  0  2 V2000
  151.5612  137.9571  154.4990 C   0  0  0  0  0  0  0  0  0  0  0  0
  150.3666  138.8326  154.3309 C   0  0  0  0  0  0  0  0  0  0  0  0
  150.3392  140.1374  154.7304 N   0  0  0  0  0  0  0  0  0  0  0  0
  149.1010  140.4654  154.3783 C   0  0  0  0  0  0  0  0  0  0  0  0
  148.4924  141.8135  154.5864 C   0  0  0  0  0  0  0  0  0  0  0  0
  148.4352  139.4518  153.8078 N   0  0  0  0  0  0  0  0  0  0  0  0
  147.0914  139.3840  153.3049 C   0  0  0  0  0  0  0  0  0  0  0  0
  146.0585  138.4035  153.8657 C   0  0  0  0  0  0  0  0  0  0  0  0
  145.5102  138.3080  152.5191 N   0  3  0  0  0  0  0  0  0  0  0  0
  146.7985  138.7093  151.9667 C   0  0  0  0  0  0  0  0  0  0  0  0
  149.2492  138.3703  153.7749 N   0  0  0  0  0  0  0  0  0  0  0  0
  152.4037  138.5248  154.8951 H   0  0  0  0  0  0  0  0  0  0  0  0
  151.8549  137.5291  153.5402 H   0  0  0  0  0  0  0  0  0  0  0  0
  151.3378  137.1434  155.1893 H   0  0  0  0  0  0  0  0  0  0  0  0
  149.2072  142.4850  155.0630 H   0  0  0  0  0  0  0  0  0  0  0  0
  147.6127  141.7341  155.2254 H   0  0  0  0  0  0  0  0  0  0  0  0
  148.1966  142.2446  153.6300 H   0  0  0  0  0  0  0  0  0  0  0  0
  146.7009  140.4041  153.3231 H   0  0  0  0  0  0  0  0  0  0  0  0
  146.4765  137.4514  154.1988 H   0  0  0  0  0  0  0  0  0  0  0  0
  145.3702  138.8285  154.5967 H   0  0  0  0  0  0  0  0  0  0  0  0
  145.2225  137.3757  152.2576 H   0  0  0  0  0  0  0  0  0  0  0  0
  146.7264  139.3866  151.1152 H   0  0  0  0  0  0  0  0  0  0  0  0
  147.4434  137.8531  151.7592 H   0  0  0  0  0  0  0  0  0  0  0  0
  144.8025  139.0105  152.3582 H   0  0  0  0  0  0  0  0  0  0  0  0
  1  2  1  0  0  0  0
  1 12  1  0  0  0  0
  1 13  1  0  0  0  0
  1 14  1  0  0  0  0
  2 11  2  0  0  0  0
  2  3  1  0  0  0  0
  3  4  2  0  0  0  0
  4  5  1  0  0  0  0
  4  6  1  0  0  0  0
  5 15  1  0  0  0  0
  5 16  1  0  0  0  0
  5 17  1  0  0  0  0
  6  7  1  0  0  0  0
  6 11  1  0  0  0  0
  7 10  1  0  0  0  0
  7  8  1  0  0  0  0
  7 18  1  0  0  0  0
  8  9  1  0  0  0  0
  8 19  1  0  0  0  0
  8 20  1  0  0  0  0
  9 10  1  0  0  0  0
  9 21  1  0  0  0  0
  9 24  1  0  0  0  0
 10 22  1  0  0  0  0
 10 23  1  0  0  0  0
M  CHG  1   9   1
M  END
> <s_m_source_file>
AV-unprocessed.smi

> <i_m_source_file_index>
2614

> <i_lp_mmshare_version>
43012

> <i_f3d_flags>
0

> <s_epik_input>
W0NIM11jMW5jKFtDSDNdKW4objEpW0NIXTJbQ0gyXVtOSF1bQ0gyXTI=

> <s_epik_cmdline>
J2VwaWtfcHl0aG9uJywgJy1waCcsICc3LjAnLCAnLXRuJywgJzgnLCAnLW1hJywgJzIwMCcsICctbWV0YWxfYmluZGluZycsICctaW1hZScsICc8aW5maWxlLm1hZT4nLCAnLW9tYWUnLCAnPG91dGZpbGUubWFlPic=

> <r_lp_tautomer_probability>
1

> <r_epik_Ionization_Penalty>
0.00796611

> <r_epik_Ionization_Penalty_Charging>
0.00792139

> <r_epik_Ionization_Penalty_Neutral>
4.47227e-05

> <r_epik_State_Penalty>
0.00594323

> <r_epik_Charging_Adjusted_Penalty>
0.0138646

> <i_epik_Tot_Q>
1

> <i_epik_Tot_abs_Q>
1

> <r_epik_Metal_State_Penalty>
-0

> <b_epik_Metal_Only>
0

> <s_lp_Force_Field>
OPLS_2005

> <r_lp_Energy>
14.7939

> <b_lp_Chiralities_Consistent>
1

> <s_lp_Variant>
AV-unprocessed.smi:2614-1

> <Gold.Version>
5.8.1

> <Gold.Id.Protein>
6NUR|6NUR_protein|mol2

> <Gold.PLP.Fitness>
29.6538

> <Gold.PLP.PLP>
-20.8049

> <Gold.PLP.part.hbond>
-2.5268

> <Gold.PLP.part.metal>
0.0000

> <Gold.PLP.part.buried>
0.3141

> <Gold.PLP.part.nonpolar>
-20.8365

> <Gold.PLP.part.repulsive>
2.1668

> <Gold.PLP.ligand.clash>
0.0000

> <Gold.PLP.ligand.torsion>
0.1971

> <Gold.PLP.Chemscore.Hbond>
3.0000

> <Gold.PLP.Chemscore.CHOScore>
0.0000

> <Gold.PLP.Chemscore.Metal>
0.0000

> <Gold.Chemscore.Hbonds>
donor molecule, donor type, donor heavy atom, donor atom, acceptor molecule, acceptor atom, score
      L1  H     9    24       P1 10175  2.00
      P1  H  7989  7998       L1     3  1.00

> <Gold.PLP.Chemscore.Internal.Correction>
0.2431

> <Gold.Rescore>
     Score         DG    S(hbond)    S(metal)    S(lipo)     H(rot)  DE(clash)    DE(int)     intcor
     11.38     -12.18       1.63        0.00      32.55       1.00       0.64       0.16       ----

> <Gold.Chemscore.Fitness>
11.3804

> <Gold.Chemscore.DG>
-12.1760

> <Gold.Chemscore.ZeroCoef>
-5.4800

> <Gold.Chemscore.Hbond>
1.6311

> <Gold.Chemscore.Metal>
0.0000

> <Gold.Chemscore.Lipo>
32.5469

> <Gold.Chemscore.Internal_Hbond>
0.0000

> <Gold.Chemscore.DEClash>
0.6364

> <Gold.Chemscore.DEInternal>
0.1592

> <Gold.Chemscore.Rot>
1.0000

> <Gold.Chemscore.Internal.Correction>
   9.000000E+99

> <Gold.Chemscore.Hbonds>
donor molecule, donor type, donor heavy atom, donor atom, acceptor molecule, acceptor atom, score
      L1  H     9    24       P1 10175  1.00
      P1  H  7989  7998       L1     3  0.20

> <Gold.Chemscore.Hbond.Weighted>
-5.4480

> <Gold.Chemscore.Metal.Weighted>
-0.0000

> <Gold.Chemscore.Lipo.Weighted>
-3.8080

> <Gold.Chemscore.Internal_Hbond.Weighted>
0.0000

> <Gold.Chemscore.DEClash.Weighted>
0.6364

> <Gold.Chemscore.DEInternal.Weighted>
0.1592

> <Gold.Chemscore.Rot.Weighted>
2.5600

> <Gold.Chemscore.Internal.Correction.Weighted>
   9.000000E+99

> <Gold.Protein.RotatedTorsions>
[ 6907 6896 6895 6894 ] final   75.75 input  -60.11 | X-H torsion
[ 7974 7965 7964 7962 ] final  104.01 input  175.53 | X-H torsion
[ 8008 7997 7996 7995 ] final   72.85 input   59.86 | X-H torsion
[ 10167 10162 10161 10158 ] final  168.10 input  -65.29 | X-H torsion
[ 10718 10713 10712 10709 ] final  -64.73 input   66.30 | X-H torsion
[ 10763 10752 10751 10750 ] final  120.25 input  -60.55 | X-H torsion
[ 11005 11000 10999 10996 ] final  110.52 input  -57.11 | X-H torsion

> <Gold.Protein.ActiveResidues>
 VAL166  LYS551  ARG553  GLY616  TRP617  ASP618  TYR619  PRO620  LYS621  CYS622 
 ASP623  PHE694  ASN695  SER759  ASP760  ASP761  ALA762  ILE779  LEU786  VAL792 
 PHE793  MET794  SER795  GLU796  ALA797  LYS798  CYS799  TRP800  GLU811  SER814 

> <Gold.Protein.RotatedAtoms>
  152.5041  134.4073  159.9436 H   0  0  0  0  0  0  0  0  0  0  0  0  # atno 6907 bound_to 6896
  151.4039  133.3742  159.2743 H   0  0  0  0  0  0  0  0  0  0  0  0  # atno 6908 bound_to 6896
  150.9341  134.8776  159.7629 H   0  0  0  0  0  0  0  0  0  0  0  0  # atno 6909 bound_to 6896
  145.3384  139.2468  143.3622 H   0  0  0  0  0  0  0  0  0  0  0  0  # atno 7974 bound_to 7965
  155.7749  140.3483  155.5267 H   0  0  0  0  0  0  0  0  0  0  0  0  # atno 8008 bound_to 7997
  155.8785  140.0998  157.1522 H   0  0  0  0  0  0  0  0  0  0  0  0  # atno 8009 bound_to 7997
  154.4023  140.1327  156.4154 H   0  0  0  0  0  0  0  0  0  0  0  0  # atno 8010 bound_to 7997
  139.4960  144.3851  151.9579 H   0  0  0  0  0  0  0  0  0  0  0  0  # atno 10167 bound_to 10162
  156.0712  130.4237  150.1462 H   0  0  0  0  0  0  0  0  0  0  0  0  # atno 10718 bound_to 10713
  153.5956  135.3457  155.2927 H   0  0  0  0  0  0  0  0  0  0  0  0  # atno 10763 bound_to 10752
  154.8645  135.4215  154.2468 H   0  0  0  0  0  0  0  0  0  0  0  0  # atno 10764 bound_to 10752
  153.3285  135.7043  153.7039 H   0  0  0  0  0  0  0  0  0  0  0  0  # atno 10765 bound_to 10752
  139.8884  134.9486  156.6292 H   0  0  0  0  0  0  0  0  0  0  0  0  # atno 11005 bound_to 11000
  146.3017  140.3977  142.8701 LP  0  0  0  0  0  0  0  0  0  0  0  0  # atno 17320 bound_to 7965
  144.8809  140.7399  143.5987 LP  0  0  0  0  0  0  0  0  0  0  0  0  # atno 17321 bound_to 7965
  140.3288  144.3341  150.5992 LP  0  0  0  0  0  0  0  0  0  0  0  0  # atno 17342 bound_to 10162
  140.5662  143.2186  151.7679 LP  0  0  0  0  0  0  0  0  0  0  0  0  # atno 17343 bound_to 10162
  156.9512  130.9775  151.3498 LP  0  0  0  0  0  0  0  0  0  0  0  0  # atno 17370 bound_to 10713
  157.5783  130.8358  149.8487 LP  0  0  0  0  0  0  0  0  0  0  0  0  # atno 17371 bound_to 10713
  140.7679  133.8762  155.8469 LP  0  0  0  0  0  0  0  0  0  0  0  0  # atno 17394 bound_to 11000
  140.9866  134.1334  157.4446 LP  0  0  0  0  0  0  0  0  0  0  0  0  # atno 17395 bound_to 11000

$$$$
