AV-unprocessed.smi:1535|AV-procd|sdf|6179|dock7
  -GOLD-   22720 6333D 1   1.00000     0.00000
 Structure written by MMmdl.
 47 48  0  0  0  0  0  0  0  0  2 V2000
  152.5287  143.4665  162.2660 C   0  0  0  0  0  0  0  0  0  0  0  0
  152.2515  142.8560  160.9035 C   0  0  0  0  0  0  0  0  0  0  0  0
  152.5275  141.4857  160.6959 C   0  0  0  0  0  0  0  0  0  0  0  0
  152.2821  140.8790  159.4447 C   0  0  0  0  0  0  0  0  0  0  0  0
  152.4724  139.5737  159.0249 N   0  0  0  0  0  0  0  0  0  0  0  0
  152.0604  139.6350  157.7620 C   0  0  0  0  0  0  0  0  0  0  0  0
  151.6275  140.8289  157.3124 N   0  0  0  0  0  0  0  0  0  0  0  0
  151.1410  141.1449  155.9814 C   0  0  0  0  0  0  0  0  0  0  0  0
  149.6022  141.1537  155.9101 C   0  0  1  0  0  0  0  0  0  0  0  0
  149.1029  142.2033  156.7175 O   0  0  0  0  0  0  0  0  0  0  0  0
  149.0918  141.3506  154.4692 C   0  0  0  0  0  0  0  0  0  0  0  0
  147.6163  141.1936  154.3674 N   0  3  2  0  0  0  0  0  0  0  0  0
  147.2194  140.2061  153.3337 C   0  0  0  0  0  0  0  0  0  0  0  0
  146.9138  142.4955  154.2135 C   0  0  0  0  0  0  0  0  0  0  0  0
  145.4549  142.4554  154.7092 C   0  0  2  0  0  0  0  0  0  0  0  0
  144.7146  143.7575  154.3776 C   0  0  0  0  0  0  0  0  0  0  0  0
  145.3881  142.1725  156.1523 C   0  0  0  0  0  0  0  0  0  0  0  0
  145.3342  141.9462  157.2850 N   0  0  0  0  0  0  0  0  0  0  0  0
  151.7521  141.6884  158.3978 C   0  0  0  0  0  0  0  0  0  0  0  0
  151.4739  143.0527  158.5914 C   0  0  0  0  0  0  0  0  0  0  0  0
  151.7212  143.6421  159.8489 C   0  0  0  0  0  0  0  0  0  0  0  0
  151.4124  145.1150  160.0505 C   0  0  0  0  0  0  0  0  0  0  0  0
  152.9719  142.7382  162.9457 H   0  0  0  0  0  0  0  0  0  0  0  0
  151.6041  143.8267  162.7172 H   0  0  0  0  0  0  0  0  0  0  0  0
  153.2209  144.3041  162.1776 H   0  0  0  0  0  0  0  0  0  0  0  0
  152.9306  140.8867  161.4991 H   0  0  0  0  0  0  0  0  0  0  0  0
  152.0802  138.7628  157.1250 H   0  0  0  0  0  0  0  0  0  0  0  0
  151.5474  142.1111  155.6784 H   0  0  0  0  0  0  0  0  0  0  0  0
  151.5463  140.4056  155.2895 H   0  0  0  0  0  0  0  0  0  0  0  0
  149.2336  140.2123  156.3166 H   0  0  0  0  0  0  0  0  0  0  0  0
  148.9377  142.9566  156.1706 H   0  0  0  0  0  0  0  0  0  0  0  0
  149.3955  142.3442  154.1362 H   0  0  0  0  0  0  0  0  0  0  0  0
  149.5752  140.6466  153.7897 H   0  0  0  0  0  0  0  0  0  0  0  0
  147.4609  140.5687  152.3340 H   0  0  0  0  0  0  0  0  0  0  0  0
  146.1507  140.0001  153.3711 H   0  0  0  0  0  0  0  0  0  0  0  0
  147.7250  139.2517  153.4748 H   0  0  0  0  0  0  0  0  0  0  0  0
  147.4362  143.2605  154.7901 H   0  0  0  0  0  0  0  0  0  0  0  0
  146.9576  142.8120  153.1703 H   0  0  0  0  0  0  0  0  0  0  0  0
  144.9208  141.6449  154.2149 H   0  0  0  0  0  0  0  0  0  0  0  0
  143.6762  143.7105  154.7066 H   0  0  0  0  0  0  0  0  0  0  0  0
  144.7122  143.9475  153.3041 H   0  0  0  0  0  0  0  0  0  0  0  0
  145.1794  144.6134  154.8684 H   0  0  0  0  0  0  0  0  0  0  0  0
  151.0716  143.6399  157.7793 H   0  0  0  0  0  0  0  0  0  0  0  0
  150.9784  145.5574  159.1534 H   0  0  0  0  0  0  0  0  0  0  0  0
  152.3219  145.6662  160.2897 H   0  0  0  0  0  0  0  0  0  0  0  0
  150.7013  145.2484  160.8662 H   0  0  0  0  0  0  0  0  0  0  0  0
  147.3241  140.8237  155.2614 H   0  0  0  0  0  0  0  0  0  0  0  0
  1  2  1  0  0  0  0
  1 23  1  0  0  0  0
  1 24  1  0  0  0  0
  1 25  1  0  0  0  0
  2 21  1  0  0  0  0
  2  3  2  0  0  0  0
  3  4  1  0  0  0  0
  3 26  1  0  0  0  0
  4 19  2  0  0  0  0
  4  5  1  0  0  0  0
  5  6  2  0  0  0  0
  6  7  1  0  0  0  0
  6 27  1  0  0  0  0
  7  8  1  0  0  0  0
  7 19  1  0  0  0  0
  8  9  1  0  0  0  0
  8 28  1  0  0  0  0
  8 29  1  0  0  0  0
  9 10  1  0  0  0  0
  9 11  1  0  0  0  0
  9 30  1  0  0  0  0
 10 31  1  0  0  0  0
 11 12  1  0  0  0  0
 11 32  1  0  0  0  0
 11 33  1  0  0  0  0
 12 13  1  0  0  0  0
 12 14  1  0  0  0  0
 12 47  1  0  0  0  0
 13 34  1  0  0  0  0
 13 35  1  0  0  0  0
 13 36  1  0  0  0  0
 14 15  1  0  0  0  0
 14 37  1  0  0  0  0
 14 38  1  0  0  0  0
 15 16  1  0  0  0  0
 15 17  1  0  0  0  0
 15 39  1  0  0  0  0
 16 40  1  0  0  0  0
 16 41  1  0  0  0  0
 16 42  1  0  0  0  0
 17 18  3  0  0  0  0
 19 20  1  0  0  0  0
 20 21  2  0  0  0  0
 20 43  1  0  0  0  0
 21 22  1  0  0  0  0
 22 44  1  0  0  0  0
 22 45  1  0  0  0  0
 22 46  1  0  0  0  0
M  CHG  1  12   1
M  END
> <s_m_source_file>
AV-unprocessed.smi

> <i_m_source_file_index>
1535

> <i_lp_mmshare_version>
43012

> <i_f3d_flags>
0

> <s_epik_input>
W0NIM11jKFtjSF0xKWMoW0NIM10pW2NIXWMoYzEyKW4oW2NIXW4yKVtDSDJdW0NASF0oW09IXSlbQ0gyXU4oW0NIM10pW0NIMl1bQ0BIXShbQ0gzXSlDI04=

> <s_epik_cmdline>
J2VwaWtfcHl0aG9uJywgJy1waCcsICc3LjAnLCAnLXRuJywgJzgnLCAnLW1hJywgJzIwMCcsICctbWV0YWxfYmluZGluZycsICctaW1hZScsICc8aW5maWxlLm1hZT4nLCAnLW9tYWUnLCAnPG91dGZpbGUubWFlPic=

> <r_epik_Ionization_Penalty>
2.21058

> <r_epik_Ionization_Penalty_Charging>
2.12381

> <r_epik_Ionization_Penalty_Neutral>
0.0867699

> <r_epik_State_Penalty>
2.36208

> <r_epik_Charging_Adjusted_Penalty>
4.48589

> <i_epik_Tot_Q>
1

> <i_epik_Tot_abs_Q>
1

> <r_epik_Metal_State_Penalty>
2.2818

> <b_epik_Metal_Only>
0

> <s_lp_Force_Field>
OPLS_2005

> <r_lp_Energy>
14.9944

> <b_lp_Chiralities_Consistent>
1

> <s_lp_Variant>
AV-unprocessed.smi:1535-10

> <Gold.Version>
5.8.1

> <Gold.Id.Protein>
6NUR|6NUR_protein|mol2

> <Gold.PLP.Fitness>
51.3119

> <Gold.PLP.PLP>
-50.6710

> <Gold.PLP.part.hbond>
-1.0000

> <Gold.PLP.part.metal>
0.0000

> <Gold.PLP.part.buried>
-5.6852

> <Gold.PLP.part.nonpolar>
-42.5571

> <Gold.PLP.part.repulsive>
0.1748

> <Gold.PLP.ligand.clash>
0.0000

> <Gold.PLP.ligand.torsion>
1.2436

> <Gold.PLP.Chemscore.Hbond>
1.0000

> <Gold.PLP.Chemscore.CHOScore>
0.0000

> <Gold.PLP.Chemscore.Metal>
0.0000

> <Gold.Chemscore.Hbonds>
donor molecule, donor type, donor heavy atom, donor atom, acceptor molecule, acceptor atom, score
      L1  H    10    31       P1  8028  1.00

> <Gold.PLP.Chemscore.Internal.Correction>
0.1280

> <Gold.Rescore>
     Score         DG    S(hbond)    S(metal)    S(lipo)     H(rot)  DE(clash)    DE(int)     intcor
     15.58     -17.16       0.98        0.00     128.82       2.60       0.03       1.55       ----

> <Gold.Chemscore.Fitness>
15.5812

> <Gold.Chemscore.DG>
-17.1599

> <Gold.Chemscore.ZeroCoef>
-5.4800

> <Gold.Chemscore.Hbond>
0.9795

> <Gold.Chemscore.Metal>
0.0000

> <Gold.Chemscore.Lipo>
128.8225

> <Gold.Chemscore.Internal_Hbond>
0.0000

> <Gold.Chemscore.DEClash>
0.0288

> <Gold.Chemscore.DEInternal>
1.5499

> <Gold.Chemscore.Rot>
2.6031

> <Gold.Chemscore.Internal.Correction>
   9.000000E+99

> <Gold.Chemscore.Hbonds>
donor molecule, donor type, donor heavy atom, donor atom, acceptor molecule, acceptor atom, score
      L1  H    10    31       P1  8028  0.99

> <Gold.Chemscore.Hbond.Weighted>
-3.2717

> <Gold.Chemscore.Metal.Weighted>
-0.0000

> <Gold.Chemscore.Lipo.Weighted>
-15.0722

> <Gold.Chemscore.Internal_Hbond.Weighted>
0.0000

> <Gold.Chemscore.DEClash.Weighted>
0.0288

> <Gold.Chemscore.DEInternal.Weighted>
1.5499

> <Gold.Chemscore.Rot.Weighted>
6.6640

> <Gold.Chemscore.Internal.Correction.Weighted>
   9.000000E+99

> <Gold.Protein.RotatedTorsions>
[ 6907 6896 6895 6894 ] final  -44.04 input  -60.11 | X-H torsion
[ 7974 7965 7964 7962 ] final   42.37 input  175.53 | X-H torsion
[ 8008 7997 7996 7995 ] final  167.61 input   59.86 | X-H torsion
[ 10167 10162 10161 10158 ] final  -66.12 input  -65.29 | X-H torsion
[ 10718 10713 10712 10709 ] final -104.62 input   66.30 | X-H torsion
[ 10763 10752 10751 10750 ] final  132.24 input  -60.55 | X-H torsion
[ 11005 11000 10999 10996 ] final  -21.24 input  -57.11 | X-H torsion

> <Gold.Protein.ActiveResidues>
 VAL166  LYS551  ARG553  GLY616  TRP617  ASP618  TYR619  PRO620  LYS621  CYS622 
 ASP623  PHE694  ASN695  SER759  ASP760  ASP761  ALA762  ILE779  LEU786  VAL792 
 PHE793  MET794  SER795  GLU796  ALA797  LYS798  CYS799  TRP800  GLU811  SER814 

> <Gold.Protein.RotatedAtoms>
  150.9372  134.8784  159.7588 H   0  0  0  0  0  0  0  0  0  0  0  0  # atno 6907 bound_to 6896
  152.5064  134.3994  159.9421 H   0  0  0  0  0  0  0  0  0  0  0  0  # atno 6908 bound_to 6896
  151.4017  133.3715  159.2768 H   0  0  0  0  0  0  0  0  0  0  0  0  # atno 6909 bound_to 6896
  146.0746  139.5308  142.9576 H   0  0  0  0  0  0  0  0  0  0  0  0  # atno 7974 bound_to 7965
  156.1619  140.1612  156.8597 H   0  0  0  0  0  0  0  0  0  0  0  0  # atno 8008 bound_to 7997
  154.5169  140.0787  156.8134 H   0  0  0  0  0  0  0  0  0  0  0  0  # atno 8009 bound_to 7997
  155.3689  140.3399  155.4245 H   0  0  0  0  0  0  0  0  0  0  0  0  # atno 8010 bound_to 7997
  140.5680  143.2316  151.6596 H   0  0  0  0  0  0  0  0  0  0  0  0  # atno 10167 bound_to 10162
  156.0312  130.5524  150.7422 H   0  0  0  0  0  0  0  0  0  0  0  0  # atno 10718 bound_to 10713
  153.7875  135.3160  155.3374 H   0  0  0  0  0  0  0  0  0  0  0  0  # atno 10763 bound_to 10752
  154.8138  135.4649  154.0591 H   0  0  0  0  0  0  0  0  0  0  0  0  # atno 10764 bound_to 10752
  153.1899  135.6907  153.8453 H   0  0  0  0  0  0  0  0  0  0  0  0  # atno 10765 bound_to 10752
  140.8542  133.7835  156.0000 H   0  0  0  0  0  0  0  0  0  0  0  0  # atno 11005 bound_to 11000
  145.6329  141.0300  143.1853 LP  0  0  0  0  0  0  0  0  0  0  0  0  # atno 17320 bound_to 7965
  144.7253  139.7895  143.7367 LP  0  0  0  0  0  0  0  0  0  0  0  0  # atno 17321 bound_to 7965
  139.5103  144.3548  152.0618 LP  0  0  0  0  0  0  0  0  0  0  0  0  # atno 17342 bound_to 10162
  140.2682  144.3993  150.6160 LP  0  0  0  0  0  0  0  0  0  0  0  0  # atno 17343 bound_to 10162
  157.4988  131.0917  151.0339 LP  0  0  0  0  0  0  0  0  0  0  0  0  # atno 17370 bound_to 10713
  157.0726  130.5870  149.5405 LP  0  0  0  0  0  0  0  0  0  0  0  0  # atno 17371 bound_to 10713
  140.8756  134.2674  157.5169 LP  0  0  0  0  0  0  0  0  0  0  0  0  # atno 17394 bound_to 11000
  139.8705  134.9589  156.4315 LP  0  0  0  0  0  0  0  0  0  0  0  0  # atno 17395 bound_to 11000

$$$$
