AV-unprocessed.smi:2058|AV-procd|sdf|8344|dock4
  -GOLD-   2272011 13D 1   1.00000     0.00000
 Structure written by MMmdl.
 42 43  0  0  0  0  0  0  0  0  1 V2000
  145.1725  136.8089  153.5114 C   0  0  0  0  0  0  0  0  0  0  0  0
  145.8378  137.6364  152.4005 C   0  0  2  0  0  0  0  0  0  0  0  0
  145.8949  136.9102  151.0405 C   0  0  0  0  0  0  0  0  0  0  0  0
  146.2149  137.7995  149.9896 O   0  0  0  0  0  0  0  0  0  0  0  0
  147.1686  138.0741  152.8162 N   0  0  0  0  0  0  0  0  0  0  0  0
  147.4348  138.8848  153.8503 C   0  0  0  0  0  0  0  0  0  0  0  0
  146.5674  139.3398  154.5953 O   0  0  0  0  0  0  0  0  0  0  0  0
  148.7552  139.1127  153.9576 N   0  0  0  0  0  0  0  0  0  0  0  0
  149.4489  139.9286  154.8928 C   0  0  0  0  0  0  0  0  0  0  0  0
  150.8416  139.7562  155.0086 C   0  0  0  0  0  0  0  0  0  0  0  0
  151.5636  140.5572  155.9131 C   0  0  0  0  0  0  0  0  0  0  0  0
  150.8729  141.5227  156.6820 C   0  0  0  0  0  0  0  0  0  0  0  0
  151.5756  142.3350  157.5988 N   0  0  0  0  0  0  0  0  0  0  0  0
  151.5190  141.8975  158.9953 C   0  0  0  0  0  0  0  0  0  0  0  0
  152.6166  142.5744  159.8342 C   0  0  0  0  0  0  0  0  0  0  0  0
  152.5536  144.1023  159.6949 C   0  0  0  0  0  0  0  0  0  0  0  0
  152.6231  144.4976  158.2126 C   0  0  0  0  0  0  0  0  0  0  0  0
  151.5293  143.7860  157.3977 C   0  0  0  0  0  0  0  0  0  0  0  0
  149.5351  141.7011  156.5579 N   0  0  0  0  0  0  0  0  0  0  0  0
  148.8458  140.9301  155.6906 C   0  0  0  0  0  0  0  0  0  0  0  0
  144.1724  136.4915  153.2155 H   0  0  0  0  0  0  0  0  0  0  0  0
  145.0744  137.3924  154.4274 H   0  0  0  0  0  0  0  0  0  0  0  0
  145.7492  135.9148  153.7499 H   0  0  0  0  0  0  0  0  0  0  0  0
  145.2227  138.5280  152.2654 H   0  0  0  0  0  0  0  0  0  0  0  0
  146.6588  136.1330  151.0685 H   0  0  0  0  0  0  0  0  0  0  0  0
  144.9499  136.4132  150.8186 H   0  0  0  0  0  0  0  0  0  0  0  0
  145.4099  138.1280  149.6198 H   0  0  0  0  0  0  0  0  0  0  0  0
  147.9439  137.7476  152.2584 H   0  0  0  0  0  0  0  0  0  0  0  0
  149.3422  138.6130  153.3056 H   0  0  0  0  0  0  0  0  0  0  0  0
  151.3565  139.0180  154.4112 H   0  0  0  0  0  0  0  0  0  0  0  0
  152.6331  140.4338  155.9959 H   0  0  0  0  0  0  0  0  0  0  0  0
  150.5370  142.1505  159.3974 H   0  0  0  0  0  0  0  0  0  0  0  0
  151.6222  140.8172  159.0859 H   0  0  0  0  0  0  0  0  0  0  0  0
  152.5152  142.2894  160.8815 H   0  0  0  0  0  0  0  0  0  0  0  0
  153.5950  142.2180  159.5093 H   0  0  0  0  0  0  0  0  0  0  0  0
  151.6266  144.4746  160.1326 H   0  0  0  0  0  0  0  0  0  0  0  0
  153.3709  144.5658  160.2482 H   0  0  0  0  0  0  0  0  0  0  0  0
  152.5226  145.5779  158.1072 H   0  0  0  0  0  0  0  0  0  0  0  0
  153.6034  144.2369  157.8117 H   0  0  0  0  0  0  0  0  0  0  0  0
  151.6631  144.0242  156.3416 H   0  0  0  0  0  0  0  0  0  0  0  0
  150.5457  144.1563  157.6900 H   0  0  0  0  0  0  0  0  0  0  0  0
  147.7919  141.1520  155.6388 H   0  0  0  0  0  0  0  0  0  0  0  0
  1  2  1  0  0  0  0
  1 21  1  0  0  0  0
  1 22  1  0  0  0  0
  1 23  1  0  0  0  0
  2  3  1  0  0  0  0
  2  5  1  0  0  0  0
  2 24  1  0  0  0  0
  3  4  1  0  0  0  0
  3 25  1  0  0  0  0
  3 26  1  0  0  0  0
  4 27  1  0  0  0  0
  5  6  1  0  0  0  0
  5 28  1  0  0  0  0
  6  7  2  0  0  0  0
  6  8  1  0  0  0  0
  8  9  1  0  0  0  0
  8 29  1  0  0  0  0
  9 20  1  0  0  0  0
  9 10  2  0  0  0  0
 10 11  1  0  0  0  0
 10 30  1  0  0  0  0
 11 12  2  0  0  0  0
 11 31  1  0  0  0  0
 12 13  1  0  0  0  0
 12 19  1  0  0  0  0
 13 18  1  0  0  0  0
 13 14  1  0  0  0  0
 14 15  1  0  0  0  0
 14 32  1  0  0  0  0
 14 33  1  0  0  0  0
 15 16  1  0  0  0  0
 15 34  1  0  0  0  0
 15 35  1  0  0  0  0
 16 17  1  0  0  0  0
 16 36  1  0  0  0  0
 16 37  1  0  0  0  0
 17 18  1  0  0  0  0
 17 38  1  0  0  0  0
 17 39  1  0  0  0  0
 18 40  1  0  0  0  0
 18 41  1  0  0  0  0
 19 20  2  0  0  0  0
 20 42  1  0  0  0  0
M  END
> <s_m_source_file>
AV-unprocessed.smi

> <i_m_source_file_index>
2058

> <i_lp_mmshare_version>
43012

> <i_f3d_flags>
0

> <s_epik_input>
W09IXVtDSDJdW0NAQEhdKFtDSDNdKVtOSF1DKD1PKVtOSF1jMVtjSF1bY0hdYyhuW2NIXTEpTjJbQ0gyXVtDSDJdW0NIMl1bQ0gyXVtDSDJdMg==

> <s_epik_cmdline>
J2VwaWtfcHl0aG9uJywgJy1waCcsICc3LjAnLCAnLXRuJywgJzgnLCAnLW1hJywgJzIwMCcsICctbWV0YWxfYmluZGluZycsICctaW1hZScsICc8aW5maWxlLm1hZT4nLCAnLW9tYWUnLCAnPG91dGZpbGUubWFlPic=

> <r_lp_tautomer_probability>
1

> <r_epik_Ionization_Penalty>
0.104828

> <r_epik_Ionization_Penalty_Charging>
0

> <r_epik_Ionization_Penalty_Neutral>
0.104828

> <r_epik_State_Penalty>
0.0887547

> <r_epik_Charging_Adjusted_Penalty>
0.0887547

> <i_epik_Tot_Q>
0

> <i_epik_Tot_abs_Q>
0

> <r_epik_Metal_State_Penalty>
0.0759464

> <b_epik_Metal_Only>
0

> <s_lp_Force_Field>
OPLS_2005

> <r_lp_Energy>
20.4208

> <b_lp_Chiralities_Consistent>
1

> <s_lp_Variant>
AV-unprocessed.smi:2058-1

> <Gold.Version>
5.8.1

> <Gold.Id.Protein>
6NUR|6NUR_protein|mol2

> <Gold.PLP.Fitness>
45.8187

> <Gold.PLP.PLP>
-38.7532

> <Gold.PLP.part.hbond>
-3.7057

> <Gold.PLP.part.metal>
0.0000

> <Gold.PLP.part.buried>
-1.5729

> <Gold.PLP.part.nonpolar>
-34.9238

> <Gold.PLP.part.repulsive>
0.3504

> <Gold.PLP.ligand.clash>
0.0000

> <Gold.PLP.ligand.torsion>
0.4754

> <Gold.PLP.Chemscore.Hbond>
2.5200

> <Gold.PLP.Chemscore.CHOScore>
0.0000

> <Gold.PLP.Chemscore.Metal>
0.0000

> <Gold.Chemscore.Hbonds>
donor molecule, donor type, donor heavy atom, donor atom, acceptor molecule, acceptor atom, score
      L1  H     4    27       P1 10171  1.00
      L1  H     5    28       P1  7948  0.88
      P1  H  7954  7966       L1     4  0.61

> <Gold.PLP.Chemscore.Internal.Correction>
0.4563

> <Gold.Rescore>
     Score         DG    S(hbond)    S(metal)    S(lipo)     H(rot)  DE(clash)    DE(int)     intcor
     19.62     -21.16       2.86        0.00      97.10       2.05       0.03       1.51       ----

> <Gold.Chemscore.Fitness>
19.6214

> <Gold.Chemscore.DG>
-21.1556

> <Gold.Chemscore.ZeroCoef>
-5.4800

> <Gold.Chemscore.Hbond>
2.8594

> <Gold.Chemscore.Metal>
0.0000

> <Gold.Chemscore.Lipo>
97.1028

> <Gold.Chemscore.Internal_Hbond>
0.0000

> <Gold.Chemscore.DEClash>
0.0291

> <Gold.Chemscore.DEInternal>
1.5051

> <Gold.Chemscore.Rot>
2.0453

> <Gold.Chemscore.Internal.Correction>
   9.000000E+99

> <Gold.Chemscore.Hbonds>
donor molecule, donor type, donor heavy atom, donor atom, acceptor molecule, acceptor atom, score
      L1  H     4    27       P1 10171  0.94
      L1  H     5    28       P1  7948  0.87
      P1  H  7954  7966       L1     4  0.36

> <Gold.Chemscore.Hbond.Weighted>
-9.5505

> <Gold.Chemscore.Metal.Weighted>
-0.0000

> <Gold.Chemscore.Lipo.Weighted>
-11.3610

> <Gold.Chemscore.Internal_Hbond.Weighted>
0.0000

> <Gold.Chemscore.DEClash.Weighted>
0.0291

> <Gold.Chemscore.DEInternal.Weighted>
1.5051

> <Gold.Chemscore.Rot.Weighted>
5.2360

> <Gold.Chemscore.Internal.Correction.Weighted>
   9.000000E+99

> <Gold.Protein.RotatedTorsions>
[ 6907 6896 6895 6894 ] final  110.57 input  -60.11 | X-H torsion
[ 7974 7965 7964 7962 ] final   80.31 input  175.53 | X-H torsion
[ 8008 7997 7996 7995 ] final  -92.99 input   59.86 | X-H torsion
[ 10167 10162 10161 10158 ] final   84.17 input  -65.29 | X-H torsion
[ 10718 10713 10712 10709 ] final  109.20 input   66.30 | X-H torsion
[ 10763 10752 10751 10750 ] final -127.68 input  -60.55 | X-H torsion
[ 11005 11000 10999 10996 ] final  -98.91 input  -57.11 | X-H torsion

> <Gold.Protein.ActiveResidues>
 VAL166  LYS551  ARG553  GLY616  TRP617  ASP618  TYR619  PRO620  LYS621  CYS622 
 ASP623  PHE694  ASN695  SER759  ASP760  ASP761  ALA762  ILE779  LEU786  VAL792 
 PHE793  MET794  SER795  GLU796  ALA797  LYS798  CYS799  TRP800  GLU811  SER814 

> <Gold.Protein.RotatedAtoms>
  152.5013  133.8781  159.7332 H   0  0  0  0  0  0  0  0  0  0  0  0  # atno 6907 bound_to 6896
  150.9250  133.6825  159.2830 H   0  0  0  0  0  0  0  0  0  0  0  0  # atno 6908 bound_to 6896
  151.4189  135.1000  159.9660 H   0  0  0  0  0  0  0  0  0  0  0  0  # atno 6909 bound_to 6896
  145.6529  139.2452  143.1966 H   0  0  0  0  0  0  0  0  0  0  0  0  # atno 7974 bound_to 7965
  154.7300  140.0503  157.0718 H   0  0  0  0  0  0  0  0  0  0  0  0  # atno 8008 bound_to 7997
  155.0314  140.3158  155.4738 H   0  0  0  0  0  0  0  0  0  0  0  0  # atno 8009 bound_to 7997
  156.2839  140.2149  156.5435 H   0  0  0  0  0  0  0  0  0  0  0  0  # atno 8010 bound_to 7997
  139.9108  144.6273  150.8539 H   0  0  0  0  0  0  0  0  0  0  0  0  # atno 10167 bound_to 10162
  157.6552  131.0909  150.6418 H   0  0  0  0  0  0  0  0  0  0  0  0  # atno 10718 bound_to 10713
  154.8753  135.3953  154.3634 H   0  0  0  0  0  0  0  0  0  0  0  0  # atno 10763 bound_to 10752
  153.4403  135.7026  153.6178 H   0  0  0  0  0  0  0  0  0  0  0  0  # atno 10764 bound_to 10752
  153.4762  135.3779  155.2387 H   0  0  0  0  0  0  0  0  0  0  0  0  # atno 10765 bound_to 10752
  141.1328  133.8281  157.0902 H   0  0  0  0  0  0  0  0  0  0  0  0  # atno 11005 bound_to 11000
  146.1189  140.7334  142.9467 LP  0  0  0  0  0  0  0  0  0  0  0  0  # atno 17320 bound_to 7965
  144.7116  140.4060  143.7076 LP  0  0  0  0  0  0  0  0  0  0  0  0  # atno 17321 bound_to 7965
  140.7685  143.3367  151.2294 LP  0  0  0  0  0  0  0  0  0  0  0  0  # atno 17342 bound_to 10162
  139.6944  143.9638  152.2875 LP  0  0  0  0  0  0  0  0  0  0  0  0  # atno 17343 bound_to 10162
  156.6726  130.4544  149.5652 LP  0  0  0  0  0  0  0  0  0  0  0  0  # atno 17370 bound_to 10713
  156.1987  130.6606  151.1143 LP  0  0  0  0  0  0  0  0  0  0  0  0  # atno 17371 bound_to 10713
  140.0397  134.9860  157.0938 LP  0  0  0  0  0  0  0  0  0  0  0  0  # atno 17394 bound_to 11000
  140.4155  134.1936  155.7163 LP  0  0  0  0  0  0  0  0  0  0  0  0  # atno 17395 bound_to 11000

$$$$
