AV-unprocessed.smi:3251|AV-procd|sdf|12436|dock1
  -GOLD-   2272018323D 1   1.00000     0.00000
 Structure written by MMmdl.
 41 42  0  0  0  0  0  0  0  0  2 V2000
  143.6842  132.4251  149.8402 C   0  0  0  0  0  0  0  0  0  0  0  0
  144.2403  133.2913  150.9335 C   0  0  0  0  0  0  0  0  0  0  0  0
  144.2901  133.0113  152.3286 C   0  0  0  0  0  0  0  0  0  0  0  0
  144.8468  133.9863  153.0289 N   0  0  0  0  0  0  0  0  0  0  0  0
  145.1703  134.9201  152.1093 N   0  0  0  0  0  0  0  0  0  0  0  0
  145.8196  136.1498  152.5260 C   0  0  0  0  0  0  0  0  0  0  0  0
  144.8120  137.2862  152.7583 C   0  0  0  0  0  0  0  0  0  0  0  0
  145.4647  138.4787  153.3426 N   0  3  0  0  0  0  0  0  0  0  0  0
  146.8052  138.7961  152.7997 C   0  0  1  0  0  0  0  0  0  0  0  0
  146.7173  138.9235  151.2703 C   0  0  0  0  0  0  0  0  0  0  0  0
  147.3689  140.0980  153.4047 C   0  0  0  0  0  0  0  0  0  0  0  0
  146.6644  141.1091  153.3997 O   0  0  0  0  0  0  0  0  0  0  0  0
  148.6200  140.1029  153.9132 N   0  0  0  0  0  0  0  0  0  0  0  0
  149.4850  138.9238  153.9205 C   0  0  0  0  0  0  0  0  0  0  0  0
  150.8699  139.4255  154.3296 C   0  0  0  0  0  0  0  0  0  0  0  0
  150.5841  140.6814  155.1397 C   0  0  0  0  0  0  0  0  0  0  0  0
  149.3078  141.2455  154.5154 C   0  0  0  0  0  0  0  0  0  0  0  0
  144.8171  134.5260  150.8362 C   0  0  0  0  0  0  0  0  0  0  0  0
  142.8126  131.8623  150.1750 H   0  0  0  0  0  0  0  0  0  0  0  0
  144.4193  131.7007  149.4896 H   0  0  0  0  0  0  0  0  0  0  0  0
  143.3730  133.0124  148.9759 H   0  0  0  0  0  0  0  0  0  0  0  0
  143.9394  132.1328  152.8501 H   0  0  0  0  0  0  0  0  0  0  0  0
  146.3671  135.9484  153.4476 H   0  0  0  0  0  0  0  0  0  0  0  0
  146.5618  136.4350  151.7785 H   0  0  0  0  0  0  0  0  0  0  0  0
  144.3261  137.5435  151.8163 H   0  0  0  0  0  0  0  0  0  0  0  0
  144.0289  136.9473  153.4370 H   0  0  0  0  0  0  0  0  0  0  0  0
  144.8607  139.2708  153.1769 H   0  0  0  0  0  0  0  0  0  0  0  0
  147.4533  137.9524  153.0373 H   0  0  0  0  0  0  0  0  0  0  0  0
  147.6892  139.1454  150.8280 H   0  0  0  0  0  0  0  0  0  0  0  0
  146.0307  139.7178  150.9737 H   0  0  0  0  0  0  0  0  0  0  0  0
  146.3617  137.9955  150.8216 H   0  0  0  0  0  0  0  0  0  0  0  0
  149.1047  138.2098  154.6528 H   0  0  0  0  0  0  0  0  0  0  0  0
  149.5159  138.4287  152.9485 H   0  0  0  0  0  0  0  0  0  0  0  0
  151.4418  138.6829  154.8868 H   0  0  0  0  0  0  0  0  0  0  0  0
  151.4417  139.6880  153.4386 H   0  0  0  0  0  0  0  0  0  0  0  0
  150.3938  140.4092  156.1789 H   0  0  0  0  0  0  0  0  0  0  0  0
  151.4117  141.3912  155.1267 H   0  0  0  0  0  0  0  0  0  0  0  0
  149.5567  141.9639  153.7329 H   0  0  0  0  0  0  0  0  0  0  0  0
  148.7006  141.7531  155.2654 H   0  0  0  0  0  0  0  0  0  0  0  0
  145.0034  135.1500  149.9743 H   0  0  0  0  0  0  0  0  0  0  0  0
  145.5500  138.3457  154.3410 H   0  0  0  0  0  0  0  0  0  0  0  0
  1  2  1  0  0  0  0
  1 19  1  0  0  0  0
  1 20  1  0  0  0  0
  1 21  1  0  0  0  0
  2 18  2  0  0  0  0
  2  3  1  0  0  0  0
  3  4  2  0  0  0  0
  3 22  1  0  0  0  0
  4  5  1  0  0  0  0
  5  6  1  0  0  0  0
  5 18  1  0  0  0  0
  6  7  1  0  0  0  0
  6 23  1  0  0  0  0
  6 24  1  0  0  0  0
  7  8  1  0  0  0  0
  7 25  1  0  0  0  0
  7 26  1  0  0  0  0
  8  9  1  0  0  0  0
  8 27  1  0  0  0  0
  8 41  1  0  0  0  0
  9 10  1  0  0  0  0
  9 11  1  0  0  0  0
  9 28  1  0  0  0  0
 10 29  1  0  0  0  0
 10 30  1  0  0  0  0
 10 31  1  0  0  0  0
 11 12  2  0  0  0  0
 11 13  1  0  0  0  0
 13 17  1  0  0  0  0
 13 14  1  0  0  0  0
 14 15  1  0  0  0  0
 14 32  1  0  0  0  0
 14 33  1  0  0  0  0
 15 16  1  0  0  0  0
 15 34  1  0  0  0  0
 15 35  1  0  0  0  0
 16 17  1  0  0  0  0
 16 36  1  0  0  0  0
 16 37  1  0  0  0  0
 17 38  1  0  0  0  0
 17 39  1  0  0  0  0
 18 40  1  0  0  0  0
M  CHG  1   8   1
M  END
> <s_m_source_file>
AV-unprocessed.smi

> <i_m_source_file_index>
3251

> <i_lp_mmshare_version>
43012

> <i_f3d_flags>
0

> <s_epik_input>
W0NIM11jMVtjSF1ubihbY0hdMSlbQ0gyXVtDSDJdW05IXVtDQEhdKFtDSDNdKUMoPU8pTjJbQ0gyXVtDSDJdW0NIMl1bQ0gyXTI=

> <s_epik_cmdline>
J2VwaWtfcHl0aG9uJywgJy1waCcsICc3LjAnLCAnLXRuJywgJzgnLCAnLW1hJywgJzIwMCcsICctbWV0YWxfYmluZGluZycsICctaW1hZScsICc8aW5maWxlLm1hZT4nLCAnLW9tYWUnLCAnPG91dGZpbGUubWFlPic=

> <r_lp_tautomer_probability>
1

> <r_epik_Ionization_Penalty>
0.203173

> <r_epik_Ionization_Penalty_Charging>
0.203168

> <r_epik_Ionization_Penalty_Neutral>
5.06494e-06

> <r_epik_State_Penalty>
0.193072

> <r_epik_Charging_Adjusted_Penalty>
0.39624

> <i_epik_Tot_Q>
1

> <i_epik_Tot_abs_Q>
1

> <r_epik_Metal_State_Penalty>
0.193587

> <b_epik_Metal_Only>
0

> <s_lp_Force_Field>
OPLS_2005

> <r_lp_Energy>
29.7429

> <b_lp_Chiralities_Consistent>
1

> <s_lp_Variant>
AV-unprocessed.smi:3251-2

> <Gold.Version>
5.8.1

> <Gold.Id.Protein>
6NUR|6NUR_protein|mol2

> <Gold.PLP.Fitness>
43.8885

> <Gold.PLP.PLP>
-35.8133

> <Gold.PLP.part.hbond>
-1.0000

> <Gold.PLP.part.metal>
0.0000

> <Gold.PLP.part.buried>
0.1986

> <Gold.PLP.part.nonpolar>
-35.6957

> <Gold.PLP.part.repulsive>
0.2651

> <Gold.PLP.ligand.clash>
0.0000

> <Gold.PLP.ligand.torsion>
0.6779

> <Gold.PLP.Chemscore.Hbond>
2.0000

> <Gold.PLP.Chemscore.CHOScore>
1.1218

> <Gold.PLP.Chemscore.Metal>
0.0000

> <Gold.Chemscore.Hbonds>
donor molecule, donor type, donor heavy atom, donor atom, acceptor molecule, acceptor atom, score
      L1  H     8    27       P1 10175  2.00
      L1  C     3    22       P1 10957  0.27
      L1  C    18    40       P1  7921  0.78

> <Gold.PLP.Chemscore.Internal.Correction>
0.0657

> <Gold.Rescore>
     Score         DG    S(hbond)    S(metal)    S(lipo)     H(rot)  DE(clash)    DE(int)     intcor
     13.61     -14.50       1.00        0.00      87.18       1.76       0.56       0.33       ----

> <Gold.Chemscore.Fitness>
13.6098

> <Gold.Chemscore.DG>
-14.4988

> <Gold.Chemscore.ZeroCoef>
-5.4800

> <Gold.Chemscore.Hbond>
0.9952

> <Gold.Chemscore.Metal>
0.0000

> <Gold.Chemscore.Lipo>
87.1811

> <Gold.Chemscore.Internal_Hbond>
0.0000

> <Gold.Chemscore.DEClash>
0.5566

> <Gold.Chemscore.DEInternal>
0.3323

> <Gold.Chemscore.Rot>
1.7599

> <Gold.Chemscore.Internal.Correction>
   9.000000E+99

> <Gold.Chemscore.Hbonds>
donor molecule, donor type, donor heavy atom, donor atom, acceptor molecule, acceptor atom, score
      L1  H     8    27       P1 10175  1.00

> <Gold.Chemscore.Hbond.Weighted>
-3.3239

> <Gold.Chemscore.Metal.Weighted>
-0.0000

> <Gold.Chemscore.Lipo.Weighted>
-10.2002

> <Gold.Chemscore.Internal_Hbond.Weighted>
0.0000

> <Gold.Chemscore.DEClash.Weighted>
0.5566

> <Gold.Chemscore.DEInternal.Weighted>
0.3323

> <Gold.Chemscore.Rot.Weighted>
4.5053

> <Gold.Chemscore.Internal.Correction.Weighted>
   9.000000E+99

> <Gold.Protein.RotatedTorsions>
[ 6907 6896 6895 6894 ] final  -15.77 input  -60.11 | X-H torsion
[ 7974 7965 7964 7962 ] final -106.66 input  175.53 | X-H torsion
[ 8008 7997 7996 7995 ] final -122.34 input   59.86 | X-H torsion
[ 10167 10162 10161 10158 ] final  -39.55 input  -65.29 | X-H torsion
[ 10718 10713 10712 10709 ] final  -99.31 input   66.30 | X-H torsion
[ 10763 10752 10751 10750 ] final  175.37 input  -60.55 | X-H torsion
[ 11005 11000 10999 10996 ] final  128.96 input  -57.11 | X-H torsion

> <Gold.Protein.ActiveResidues>
 VAL166  LYS551  ARG553  GLY616  TRP617  ASP618  TYR619  PRO620  LYS621  CYS622 
 ASP623  PHE694  ASN695  SER759  ASP760  ASP761  ALA762  ILE779  LEU786  VAL792 
 PHE793  MET794  SER795  GLU796  ALA797  LYS798  CYS799  TRP800  GLU811  SER814 

> <Gold.Protein.RotatedAtoms>
  151.3188  135.0813  159.9298 H   0  0  0  0  0  0  0  0  0  0  0  0  # atno 6907 bound_to 6896
  152.5261  133.9660  159.7750 H   0  0  0  0  0  0  0  0  0  0  0  0  # atno 6908 bound_to 6896
  150.9977  133.6034  159.2729 H   0  0  0  0  0  0  0  0  0  0  0  0  # atno 6909 bound_to 6896
  145.2150  140.9111  143.3292 H   0  0  0  0  0  0  0  0  0  0  0  0  # atno 7974 bound_to 7965
  155.1626  140.0406  157.2846 H   0  0  0  0  0  0  0  0  0  0  0  0  # atno 8008 bound_to 7997
  154.6325  140.2527  155.7389 H   0  0  0  0  0  0  0  0  0  0  0  0  # atno 8009 bound_to 7997
  156.2492  140.2872  156.0684 H   0  0  0  0  0  0  0  0  0  0  0  0  # atno 8010 bound_to 7997
  140.7061  143.3207  151.2799 H   0  0  0  0  0  0  0  0  0  0  0  0  # atno 10167 bound_to 10162
  156.0131  130.5277  150.6652 H   0  0  0  0  0  0  0  0  0  0  0  0  # atno 10718 bound_to 10713
  154.4666  135.2769  155.1674 H   0  0  0  0  0  0  0  0  0  0  0  0  # atno 10763 bound_to 10752
  154.3440  135.6164  153.5613 H   0  0  0  0  0  0  0  0  0  0  0  0  # atno 10764 bound_to 10752
  152.9860  135.5795  154.5039 H   0  0  0  0  0  0  0  0  0  0  0  0  # atno 10765 bound_to 10752
  139.9589  134.9607  156.9079 H   0  0  0  0  0  0  0  0  0  0  0  0  # atno 11005 bound_to 11000
  144.9819  139.3774  143.6257 LP  0  0  0  0  0  0  0  0  0  0  0  0  # atno 17320 bound_to 7965
  146.3389  139.8964  142.8801 LP  0  0  0  0  0  0  0  0  0  0  0  0  # atno 17321 bound_to 7965
  139.6660  144.0104  152.2723 LP  0  0  0  0  0  0  0  0  0  0  0  0  # atno 17342 bound_to 10162
  139.9687  144.6508  150.8010 LP  0  0  0  0  0  0  0  0  0  0  0  0  # atno 17343 bound_to 10162
  157.4386  131.0858  151.0967 LP  0  0  0  0  0  0  0  0  0  0  0  0  # atno 17370 bound_to 10713
  157.1518  130.6187  149.5584 LP  0  0  0  0  0  0  0  0  0  0  0  0  # atno 17371 bound_to 10713
  140.5545  134.0595  155.7379 LP  0  0  0  0  0  0  0  0  0  0  0  0  # atno 17394 bound_to 11000
  141.1264  133.9375  157.2626 LP  0  0  0  0  0  0  0  0  0  0  0  0  # atno 17395 bound_to 11000

$$$$
