AV-unprocessed.smi:2567|AV-procd|sdf|10079|dock5
  -GOLD-   2272014103D 1   1.00000     0.00000
 Structure written by MMmdl.
 34 35  0  0  0  0  0  0  0  0  2 V2000
  150.5301  144.1498  159.1815 C   0  0  0  0  0  0  0  0  0  0  0  0
  151.5639  143.3406  158.3779 C   0  0  0  0  0  0  0  0  0  0  0  0
  152.3061  144.2763  157.3986 C   0  0  0  0  0  0  0  0  0  0  0  0
  152.6312  142.7588  159.3314 C   0  0  0  0  0  0  0  0  0  0  0  0
  150.8634  142.2362  157.6209 C   0  0  0  0  0  0  0  0  0  0  0  0
  150.1431  141.3071  158.2545 N   0  0  0  0  0  0  0  0  0  0  0  0
  149.5862  140.6229  157.2344 N   0  0  0  0  0  0  0  0  0  0  0  0
  149.9409  141.1879  156.0802 C   0  0  0  0  0  0  0  0  0  0  0  0
  149.4573  140.6806  154.7586 C   0  0  1  0  0  0  0  0  0  0  0  0
  149.6561  139.1603  154.6043 C   0  0  0  0  0  0  0  0  0  0  0  0
  149.0672  138.7015  153.3310 N   0  3  0  0  0  0  0  0  0  0  0  0
  147.6493  139.0971  153.2177 C   0  0  0  0  0  0  0  0  0  0  0  0
  147.5051  140.6155  153.4201 C   0  0  0  0  0  0  0  0  0  0  0  0
  148.0678  140.9886  154.6735 O   0  0  0  0  0  0  0  0  0  0  0  0
  150.7262  142.2447  156.2572 N   0  0  0  0  0  0  0  0  0  0  0  0
  148.9798  139.8267  157.3716 H   0  0  0  0  0  0  0  0  0  0  0  0
  151.0043  144.9572  159.7402 H   0  0  0  0  0  0  0  0  0  0  0  0
  150.0038  143.5187  159.8983 H   0  0  0  0  0  0  0  0  0  0  0  0
  149.7817  144.5974  158.5264 H   0  0  0  0  0  0  0  0  0  0  0  0
  151.6182  144.7726  156.7129 H   0  0  0  0  0  0  0  0  0  0  0  0
  153.0335  143.7287  156.7979 H   0  0  0  0  0  0  0  0  0  0  0  0
  152.8447  145.0611  157.9308 H   0  0  0  0  0  0  0  0  0  0  0  0
  153.1731  143.5504  159.8501 H   0  0  0  0  0  0  0  0  0  0  0  0
  153.3649  142.1595  158.7903 H   0  0  0  0  0  0  0  0  0  0  0  0
  152.1873  142.1230  160.0985 H   0  0  0  0  0  0  0  0  0  0  0  0
  149.9913  141.2111  153.9676 H   0  0  0  0  0  0  0  0  0  0  0  0
  150.7158  138.9049  154.6256 H   0  0  0  0  0  0  0  0  0  0  0  0
  149.1796  138.6263  155.4278 H   0  0  0  0  0  0  0  0  0  0  0  0
  149.5812  139.1177  152.5675 H   0  0  0  0  0  0  0  0  0  0  0  0
  147.2674  138.8011  152.2404 H   0  0  0  0  0  0  0  0  0  0  0  0
  147.0659  138.5611  153.9675 H   0  0  0  0  0  0  0  0  0  0  0  0
  147.9926  141.1645  152.6130 H   0  0  0  0  0  0  0  0  0  0  0  0
  146.4524  140.8980  153.4069 H   0  0  0  0  0  0  0  0  0  0  0  0
  149.1412  137.6959  153.2686 H   0  0  0  0  0  0  0  0  0  0  0  0
  1  2  1  0  0  0  0
  1 17  1  0  0  0  0
  1 18  1  0  0  0  0
  1 19  1  0  0  0  0
  2  3  1  0  0  0  0
  2  4  1  0  0  0  0
  2  5  1  0  0  0  0
  3 20  1  0  0  0  0
  3 21  1  0  0  0  0
  3 22  1  0  0  0  0
  4 23  1  0  0  0  0
  4 24  1  0  0  0  0
  4 25  1  0  0  0  0
  5 15  1  0  0  0  0
  5  6  2  0  0  0  0
  6  7  1  0  0  0  0
  7 16  1  0  0  0  0
  7  8  1  0  0  0  0
  8  9  1  0  0  0  0
  8 15  2  0  0  0  0
  9 14  1  0  0  0  0
  9 10  1  0  0  0  0
  9 26  1  0  0  0  0
 10 11  1  0  0  0  0
 10 27  1  0  0  0  0
 10 28  1  0  0  0  0
 11 12  1  0  0  0  0
 11 29  1  0  0  0  0
 11 34  1  0  0  0  0
 12 13  1  0  0  0  0
 12 30  1  0  0  0  0
 12 31  1  0  0  0  0
 13 14  1  0  0  0  0
 13 32  1  0  0  0  0
 13 33  1  0  0  0  0
M  CHG  1  11   1
M  END
> <s_m_source_file>
AV-unprocessed.smi

> <i_m_source_file_index>
2567

> <i_lp_mmshare_version>
43012

> <i_f3d_flags>
0

> <s_epik_input>
W0NIM11DKFtDSDNdKShbQ0gzXSljMW5bbkhdYyhuMSlbQ0BASF0yW0NIMl1bTkhdW0NIMl1bQ0gyXU8y

> <s_epik_cmdline>
J2VwaWtfcHl0aG9uJywgJy1waCcsICc3LjAnLCAnLXRuJywgJzgnLCAnLW1hJywgJzIwMCcsICctbWV0YWxfYmluZGluZycsICctaW1hZScsICc8aW5maWxlLm1hZT4nLCAnLW9tYWUnLCAnPG91dGZpbGUubWFlPic=

> <r_epik_Ionization_Penalty>
0.162344

> <r_epik_Ionization_Penalty_Charging>
0.125708

> <r_epik_Ionization_Penalty_Neutral>
0.0366363

> <r_epik_State_Penalty>
1.18286

> <r_epik_Charging_Adjusted_Penalty>
1.30856

> <i_epik_Tot_Q>
1

> <i_epik_Tot_abs_Q>
1

> <r_epik_Metal_State_Penalty>
1.49333

> <b_epik_Metal_Only>
0

> <s_lp_Force_Field>
OPLS_2005

> <r_lp_Energy>
12.4711

> <b_lp_Chiralities_Consistent>
1

> <s_lp_Variant>
AV-unprocessed.smi:2567-4

> <Gold.Version>
5.8.1

> <Gold.Id.Protein>
6NUR|6NUR_protein|mol2

> <Gold.PLP.Fitness>
36.3302

> <Gold.PLP.PLP>
-28.4508

> <Gold.PLP.part.hbond>
-1.8737

> <Gold.PLP.part.metal>
0.0000

> <Gold.PLP.part.buried>
-4.0160

> <Gold.PLP.part.nonpolar>
-23.9885

> <Gold.PLP.part.repulsive>
0.7804

> <Gold.PLP.ligand.clash>
0.0000

> <Gold.PLP.ligand.torsion>
0.3628

> <Gold.PLP.Chemscore.Hbond>
2.7993

> <Gold.PLP.Chemscore.CHOScore>
0.0000

> <Gold.PLP.Chemscore.Metal>
0.0000

> <Gold.Chemscore.Hbonds>
donor molecule, donor type, donor heavy atom, donor atom, acceptor molecule, acceptor atom, score
      L1  H    11    29       P1  7957  1.00
      L1  H    11    34       P1  7948  1.54

> <Gold.PLP.Chemscore.Internal.Correction>
0.2070

> <Gold.Rescore>
     Score         DG    S(hbond)    S(metal)    S(lipo)     H(rot)  DE(clash)    DE(int)     intcor
     15.88     -16.19       1.87        0.00      65.92       1.26       0.06       0.25       ----

> <Gold.Chemscore.Fitness>
15.8796

> <Gold.Chemscore.DG>
-16.1941

> <Gold.Chemscore.ZeroCoef>
-5.4800

> <Gold.Chemscore.Hbond>
1.8679

> <Gold.Chemscore.Metal>
0.0000

> <Gold.Chemscore.Lipo>
65.9209

> <Gold.Chemscore.Internal_Hbond>
0.0000

> <Gold.Chemscore.DEClash>
0.0605

> <Gold.Chemscore.DEInternal>
0.2540

> <Gold.Chemscore.Rot>
1.2647

> <Gold.Chemscore.Internal.Correction>
   9.000000E+99

> <Gold.Chemscore.Hbonds>
donor molecule, donor type, donor heavy atom, donor atom, acceptor molecule, acceptor atom, score
      L1  H    11    29       P1  7957  0.90
      L1  H    11    34       P1  7948  0.72

> <Gold.Chemscore.Hbond.Weighted>
-6.2389

> <Gold.Chemscore.Metal.Weighted>
-0.0000

> <Gold.Chemscore.Lipo.Weighted>
-7.7127

> <Gold.Chemscore.Internal_Hbond.Weighted>
0.0000

> <Gold.Chemscore.DEClash.Weighted>
0.0605

> <Gold.Chemscore.DEInternal.Weighted>
0.2540

> <Gold.Chemscore.Rot.Weighted>
3.2375

> <Gold.Chemscore.Internal.Correction.Weighted>
   9.000000E+99

> <Gold.Protein.RotatedTorsions>
[ 6907 6896 6895 6894 ] final  155.04 input  -60.11 | X-H torsion
[ 7974 7965 7964 7962 ] final   98.27 input  175.53 | X-H torsion
[ 8008 7997 7996 7995 ] final   27.65 input   59.86 | X-H torsion
[ 10167 10162 10161 10158 ] final    2.54 input  -65.29 | X-H torsion
[ 10718 10713 10712 10709 ] final   51.80 input   66.30 | X-H torsion
[ 10763 10752 10751 10750 ] final -162.10 input  -60.55 | X-H torsion
[ 11005 11000 10999 10996 ] final   57.88 input  -57.11 | X-H torsion

> <Gold.Protein.ActiveResidues>
 VAL166  LYS551  ARG553  GLY616  TRP617  ASP618  TYR619  PRO620  LYS621  CYS622 
 ASP623  PHE694  ASN695  SER759  ASP760  ASP761  ALA762  ILE779  LEU786  VAL792 
 PHE793  MET794  SER795  GLU796  ALA797  LYS798  CYS799  TRP800  GLU811  SER814 

> <Gold.Protein.RotatedAtoms>
  152.0498  133.4014  159.4372 H   0  0  0  0  0  0  0  0  0  0  0  0  # atno 6907 bound_to 6896
  150.6871  134.3320  159.4840 H   0  0  0  0  0  0  0  0  0  0  0  0  # atno 6908 bound_to 6896
  152.1129  134.9261  160.0616 H   0  0  0  0  0  0  0  0  0  0  0  0  # atno 6909 bound_to 6896
  145.4144  139.2329  143.3231 H   0  0  0  0  0  0  0  0  0  0  0  0  # atno 7974 bound_to 7965
  155.0462  140.3175  155.4707 H   0  0  0  0  0  0  0  0  0  0  0  0  # atno 8008 bound_to 7997
  156.2844  140.2154  156.5530 H   0  0  0  0  0  0  0  0  0  0  0  0  # atno 8009 bound_to 7997
  154.7248  140.0486  157.0661 H   0  0  0  0  0  0  0  0  0  0  0  0  # atno 8010 bound_to 7997
  140.6630  143.7253  150.7774 H   0  0  0  0  0  0  0  0  0  0  0  0  # atno 10167 bound_to 10162
  157.5015  130.8441  149.8323 H   0  0  0  0  0  0  0  0  0  0  0  0  # atno 10718 bound_to 10713
  154.7244  135.3032  154.8995 H   0  0  0  0  0  0  0  0  0  0  0  0  # atno 10763 bound_to 10752
  153.9857  135.6725  153.4756 H   0  0  0  0  0  0  0  0  0  0  0  0  # atno 10764 bound_to 10752
  153.0862  135.4983  154.8520 H   0  0  0  0  0  0  0  0  0  0  0  0  # atno 10765 bound_to 10752
  140.0419  134.5861  155.9371 H   0  0  0  0  0  0  0  0  0  0  0  0  # atno 11005 bound_to 11000
  146.2689  140.4859  142.8823 LP  0  0  0  0  0  0  0  0  0  0  0  0  # atno 17320 bound_to 7965
  144.8287  140.6672  143.6305 LP  0  0  0  0  0  0  0  0  0  0  0  0  # atno 17321 bound_to 7965
  140.0926  143.4863  152.2470 LP  0  0  0  0  0  0  0  0  0  0  0  0  # atno 17342 bound_to 10162
  139.5870  144.7535  151.3496 LP  0  0  0  0  0  0  0  0  0  0  0  0  # atno 17343 bound_to 10162
  156.0232  130.3788  150.1899 LP  0  0  0  0  0  0  0  0  0  0  0  0  # atno 17370 bound_to 10713
  157.0089  130.9945  151.3371 LP  0  0  0  0  0  0  0  0  0  0  0  0  # atno 17371 bound_to 10713
  141.1887  133.6563  156.5337 LP  0  0  0  0  0  0  0  0  0  0  0  0  # atno 17394 bound_to 11000
  140.4055  134.7319  157.4805 LP  0  0  0  0  0  0  0  0  0  0  0  0  # atno 17395 bound_to 11000

$$$$
