AV-unprocessed.smi:1128|AV-procd|sdf|4843|dock2
  -GOLD-   22720 3413D 1   1.00000     0.00000
 Structure written by MMmdl.
 38 39  0  0  0  0  0  0  0  0  1 V2000
  150.1242  136.8191  159.4452 O   0  0  0  0  0  0  0  0  0  0  0  0
  149.0749  137.4255  159.2317 C   0  0  0  0  0  0  0  0  0  0  0  0
  149.0121  138.5476  158.5012 N   0  0  0  0  0  0  0  0  0  0  0  0
  150.1506  139.1952  157.8574 C   0  0  0  0  0  0  0  0  0  0  0  0
  151.0685  139.9174  158.8658 C   0  0  1  0  0  0  0  0  0  0  0  0
  152.3335  139.0937  159.2062 C   0  0  0  0  0  0  0  0  0  0  0  0
  153.3756  139.9030  159.9574 C   0  0  0  0  0  0  0  0  0  0  0  0
  153.3500  141.2430  160.0475 C   0  0  0  0  0  0  0  0  0  0  0  0
  152.2793  142.1011  159.4004 C   0  0  0  0  0  0  0  0  0  0  0  0
  151.4564  141.3196  158.3595 C   0  0  0  0  0  0  0  0  0  0  0  0
  147.8558  137.0858  159.6900 N   0  0  0  0  0  0  0  0  0  0  0  0
  147.4663  135.9922  160.4826 C   0  0  0  0  0  0  0  0  0  0  0  0
  147.4554  134.6951  160.0769 C   0  0  0  0  0  0  0  0  0  0  0  0
  147.0384  133.6152  160.9557 C   0  0  0  0  0  0  0  0  0  0  0  0
  146.9753  132.1752  160.4706 C   0  0  0  0  0  0  0  0  0  0  0  0
  145.7358  131.6895  160.5506 F   0  0  0  0  0  0  0  0  0  0  0  0
  147.3809  132.0799  159.2044 F   0  0  0  0  0  0  0  0  0  0  0  0
  147.7699  131.4107  161.2182 F   0  0  0  0  0  0  0  0  0  0  0  0
  146.6361  133.9672  162.1908 C   0  0  0  0  0  0  0  0  0  0  0  0
  146.6469  135.2969  162.6169 N   0  0  0  0  0  0  0  0  0  0  0  0
  147.0306  136.3389  161.8460 C   0  0  0  0  0  0  0  0  0  0  0  0
  147.0017  137.4851  162.2932 O   0  0  0  0  0  0  0  0  0  0  0  0
  146.3396  135.4786  163.5616 H   0  0  0  0  0  0  0  0  0  0  0  0
  148.1113  138.9869  158.3799 H   0  0  0  0  0  0  0  0  0  0  0  0
  150.7147  138.4298  157.3236 H   0  0  0  0  0  0  0  0  0  0  0  0
  149.7936  139.8950  157.0997 H   0  0  0  0  0  0  0  0  0  0  0  0
  150.5053  140.0580  159.7899 H   0  0  0  0  0  0  0  0  0  0  0  0
  152.0645  138.2271  159.8113 H   0  0  0  0  0  0  0  0  0  0  0  0
  152.7986  138.7136  158.2961 H   0  0  0  0  0  0  0  0  0  0  0  0
  154.1748  139.3494  160.4280 H   0  0  0  0  0  0  0  0  0  0  0  0
  154.1134  141.7584  160.6117 H   0  0  0  0  0  0  0  0  0  0  0  0
  151.6285  142.4803  160.1886 H   0  0  0  0  0  0  0  0  0  0  0  0
  152.7468  142.9665  158.9300 H   0  0  0  0  0  0  0  0  0  0  0  0
  152.0363  141.2206  157.4409 H   0  0  0  0  0  0  0  0  0  0  0  0
  150.5652  141.8917  158.0991 H   0  0  0  0  0  0  0  0  0  0  0  0
  147.1035  137.7186  159.4593 H   0  0  0  0  0  0  0  0  0  0  0  0
  147.7517  134.4192  159.0786 H   0  0  0  0  0  0  0  0  0  0  0  0
  146.2759  133.2723  162.9351 H   0  0  0  0  0  0  0  0  0  0  0  0
  1  2  2  0  0  0  0
  2  3  1  0  0  0  0
  2 11  1  0  0  0  0
  3  4  1  0  0  0  0
  3 24  1  0  0  0  0
  4  5  1  0  0  0  0
  4 25  1  0  0  0  0
  4 26  1  0  0  0  0
  5 10  1  0  0  0  0
  5  6  1  0  0  0  0
  5 27  1  0  0  0  0
  6  7  1  0  0  0  0
  6 28  1  0  0  0  0
  6 29  1  0  0  0  0
  7  8  2  0  0  0  0
  7 30  1  0  0  0  0
  8  9  1  0  0  0  0
  8 31  1  0  0  0  0
  9 10  1  0  0  0  0
  9 32  1  0  0  0  0
  9 33  1  0  0  0  0
 10 34  1  0  0  0  0
 10 35  1  0  0  0  0
 11 12  1  0  0  0  0
 11 36  1  0  0  0  0
 12 21  1  0  0  0  0
 12 13  2  0  0  0  0
 13 14  1  0  0  0  0
 13 37  1  0  0  0  0
 14 15  1  0  0  0  0
 14 19  2  0  0  0  0
 15 16  1  0  0  0  0
 15 17  1  0  0  0  0
 15 18  1  0  0  0  0
 19 20  1  0  0  0  0
 19 38  1  0  0  0  0
 20 23  1  0  0  0  0
 20 21  1  0  0  0  0
 21 22  2  0  0  0  0
M  END
> <s_m_source_file>
AV-unprocessed.smi

> <i_m_source_file_index>
1128

> <i_lp_mmshare_version>
43012

> <i_f3d_flags>
0

> <s_epik_input>
Tz1jMVtuSF1bY0hdYyhDKEYpKEYpRilbY0hdYzFbTkhdQyg9TylbTkhdW0NIMl1bQ0BASF0yW0NIMl1bQ0hdPVtDSF1bQ0gyXVtDSDJdMg==

> <s_epik_cmdline>
J2VwaWtfcHl0aG9uJywgJy1waCcsICc3LjAnLCAnLXRuJywgJzgnLCAnLW1hJywgJzIwMCcsICctbWV0YWxfYmluZGluZycsICctaW1hZScsICc8aW5maWxlLm1hZT4nLCAnLW9tYWUnLCAnPG91dGZpbGUubWFlPic=

> <r_lp_tautomer_probability>
1

> <r_epik_Ionization_Penalty>
0.00381734

> <r_epik_Ionization_Penalty_Charging>
0.00379608

> <r_epik_Ionization_Penalty_Neutral>
2.12611e-05

> <r_epik_State_Penalty>
-0

> <r_epik_Charging_Adjusted_Penalty>
0.00379608

> <i_epik_Tot_Q>
0

> <i_epik_Tot_abs_Q>
0

> <r_epik_Metal_State_Penalty>
0.371155

> <b_epik_Metal_Only>
0

> <s_lp_Force_Field>
OPLS_2005

> <r_lp_Energy>
19.5554

> <b_lp_Chiralities_Consistent>
1

> <s_lp_Variant>
AV-unprocessed.smi:1128-2

> <Gold.Version>
5.8.1

> <Gold.Id.Protein>
6NUR|6NUR_protein|mol2

> <Gold.PLP.Fitness>
43.7807

> <Gold.PLP.PLP>
-39.6594

> <Gold.PLP.part.hbond>
-3.0000

> <Gold.PLP.part.metal>
0.0000

> <Gold.PLP.part.buried>
-5.2374

> <Gold.PLP.part.nonpolar>
-32.2870

> <Gold.PLP.part.repulsive>
0.5242

> <Gold.PLP.ligand.clash>
0.0000

> <Gold.PLP.ligand.torsion>
1.3564

> <Gold.PLP.Chemscore.Hbond>
2.2640

> <Gold.PLP.Chemscore.CHOScore>
0.0000

> <Gold.PLP.Chemscore.Metal>
0.0000

> <Gold.Chemscore.Hbonds>
donor molecule, donor type, donor heavy atom, donor atom, acceptor molecule, acceptor atom, score
      P1  H  6896  6909       L1     1  0.98
      P1  H  6931  6943       L1    22  0.38
      P1  H  6934  6947       L1    22  0.59

> <Gold.PLP.Chemscore.Internal.Correction>
0.0421

> <Gold.Rescore>
     Score         DG    S(hbond)    S(metal)    S(lipo)     H(rot)  DE(clash)    DE(int)     intcor
     17.46     -18.87       2.28        0.00      77.71       1.30       0.01       1.40       ----

> <Gold.Chemscore.Fitness>
17.4581

> <Gold.Chemscore.DG>
-18.8662

> <Gold.Chemscore.ZeroCoef>
-5.4800

> <Gold.Chemscore.Hbond>
2.2849

> <Gold.Chemscore.Metal>
0.0000

> <Gold.Chemscore.Lipo>
77.7123

> <Gold.Chemscore.Internal_Hbond>
0.0000

> <Gold.Chemscore.DEClash>
0.0089

> <Gold.Chemscore.DEInternal>
1.3992

> <Gold.Chemscore.Rot>
1.3038

> <Gold.Chemscore.Internal.Correction>
   9.000000E+99

> <Gold.Chemscore.Hbonds>
donor molecule, donor type, donor heavy atom, donor atom, acceptor molecule, acceptor atom, score
      P1  H  6896  6909       L1     1  0.92
      P1  H  6931  6943       L1    22  0.19
      P1  H  6934  6947       L1    22  0.54

> <Gold.Chemscore.Hbond.Weighted>
-7.6316

> <Gold.Chemscore.Metal.Weighted>
-0.0000

> <Gold.Chemscore.Lipo.Weighted>
-9.0923

> <Gold.Chemscore.Internal_Hbond.Weighted>
0.0000

> <Gold.Chemscore.DEClash.Weighted>
0.0089

> <Gold.Chemscore.DEInternal.Weighted>
1.3992

> <Gold.Chemscore.Rot.Weighted>
3.3377

> <Gold.Chemscore.Internal.Correction.Weighted>
   9.000000E+99

> <Gold.Protein.RotatedTorsions>
[ 6907 6896 6895 6894 ] final   81.71 input  -60.11 | X-H torsion
[ 7974 7965 7964 7962 ] final  -65.83 input  175.53 | X-H torsion
[ 8008 7997 7996 7995 ] final  -79.02 input   59.86 | X-H torsion
[ 10167 10162 10161 10158 ] final   45.14 input  -65.29 | X-H torsion
[ 10718 10713 10712 10709 ] final -148.66 input   66.30 | X-H torsion
[ 10763 10752 10751 10750 ] final  144.03 input  -60.55 | X-H torsion
[ 11005 11000 10999 10996 ] final -154.22 input  -57.11 | X-H torsion

> <Gold.Protein.ActiveResidues>
 VAL166  LYS551  ARG553  GLY616  TRP617  ASP618  TYR619  PRO620  LYS621  CYS622 
 ASP623  PHE694  ASN695  SER759  ASP760  ASP761  ALA762  ILE779  LEU786  VAL792 
 PHE793  MET794  SER795  GLU796  ALA797  LYS798  CYS799  TRP800  GLU811  SER814 

> <Gold.Protein.RotatedAtoms>
  152.5277  134.3163  159.9131 H   0  0  0  0  0  0  0  0  0  0  0  0  # atno 6907 bound_to 6896
  151.3112  133.4073  159.2654 H   0  0  0  0  0  0  0  0  0  0  0  0  # atno 6908 bound_to 6896
  151.0037  134.9359  159.8025 H   0  0  0  0  0  0  0  0  0  0  0  0  # atno 6909 bound_to 6896
  145.7493  140.8916  143.0488 H   0  0  0  0  0  0  0  0  0  0  0  0  # atno 7974 bound_to 7965
  154.5744  140.0685  156.9013 H   0  0  0  0  0  0  0  0  0  0  0  0  # atno 8008 bound_to 7997
  155.2575  140.3356  155.4258 H   0  0  0  0  0  0  0  0  0  0  0  0  # atno 8009 bound_to 7997
  156.2143  140.1772  156.7610 H   0  0  0  0  0  0  0  0  0  0  0  0  # atno 8010 bound_to 7997
  140.3272  144.2633  150.6173 H   0  0  0  0  0  0  0  0  0  0  0  0  # atno 10167 bound_to 10162
  156.4231  130.8039  151.2262 H   0  0  0  0  0  0  0  0  0  0  0  0  # atno 10718 bound_to 10713
  153.9821  135.2940  155.3419 H   0  0  0  0  0  0  0  0  0  0  0  0  # atno 10763 bound_to 10752
  154.7263  135.5087  153.8894 H   0  0  0  0  0  0  0  0  0  0  0  0  # atno 10764 bound_to 10752
  153.0849  135.6690  154.0083 H   0  0  0  0  0  0  0  0  0  0  0  0  # atno 10765 bound_to 10752
  140.6997  134.3950  157.5211 H   0  0  0  0  0  0  0  0  0  0  0  0  # atno 11005 bound_to 11000
  144.6853  139.9569  143.7479 LP  0  0  0  0  0  0  0  0  0  0  0  0  # atno 17320 bound_to 7965
  146.0372  139.3388  143.0719 LP  0  0  0  0  0  0  0  0  0  0  0  0  # atno 17321 bound_to 7965
  140.5430  143.2220  151.8053 LP  0  0  0  0  0  0  0  0  0  0  0  0  # atno 17342 bound_to 10162
  139.4863  144.4575  151.9580 LP  0  0  0  0  0  0  0  0  0  0  0  0  # atno 17343 bound_to 10162
  157.7508  131.0222  150.3781 LP  0  0  0  0  0  0  0  0  0  0  0  0  # atno 17370 bound_to 10713
  156.4102  130.3932  149.6897 LP  0  0  0  0  0  0  0  0  0  0  0  0  # atno 17371 bound_to 10713
  139.8900  134.8816  156.2392 LP  0  0  0  0  0  0  0  0  0  0  0  0  # atno 17394 bound_to 11000
  141.0173  133.7061  156.1210 LP  0  0  0  0  0  0  0  0  0  0  0  0  # atno 17395 bound_to 11000

$$$$
