#       Name:                AV-unprocessed.smi:102
#       Creating user name   scv26
#       Creation time:       Thu Mar 26 17:47:52 2020


#       File generated by GOLD software.
#

@<TRIPOS>MOLECULE
AV-unprocessed.smi:102
    56    57     1
SMALL
NO_CHARGES


@<TRIPOS>ATOM
      1 ****        -4.3154   0.7109  -1.3223 C.3            1 S1                 0.0000
      2 ****        -3.9147  -0.6396  -0.7439 C.2            1 S1                 0.0000
      3 ****        -4.7557  -1.4822  -0.4306 O.2            1 S1                 0.0000
      4 ****        -2.5861  -0.7706  -0.6300 O.3            1 S1                 0.0000
      5 ****        -2.0372  -1.9682  -0.1007 C.3            1 S1                 0.0000
      6 ****        -0.5203  -1.8239   0.1039 C.3            1 S1                 0.0000
      7 ****         0.1312  -1.4354  -1.0932 O.3            1 S1                 0.0000
      8 ****         1.3804  -0.9173  -0.7686 C.3            1 S1                 0.0000
      9 ****         1.6669   0.2049  -1.7403 N.am           1 S1                 0.0000
     10 ****         0.9376   1.3857  -1.6816 C.2            1 S1                 0.0000
     11 ****         1.0858   2.3935  -2.5728 C.2            1 S1                 0.0000
     12 ****         0.3422   3.5057  -2.4469 F              1 S1                 0.0000
     13 ****         2.0267   2.2720  -3.6816 C.2            1 S1                 0.0000
     14 ****         2.2424   3.1339  -4.5311 O.2            1 S1                 0.0000
     15 ****         2.6975   1.0470  -3.7358 N.am           1 S1                 0.0000
     16 ****         2.5441  -0.0046  -2.8298 C.2            1 S1                 0.0000
     17 ****         3.1689  -1.0502  -3.0017 O.2            1 S1                 0.0000
     18 ****         1.3570  -0.4380   0.6967 C.3            1 S1                 0.0000
     19 ****         2.3741  -1.0932   1.4441 O.3            1 S1                 0.0000
     20 ****         2.7946  -0.5736   2.6105 C.2            1 S1                 0.0000
     21 ****         3.8988  -1.4034   3.2514 C.3            1 S1                 0.0000
     22 ****         2.3662   0.4499   3.1441 O.2            1 S1                 0.0000
     23 ****        -0.0313  -0.8446   1.1834 C.3            1 S1                 0.0000
     24 ****        -0.8219   0.3331   1.3090 O.3            1 S1                 0.0000
     25 ****        -1.6569   0.4975   2.3508 C.2            1 S1                 0.0000
     26 ****        -2.3959   1.8276   2.2949 C.3            1 S1                 0.0000
     27 ****        -1.8513  -0.3069   3.2618 O.2            1 S1                 0.0000
     28 ****         3.3399   0.9069  -4.5021 H              1 S1                 0.0000
     29 ****        -3.9043   1.5197  -0.7179 H              1 S1                 0.0000
     30 ****        -5.4006   0.8121  -1.3431 H              1 S1                 0.0000
     31 ****        -3.9395   0.8125  -2.3405 H              1 S1                 0.0000
     32 ****        -2.5155  -2.2168   0.8479 H              1 S1                 0.0000
     33 ****        -2.2414  -2.7867  -0.7920 H              1 S1                 0.0000
     34 ****        -0.1239  -2.8073   0.3618 H              1 S1                 0.0000
     35 ****         2.1310  -1.6948  -0.9167 H              1 S1                 0.0000
     36 ****         0.2024   1.5142  -0.9013 H              1 S1                 0.0000
     37 ****         1.5034   0.6421   0.7427 H              1 S1                 0.0000
     38 ****         4.8168  -1.3243   2.6691 H              1 S1                 0.0000
     39 ****         3.6072  -2.4527   3.2998 H              1 S1                 0.0000
     40 ****         4.1010  -1.0543   4.2643 H              1 S1                 0.0000
     41 ****         0.0395  -1.3564   2.1444 H              1 S1                 0.0000
     42 ****        -3.2661   1.7475   1.6433 H              1 S1                 0.0000
     43 ****        -1.7444   2.6122   1.9094 H              1 S1                 0.0000
     44 ****        -2.7333   2.1182   3.2898 H              1 S1                 0.0000
     45 ****        -5.7287  -1.2874  -0.5539 LP             1 S1                 0.0000
     46 ****        -4.4658  -2.3616  -0.0527 LP             1 S1                 0.0000
     47 ****        -0.4116  -0.7383  -1.5615 LP             1 S1                 0.0000
     48 ****         0.2405  -2.2298  -1.6906 LP             1 S1                 0.0000
     49 ****         1.7529   4.0051  -4.4949 LP             1 S1                 0.0000
     50 ****         2.9074   2.9638  -5.2583 LP             1 S1                 0.0000
     51 ****         3.0690  -1.8048  -2.3531 LP             1 S1                 0.0000
     52 ****         3.7767  -1.1457  -3.7900 LP             1 S1                 0.0000
     53 ****         1.6378   0.9755   2.7047 LP             1 S1                 0.0000
     54 ****         2.7466   0.7555   4.0170 LP             1 S1                 0.0000
     55 ****        -1.3640  -1.1801   3.2703 LP             1 S1                 0.0000
     56 ****        -2.4966  -0.0874   3.9935 LP             1 S1                 0.0000
@<TRIPOS>BOND
    1    1    2 1     
    2    1   29 1     
    3    1   30 1     
    4    1   31 1     
    5    2    3 2     
    6    2    4 1     
    7    4    5 1     
    8    5    6 1     
    9    5   32 1     
   10    5   33 1     
   11    6   23 1     
   12    6    7 1     
   13    6   34 1     
   14    7    8 1     
   15    8    9 1     
   16    8   18 1     
   17    8   35 1     
   18    9   16 1     
   19    9   10 1     
   20   10   11 2     
   21   10   36 1     
   22   11   12 1     
   23   11   13 1     
   24   13   14 2     
   25   13   15 1     
   26   15   28 1     
   27   15   16 1     
   28   16   17 2     
   29   18   19 1     
   30   18   23 1     
   31   18   37 1     
   32   19   20 1     
   33   20   21 1     
   34   20   22 2     
   35   21   38 1     
   36   21   39 1     
   37   21   40 1     
   38   23   24 1     
   39   23   41 1     
   40   24   25 1     
   41   25   26 1     
   42   25   27 2     
   43   26   42 1     
   44   26   43 1     
   45   26   44 1     
   46    3   45 1     
   47    3   46 1     
   48    7   47 1     
   49    7   48 1     
   50   14   49 1     
   51   14   50 1     
   52   17   51 1     
   53   17   52 1     
   54   22   53 1     
   55   22   54 1     
   56   27   55 1     
   57   27   56 1     
@<TRIPOS>SUBSTRUCTURE
      1 S1             1
@<TRIPOS>SET
LONE_PAIRS      STATIC     ATOMS    <user>   **** ""
12 45 46 47 48 49 50 51 52 53 54 55 56
DONOR_HYDROGENS      STATIC     ATOMS    <user>   **** ""
1 28
ATOM$BLUE        STATIC     ATOMS    COLORGROUP SYSTEM
12 45 46 47 48 49 50 51 52 53 54 55 56
ATOM$RED        STATIC     ATOMS    COLORGROUP SYSTEM
1 28
