#       Name:                AV-unprocessed.smi:2822
#       Creating user name   scv26
#       Creation time:       Fri Mar 27 15:30:42 2020


#       File generated by GOLD software.
#

@<TRIPOS>MOLECULE
AV-unprocessed.smi:2822
    43    45     1
SMALL
NO_CHARGES


@<TRIPOS>ATOM
      1 ****        -5.1845  -0.3262  -1.0179 Cl             1 S1                 0.0000
      2 ****        -4.3599   1.1824  -1.2009 C.ar           1 S1                 0.0000
      3 ****        -5.1078   2.3777  -1.2265 C.ar           1 S1                 0.0000
      4 ****        -4.4801   3.5644  -1.3667 N.pl3          1 S1                 1.0000
      5 ****        -3.1401   3.6700  -1.4883 C.ar           1 S1                 0.0000
      6 ****        -2.3381   2.5105  -1.4692 C.ar           1 S1                 0.0000
      7 ****        -2.9494   1.2401  -1.3226 C.ar           1 S1                 0.0000
      8 ****        -2.2085   0.0483  -1.2977 N.pl3          1 S1                 0.0000
      9 ****        -0.7556   0.0599  -1.2200 C.3            1 S1                 0.0000
     10 ****        -0.1860  -1.3689  -1.1089 C.3            1 S1                 0.0000
     11 ****         1.3538  -1.4141  -1.1498 C.3            1 S1                 0.0000
     12 ****         1.9470  -0.9042   0.1091 N.4            1 S1                 1.0000
     13 ****         3.4318  -0.9129   0.0718 C.3            1 S1                 0.0000
     14 ****         4.0238  -0.3013   1.3513 C.3            1 S1                 0.0000
     15 ****         3.5043  -1.0340   2.5940 C.3            1 S1                 0.0000
     16 ****         1.9702  -1.0319   2.5990 C.3            1 S1                 0.0000
     17 ****         1.4005  -1.6213   1.2927 C.3            1 S1                 0.0000
     18 ****        -0.1380  -1.5549   1.2836 C.3            1 S1                 0.0000
     19 ****        -0.6506  -2.0552   0.0537 O.3            1 S1                 0.0000
     20 ****        -6.1838   2.4189  -1.1396 H              1 S1                 0.0000
     21 ****        -2.7517   4.6721  -1.5981 H              1 S1                 0.0000
     22 ****        -1.2684   2.6156  -1.5720 H              1 S1                 0.0000
     23 ****        -2.6914  -0.8280  -1.1532 H              1 S1                 0.0000
     24 ****        -0.3665   0.5278  -2.1251 H              1 S1                 0.0000
     25 ****        -0.4342   0.6799  -0.3833 H              1 S1                 0.0000
     26 ****        -0.5517  -1.9326  -1.9682 H              1 S1                 0.0000
     27 ****         1.6825  -2.4430  -1.3047 H              1 S1                 0.0000
     28 ****         1.7241  -0.8356  -1.9973 H              1 S1                 0.0000
     29 ****         3.7886  -1.9366  -0.0526 H              1 S1                 0.0000
     30 ****         3.7781  -0.3492  -0.7952 H              1 S1                 0.0000
     31 ****         5.1127  -0.3492   1.3186 H              1 S1                 0.0000
     32 ****         3.7619   0.7561   1.4102 H              1 S1                 0.0000
     33 ****         3.8730  -2.0605   2.5993 H              1 S1                 0.0000
     34 ****         3.8853  -0.5595   3.4989 H              1 S1                 0.0000
     35 ****         1.6055  -1.6003   3.4557 H              1 S1                 0.0000
     36 ****         1.6113  -0.0101   2.7319 H              1 S1                 0.0000
     37 ****         1.7011  -2.6684   1.2214 H              1 S1                 0.0000
     38 ****        -0.5414  -2.1632   2.0935 H              1 S1                 0.0000
     39 ****        -0.4908  -0.5385   1.4599 H              1 S1                 0.0000
     40 ****         1.6644   0.0613   0.1972 H              1 S1                 0.0000
     41 ****        -5.0419   4.4163  -1.3825 H              1 S1                 0.0000
     42 ****        -0.3869  -3.0166  -0.0258 LP             1 S1                 0.0000
     43 ****        -1.6477  -1.9842   0.0798 LP             1 S1                 0.0000
@<TRIPOS>BOND
    1    1    2 1     
    2    2    7 ar    
    3    2    3 ar    
    4    3    4 ar    
    5    3   20 1     
    6    4    5 ar    
    7    4   41 1     
    8    5    6 ar    
    9    5   21 1     
   10    6    7 ar    
   11    6   22 1     
   12    7    8 1     
   13    8    9 1     
   14    8   23 1     
   15    9   10 1     
   16    9   24 1     
   17    9   25 1     
   18   10   19 1     
   19   10   11 1     
   20   10   26 1     
   21   11   12 1     
   22   11   27 1     
   23   11   28 1     
   24   12   17 1     
   25   12   13 1     
   26   12   40 1     
   27   13   14 1     
   28   13   29 1     
   29   13   30 1     
   30   14   15 1     
   31   14   31 1     
   32   14   32 1     
   33   15   16 1     
   34   15   33 1     
   35   15   34 1     
   36   16   17 1     
   37   16   35 1     
   38   16   36 1     
   39   17   18 1     
   40   17   37 1     
   41   18   19 1     
   42   18   38 1     
   43   18   39 1     
   44   19   42 1     
   45   19   43 1     
@<TRIPOS>SUBSTRUCTURE
      1 S1             1
@<TRIPOS>SET
LONE_PAIRS      STATIC     ATOMS    <user>   **** ""
2 42 43
DONOR_HYDROGENS      STATIC     ATOMS    <user>   **** ""
3 41 23 40
ATOM$BLUE        STATIC     ATOMS    COLORGROUP SYSTEM
2 42 43
ATOM$RED        STATIC     ATOMS    COLORGROUP SYSTEM
3 41 23 40
