AV-unprocessed.smi:1047|AV-procd|sdf|4578|dock1
  -GOLD-   22720 3 43D 1   1.00000     0.00000
 Structure written by MMmdl.
 56 58  0  0  0  0  0  0  0  0  2 V2000
  149.4848  135.5006  155.6001 C   0  0  0  0  0  0  0  0  0  0  0  0
  147.9646  135.4851  155.3886 C   0  0  0  0  0  0  0  0  0  0  0  0
  147.5474  136.3036  154.2195 N   0  3  1  0  0  0  0  0  0  0  0  0
  146.1891  136.0002  153.7012 C   0  0  0  0  0  0  0  0  0  0  0  0
  145.0951  136.6391  154.5778 C   0  0  0  0  0  0  0  0  0  0  0  0
  145.3307  138.0368  154.6954 O   0  0  0  0  0  0  0  0  0  0  0  0
  146.5775  138.3303  155.3186 C   0  0  2  0  0  0  0  0  0  0  0  0
  146.6873  139.8544  155.4695 C   0  0  0  0  0  0  0  0  0  0  0  0
  147.0782  140.4804  154.2107 N   0  0  0  0  0  0  0  0  0  0  0  0
  148.1600  141.4491  154.3602 C   0  0  0  0  0  0  0  0  0  0  0  0
  149.4017  140.8039  155.0059 C   0  0  1  0  0  0  0  0  0  0  0  0
  150.1397  140.1516  153.9933 O   0  0  0  0  0  0  0  0  0  0  0  0
  150.3459  141.8195  155.6784 C   0  0  0  0  0  0  0  0  0  0  0  0
  151.2183  141.2051  156.6629 N   0  0  0  0  0  0  0  0  0  0  0  0
  151.8368  140.0129  156.5618 C   0  0  0  0  0  0  0  0  0  0  0  0
  152.5929  139.6299  157.5863 N   0  0  0  0  0  0  0  0  0  0  0  0
  152.4543  140.7020  158.4512 C   0  0  0  0  0  0  0  0  0  0  0  0
  153.0071  140.9236  159.7316 C   0  0  0  0  0  0  0  0  0  0  0  0
  152.7247  142.1086  160.4478 C   0  0  0  0  0  0  0  0  0  0  0  0
  153.3397  142.3057  161.8223 C   0  0  0  0  0  0  0  0  0  0  0  0
  151.8764  143.0948  159.8831 C   0  0  0  0  0  0  0  0  0  0  0  0
  151.5584  144.3758  160.6340 C   0  0  0  0  0  0  0  0  0  0  0  0
  151.3150  142.8888  158.6054 C   0  0  0  0  0  0  0  0  0  0  0  0
  151.6034  141.7057  157.9025 C   0  0  0  0  0  0  0  0  0  0  0  0
  147.7058  137.7636  154.4309 C   0  0  0  0  0  0  0  0  0  0  0  0
  149.7477  134.9802  156.5213 H   0  0  0  0  0  0  0  0  0  0  0  0
  149.8618  136.5207  155.6796 H   0  0  0  0  0  0  0  0  0  0  0  0
  150.0170  135.0064  154.7878 H   0  0  0  0  0  0  0  0  0  0  0  0
  147.6041  134.4607  155.2970 H   0  0  0  0  0  0  0  0  0  0  0  0
  147.5029  135.8916  156.2893 H   0  0  0  0  0  0  0  0  0  0  0  0
  146.1156  136.4047  152.6909 H   0  0  0  0  0  0  0  0  0  0  0  0
  146.0304  134.9266  153.6085 H   0  0  0  0  0  0  0  0  0  0  0  0
  144.1169  136.4871  154.1213 H   0  0  0  0  0  0  0  0  0  0  0  0
  145.0538  136.1794  155.5659 H   0  0  0  0  0  0  0  0  0  0  0  0
  146.6193  137.8688  156.3071 H   0  0  0  0  0  0  0  0  0  0  0  0
  145.7235  140.2567  155.7841 H   0  0  0  0  0  0  0  0  0  0  0  0
  147.3998  140.0995  156.2584 H   0  0  0  0  0  0  0  0  0  0  0  0
  147.3525  139.7646  153.5447 H   0  0  0  0  0  0  0  0  0  0  0  0
  148.4184  141.8965  153.3992 H   0  0  0  0  0  0  0  0  0  0  0  0
  147.8038  142.2645  154.9895 H   0  0  0  0  0  0  0  0  0  0  0  0
  149.0971  140.0624  155.7462 H   0  0  0  0  0  0  0  0  0  0  0  0
  149.6695  140.2398  153.1781 H   0  0  0  0  0  0  0  0  0  0  0  0
  150.9729  142.3053  154.9292 H   0  0  0  0  0  0  0  0  0  0  0  0
  149.7725  142.6109  156.1630 H   0  0  0  0  0  0  0  0  0  0  0  0
  151.7212  139.3891  155.6872 H   0  0  0  0  0  0  0  0  0  0  0  0
  153.6523  140.1716  160.1613 H   0  0  0  0  0  0  0  0  0  0  0  0
  153.9630  143.1998  161.8379 H   0  0  0  0  0  0  0  0  0  0  0  0
  153.9646  141.4579  162.1047 H   0  0  0  0  0  0  0  0  0  0  0  0
  152.5605  142.4123  162.5774 H   0  0  0  0  0  0  0  0  0  0  0  0
  150.8967  145.0217  160.0562 H   0  0  0  0  0  0  0  0  0  0  0  0
  152.4716  144.9334  160.8427 H   0  0  0  0  0  0  0  0  0  0  0  0
  151.0647  144.1516  161.5798 H   0  0  0  0  0  0  0  0  0  0  0  0
  150.6656  143.6312  158.1657 H   0  0  0  0  0  0  0  0  0  0  0  0
  148.6852  137.9816  154.8584 H   0  0  0  0  0  0  0  0  0  0  0  0
  147.6834  138.2542  153.4566 H   0  0  0  0  0  0  0  0  0  0  0  0
  148.1973  136.0607  153.4851 H   0  0  0  0  0  0  0  0  0  0  0  0
  1  2  1  0  0  0  0
  1 26  1  0  0  0  0
  1 27  1  0  0  0  0
  1 28  1  0  0  0  0
  2  3  1  0  0  0  0
  2 29  1  0  0  0  0
  2 30  1  0  0  0  0
  3 25  1  0  0  0  0
  3  4  1  0  0  0  0
  3 56  1  0  0  0  0
  4  5  1  0  0  0  0
  4 31  1  0  0  0  0
  4 32  1  0  0  0  0
  5  6  1  0  0  0  0
  5 33  1  0  0  0  0
  5 34  1  0  0  0  0
  6  7  1  0  0  0  0
  7  8  1  0  0  0  0
  7 25  1  0  0  0  0
  7 35  1  0  0  0  0
  8  9  1  0  0  0  0
  8 36  1  0  0  0  0
  8 37  1  0  0  0  0
  9 10  1  0  0  0  0
  9 38  1  0  0  0  0
 10 11  1  0  0  0  0
 10 39  1  0  0  0  0
 10 40  1  0  0  0  0
 11 12  1  0  0  0  0
 11 13  1  0  0  0  0
 11 41  1  0  0  0  0
 12 42  1  0  0  0  0
 13 14  1  0  0  0  0
 13 43  1  0  0  0  0
 13 44  1  0  0  0  0
 14 24  1  0  0  0  0
 14 15  1  0  0  0  0
 15 16  2  0  0  0  0
 15 45  1  0  0  0  0
 16 17  1  0  0  0  0
 17 24  2  0  0  0  0
 17 18  1  0  0  0  0
 18 19  2  0  0  0  0
 18 46  1  0  0  0  0
 19 20  1  0  0  0  0
 19 21  1  0  0  0  0
 20 47  1  0  0  0  0
 20 48  1  0  0  0  0
 20 49  1  0  0  0  0
 21 22  1  0  0  0  0
 21 23  2  0  0  0  0
 22 50  1  0  0  0  0
 22 51  1  0  0  0  0
 22 52  1  0  0  0  0
 23 24  1  0  0  0  0
 23 53  1  0  0  0  0
 25 54  1  0  0  0  0
 25 55  1  0  0  0  0
M  CHG  1   3   1
M  END
> <s_m_source_file>
AV-unprocessed.smi

> <i_m_source_file_index>
1047

> <i_lp_mmshare_version>
43012

> <i_f3d_flags>
0

> <s_epik_input>
W0NIM11bQ0gyXU4xW0NIMl1bQ0gyXU9bQ0BIXShbQ0gyXTEpW0NIMl1bTkhdW0NIMl1bQ0BIXShbT0hdKVtDSDJdbihbY0hdbjIpYyhjMjMpW2NIXWMoW0NIM10pYyhbY0hdMylbQ0gzXQ==

> <s_epik_cmdline>
J2VwaWtfcHl0aG9uJywgJy1waCcsICc3LjAnLCAnLXRuJywgJzgnLCAnLW1hJywgJzIwMCcsICctbWV0YWxfYmluZGluZycsICctaW1hZScsICc8aW5maWxlLm1hZT4nLCAnLW9tYWUnLCAnPG91dGZpbGUubWFlPic=

> <r_epik_Ionization_Penalty>
1.19246

> <r_epik_Ionization_Penalty_Charging>
0.210041

> <r_epik_Ionization_Penalty_Neutral>
0.982415

> <r_epik_State_Penalty>
1.57595

> <r_epik_Charging_Adjusted_Penalty>
1.78599

> <i_epik_Tot_Q>
1

> <i_epik_Tot_abs_Q>
1

> <r_epik_Metal_State_Penalty>
1.46172

> <b_epik_Metal_Only>
0

> <s_lp_Force_Field>
OPLS_2005

> <r_lp_Energy>
33.2573

> <b_lp_Chiralities_Consistent>
1

> <s_lp_Variant>
AV-unprocessed.smi:1047-19

> <Gold.Version>
5.8.1

> <Gold.Id.Protein>
6NUR|6NUR_protein|mol2

> <Gold.PLP.Fitness>
54.4464

> <Gold.PLP.PLP>
-42.5571

> <Gold.PLP.part.hbond>
-4.0000

> <Gold.PLP.part.metal>
0.0000

> <Gold.PLP.part.buried>
-5.1854

> <Gold.PLP.part.nonpolar>
-32.9853

> <Gold.PLP.part.repulsive>
0.0683

> <Gold.PLP.ligand.clash>
0.0000

> <Gold.PLP.ligand.torsion>
1.3457

> <Gold.PLP.Chemscore.Hbond>
4.7760

> <Gold.PLP.Chemscore.CHOScore>
0.0000

> <Gold.PLP.Chemscore.Metal>
0.0000

> <Gold.Chemscore.Hbonds>
donor molecule, donor type, donor heavy atom, donor atom, acceptor molecule, acceptor atom, score
      L1  H     3    56       P1  7948  2.00
      L1  H    12    42       P1  7957  0.99
      P1  H  7989  7998       L1    12  0.76
      P1  H  7997  8010       L1    16  0.75

> <Gold.PLP.Chemscore.Internal.Correction>
0.2526

> <Gold.Rescore>
     Score         DG    S(hbond)    S(metal)    S(lipo)     H(rot)  DE(clash)    DE(int)     intcor
     19.73     -21.09       2.84        0.00     109.68       2.62       0.03       1.32       ----

> <Gold.Chemscore.Fitness>
19.7333

> <Gold.Chemscore.DG>
-21.0854

> <Gold.Chemscore.ZeroCoef>
-5.4800

> <Gold.Chemscore.Hbond>
2.8390

> <Gold.Chemscore.Metal>
0.0000

> <Gold.Chemscore.Lipo>
109.6807

> <Gold.Chemscore.Internal_Hbond>
0.0000

> <Gold.Chemscore.DEClash>
0.0348

> <Gold.Chemscore.DEInternal>
1.3172

> <Gold.Chemscore.Rot>
2.6209

> <Gold.Chemscore.Internal.Correction>
   9.000000E+99

> <Gold.Chemscore.Hbonds>
donor molecule, donor type, donor heavy atom, donor atom, acceptor molecule, acceptor atom, score
      L1  H     3    56       P1  7948  0.98
      L1  H    12    42       P1  7957  0.87
      P1  H  7989  7998       L1    12  0.12
      P1  H  7997  8010       L1    16  0.03

> <Gold.Chemscore.Hbond.Weighted>
-9.4824

> <Gold.Chemscore.Metal.Weighted>
-0.0000

> <Gold.Chemscore.Lipo.Weighted>
-12.8326

> <Gold.Chemscore.Internal_Hbond.Weighted>
0.0000

> <Gold.Chemscore.DEClash.Weighted>
0.0348

> <Gold.Chemscore.DEInternal.Weighted>
1.3172

> <Gold.Chemscore.Rot.Weighted>
6.7096

> <Gold.Chemscore.Internal.Correction.Weighted>
   9.000000E+99

> <Gold.Protein.RotatedTorsions>
[ 6907 6896 6895 6894 ] final  171.49 input  -60.11 | X-H torsion
[ 7974 7965 7964 7962 ] final -103.31 input  175.53 | X-H torsion
[ 8008 7997 7996 7995 ] final   56.70 input   59.86 | X-H torsion
[ 10167 10162 10161 10158 ] final -101.57 input  -65.29 | X-H torsion
[ 10718 10713 10712 10709 ] final  -72.42 input   66.30 | X-H torsion
[ 10763 10752 10751 10750 ] final  126.66 input  -60.55 | X-H torsion
[ 11005 11000 10999 10996 ] final -160.96 input  -57.11 | X-H torsion

> <Gold.Protein.ActiveResidues>
 VAL166  LYS551  ARG553  GLY616  TRP617  ASP618  TYR619  PRO620  LYS621  CYS622 
 ASP623  PHE694  ASN695  SER759  ASP760  ASP761  ALA762  ILE779  LEU786  VAL792 
 PHE793  MET794  SER795  GLU796  ALA797  LYS798  CYS799  TRP800  GLU811  SER814 

> <Gold.Protein.RotatedAtoms>
  151.7994  133.3368  159.3522 H   0  0  0  0  0  0  0  0  0  0  0  0  # atno 6907 bound_to 6896
  150.7364  134.5767  159.5927 H   0  0  0  0  0  0  0  0  0  0  0  0  # atno 6908 bound_to 6896
  152.3153  134.7448  160.0378 H   0  0  0  0  0  0  0  0  0  0  0  0  # atno 6909 bound_to 6896
  145.2575  140.9258  143.3060 H   0  0  0  0  0  0  0  0  0  0  0  0  # atno 7974 bound_to 7965
  155.5218  140.3480  155.4408 H   0  0  0  0  0  0  0  0  0  0  0  0  # atno 8008 bound_to 7997
  156.0779  140.1379  156.9775 H   0  0  0  0  0  0  0  0  0  0  0  0  # atno 8009 bound_to 7997
  154.4563  140.0952  156.6743 H   0  0  0  0  0  0  0  0  0  0  0  0  # atno 8010 bound_to 7997
  140.2399  143.3546  152.0811 H   0  0  0  0  0  0  0  0  0  0  0  0  # atno 10167 bound_to 10162
  156.0321  130.4372  150.2590 H   0  0  0  0  0  0  0  0  0  0  0  0  # atno 10718 bound_to 10713
  153.6968  135.3290  155.3215 H   0  0  0  0  0  0  0  0  0  0  0  0  # atno 10763 bound_to 10752
  154.8424  135.4445  154.1451 H   0  0  0  0  0  0  0  0  0  0  0  0  # atno 10764 bound_to 10752
  153.2508  135.6981  153.7759 H   0  0  0  0  0  0  0  0  0  0  0  0  # atno 10765 bound_to 10752
  140.6257  134.4703  157.5226 H   0  0  0  0  0  0  0  0  0  0  0  0  # atno 11005 bound_to 11000
  144.9448  139.4148  143.6431 LP  0  0  0  0  0  0  0  0  0  0  0  0  # atno 17320 bound_to 7965
  146.3285  139.8426  142.8887 LP  0  0  0  0  0  0  0  0  0  0  0  0  # atno 17321 bound_to 7965
  139.5081  144.6844  151.5926 LP  0  0  0  0  0  0  0  0  0  0  0  0  # atno 17342 bound_to 10162
  140.6122  143.9415  150.6461 LP  0  0  0  0  0  0  0  0  0  0  0  0  # atno 17343 bound_to 10162
  157.0691  131.0112  151.3196 LP  0  0  0  0  0  0  0  0  0  0  0  0  # atno 17370 bound_to 10713
  157.5013  130.7881  149.7607 LP  0  0  0  0  0  0  0  0  0  0  0  0  # atno 17371 bound_to 10713
  139.9135  134.8294  156.1444 LP  0  0  0  0  0  0  0  0  0  0  0  0  # atno 17394 bound_to 11000
  141.0711  133.6796  156.2142 LP  0  0  0  0  0  0  0  0  0  0  0  0  # atno 17395 bound_to 11000

$$$$
