AV-unprocessed.smi:3311|AV-procd|sdf|12724|dock7
  -GOLD-   2272019 63D 1   1.00000     0.00000
 Structure written by MMmdl.
 43 44  0  0  0  0  0  0  0  0  1 V2000
  146.8109  139.3948  151.0718 C   0  0  0  0  0  0  0  0  0  0  0  0
  146.4120  138.4468  152.2242 C   0  0  1  0  0  0  0  0  0  0  0  0
  146.4858  137.0401  151.8125 N   0  0  0  0  0  0  0  0  0  0  0  0
  145.8342  136.7025  150.5447 C   0  0  0  0  0  0  0  0  0  0  0  0
  145.1785  135.3031  150.5749 C   0  0  0  0  0  0  0  0  0  0  0  0
  144.5390  135.1177  149.3242 O   0  0  0  0  0  0  0  0  0  0  0  0
  146.2062  134.1672  150.8140 C   0  0  0  0  0  0  0  0  0  0  0  0
  145.5474  132.7876  150.9936 C   0  0  0  0  0  0  0  0  0  0  0  0
  144.4934  132.8092  152.1086 C   0  0  0  0  0  0  0  0  0  0  0  0
  143.4355  133.8878  151.8398 C   0  0  0  0  0  0  0  0  0  0  0  0
  144.0832  135.2737  151.6677 C   0  0  0  0  0  0  0  0  0  0  0  0
  147.2530  138.6519  153.5133 C   0  0  2  0  0  0  0  0  0  0  0  0
  146.7419  137.8006  154.6902 C   0  0  0  0  0  0  0  0  0  0  0  0
  147.3844  140.0578  153.8912 N   0  0  0  0  0  0  0  0  0  0  0  0
  146.4014  141.0093  154.0899 C   0  0  0  0  0  0  0  0  0  0  0  0
  147.0227  142.1861  154.3954 C   0  0  0  0  0  0  0  0  0  0  0  0
  148.4056  141.8585  154.3498 C   0  0  0  0  0  0  0  0  0  0  0  0
  148.6182  140.5897  154.0426 N   0  0  0  0  0  0  0  0  0  0  0  0
  146.8655  140.4295  151.4086 H   0  0  0  0  0  0  0  0  0  0  0  0
  146.0817  139.3724  150.2625 H   0  0  0  0  0  0  0  0  0  0  0  0
  147.7812  139.1320  150.6494 H   0  0  0  0  0  0  0  0  0  0  0  0
  145.3749  138.6647  152.4817 H   0  0  0  0  0  0  0  0  0  0  0  0
  147.4559  136.7408  151.7847 H   0  0  0  0  0  0  0  0  0  0  0  0
  145.0744  137.4527  150.3220 H   0  0  0  0  0  0  0  0  0  0  0  0
  146.5505  136.7364  149.7236 H   0  0  0  0  0  0  0  0  0  0  0  0
  145.1346  134.6620  148.7495 H   0  0  0  0  0  0  0  0  0  0  0  0
  146.9207  134.1136  149.9917 H   0  0  0  0  0  0  0  0  0  0  0  0
  146.7899  134.3957  151.7068 H   0  0  0  0  0  0  0  0  0  0  0  0
  145.0833  132.4760  150.0572 H   0  0  0  0  0  0  0  0  0  0  0  0
  146.3096  132.0415  151.2198 H   0  0  0  0  0  0  0  0  0  0  0  0
  144.0171  131.8317  152.1899 H   0  0  0  0  0  0  0  0  0  0  0  0
  144.9766  132.9997  153.0677 H   0  0  0  0  0  0  0  0  0  0  0  0
  142.8662  133.6301  150.9461 H   0  0  0  0  0  0  0  0  0  0  0  0
  142.7193  133.9151  152.6613 H   0  0  0  0  0  0  0  0  0  0  0  0
  144.5215  135.5690  152.6220 H   0  0  0  0  0  0  0  0  0  0  0  0
  143.3117  136.0141  151.4506 H   0  0  0  0  0  0  0  0  0  0  0  0
  148.2607  138.2827  153.3099 H   0  0  0  0  0  0  0  0  0  0  0  0
  146.7432  136.7412  154.4328 H   0  0  0  0  0  0  0  0  0  0  0  0
  145.7256  138.0656  154.9806 H   0  0  0  0  0  0  0  0  0  0  0  0
  147.3795  137.9231  155.5662 H   0  0  0  0  0  0  0  0  0  0  0  0
  145.3510  140.7770  153.9960 H   0  0  0  0  0  0  0  0  0  0  0  0
  146.5597  143.1369  154.6130 H   0  0  0  0  0  0  0  0  0  0  0  0
  149.2559  142.5009  154.5259 H   0  0  0  0  0  0  0  0  0  0  0  0
  1  2  1  0  0  0  0
  1 19  1  0  0  0  0
  1 20  1  0  0  0  0
  1 21  1  0  0  0  0
  2  3  1  0  0  0  0
  2 12  1  0  0  0  0
  2 22  1  0  0  0  0
  3  4  1  0  0  0  0
  3 23  1  0  0  0  0
  4  5  1  0  0  0  0
  4 24  1  0  0  0  0
  4 25  1  0  0  0  0
  5 11  1  0  0  0  0
  5  6  1  0  0  0  0
  5  7  1  0  0  0  0
  6 26  1  0  0  0  0
  7  8  1  0  0  0  0
  7 27  1  0  0  0  0
  7 28  1  0  0  0  0
  8  9  1  0  0  0  0
  8 29  1  0  0  0  0
  8 30  1  0  0  0  0
  9 10  1  0  0  0  0
  9 31  1  0  0  0  0
  9 32  1  0  0  0  0
 10 11  1  0  0  0  0
 10 33  1  0  0  0  0
 10 34  1  0  0  0  0
 11 35  1  0  0  0  0
 11 36  1  0  0  0  0
 12 13  1  0  0  0  0
 12 14  1  0  0  0  0
 12 37  1  0  0  0  0
 13 38  1  0  0  0  0
 13 39  1  0  0  0  0
 13 40  1  0  0  0  0
 14 18  1  0  0  0  0
 14 15  1  0  0  0  0
 15 16  2  0  0  0  0
 15 41  1  0  0  0  0
 16 17  1  0  0  0  0
 16 42  1  0  0  0  0
 17 18  2  0  0  0  0
 17 43  1  0  0  0  0
M  END
> <s_m_source_file>
AV-unprocessed.smi

> <i_m_source_file_index>
3311

> <i_lp_mmshare_version>
43012

> <i_f3d_flags>
0

> <s_epik_input>
bjFbY0hdW2NIXVtjSF1uMVtDQEBIXShbQ0gzXSlbQ0BIXShbQ0gzXSlbTkhdW0NIMl1DMihbT0hdKVtDSDJdW0NIMl1bQ0gyXVtDSDJdW0NIMl0y

> <s_epik_cmdline>
J2VwaWtfcHl0aG9uJywgJy1waCcsICc3LjAnLCAnLXRuJywgJzgnLCAnLW1hJywgJzIwMCcsICctbWV0YWxfYmluZGluZycsICctaW1hZScsICc8aW5maWxlLm1hZT4nLCAnLW9tYWUnLCAnPG91dGZpbGUubWFlPic=

> <r_lp_tautomer_probability>
1

> <r_epik_Ionization_Penalty>
2.222

> <r_epik_Ionization_Penalty_Charging>
0

> <r_epik_Ionization_Penalty_Neutral>
2.222

> <r_epik_State_Penalty>
2.36562

> <r_epik_Charging_Adjusted_Penalty>
2.36562

> <i_epik_Tot_Q>
0

> <i_epik_Tot_abs_Q>
0

> <r_epik_Metal_State_Penalty>
2.36435

> <b_epik_Metal_Only>
0

> <s_lp_Force_Field>
OPLS_2005

> <r_lp_Energy>
28.1428

> <b_lp_Chiralities_Consistent>
1

> <s_lp_Variant>
AV-unprocessed.smi:3311-6

> <Gold.Version>
5.8.1

> <Gold.Id.Protein>
6NUR|6NUR_protein|mol2

> <Gold.PLP.Fitness>
42.1926

> <Gold.PLP.PLP>
-31.8495

> <Gold.PLP.part.hbond>
-1.6879

> <Gold.PLP.part.metal>
0.0000

> <Gold.PLP.part.buried>
0.5106

> <Gold.PLP.part.nonpolar>
-30.8244

> <Gold.PLP.part.repulsive>
0.1227

> <Gold.PLP.ligand.clash>
0.0000

> <Gold.PLP.ligand.torsion>
0.5288

> <Gold.PLP.Chemscore.Hbond>
2.0000

> <Gold.PLP.Chemscore.CHOScore>
1.7509

> <Gold.PLP.Chemscore.Metal>
0.0000

> <Gold.Chemscore.Hbonds>
donor molecule, donor type, donor heavy atom, donor atom, acceptor molecule, acceptor atom, score
      L1  H     3    23       P1  7948  1.00
      L1  H     6    26       P1  7921  0.83
      L1  C    15    41       P1 10175  1.00
      L1  C    17    43       P1  8028  0.77

> <Gold.PLP.Chemscore.Internal.Correction>
0.1480

> <Gold.Rescore>
     Score         DG    S(hbond)    S(metal)    S(lipo)     H(rot)  DE(clash)    DE(int)     intcor
     14.51     -16.98       1.95        0.00      87.83       2.07       1.89       0.58       ----

> <Gold.Chemscore.Fitness>
14.5063

> <Gold.Chemscore.DG>
-16.9775

> <Gold.Chemscore.ZeroCoef>
-5.4800

> <Gold.Chemscore.Hbond>
1.9514

> <Gold.Chemscore.Metal>
0.0000

> <Gold.Chemscore.Lipo>
87.8251

> <Gold.Chemscore.Internal_Hbond>
0.0000

> <Gold.Chemscore.DEClash>
1.8925

> <Gold.Chemscore.DEInternal>
0.5787

> <Gold.Chemscore.Rot>
2.0686

> <Gold.Chemscore.Internal.Correction>
   9.000000E+99

> <Gold.Chemscore.Hbonds>
donor molecule, donor type, donor heavy atom, donor atom, acceptor molecule, acceptor atom, score
      L1  H     3    23       P1  7948  0.96
      L1  H     6    26       P1  7921  0.78

> <Gold.Chemscore.Hbond.Weighted>
-6.5176

> <Gold.Chemscore.Metal.Weighted>
-0.0000

> <Gold.Chemscore.Lipo.Weighted>
-10.2755

> <Gold.Chemscore.Internal_Hbond.Weighted>
0.0000

> <Gold.Chemscore.DEClash.Weighted>
1.8925

> <Gold.Chemscore.DEInternal.Weighted>
0.5787

> <Gold.Chemscore.Rot.Weighted>
5.2957

> <Gold.Chemscore.Internal.Correction.Weighted>
   9.000000E+99

> <Gold.Protein.RotatedTorsions>
[ 6907 6896 6895 6894 ] final   79.54 input  -60.11 | X-H torsion
[ 7974 7965 7964 7962 ] final  151.19 input  175.53 | X-H torsion
[ 8008 7997 7996 7995 ] final   15.90 input   59.86 | X-H torsion
[ 10167 10162 10161 10158 ] final   53.77 input  -65.29 | X-H torsion
[ 10718 10713 10712 10709 ] final  122.84 input   66.30 | X-H torsion
[ 10763 10752 10751 10750 ] final  121.72 input  -60.55 | X-H torsion
[ 11005 11000 10999 10996 ] final  -94.38 input  -57.11 | X-H torsion

> <Gold.Protein.ActiveResidues>
 VAL166  LYS551  ARG553  GLY616  TRP617  ASP618  TYR619  PRO620  LYS621  CYS622 
 ASP623  PHE694  ASN695  SER759  ASP760  ASP761  ALA762  ILE779  LEU786  VAL792 
 PHE793  MET794  SER795  GLU796  ALA797  LYS798  CYS799  TRP800  GLU811  SER814 

> <Gold.Protein.RotatedAtoms>
  152.5202  134.3495  159.9245 H   0  0  0  0  0  0  0  0  0  0  0  0  # atno 6907 bound_to 6896
  151.3445  133.3943  159.2682 H   0  0  0  0  0  0  0  0  0  0  0  0  # atno 6908 bound_to 6896
  150.9776  134.9156  159.7883 H   0  0  0  0  0  0  0  0  0  0  0  0  # atno 6909 bound_to 6896
  144.8310  139.6506  143.6059 H   0  0  0  0  0  0  0  0  0  0  0  0  # atno 7974 bound_to 7965
  154.8692  140.2956  155.5492 H   0  0  0  0  0  0  0  0  0  0  0  0  # atno 8008 bound_to 7997
  156.3021  140.2463  156.3611 H   0  0  0  0  0  0  0  0  0  0  0  0  # atno 8009 bound_to 7997
  154.8835  140.0397  157.1786 H   0  0  0  0  0  0  0  0  0  0  0  0  # atno 8010 bound_to 7997
  140.2372  144.3623  150.6393 H   0  0  0  0  0  0  0  0  0  0  0  0  # atno 10167 bound_to 10162
  157.5711  131.1083  150.8365 H   0  0  0  0  0  0  0  0  0  0  0  0  # atno 10718 bound_to 10713
  153.6185  135.3417  155.3003 H   0  0  0  0  0  0  0  0  0  0  0  0  # atno 10763 bound_to 10752
  154.8604  135.4267  154.2233 H   0  0  0  0  0  0  0  0  0  0  0  0  # atno 10764 bound_to 10752
  153.3100  135.7031  153.7197 H   0  0  0  0  0  0  0  0  0  0  0  0  # atno 10765 bound_to 10752
  141.1472  133.7952  157.0291 H   0  0  0  0  0  0  0  0  0  0  0  0  # atno 11005 bound_to 11000
  146.2612  139.6416  142.9360 LP  0  0  0  0  0  0  0  0  0  0  0  0  # atno 17320 bound_to 7965
  145.4896  141.0438  143.2600 LP  0  0  0  0  0  0  0  0  0  0  0  0  # atno 17321 bound_to 7965
  140.6141  143.2171  151.6827 LP  0  0  0  0  0  0  0  0  0  0  0  0  # atno 17342 bound_to 10162
  139.5089  144.3593  152.0577 LP  0  0  0  0  0  0  0  0  0  0  0  0  # atno 17343 bound_to 10162
  156.8836  130.5188  149.5289 LP  0  0  0  0  0  0  0  0  0  0  0  0  # atno 17370 bound_to 10713
  156.0757  130.5779  150.9468 LP  0  0  0  0  0  0  0  0  0  0  0  0  # atno 17371 bound_to 10713
  140.0766  134.9672  157.1555 LP  0  0  0  0  0  0  0  0  0  0  0  0  # atno 17394 bound_to 11000
  140.3635  134.2468  155.7184 LP  0  0  0  0  0  0  0  0  0  0  0  0  # atno 17395 bound_to 11000

$$$$
