AV-unprocessed.smi:97|AV-procd|sdf|861|dock2
  -GOLD-   2262017303D 1   1.00000     0.00000
 Structure written by MMmdl.
 46 49  0  0  0  0  0  0  0  0  1 V2000
  152.1890  136.7460  155.6811 O   0  0  0  0  0  0  0  0  0  0  0  0
  151.4842  137.5954  156.2288 C   0  0  0  0  0  0  0  0  0  0  0  0
  151.7815  139.0943  156.0723 C   0  0  0  0  0  0  0  0  0  0  0  0
  152.0281  139.7814  157.3590 N   0  0  0  0  0  0  0  0  0  0  0  0
  152.9379  139.1949  158.2739 C   0  0  0  0  0  0  0  0  0  0  0  0
  153.4976  138.1266  158.0217 O   0  0  0  0  0  0  0  0  0  0  0  0
  153.1649  139.9446  159.5040 C   0  0  0  0  0  0  0  0  0  0  0  0
  154.0242  139.4728  160.4231 F   0  0  0  0  0  0  0  0  0  0  0  0
  152.5270  141.1107  159.7336 C   0  0  0  0  0  0  0  0  0  0  0  0
  151.6252  141.6606  158.8437 N   0  0  0  0  0  0  0  0  0  0  0  0
  150.9953  142.9968  159.1627 C   0  0  2  0  0  0  0  0  0  0  0  0
  151.3845  144.1135  158.1756 C   0  0  0  0  0  0  0  0  0  0  0  0
  152.0233  145.1573  159.0772 C   0  0  0  0  0  0  0  0  0  0  0  0
  151.4613  144.8090  160.4510 C   0  0  0  0  0  0  0  0  0  0  0  0
  151.4091  143.3910  160.4345 O   0  0  0  0  0  0  0  0  0  0  0  0
  151.3800  141.0146  157.6099 C   0  0  0  0  0  0  0  0  0  0  0  0
  150.6289  141.5139  156.7706 O   0  0  0  0  0  0  0  0  0  0  0  0
  150.4245  137.2865  156.9908 N   0  0  0  0  0  0  0  0  0  0  0  0
  149.9934  135.9285  157.3060 C   0  0  0  0  0  0  0  0  0  0  0  0
  148.9305  135.8542  158.3939 C   0  0  0  0  0  0  0  0  0  0  0  0
  147.8459  134.9502  158.2459 C   0  0  0  0  0  0  0  0  0  0  0  0
  146.8402  134.8543  159.2345 C   0  0  0  0  0  0  0  0  0  0  0  0
  146.9491  135.6849  160.3613 C   0  0  0  0  0  0  0  0  0  0  0  0
  147.9967  136.5698  160.5090 C   0  0  0  0  0  0  0  0  0  0  0  0
  149.0074  136.6845  159.5412 C   0  0  0  0  0  0  0  0  0  0  0  0
  147.8597  137.2462  161.6777 O   0  0  0  0  0  0  0  0  0  0  0  0
  146.6848  136.7553  162.2697 C   0  0  0  0  0  0  0  0  0  0  0  0
  146.1215  135.7776  161.4332 O   0  0  0  0  0  0  0  0  0  0  0  0
  152.6260  139.2068  155.3907 H   0  0  0  0  0  0  0  0  0  0  0  0
  150.9507  139.5636  155.5422 H   0  0  0  0  0  0  0  0  0  0  0  0
  152.7350  141.6292  160.6580 H   0  0  0  0  0  0  0  0  0  0  0  0
  149.9177  142.8268  159.1731 H   0  0  0  0  0  0  0  0  0  0  0  0
  152.0522  143.7637  157.3878 H   0  0  0  0  0  0  0  0  0  0  0  0
  150.4758  144.4987  157.7122 H   0  0  0  0  0  0  0  0  0  0  0  0
  153.1072  145.0402  159.0788 H   0  0  0  0  0  0  0  0  0  0  0  0
  151.7958  146.1791  158.7731 H   0  0  0  0  0  0  0  0  0  0  0  0
  152.0820  145.1788  161.2671 H   0  0  0  0  0  0  0  0  0  0  0  0
  150.4539  145.2107  160.5726 H   0  0  0  0  0  0  0  0  0  0  0  0
  149.8942  138.0421  157.3998 H   0  0  0  0  0  0  0  0  0  0  0  0
  149.5862  135.4818  156.3990 H   0  0  0  0  0  0  0  0  0  0  0  0
  150.8591  135.3252  157.5850 H   0  0  0  0  0  0  0  0  0  0  0  0
  147.7849  134.3213  157.3698 H   0  0  0  0  0  0  0  0  0  0  0  0
  146.0154  134.1655  159.1271 H   0  0  0  0  0  0  0  0  0  0  0  0
  149.8160  137.3873  159.6781 H   0  0  0  0  0  0  0  0  0  0  0  0
  146.9207  136.3152  163.2391 H   0  0  0  0  0  0  0  0  0  0  0  0
  145.9758  137.5725  162.4062 H   0  0  0  0  0  0  0  0  0  0  0  0
  1  2  2  0  0  0  0
  2  3  1  0  0  0  0
  2 18  1  0  0  0  0
  3  4  1  0  0  0  0
  3 29  1  0  0  0  0
  3 30  1  0  0  0  0
  4 16  1  0  0  0  0
  4  5  1  0  0  0  0
  5  6  2  0  0  0  0
  5  7  1  0  0  0  0
  7  8  1  0  0  0  0
  7  9  2  0  0  0  0
  9 10  1  0  0  0  0
  9 31  1  0  0  0  0
 10 11  1  0  0  0  0
 10 16  1  0  0  0  0
 11 15  1  0  0  0  0
 11 12  1  0  0  0  0
 11 32  1  0  0  0  0
 12 13  1  0  0  0  0
 12 33  1  0  0  0  0
 12 34  1  0  0  0  0
 13 14  1  0  0  0  0
 13 35  1  0  0  0  0
 13 36  1  0  0  0  0
 14 15  1  0  0  0  0
 14 37  1  0  0  0  0
 14 38  1  0  0  0  0
 16 17  2  0  0  0  0
 18 19  1  0  0  0  0
 18 39  1  0  0  0  0
 19 20  1  0  0  0  0
 19 40  1  0  0  0  0
 19 41  1  0  0  0  0
 20 25  1  0  0  0  0
 20 21  2  0  0  0  0
 21 22  1  0  0  0  0
 21 42  1  0  0  0  0
 22 23  2  0  0  0  0
 22 43  1  0  0  0  0
 23 28  1  0  0  0  0
 23 24  1  0  0  0  0
 24 25  2  0  0  0  0
 24 26  1  0  0  0  0
 25 44  1  0  0  0  0
 26 27  1  0  0  0  0
 27 28  1  0  0  0  0
 27 45  1  0  0  0  0
 27 46  1  0  0  0  0
M  END
> <s_m_source_file>
AV-unprocessed.smi

> <i_m_source_file_index>
97

> <i_lp_mmshare_version>
43012

> <i_f3d_flags>
0

> <s_epik_input>
TzFbQ0gyXU9jKGMxMilbY0hdYyhbY0hdW2NIXTIpW0NIMl1bTkhdQyg9TylbQ0gyXW4zYyg9TyljKEYpW2NIXW4oYzM9TylbQ0BASF00W0NIMl1bQ0gyXVtDSDJdTzQ=

> <s_epik_cmdline>
J2VwaWtfcHl0aG9uJywgJy1waCcsICc3LjAnLCAnLXRuJywgJzgnLCAnLW1hJywgJzIwMCcsICctbWV0YWxfYmluZGluZycsICctaW1hZScsICc8aW5maWxlLm1hZT4nLCAnLW9tYWUnLCAnPG91dGZpbGUubWFlPic=

> <r_lp_tautomer_probability>
1

> <r_epik_Ionization_Penalty>
3.79042e-08

> <r_epik_Ionization_Penalty_Charging>
3.81036e-09

> <r_epik_Ionization_Penalty_Neutral>
3.40938e-08

> <r_epik_State_Penalty>
-0

> <r_epik_Charging_Adjusted_Penalty>
3.81036e-09

> <i_epik_Tot_Q>
0

> <i_epik_Tot_abs_Q>
0

> <r_epik_Metal_State_Penalty>
-0

> <b_epik_Metal_Only>
0

> <s_epik_Chemistry_Notes>
This compound contains an acetal/aminal-like group ( X-CH(R)-Y where X, Y are N, S, or O) that may be acid/base labile, releasing an aldehyde.

> <s_lp_Force_Field>
OPLS_2005

> <r_lp_Energy>
33.0069

> <b_lp_Chiralities_Consistent>
1

> <s_lp_Variant>
AV-unprocessed.smi:97-1

> <Gold.Version>
5.8.1

> <Gold.Id.Protein>
6NUR|6NUR_protein|mol2

> <Gold.PLP.Fitness>
50.7366

> <Gold.PLP.PLP>
-43.7861

> <Gold.PLP.part.hbond>
-3.2036

> <Gold.PLP.part.metal>
0.0000

> <Gold.PLP.part.buried>
-5.8775

> <Gold.PLP.part.nonpolar>
-35.1912

> <Gold.PLP.part.repulsive>
0.2066

> <Gold.PLP.ligand.clash>
0.0812

> <Gold.PLP.ligand.torsion>
0.4786

> <Gold.PLP.Chemscore.Hbond>
2.6400

> <Gold.PLP.Chemscore.CHOScore>
0.0000

> <Gold.PLP.Chemscore.Metal>
0.0000

> <Gold.Chemscore.Hbonds>
donor molecule, donor type, donor heavy atom, donor atom, acceptor molecule, acceptor atom, score
      P1  H  6931  6943       L1    26  1.00
      P1  H  6934  6947       L1    26  0.60
      P1  H 10752 10763       L1     1  1.00

> <Gold.PLP.Chemscore.Internal.Correction>
0.0689

> <Gold.Rescore>
     Score         DG    S(hbond)    S(metal)    S(lipo)     H(rot)  DE(clash)    DE(int)     intcor
     12.88     -14.86       1.91        0.00      81.97       2.58       0.00       1.98       ----

> <Gold.Chemscore.Fitness>
12.8837

> <Gold.Chemscore.DG>
-14.8611

> <Gold.Chemscore.ZeroCoef>
-5.4800

> <Gold.Chemscore.Hbond>
1.9148

> <Gold.Chemscore.Metal>
0.0000

> <Gold.Chemscore.Lipo>
81.9706

> <Gold.Chemscore.Internal_Hbond>
0.0000

> <Gold.Chemscore.DEClash>
0.0000

> <Gold.Chemscore.DEInternal>
1.9774

> <Gold.Chemscore.Rot>
2.5801

> <Gold.Chemscore.Internal.Correction>
   9.000000E+99

> <Gold.Chemscore.Hbonds>
donor molecule, donor type, donor heavy atom, donor atom, acceptor molecule, acceptor atom, score
      P1  H  6931  6943       L1    26  0.76
      P1  H  6934  6947       L1    26  0.04
      P1  H 10752 10763       L1     1  0.95

> <Gold.Chemscore.Hbond.Weighted>
-6.3955

> <Gold.Chemscore.Metal.Weighted>
-0.0000

> <Gold.Chemscore.Lipo.Weighted>
-9.5906

> <Gold.Chemscore.Internal_Hbond.Weighted>
0.0000

> <Gold.Chemscore.DEClash.Weighted>
0.0000

> <Gold.Chemscore.DEInternal.Weighted>
1.9774

> <Gold.Chemscore.Rot.Weighted>
6.6050

> <Gold.Chemscore.Internal.Correction.Weighted>
   9.000000E+99

> <Gold.Protein.RotatedTorsions>
[ 6907 6896 6895 6894 ] final   94.08 input  -60.11 | X-H torsion
[ 7974 7965 7964 7962 ] final -110.57 input  175.53 | X-H torsion
[ 8008 7997 7996 7995 ] final  -90.97 input   59.86 | X-H torsion
[ 10167 10162 10161 10158 ] final   32.29 input  -65.29 | X-H torsion
[ 10718 10713 10712 10709 ] final  126.44 input   66.30 | X-H torsion
[ 10763 10752 10751 10750 ] final   75.90 input  -60.55 | X-H torsion
[ 11005 11000 10999 10996 ] final -113.69 input  -57.11 | X-H torsion

> <Gold.Protein.ActiveResidues>
 VAL166  LYS551  ARG553  GLY616  TRP617  ASP618  TYR619  PRO620  LYS621  CYS622 
 ASP623  PHE694  ASN695  SER759  ASP760  ASP761  ALA762  ILE779  LEU786  VAL792 
 PHE793  MET794  SER795  GLU796  ALA797  LYS798  CYS799  TRP800  GLU811  SER814 

> <Gold.Protein.RotatedAtoms>
  152.5451  134.1248  159.8413 H   0  0  0  0  0  0  0  0  0  0  0  0  # atno 6907 bound_to 6896
  151.1300  133.5036  159.2607 H   0  0  0  0  0  0  0  0  0  0  0  0  # atno 6908 bound_to 6896
  151.1685  135.0317  159.8796 H   0  0  0  0  0  0  0  0  0  0  0  0  # atno 6909 bound_to 6896
  145.1667  140.8905  143.3559 H   0  0  0  0  0  0  0  0  0  0  0  0  # atno 7974 bound_to 7965
  154.7050  140.0524  157.0495 H   0  0  0  0  0  0  0  0  0  0  0  0  # atno 8008 bound_to 7997
  155.0632  140.3191  155.4635 H   0  0  0  0  0  0  0  0  0  0  0  0  # atno 8009 bound_to 7997
  156.2772  140.2095  156.5759 H   0  0  0  0  0  0  0  0  0  0  0  0  # atno 8010 bound_to 7997
  140.4512  144.1045  150.6192 H   0  0  0  0  0  0  0  0  0  0  0  0  # atno 10167 bound_to 10162
  157.5419  131.1096  150.8845 H   0  0  0  0  0  0  0  0  0  0  0  0  # atno 10718 bound_to 10713
  153.0687  135.4971  154.8257 H   0  0  0  0  0  0  0  0  0  0  0  0  # atno 10763 bound_to 10752
  154.6991  135.2998  154.9369 H   0  0  0  0  0  0  0  0  0  0  0  0  # atno 10764 bound_to 10752
  154.0099  135.6755  153.4817 H   0  0  0  0  0  0  0  0  0  0  0  0  # atno 10765 bound_to 10752
  141.0598  133.9553  157.2687 H   0  0  0  0  0  0  0  0  0  0  0  0  # atno 11005 bound_to 11000
  145.0275  139.3370  143.6041 LP  0  0  0  0  0  0  0  0  0  0  0  0  # atno 17320 bound_to 7965
  146.3475  139.9600  142.8718 LP  0  0  0  0  0  0  0  0  0  0  0  0  # atno 17321 bound_to 7965
  140.4205  143.2614  151.9721 LP  0  0  0  0  0  0  0  0  0  0  0  0  # atno 17342 bound_to 10162
  139.4797  144.5835  151.7892 LP  0  0  0  0  0  0  0  0  0  0  0  0  # atno 17343 bound_to 10162
  156.9396  130.5379  149.5280 LP  0  0  0  0  0  0  0  0  0  0  0  0  # atno 17370 bound_to 10713
  156.0503  130.5574  150.8975 LP  0  0  0  0  0  0  0  0  0  0  0  0  # atno 17371 bound_to 10713
  139.9423  135.0189  156.8745 LP  0  0  0  0  0  0  0  0  0  0  0  0  # atno 17394 bound_to 11000
  140.5891  134.0279  155.7492 LP  0  0  0  0  0  0  0  0  0  0  0  0  # atno 17395 bound_to 11000

$$$$
