AV-unprocessed.smi:283|AV-procd|sdf|2132|dock1
  -GOLD-   2262021443D 1   1.00000     0.00000
 Structure written by MMmdl.
 48 51  0  0  0  0  0  0  0  0  1 V2000
  151.7134  138.8912  158.1173 C   0  0  0  0  0  0  0  0  0  0  0  0
  152.2029  140.2571  157.6185 C   0  0  1  0  0  0  0  0  0  0  0  0
  151.2485  140.8036  156.6551 N   0  0  0  0  0  0  0  0  0  0  0  0
  150.5357  139.9780  155.8573 C   0  0  0  0  0  0  0  0  0  0  0  0
  151.1835  139.5103  154.7640 N   0  0  0  0  0  0  0  0  0  0  0  0
  150.5730  138.6562  153.9383 C   0  0  0  0  0  0  0  0  0  0  0  0
  149.3393  138.1560  154.0200 N   0  0  0  0  0  0  0  0  0  0  0  0
  148.6703  138.6379  155.1072 C   0  0  0  0  0  0  0  0  0  0  0  0
  149.1914  139.5516  156.0679 C   0  0  0  0  0  0  0  0  0  0  0  0
  148.2168  139.8197  157.0220 N   0  0  0  0  0  0  0  0  0  0  0  0
  147.1963  139.0942  156.6569 C   0  0  0  0  0  0  0  0  0  0  0  0
  147.3838  138.3460  155.5179 N   0  0  0  0  0  0  0  0  0  0  0  0
  146.4011  137.4162  154.8763 C   0  0  1  0  0  0  0  0  0  0  0  0
  145.2441  137.3382  155.6541 O   0  0  0  0  0  0  0  0  0  0  0  0
  144.0763  137.2987  154.8296 C   0  0  1  0  0  0  0  0  0  0  0  0
  143.2192  138.5366  155.1644 C   0  0  0  0  0  0  0  0  0  0  0  0
  143.9641  139.7233  154.9865 O   0  0  0  0  0  0  0  0  0  0  0  0
  144.6101  137.2138  153.3870 C   0  0  1  0  0  0  0  0  0  0  0  0
  143.7846  137.7805  152.3864 O   0  0  0  0  0  0  0  0  0  0  0  0
  145.9831  137.8593  153.4692 C   0  0  1  0  0  0  0  0  0  0  0  0
  145.9460  139.2682  153.3075 O   0  0  0  0  0  0  0  0  0  0  0  0
  152.5124  141.1777  158.8034 C   0  0  0  0  0  0  0  0  0  0  0  0
  153.2283  140.6755  159.9154 C   0  0  0  0  0  0  0  0  0  0  0  0
  153.5101  141.4993  161.0208 C   0  0  0  0  0  0  0  0  0  0  0  0
  153.0873  142.8404  161.0231 C   0  0  0  0  0  0  0  0  0  0  0  0
  152.3905  143.3565  159.9151 C   0  0  0  0  0  0  0  0  0  0  0  0
  152.1058  142.5361  158.8051 C   0  0  0  0  0  0  0  0  0  0  0  0
  151.2598  143.2306  157.4663 Cl  0  0  0  0  0  0  0  0  0  0  0  0
  146.8923  136.4421  154.8775 H   0  0  0  0  0  0  0  0  0  0  0  0
  143.5160  136.3963  155.0780 H   0  0  0  0  0  0  0  0  0  0  0  0
  144.7458  136.1593  153.1421 H   0  0  0  0  0  0  0  0  0  0  0  0
  146.6753  137.4473  152.7344 H   0  0  0  0  0  0  0  0  0  0  0  0
  152.4525  138.4251  158.7695 H   0  0  0  0  0  0  0  0  0  0  0  0
  151.5338  138.2097  157.2853 H   0  0  0  0  0  0  0  0  0  0  0  0
  150.7840  138.9832  158.6804 H   0  0  0  0  0  0  0  0  0  0  0  0
  153.1192  140.0737  157.0604 H   0  0  0  0  0  0  0  0  0  0  0  0
  151.4185  141.7656  156.4004 H   0  0  0  0  0  0  0  0  0  0  0  0
  151.1578  138.3215  153.0942 H   0  0  0  0  0  0  0  0  0  0  0  0
  146.2727  139.0815  157.2171 H   0  0  0  0  0  0  0  0  0  0  0  0
  142.3629  138.5866  154.4912 H   0  0  0  0  0  0  0  0  0  0  0  0
  142.8229  138.4928  156.1786 H   0  0  0  0  0  0  0  0  0  0  0  0
  143.7301  140.1016  154.1524 H   0  0  0  0  0  0  0  0  0  0  0  0
  143.8334  138.7217  152.4620 H   0  0  0  0  0  0  0  0  0  0  0  0
  145.0653  139.5188  153.0732 H   0  0  0  0  0  0  0  0  0  0  0  0
  153.5618  139.6482  159.9297 H   0  0  0  0  0  0  0  0  0  0  0  0
  154.0510  141.1011  161.8667 H   0  0  0  0  0  0  0  0  0  0  0  0
  153.3017  143.4740  161.8710 H   0  0  0  0  0  0  0  0  0  0  0  0
  152.0741  144.3891  159.9171 H   0  0  0  0  0  0  0  0  0  0  0  0
  1  2  1  0  0  0  0
  1 33  1  0  0  0  0
  1 34  1  0  0  0  0
  1 35  1  0  0  0  0
  2  3  1  0  0  0  0
  2 22  1  0  0  0  0
  2 36  1  0  0  0  0
  3  4  1  0  0  0  0
  3 37  1  0  0  0  0
  4  9  1  0  0  0  0
  4  5  2  0  0  0  0
  5  6  1  0  0  0  0
  6  7  2  0  0  0  0
  6 38  1  0  0  0  0
  7  8  1  0  0  0  0
  8 12  1  0  0  0  0
  8  9  2  0  0  0  0
  9 10  1  0  0  0  0
 10 11  2  0  0  0  0
 11 12  1  0  0  0  0
 11 39  1  0  0  0  0
 12 13  1  0  0  0  0
 13 29  1  0  0  0  0
 13 20  1  0  0  0  0
 13 14  1  0  0  0  0
 14 15  1  0  0  0  0
 15 30  1  0  0  0  0
 15 16  1  0  0  0  0
 15 18  1  0  0  0  0
 16 17  1  0  0  0  0
 16 40  1  0  0  0  0
 16 41  1  0  0  0  0
 17 42  1  0  0  0  0
 18 31  1  0  0  0  0
 18 19  1  0  0  0  0
 18 20  1  0  0  0  0
 19 43  1  0  0  0  0
 20 32  1  0  0  0  0
 20 21  1  0  0  0  0
 21 44  1  0  0  0  0
 22 27  1  0  0  0  0
 22 23  2  0  0  0  0
 23 24  1  0  0  0  0
 23 45  1  0  0  0  0
 24 25  2  0  0  0  0
 24 46  1  0  0  0  0
 25 26  1  0  0  0  0
 25 47  1  0  0  0  0
 26 27  2  0  0  0  0
 26 48  1  0  0  0  0
 27 28  1  0  0  0  0
M  END
> <s_m_source_file>
AV-unprocessed.smi

> <i_m_source_file_index>
283

> <i_lp_mmshare_version>
43012

> <i_f3d_flags>
0

> <s_epik_input>
Q2xjMVtjSF1bY0hdW2NIXVtjSF1jMVtDQEhdKFtDSDNdKVtOSF1jKG5bY0hdbjIpYyhjMjMpbltjSF1uM1tDQEBIXTRPW0NASF0oW0NIMl1bT0hdKVtDQEBIXShbT0hdKVtDQEhdNFtPSF0=

> <s_epik_cmdline>
J2VwaWtfcHl0aG9uJywgJy1waCcsICc3LjAnLCAnLXRuJywgJzgnLCAnLW1hJywgJzIwMCcsICctbWV0YWxfYmluZGluZycsICctaW1hZScsICc8aW5maWxlLm1hZT4nLCAnLW9tYWUnLCAnPG91dGZpbGUubWFlPic=

> <r_lp_tautomer_probability>
1

> <r_epik_Ionization_Penalty>
0.000266407

> <r_epik_Ionization_Penalty_Charging>
0

> <r_epik_Ionization_Penalty_Neutral>
0.000266407

> <r_epik_State_Penalty>
-0

> <r_epik_Charging_Adjusted_Penalty>
0

> <i_epik_Tot_Q>
0

> <i_epik_Tot_abs_Q>
0

> <r_epik_Metal_State_Penalty>
-0

> <b_epik_Metal_Only>
0

> <s_epik_Chemistry_Notes>
This compound contains an acetal/aminal-like group ( X-CH(R)-Y where X, Y are N, S, or O) that may be acid/base labile, releasing an aldehyde.

> <s_lp_Force_Field>
OPLS_2005

> <r_lp_Energy>
55.3457

> <b_lp_Chiralities_Consistent>
1

> <s_lp_Variant>
AV-unprocessed.smi:283-8

> <Gold.Version>
5.8.1

> <Gold.Id.Protein>
6NUR|6NUR_protein|mol2

> <Gold.PLP.Fitness>
47.1511

> <Gold.PLP.PLP>
-36.8830

> <Gold.PLP.part.hbond>
-5.0000

> <Gold.PLP.part.metal>
0.0000

> <Gold.PLP.part.buried>
-7.2243

> <Gold.PLP.part.nonpolar>
-27.1735

> <Gold.PLP.part.repulsive>
1.7548

> <Gold.PLP.ligand.clash>
0.0000

> <Gold.PLP.ligand.torsion>
1.4462

> <Gold.PLP.Chemscore.Hbond>
4.0000

> <Gold.PLP.Chemscore.CHOScore>
0.3168

> <Gold.PLP.Chemscore.Metal>
0.0000

> <Gold.Chemscore.Hbonds>
donor molecule, donor type, donor heavy atom, donor atom, acceptor molecule, acceptor atom, score
      L1  H    17    42       P1 10175  1.00
      L1  H    19    43       P1 10175  1.00
      L1  H    21    44       P1 10175  1.00
      P1  H  7989  7998       L1     5  0.95
      L1  C     6    38       P1  7949  0.27

> <Gold.PLP.Chemscore.Internal.Correction>
0.2103

> <Gold.Rescore>
     Score         DG    S(hbond)    S(metal)    S(lipo)     H(rot)  DE(clash)    DE(int)     intcor
     13.89     -17.57       3.38        0.00      96.44       4.10       0.51       3.18       ----

> <Gold.Chemscore.Fitness>
13.8857

> <Gold.Chemscore.DG>
-17.5706

> <Gold.Chemscore.ZeroCoef>
-5.4800

> <Gold.Chemscore.Hbond>
3.3816

> <Gold.Chemscore.Metal>
0.0000

> <Gold.Chemscore.Lipo>
96.4436

> <Gold.Chemscore.Internal_Hbond>
0.0000

> <Gold.Chemscore.DEClash>
0.5069

> <Gold.Chemscore.DEInternal>
3.1780

> <Gold.Chemscore.Rot>
4.0968

> <Gold.Chemscore.Internal.Correction>
   9.000000E+99

> <Gold.Chemscore.Hbonds>
donor molecule, donor type, donor heavy atom, donor atom, acceptor molecule, acceptor atom, score
      L1  H    17    42       P1 10175  1.00
      L1  H    19    43       P1 10175  1.00
      L1  H    21    44       P1 10175  1.00
      P1  H  7989  7998       L1     5  0.19

> <Gold.Chemscore.Hbond.Weighted>
-11.2947

> <Gold.Chemscore.Metal.Weighted>
-0.0000

> <Gold.Chemscore.Lipo.Weighted>
-11.2839

> <Gold.Chemscore.Internal_Hbond.Weighted>
0.0000

> <Gold.Chemscore.DEClash.Weighted>
0.5069

> <Gold.Chemscore.DEInternal.Weighted>
3.1780

> <Gold.Chemscore.Rot.Weighted>
10.4879

> <Gold.Chemscore.Internal.Correction.Weighted>
   9.000000E+99

> <Gold.Protein.RotatedTorsions>
[ 6907 6896 6895 6894 ] final -123.65 input  -60.11 | X-H torsion
[ 7974 7965 7964 7962 ] final  -63.06 input  175.53 | X-H torsion
[ 8008 7997 7996 7995 ] final  120.15 input   59.86 | X-H torsion
[ 10167 10162 10161 10158 ] final  174.11 input  -65.29 | X-H torsion
[ 10718 10713 10712 10709 ] final   27.88 input   66.30 | X-H torsion
[ 10763 10752 10751 10750 ] final -130.39 input  -60.55 | X-H torsion
[ 11005 11000 10999 10996 ] final   68.02 input  -57.11 | X-H torsion

> <Gold.Protein.ActiveResidues>
 VAL166  LYS551  ARG553  GLY616  TRP617  ASP618  TYR619  PRO620  LYS621  CYS622 
 ASP623  PHE694  ASN695  SER759  ASP760  ASP761  ALA762  ILE779  LEU786  VAL792 
 PHE793  MET794  SER795  GLU796  ALA797  LYS798  CYS799  TRP800  GLU811  SER814 

> <Gold.Protein.RotatedAtoms>
  150.8691  133.7531  159.2966 H   0  0  0  0  0  0  0  0  0  0  0  0  # atno 6907 bound_to 6896
  151.5149  135.1064  159.9873 H   0  0  0  0  0  0  0  0  0  0  0  0  # atno 6908 bound_to 6896
  152.4682  133.7926  159.6966 H   0  0  0  0  0  0  0  0  0  0  0  0  # atno 6909 bound_to 6896
  145.7837  140.8748  143.0317 H   0  0  0  0  0  0  0  0  0  0  0  0  # atno 7974 bound_to 7965
  156.2629  140.2837  156.1104 H   0  0  0  0  0  0  0  0  0  0  0  0  # atno 8008 bound_to 7997
  155.1263  140.0393  157.2781 H   0  0  0  0  0  0  0  0  0  0  0  0  # atno 8009 bound_to 7997
  154.6632  140.2571  155.7092 H   0  0  0  0  0  0  0  0  0  0  0  0  # atno 8010 bound_to 7997
  139.5130  144.3184  152.0226 H   0  0  0  0  0  0  0  0  0  0  0  0  # atno 10167 bound_to 10162
  157.2261  130.7001  149.6292 H   0  0  0  0  0  0  0  0  0  0  0  0  # atno 10718 bound_to 10713
  154.8755  135.3864  154.4075 H   0  0  0  0  0  0  0  0  0  0  0  0  # atno 10763 bound_to 10752
  153.4793  135.7030  153.5952 H   0  0  0  0  0  0  0  0  0  0  0  0  # atno 10764 bound_to 10752
  153.4375  135.3864  155.2176 H   0  0  0  0  0  0  0  0  0  0  0  0  # atno 10765 bound_to 10752
  139.9736  134.6859  156.0398 H   0  0  0  0  0  0  0  0  0  0  0  0  # atno 11005 bound_to 11000
  144.6792  140.0025  143.7484 LP  0  0  0  0  0  0  0  0  0  0  0  0  # atno 17320 bound_to 7965
  146.0048  139.3120  143.0906 LP  0  0  0  0  0  0  0  0  0  0  0  0  # atno 17321 bound_to 7965
  140.2627  144.4050  150.6180 LP  0  0  0  0  0  0  0  0  0  0  0  0  # atno 17342 bound_to 10162
  140.6146  143.2171  151.6818 LP  0  0  0  0  0  0  0  0  0  0  0  0  # atno 17343 bound_to 10162
  155.9678  130.4504  150.5695 LP  0  0  0  0  0  0  0  0  0  0  0  0  # atno 17370 bound_to 10713
  157.3526  131.0736  151.1701 LP  0  0  0  0  0  0  0  0  0  0  0  0  # atno 17371 bound_to 10713
  141.1414  133.6564  156.3742 LP  0  0  0  0  0  0  0  0  0  0  0  0  # atno 17394 bound_to 11000
  140.5241  134.6275  157.5328 LP  0  0  0  0  0  0  0  0  0  0  0  0  # atno 17395 bound_to 11000

$$$$
