AV-unprocessed.smi:2451|AV-procd|sdf|9669|dock8
  -GOLD-   2272013303D 1   1.00000     0.00000
 Structure written by MMmdl.
 38 39  0  0  0  0  0  0  0  0  1 V2000
  153.0445  143.5392  163.1806 C   0  0  0  0  0  0  0  0  0  0  0  0
  153.0388  142.4635  162.0797 C   0  0  2  0  0  0  0  0  0  0  0  0
  154.2925  141.5747  162.2078 C   0  0  0  0  0  0  0  0  0  0  0  0
  154.3156  140.4587  161.1551 C   0  0  0  0  0  0  0  0  0  0  0  0
  154.2242  141.0289  159.7322 C   0  0  0  0  0  0  0  0  0  0  0  0
  153.0104  141.9596  159.5607 C   0  0  1  0  0  0  0  0  0  0  0  0
  151.7743  141.1680  159.5138 N   0  0  0  0  0  0  0  0  0  0  0  0
  151.5668  140.0210  158.2430 S   0  0  0  0  0  0  0  0  0  0  0  0
  152.9024  139.6922  157.7224 O   0  0  0  0  0  0  0  0  0  0  0  0
  150.6912  138.9513  158.7466 O   0  0  0  0  0  0  0  0  0  0  0  0
  150.6435  140.9887  156.9762 C   0  0  0  0  0  0  0  0  0  0  0  0
  150.4620  140.1552  155.7397 C   0  0  0  0  0  0  0  0  0  0  0  0
  149.5942  140.3852  154.6363 C   0  0  0  0  0  0  0  0  0  0  0  0
  149.8373  139.3243  153.8125 C   0  0  0  0  0  0  0  0  0  0  0  0
  150.7777  138.5092  154.3529 O   0  0  0  0  0  0  0  0  0  0  0  0
  151.1716  139.0487  155.5826 N   0  0  0  0  0  0  0  0  0  0  0  0
  152.9370  143.0601  160.6497 C   0  0  1  0  0  0  0  0  0  0  0  0
  151.7176  143.9805  160.4425 C   0  0  0  0  0  0  0  0  0  0  0  0
  153.8555  144.2531  163.0350 H   0  0  0  0  0  0  0  0  0  0  0  0
  153.1726  143.0896  164.1657 H   0  0  0  0  0  0  0  0  0  0  0  0
  152.1074  144.0949  163.2072 H   0  0  0  0  0  0  0  0  0  0  0  0
  152.1651  141.8326  162.2488 H   0  0  0  0  0  0  0  0  0  0  0  0
  155.1905  142.1861  162.1080 H   0  0  0  0  0  0  0  0  0  0  0  0
  154.3338  141.1296  163.2026 H   0  0  0  0  0  0  0  0  0  0  0  0
  155.2266  139.8687  161.2589 H   0  0  0  0  0  0  0  0  0  0  0  0
  153.4853  139.7738  161.3308 H   0  0  0  0  0  0  0  0  0  0  0  0
  155.1344  141.5907  159.5193 H   0  0  0  0  0  0  0  0  0  0  0  0
  154.1907  140.2191  159.0021 H   0  0  0  0  0  0  0  0  0  0  0  0
  153.1194  142.4588  158.5965 H   0  0  0  0  0  0  0  0  0  0  0  0
  150.9538  141.7658  159.6101 H   0  0  0  0  0  0  0  0  0  0  0  0
  149.6821  141.2816  157.3980 H   0  0  0  0  0  0  0  0  0  0  0  0
  151.2052  141.8988  156.7637 H   0  0  0  0  0  0  0  0  0  0  0  0
  148.8994  141.1968  154.4783 H   0  0  0  0  0  0  0  0  0  0  0  0
  149.4417  139.0225  152.8540 H   0  0  0  0  0  0  0  0  0  0  0  0
  153.8183  143.6881  160.5078 H   0  0  0  0  0  0  0  0  0  0  0  0
  150.7840  143.4718  160.6841 H   0  0  0  0  0  0  0  0  0  0  0  0
  151.6540  144.3162  159.4070 H   0  0  0  0  0  0  0  0  0  0  0  0
  151.7786  144.8752  161.0611 H   0  0  0  0  0  0  0  0  0  0  0  0
  1  2  1  0  0  0  0
  1 19  1  0  0  0  0
  1 20  1  0  0  0  0
  1 21  1  0  0  0  0
  2 17  1  0  0  0  0
  2  3  1  0  0  0  0
  2 22  1  0  0  0  0
  3  4  1  0  0  0  0
  3 23  1  0  0  0  0
  3 24  1  0  0  0  0
  4  5  1  0  0  0  0
  4 25  1  0  0  0  0
  4 26  1  0  0  0  0
  5  6  1  0  0  0  0
  5 27  1  0  0  0  0
  5 28  1  0  0  0  0
  6  7  1  0  0  0  0
  6 17  1  0  0  0  0
  6 29  1  0  0  0  0
  7  8  1  0  0  0  0
  7 30  1  0  0  0  0
  8  9  2  0  0  0  0
  8 10  2  0  0  0  0
  8 11  1  0  0  0  0
 11 12  1  0  0  0  0
 11 31  1  0  0  0  0
 11 32  1  0  0  0  0
 12 16  2  0  0  0  0
 12 13  1  0  0  0  0
 13 14  2  0  0  0  0
 13 33  1  0  0  0  0
 14 15  1  0  0  0  0
 14 34  1  0  0  0  0
 15 16  1  0  0  0  0
 17 18  1  0  0  0  0
 17 35  1  0  0  0  0
 18 36  1  0  0  0  0
 18 37  1  0  0  0  0
 18 38  1  0  0  0  0
M  END
> <s_m_source_file>
AV-unprocessed.smi

> <i_m_source_file_index>
2451

> <i_lp_mmshare_version>
43012

> <i_f3d_flags>
0

> <s_epik_input>
W0NIM11bQ0BASF0xW0NIMl1bQ0gyXVtDSDJdW0NASF0oW0NASF0xW0NIM10pW05IXVMoPU8pKD1PKVtDSDJdYzJbY0hdW2NIXW9uMg==

> <s_epik_cmdline>
J2VwaWtfcHl0aG9uJywgJy1waCcsICc3LjAnLCAnLXRuJywgJzgnLCAnLW1hJywgJzIwMCcsICctbWV0YWxfYmluZGluZycsICctaW1hZScsICc8aW5maWxlLm1hZT4nLCAnLW9tYWUnLCAnPG91dGZpbGUubWFlPic=

> <r_lp_tautomer_probability>
1

> <r_epik_Ionization_Penalty>
8.73668e-05

> <r_epik_Ionization_Penalty_Charging>
0

> <r_epik_Ionization_Penalty_Neutral>
8.73668e-05

> <r_epik_State_Penalty>
-0

> <r_epik_Charging_Adjusted_Penalty>
0

> <i_epik_Tot_Q>
0

> <i_epik_Tot_abs_Q>
0

> <r_epik_Metal_State_Penalty>
0.0716439

> <b_epik_Metal_Only>
0

> <s_lp_Force_Field>
OPLS_2005

> <r_lp_Energy>
9.22722

> <b_lp_Chiralities_Consistent>
1

> <s_lp_Variant>
AV-unprocessed.smi:2451-1

> <Gold.Version>
5.8.1

> <Gold.Id.Protein>
6NUR|6NUR_protein|mol2

> <Gold.PLP.Fitness>
44.9612

> <Gold.PLP.PLP>
-38.1800

> <Gold.PLP.part.hbond>
-1.0894

> <Gold.PLP.part.metal>
0.0000

> <Gold.PLP.part.buried>
-0.7528

> <Gold.PLP.part.nonpolar>
-36.2635

> <Gold.PLP.part.repulsive>
0.1575

> <Gold.PLP.ligand.clash>
0.0000

> <Gold.PLP.ligand.torsion>
0.7662

> <Gold.PLP.Chemscore.Hbond>
1.0000

> <Gold.PLP.Chemscore.CHOScore>
1.7231

> <Gold.PLP.Chemscore.Metal>
0.0000

> <Gold.Chemscore.Hbonds>
donor molecule, donor type, donor heavy atom, donor atom, acceptor molecule, acceptor atom, score
      P1  H  7997  8008       L1     9  0.91
      L1  C    14    34       P1  7957  0.80

> <Gold.PLP.Chemscore.Internal.Correction>
0.1443

> <Gold.Rescore>
     Score         DG    S(hbond)    S(metal)    S(lipo)     H(rot)  DE(clash)    DE(int)     intcor
     13.79     -17.76       0.99        0.00     113.08       1.66       0.68       3.29       ----

> <Gold.Chemscore.Fitness>
13.7910

> <Gold.Chemscore.DG>
-17.7616

> <Gold.Chemscore.ZeroCoef>
-5.4800

> <Gold.Chemscore.Hbond>
0.9874

> <Gold.Chemscore.Metal>
0.0000

> <Gold.Chemscore.Lipo>
113.0781

> <Gold.Chemscore.Internal_Hbond>
0.0000

> <Gold.Chemscore.DEClash>
0.6845

> <Gold.Chemscore.DEInternal>
3.2861

> <Gold.Chemscore.Rot>
1.6588

> <Gold.Chemscore.Internal.Correction>
   9.000000E+99

> <Gold.Chemscore.Hbonds>
donor molecule, donor type, donor heavy atom, donor atom, acceptor molecule, acceptor atom, score
      P1  H  7997  8008       L1     9  0.89

> <Gold.Chemscore.Hbond.Weighted>
-3.2980

> <Gold.Chemscore.Metal.Weighted>
-0.0000

> <Gold.Chemscore.Lipo.Weighted>
-13.2301

> <Gold.Chemscore.Internal_Hbond.Weighted>
0.0000

> <Gold.Chemscore.DEClash.Weighted>
0.6845

> <Gold.Chemscore.DEInternal.Weighted>
3.2861

> <Gold.Chemscore.Rot.Weighted>
4.2466

> <Gold.Chemscore.Internal.Correction.Weighted>
   9.000000E+99

> <Gold.Protein.RotatedTorsions>
[ 6907 6896 6895 6894 ] final  164.14 input  -60.11 | X-H torsion
[ 7974 7965 7964 7962 ] final  -21.96 input  175.53 | X-H torsion
[ 8008 7997 7996 7995 ] final  -95.12 input   59.86 | X-H torsion
[ 10167 10162 10161 10158 ] final  -82.07 input  -65.29 | X-H torsion
[ 10718 10713 10712 10709 ] final   52.60 input   66.30 | X-H torsion
[ 10763 10752 10751 10750 ] final   74.41 input  -60.55 | X-H torsion
[ 11005 11000 10999 10996 ] final   91.06 input  -57.11 | X-H torsion

> <Gold.Protein.ActiveResidues>
 VAL166  LYS551  ARG553  GLY616  TRP617  ASP618  TYR619  PRO620  LYS621  CYS622 
 ASP623  PHE694  ASN695  SER759  ASP760  ASP761  ALA762  ILE779  LEU786  VAL792 
 PHE793  MET794  SER795  GLU796  ALA797  LYS798  CYS799  TRP800  GLU811  SER814 

> <Gold.Protein.RotatedAtoms>
  151.9144  133.3569  159.3874 H   0  0  0  0  0  0  0  0  0  0  0  0  # atno 6907 bound_to 6896
  150.7051  134.4699  159.5429 H   0  0  0  0  0  0  0  0  0  0  0  0  # atno 6908 bound_to 6896
  152.2311  134.8321  160.0524 H   0  0  0  0  0  0  0  0  0  0  0  0  # atno 6909 bound_to 6896
  146.1703  140.4413  142.8535 H   0  0  0  0  0  0  0  0  0  0  0  0  # atno 7974 bound_to 7965
  154.7572  140.0483  157.0943 H   0  0  0  0  0  0  0  0  0  0  0  0  # atno 8008 bound_to 7997
  154.9983  140.3121  155.4858 H   0  0  0  0  0  0  0  0  0  0  0  0  # atno 8009 bound_to 7997
  156.2897  140.2206  156.5092 H   0  0  0  0  0  0  0  0  0  0  0  0  # atno 8010 bound_to 7997
  140.4353  143.2534  151.8702 H   0  0  0  0  0  0  0  0  0  0  0  0  # atno 10167 bound_to 10162
  157.5090  130.8488  149.8411 H   0  0  0  0  0  0  0  0  0  0  0  0  # atno 10718 bound_to 10713
  153.0585  135.5027  154.8038 H   0  0  0  0  0  0  0  0  0  0  0  0  # atno 10763 bound_to 10752
  154.6845  135.2974  154.9569 H   0  0  0  0  0  0  0  0  0  0  0  0  # atno 10764 bound_to 10752
  154.0344  135.6725  153.4836 H   0  0  0  0  0  0  0  0  0  0  0  0  # atno 10765 bound_to 10752
  139.8845  134.8651  156.3374 H   0  0  0  0  0  0  0  0  0  0  0  0  # atno 11005 bound_to 11000
  144.8153  140.6457  143.6388 LP  0  0  0  0  0  0  0  0  0  0  0  0  # atno 17320 bound_to 7965
  145.4358  139.1542  143.3997 LP  0  0  0  0  0  0  0  0  0  0  0  0  # atno 17321 bound_to 7965
  139.4786  144.5289  151.8695 LP  0  0  0  0  0  0  0  0  0  0  0  0  # atno 17342 bound_to 10162
  140.4380  144.2025  150.5890 LP  0  0  0  0  0  0  0  0  0  0  0  0  # atno 17343 bound_to 10162
  156.0277  130.3774  150.1776 LP  0  0  0  0  0  0  0  0  0  0  0  0  # atno 17370 bound_to 10713
  156.9966  130.9909  151.3401 LP  0  0  0  0  0  0  0  0  0  0  0  0  # atno 17371 bound_to 10713
  140.9682  133.7345  156.0496 LP  0  0  0  0  0  0  0  0  0  0  0  0  # atno 17394 bound_to 11000
  140.7905  134.3623  157.5466 LP  0  0  0  0  0  0  0  0  0  0  0  0  # atno 17395 bound_to 11000

$$$$
