AV-unprocessed.smi:1106|AV-procd|sdf|4780|dock6
  -GOLD-   22720 3323D 1   1.00000     0.00000
 Structure written by MMmdl.
 48 49  0  0  0  0  0  0  0  0  2 V2000
  152.5327  139.2911  155.1408 C   0  0  0  0  0  0  0  0  0  0  0  0
  151.6040  140.4153  155.6235 C   0  0  0  0  0  0  0  0  0  0  0  0
  150.2416  139.9826  155.7954 N   0  0  0  0  0  0  0  0  0  0  0  0
  149.8379  139.2836  156.9164 C   0  0  0  0  0  0  0  0  0  0  0  0
  148.5674  138.8641  157.1000 C   0  0  0  0  0  0  0  0  0  0  0  0
  148.1744  138.1505  158.2698 C   0  0  0  0  0  0  0  0  0  0  0  0
  147.8608  137.5892  159.2321 N   0  0  0  0  0  0  0  0  0  0  0  0
  147.5331  139.1273  156.1017 C   0  0  0  0  0  0  0  0  0  0  0  0
  146.3537  138.7936  156.2334 O   0  0  0  0  0  0  0  0  0  0  0  0
  147.9877  139.8235  154.9532 N   0  0  0  0  0  0  0  0  0  0  0  0
  147.0111  140.1266  153.9189 C   0  0  0  0  0  0  0  0  0  0  0  0
  146.7883  138.9603  152.9313 C   0  0  1  0  0  0  0  0  0  0  0  0
  148.0409  138.5730  152.4011 O   0  0  0  0  0  0  0  0  0  0  0  0
  146.1968  137.7263  153.6411 C   0  0  0  0  0  0  0  0  0  0  0  0
  146.1538  136.5368  152.7530 N   0  3  2  0  0  0  0  0  0  0  0  0
  145.0948  136.6233  151.7129 C   0  0  0  0  0  0  0  0  0  0  0  0
  145.1829  135.4416  150.7309 C   0  0  0  0  0  0  0  0  0  0  0  0
  145.1276  134.0809  151.4495 C   0  0  2  0  0  0  0  0  0  0  0  0
  143.7174  133.7299  151.9553 C   0  0  0  0  0  0  0  0  0  0  0  0
  146.1851  134.0489  152.5683 C   0  0  0  0  0  0  0  0  0  0  0  0
  146.0751  135.2619  153.5102 C   0  0  0  0  0  0  0  0  0  0  0  0
  149.3157  140.2770  154.7674 C   0  0  0  0  0  0  0  0  0  0  0  0
  149.6529  140.9064  153.7610 O   0  0  0  0  0  0  0  0  0  0  0  0
  153.5588  139.6487  155.0573 H   0  0  0  0  0  0  0  0  0  0  0  0
  152.2342  138.9148  154.1622 H   0  0  0  0  0  0  0  0  0  0  0  0
  152.5291  138.4525  155.8377 H   0  0  0  0  0  0  0  0  0  0  0  0
  151.9251  140.7881  156.5970 H   0  0  0  0  0  0  0  0  0  0  0  0
  151.5962  141.2729  154.9482 H   0  0  0  0  0  0  0  0  0  0  0  0
  150.5690  139.0644  157.6815 H   0  0  0  0  0  0  0  0  0  0  0  0
  146.0856  140.4657  154.3874 H   0  0  0  0  0  0  0  0  0  0  0  0
  147.3846  141.0130  153.4027 H   0  0  0  0  0  0  0  0  0  0  0  0
  146.1374  139.2788  152.1173 H   0  0  0  0  0  0  0  0  0  0  0  0
  148.4354  139.3212  151.9779 H   0  0  0  0  0  0  0  0  0  0  0  0
  146.7973  137.5148  154.5277 H   0  0  0  0  0  0  0  0  0  0  0  0
  145.1893  137.9349  154.0046 H   0  0  0  0  0  0  0  0  0  0  0  0
  144.1137  136.6484  152.1891 H   0  0  0  0  0  0  0  0  0  0  0  0
  145.1901  137.5536  151.1539 H   0  0  0  0  0  0  0  0  0  0  0  0
  144.3863  135.5105  149.9892 H   0  0  0  0  0  0  0  0  0  0  0  0
  146.1189  135.5143  150.1753 H   0  0  0  0  0  0  0  0  0  0  0  0
  145.3937  133.3133  150.7215 H   0  0  0  0  0  0  0  0  0  0  0  0
  143.3585  134.4384  152.7014 H   0  0  0  0  0  0  0  0  0  0  0  0
  143.7024  132.7385  152.4087 H   0  0  0  0  0  0  0  0  0  0  0  0
  142.9990  133.7231  151.1349 H   0  0  0  0  0  0  0  0  0  0  0  0
  146.1053  133.1226  153.1385 H   0  0  0  0  0  0  0  0  0  0  0  0
  147.1787  134.0413  152.1183 H   0  0  0  0  0  0  0  0  0  0  0  0
  146.8872  135.2181  154.2370 H   0  0  0  0  0  0  0  0  0  0  0  0
  145.1440  135.2276  154.0773 H   0  0  0  0  0  0  0  0  0  0  0  0
  147.0419  136.5183  152.2717 H   0  0  0  0  0  0  0  0  0  0  0  0
  1  2  1  0  0  0  0
  1 24  1  0  0  0  0
  1 25  1  0  0  0  0
  1 26  1  0  0  0  0
  2  3  1  0  0  0  0
  2 27  1  0  0  0  0
  2 28  1  0  0  0  0
  3 22  1  0  0  0  0
  3  4  1  0  0  0  0
  4  5  2  0  0  0  0
  4 29  1  0  0  0  0
  5  6  1  0  0  0  0
  5  8  1  0  0  0  0
  6  7  3  0  0  0  0
  8  9  2  0  0  0  0
  8 10  1  0  0  0  0
 10 11  1  0  0  0  0
 10 22  1  0  0  0  0
 11 12  1  0  0  0  0
 11 30  1  0  0  0  0
 11 31  1  0  0  0  0
 12 13  1  0  0  0  0
 12 14  1  0  0  0  0
 12 32  1  0  0  0  0
 13 33  1  0  0  0  0
 14 15  1  0  0  0  0
 14 34  1  0  0  0  0
 14 35  1  0  0  0  0
 15 21  1  0  0  0  0
 15 16  1  0  0  0  0
 15 48  1  0  0  0  0
 16 17  1  0  0  0  0
 16 36  1  0  0  0  0
 16 37  1  0  0  0  0
 17 18  1  0  0  0  0
 17 38  1  0  0  0  0
 17 39  1  0  0  0  0
 18 19  1  0  0  0  0
 18 20  1  0  0  0  0
 18 40  1  0  0  0  0
 19 41  1  0  0  0  0
 19 42  1  0  0  0  0
 19 43  1  0  0  0  0
 20 21  1  0  0  0  0
 20 44  1  0  0  0  0
 20 45  1  0  0  0  0
 21 46  1  0  0  0  0
 21 47  1  0  0  0  0
 22 23  2  0  0  0  0
M  CHG  1  15   1
M  END
> <s_m_source_file>
AV-unprocessed.smi

> <i_m_source_file_index>
1106

> <i_lp_mmshare_version>
43012

> <i_f3d_flags>
0

> <s_epik_input>
W0NIM11bQ0gyXW4xW2NIXWMoQyNOKWMoPU8pbihjMT1PKVtDSDJdW0NASF0oW09IXSlbQ0gyXU4yW0NIMl1bQ0gyXVtDSF0oW0NIM10pW0NIMl1bQ0gyXTI=

> <s_epik_cmdline>
J2VwaWtfcHl0aG9uJywgJy1waCcsICc3LjAnLCAnLXRuJywgJzgnLCAnLW1hJywgJzIwMCcsICctbWV0YWxfYmluZGluZycsICctaW1hZScsICc8aW5maWxlLm1hZT4nLCAnLW9tYWUnLCAnPG91dGZpbGUubWFlPic=

> <r_epik_Ionization_Penalty>
0.00136816

> <r_epik_Ionization_Penalty_Charging>
0.00136813

> <r_epik_Ionization_Penalty_Neutral>
3.19882e-08

> <r_epik_State_Penalty>
0.000910892

> <r_epik_Charging_Adjusted_Penalty>
0.00227902

> <i_epik_Tot_Q>
1

> <i_epik_Tot_abs_Q>
1

> <r_epik_Metal_State_Penalty>
-0

> <b_epik_Metal_Only>
0

> <s_lp_Force_Field>
OPLS_2005

> <r_lp_Energy>
30.5318

> <b_lp_Chiralities_Consistent>
1

> <s_lp_Variant>
AV-unprocessed.smi:1106-4

> <Gold.Version>
5.8.1

> <Gold.Id.Protein>
6NUR|6NUR_protein|mol2

> <Gold.PLP.Fitness>
42.7261

> <Gold.PLP.PLP>
-30.4711

> <Gold.PLP.part.hbond>
-5.7501

> <Gold.PLP.part.metal>
0.0000

> <Gold.PLP.part.buried>
-1.7469

> <Gold.PLP.part.nonpolar>
-24.9598

> <Gold.PLP.part.repulsive>
2.1449

> <Gold.PLP.ligand.clash>
0.0000

> <Gold.PLP.ligand.torsion>
0.7975

> <Gold.PLP.Chemscore.Hbond>
4.5985

> <Gold.PLP.Chemscore.CHOScore>
0.0000

> <Gold.PLP.Chemscore.Metal>
0.0000

> <Gold.Chemscore.Hbonds>
donor molecule, donor type, donor heavy atom, donor atom, acceptor molecule, acceptor atom, score
      L1  H    13    33       P1  7957  1.00
      L1  H    15    48       P1  7948  2.00
      P1  H  6934  6947       L1     7  0.17
      P1  H  7989  7998       L1    23  0.40
      P1  H  8011  8017       L1    23  0.87

> <Gold.PLP.Chemscore.Internal.Correction>
0.0544

> <Gold.Rescore>
     Score         DG    S(hbond)    S(metal)    S(lipo)     H(rot)  DE(clash)    DE(int)     intcor
     14.85     -18.42       3.62        0.00      61.71       2.48       1.51       2.06       ----

> <Gold.Chemscore.Fitness>
14.8512

> <Gold.Chemscore.DG>
-18.4249

> <Gold.Chemscore.ZeroCoef>
-5.4800

> <Gold.Chemscore.Hbond>
3.6177

> <Gold.Chemscore.Metal>
0.0000

> <Gold.Chemscore.Lipo>
61.7104

> <Gold.Chemscore.Internal_Hbond>
0.0000

> <Gold.Chemscore.DEClash>
1.5089

> <Gold.Chemscore.DEInternal>
2.0647

> <Gold.Chemscore.Rot>
2.4838

> <Gold.Chemscore.Internal.Correction>
   9.000000E+99

> <Gold.Chemscore.Hbonds>
donor molecule, donor type, donor heavy atom, donor atom, acceptor molecule, acceptor atom, score
      L1  H    13    33       P1  7957  0.94
      L1  H    15    48       P1  7948  0.98
      P1  H  6934  6947       L1     7  0.15
      P1  H  7989  7998       L1    23  0.34
      P1  H  8011  8017       L1    23  0.80

> <Gold.Chemscore.Hbond.Weighted>
-12.0832

> <Gold.Chemscore.Metal.Weighted>
-0.0000

> <Gold.Chemscore.Lipo.Weighted>
-7.2201

> <Gold.Chemscore.Internal_Hbond.Weighted>
0.0000

> <Gold.Chemscore.DEClash.Weighted>
1.5089

> <Gold.Chemscore.DEInternal.Weighted>
2.0647

> <Gold.Chemscore.Rot.Weighted>
6.3585

> <Gold.Chemscore.Internal.Correction.Weighted>
   9.000000E+99

> <Gold.Protein.RotatedTorsions>
[ 6907 6896 6895 6894 ] final  -28.89 input  -60.11 | X-H torsion
[ 7974 7965 7964 7962 ] final -129.13 input  175.53 | X-H torsion
[ 8008 7997 7996 7995 ] final  -26.82 input   59.86 | X-H torsion
[ 10167 10162 10161 10158 ] final -143.44 input  -65.29 | X-H torsion
[ 10718 10713 10712 10709 ] final -103.57 input   66.30 | X-H torsion
[ 10763 10752 10751 10750 ] final  166.55 input  -60.55 | X-H torsion
[ 11005 11000 10999 10996 ] final -117.83 input  -57.11 | X-H torsion

> <Gold.Protein.ActiveResidues>
 VAL166  LYS551  ARG553  GLY616  TRP617  ASP618  TYR619  PRO620  LYS621  CYS622 
 ASP623  PHE694  ASN695  SER759  ASP760  ASP761  ALA762  ILE779  LEU786  VAL792 
 PHE793  MET794  SER795  GLU796  ALA797  LYS798  CYS799  TRP800  GLU811  SER814 

> <Gold.Protein.RotatedAtoms>
  151.1266  135.0108  159.8563 H   0  0  0  0  0  0  0  0  0  0  0  0  # atno 6907 bound_to 6896
  152.5450  134.1659  159.8587 H   0  0  0  0  0  0  0  0  0  0  0  0  # atno 6908 bound_to 6896
  151.1722  133.4732  159.2627 H   0  0  0  0  0  0  0  0  0  0  0  0  # atno 6909 bound_to 6896
  144.9603  140.7439  143.4733 H   0  0  0  0  0  0  0  0  0  0  0  0  # atno 7974 bound_to 7965
  154.4407  140.1889  156.0835 H   0  0  0  0  0  0  0  0  0  0  0  0  # atno 8008 bound_to 7997
  156.0421  140.3318  155.7229 H   0  0  0  0  0  0  0  0  0  0  0  0  # atno 8009 bound_to 7997
  155.5684  140.0610  157.2803 H   0  0  0  0  0  0  0  0  0  0  0  0  # atno 8010 bound_to 7997
  139.7993  143.7856  152.2657 H   0  0  0  0  0  0  0  0  0  0  0  0  # atno 10167 bound_to 10162
  156.0270  130.5474  150.7272 H   0  0  0  0  0  0  0  0  0  0  0  0  # atno 10718 bound_to 10713
  154.3407  135.2754  155.2424 H   0  0  0  0  0  0  0  0  0  0  0  0  # atno 10763 bound_to 10752
  154.4696  135.5886  153.6315 H   0  0  0  0  0  0  0  0  0  0  0  0  # atno 10764 bound_to 10752
  152.9858  135.6085  154.3608 H   0  0  0  0  0  0  0  0  0  0  0  0  # atno 10765 bound_to 10752
  141.0328  133.9955  157.3117 H   0  0  0  0  0  0  0  0  0  0  0  0  # atno 11005 bound_to 11000
  145.2711  139.1954  143.4841 LP  0  0  0  0  0  0  0  0  0  0  0  0  # atno 17320 bound_to 7965
  146.3351  140.2657  142.8604 LP  0  0  0  0  0  0  0  0  0  0  0  0  # atno 17321 bound_to 7965
  139.7971  144.7388  150.9875 LP  0  0  0  0  0  0  0  0  0  0  0  0  # atno 17342 bound_to 10162
  140.7820  143.4382  151.0591 LP  0  0  0  0  0  0  0  0  0  0  0  0  # atno 17343 bound_to 10162
  157.4874  131.0908  151.0467 LP  0  0  0  0  0  0  0  0  0  0  0  0  # atno 17370 bound_to 10713
  157.0883  130.5932  149.5434 LP  0  0  0  0  0  0  0  0  0  0  0  0  # atno 17371 bound_to 10713
  139.9220  135.0200  156.8097 LP  0  0  0  0  0  0  0  0  0  0  0  0  # atno 17394 bound_to 11000
  140.6376  133.9848  155.7692 LP  0  0  0  0  0  0  0  0  0  0  0  0  # atno 17395 bound_to 11000

$$$$
