AV-unprocessed.smi:1389|AV-procd|sdf|5646|dock9
  -GOLD-   22720 5263D 1   1.00000     0.00000
 Structure written by MMmdl.
 51 53  0  0  0  0  0  0  0  0  1 V2000
  149.4615  137.5934  157.7375 C   0  0  0  0  0  0  0  0  0  0  0  0
  149.1506  137.6931  156.2219 C   0  0  2  0  0  0  0  0  0  0  0  0
  150.2273  136.9026  155.4253 C   0  0  0  0  0  0  0  0  0  0  0  0
  149.6528  135.9202  154.5087 N   0  0  0  0  0  0  0  0  0  0  0  0
  149.5327  134.6064  154.7479 C   0  0  0  0  0  0  0  0  0  0  0  0
  149.9163  134.0618  155.7829 O   0  0  0  0  0  0  0  0  0  0  0  0
  148.9192  133.9847  153.7274 N   0  0  0  0  0  0  0  0  0  0  0  0
  148.5537  132.6123  153.6234 C   0  0  0  0  0  0  0  0  0  0  0  0
  149.2513  131.5869  154.3074 C   0  0  0  0  0  0  0  0  0  0  0  0
  148.8391  130.2519  154.1485 C   0  0  0  0  0  0  0  0  0  0  0  0
  147.7478  129.9868  153.3030 C   0  0  0  0  0  0  0  0  0  0  0  0
  147.0849  130.9494  152.6309 N   0  0  0  0  0  0  0  0  0  0  0  0
  147.4721  132.2399  152.7805 C   0  0  0  0  0  0  0  0  0  0  0  0
  146.7809  133.2208  152.0395 N   0  0  0  0  0  0  0  0  0  0  0  0
  145.8801  132.6658  151.0334 C   0  0  0  0  0  0  0  0  0  0  0  0
  144.6722  133.6022  150.9734 C   0  0  0  0  0  0  0  0  0  0  0  0
  144.6173  134.1771  152.3831 C   0  0  0  0  0  0  0  0  0  0  0  0
  146.0958  134.3012  152.7479 C   0  0  0  0  0  0  0  0  0  0  0  0
  148.9989  139.0934  155.7613 N   0  0  0  0  0  0  0  0  0  0  0  0
  150.2543  139.8515  155.8148 C   0  0  0  0  0  0  0  0  0  0  0  0
  150.1002  141.2983  155.3148 C   0  0  0  0  0  0  0  0  0  0  0  0
  149.5882  141.2958  153.9895 O   0  0  0  0  0  0  0  0  0  0  0  0
  148.3318  140.6380  153.9056 C   0  0  0  0  0  0  0  0  0  0  0  0
  148.4731  139.1861  154.3942 C   0  0  0  0  0  0  0  0  0  0  0  0
  149.5973  136.5648  158.0685 H   0  0  0  0  0  0  0  0  0  0  0  0
  148.6514  137.9783  158.3546 H   0  0  0  0  0  0  0  0  0  0  0  0
  150.3699  138.1414  157.9903 H   0  0  0  0  0  0  0  0  0  0  0  0
  148.1998  137.1828  156.0611 H   0  0  0  0  0  0  0  0  0  0  0  0
  150.8082  137.5652  154.7864 H   0  0  0  0  0  0  0  0  0  0  0  0
  150.9367  136.4417  156.1149 H   0  0  0  0  0  0  0  0  0  0  0  0
  149.3034  136.2743  153.6304 H   0  0  0  0  0  0  0  0  0  0  0  0
  148.5761  134.5790  152.9870 H   0  0  0  0  0  0  0  0  0  0  0  0
  150.1006  131.7988  154.9385 H   0  0  0  0  0  0  0  0  0  0  0  0
  149.3507  129.4499  154.6596 H   0  0  0  0  0  0  0  0  0  0  0  0
  147.4029  128.9741  153.1551 H   0  0  0  0  0  0  0  0  0  0  0  0
  146.3715  132.5898  150.0632 H   0  0  0  0  0  0  0  0  0  0  0  0
  145.5609  131.6637  151.3257 H   0  0  0  0  0  0  0  0  0  0  0  0
  144.8584  134.4028  150.2564 H   0  0  0  0  0  0  0  0  0  0  0  0
  143.7535  133.0925  150.6820 H   0  0  0  0  0  0  0  0  0  0  0  0
  144.0844  135.1266  152.4391 H   0  0  0  0  0  0  0  0  0  0  0  0
  144.1272  133.4704  153.0542 H   0  0  0  0  0  0  0  0  0  0  0  0
  146.2470  134.3019  153.8274 H   0  0  0  0  0  0  0  0  0  0  0  0
  146.4922  135.2453  152.3730 H   0  0  0  0  0  0  0  0  0  0  0  0
  150.6268  139.9103  156.8356 H   0  0  0  0  0  0  0  0  0  0  0  0
  151.0188  139.3439  155.2249 H   0  0  0  0  0  0  0  0  0  0  0  0
  149.4355  141.8646  155.9693 H   0  0  0  0  0  0  0  0  0  0  0  0
  151.0646  141.8064  155.3222 H   0  0  0  0  0  0  0  0  0  0  0  0
  147.5895  141.1747  154.4987 H   0  0  0  0  0  0  0  0  0  0  0  0
  147.9886  140.6579  152.8713 H   0  0  0  0  0  0  0  0  0  0  0  0
  149.1206  138.6353  153.7104 H   0  0  0  0  0  0  0  0  0  0  0  0
  147.4855  138.7333  154.3297 H   0  0  0  0  0  0  0  0  0  0  0  0
  1  2  1  0  0  0  0
  1 25  1  0  0  0  0
  1 26  1  0  0  0  0
  1 27  1  0  0  0  0
  2  3  1  0  0  0  0
  2 19  1  0  0  0  0
  2 28  1  0  0  0  0
  3  4  1  0  0  0  0
  3 29  1  0  0  0  0
  3 30  1  0  0  0  0
  4  5  1  0  0  0  0
  4 31  1  0  0  0  0
  5  6  2  0  0  0  0
  5  7  1  0  0  0  0
  7  8  1  0  0  0  0
  7 32  1  0  0  0  0
  8 13  1  0  0  0  0
  8  9  2  0  0  0  0
  9 10  1  0  0  0  0
  9 33  1  0  0  0  0
 10 11  2  0  0  0  0
 10 34  1  0  0  0  0
 11 12  1  0  0  0  0
 11 35  1  0  0  0  0
 12 13  2  0  0  0  0
 13 14  1  0  0  0  0
 14 18  1  0  0  0  0
 14 15  1  0  0  0  0
 15 16  1  0  0  0  0
 15 36  1  0  0  0  0
 15 37  1  0  0  0  0
 16 17  1  0  0  0  0
 16 38  1  0  0  0  0
 16 39  1  0  0  0  0
 17 18  1  0  0  0  0
 17 40  1  0  0  0  0
 17 41  1  0  0  0  0
 18 42  1  0  0  0  0
 18 43  1  0  0  0  0
 19 24  1  0  0  0  0
 19 20  1  0  0  0  0
 20 21  1  0  0  0  0
 20 44  1  0  0  0  0
 20 45  1  0  0  0  0
 21 22  1  0  0  0  0
 21 46  1  0  0  0  0
 21 47  1  0  0  0  0
 22 23  1  0  0  0  0
 23 24  1  0  0  0  0
 23 48  1  0  0  0  0
 23 49  1  0  0  0  0
 24 50  1  0  0  0  0
 24 51  1  0  0  0  0
M  END
> <s_m_source_file>
AV-unprocessed.smi

> <i_m_source_file_index>
1389

> <i_lp_mmshare_version>
43012

> <i_f3d_flags>
0

> <s_epik_input>
W0NIMl0xW0NIMl1PW0NIMl1bQ0gyXU4xW0NASF0oW0NIM10pW0NIMl1bTkhdQyg9TylbTkhdYzJbY0hdW2NIXVtjSF1uYzJOM1tDSDJdW0NIMl1bQ0gyXVtDSDJdMw==

> <s_epik_cmdline>
J2VwaWtfcHl0aG9uJywgJy1waCcsICc3LjAnLCAnLXRuJywgJzgnLCAnLW1hJywgJzIwMCcsICctbWV0YWxfYmluZGluZycsICctaW1hZScsICc8aW5maWxlLm1hZT4nLCAnLW9tYWUnLCAnPG91dGZpbGUubWFlPic=

> <r_lp_tautomer_probability>
1

> <r_epik_Ionization_Penalty>
0.365229

> <r_epik_Ionization_Penalty_Charging>
0

> <r_epik_Ionization_Penalty_Neutral>
0.365229

> <r_epik_State_Penalty>
0.350519

> <r_epik_Charging_Adjusted_Penalty>
0.350519

> <i_epik_Tot_Q>
0

> <i_epik_Tot_abs_Q>
0

> <r_epik_Metal_State_Penalty>
0.33386

> <b_epik_Metal_Only>
0

> <s_lp_Force_Field>
OPLS_2005

> <r_lp_Energy>
57.3938

> <b_lp_Chiralities_Consistent>
1

> <s_lp_Variant>
AV-unprocessed.smi:1389-1

> <Gold.Version>
5.8.1

> <Gold.Id.Protein>
6NUR|6NUR_protein|mol2

> <Gold.PLP.Fitness>
39.4574

> <Gold.PLP.PLP>
-33.5030

> <Gold.PLP.part.hbond>
-4.0000

> <Gold.PLP.part.metal>
0.0000

> <Gold.PLP.part.buried>
-3.7061

> <Gold.PLP.part.nonpolar>
-26.9536

> <Gold.PLP.part.repulsive>
1.3992

> <Gold.PLP.ligand.clash>
0.0000

> <Gold.PLP.ligand.torsion>
1.1516

> <Gold.PLP.Chemscore.Hbond>
2.6971

> <Gold.PLP.Chemscore.CHOScore>
0.0000

> <Gold.PLP.Chemscore.Metal>
0.0000

> <Gold.Chemscore.Hbonds>
donor molecule, donor type, donor heavy atom, donor atom, acceptor molecule, acceptor atom, score
      L1  H     4    31       P1  7948  1.00
      L1  H     7    32       P1  7948  0.85
      P1  H  7989  7998       L1    22  0.05
      P1  H  8011  8017       L1    22  0.77

> <Gold.PLP.Chemscore.Internal.Correction>
0.1664

> <Gold.Rescore>
     Score         DG    S(hbond)    S(metal)    S(lipo)     H(rot)  DE(clash)    DE(int)     intcor
     13.95     -16.57       1.88        0.00      75.63       1.57       0.10       2.53       ----

> <Gold.Chemscore.Fitness>
13.9465

> <Gold.Chemscore.DG>
-16.5680

> <Gold.Chemscore.ZeroCoef>
-5.4800

> <Gold.Chemscore.Hbond>
1.8753

> <Gold.Chemscore.Metal>
0.0000

> <Gold.Chemscore.Lipo>
75.6269

> <Gold.Chemscore.Internal_Hbond>
0.0000

> <Gold.Chemscore.DEClash>
0.0963

> <Gold.Chemscore.DEInternal>
2.5253

> <Gold.Chemscore.Rot>
1.5718

> <Gold.Chemscore.Internal.Correction>
   9.000000E+99

> <Gold.Chemscore.Hbonds>
donor molecule, donor type, donor heavy atom, donor atom, acceptor molecule, acceptor atom, score
      L1  H     4    31       P1  7948  0.84
      L1  H     7    32       P1  7948  0.18
      P1  H  8011  8017       L1    22  0.47

> <Gold.Chemscore.Hbond.Weighted>
-6.2636

> <Gold.Chemscore.Metal.Weighted>
-0.0000

> <Gold.Chemscore.Lipo.Weighted>
-8.8483

> <Gold.Chemscore.Internal_Hbond.Weighted>
0.0000

> <Gold.Chemscore.DEClash.Weighted>
0.0963

> <Gold.Chemscore.DEInternal.Weighted>
2.5253

> <Gold.Chemscore.Rot.Weighted>
4.0239

> <Gold.Chemscore.Internal.Correction.Weighted>
   9.000000E+99

> <Gold.Protein.RotatedTorsions>
[ 6907 6896 6895 6894 ] final  -25.03 input  -60.11 | X-H torsion
[ 7974 7965 7964 7962 ] final  -74.74 input  175.53 | X-H torsion
[ 8008 7997 7996 7995 ] final  155.67 input   59.86 | X-H torsion
[ 10167 10162 10161 10158 ] final  -71.34 input  -65.29 | X-H torsion
[ 10718 10713 10712 10709 ] final  -62.72 input   66.30 | X-H torsion
[ 10763 10752 10751 10750 ] final   52.74 input  -60.55 | X-H torsion
[ 11005 11000 10999 10996 ] final  -70.87 input  -57.11 | X-H torsion

> <Gold.Protein.ActiveResidues>
 VAL166  LYS551  ARG553  GLY616  TRP617  ASP618  TYR619  PRO620  LYS621  CYS622 
 ASP623  PHE694  ASN695  SER759  ASP760  ASP761  ALA762  ILE779  LEU786  VAL792 
 PHE793  MET794  SER795  GLU796  ALA797  LYS798  CYS799  TRP800  GLU811  SER814 

> <Gold.Protein.RotatedAtoms>
  151.1811  135.0361  159.8792 H   0  0  0  0  0  0  0  0  0  0  0  0  # atno 6907 bound_to 6896
  152.5444  134.1062  159.8349 H   0  0  0  0  0  0  0  0  0  0  0  0  # atno 6908 bound_to 6896
  151.1179  133.5078  159.2635 H   0  0  0  0  0  0  0  0  0  0  0  0  # atno 6909 bound_to 6896
  145.6351  140.9327  143.1066 H   0  0  0  0  0  0  0  0  0  0  0  0  # atno 7974 bound_to 7965
  156.2465  140.1933  156.6837 H   0  0  0  0  0  0  0  0  0  0  0  0  # atno 8008 bound_to 7997
  154.6303  140.0597  156.9749 H   0  0  0  0  0  0  0  0  0  0  0  0  # atno 8009 bound_to 7997
  155.1722  140.3269  155.4393 H   0  0  0  0  0  0  0  0  0  0  0  0  # atno 8010 bound_to 7997
  140.5281  143.2324  151.7312 H   0  0  0  0  0  0  0  0  0  0  0  0  # atno 10167 bound_to 10162
  156.0837  130.4212  150.1175 H   0  0  0  0  0  0  0  0  0  0  0  0  # atno 10718 bound_to 10713
  152.9790  135.5802  154.4627 H   0  0  0  0  0  0  0  0  0  0  0  0  # atno 10763 bound_to 10752
  154.4201  135.2771  155.1983 H   0  0  0  0  0  0  0  0  0  0  0  0  # atno 10764 bound_to 10752
  154.3736  135.6162  153.5807 H   0  0  0  0  0  0  0  0  0  0  0  0  # atno 10765 bound_to 10752
  141.1582  133.6801  156.6819 H   0  0  0  0  0  0  0  0  0  0  0  0  # atno 11005 bound_to 11000
  144.7178  139.8134  143.7392 LP  0  0  0  0  0  0  0  0  0  0  0  0  # atno 17320 bound_to 7965
  146.1325  139.4364  143.0159 LP  0  0  0  0  0  0  0  0  0  0  0  0  # atno 17321 bound_to 7965
  139.4945  144.4156  152.0034 LP  0  0  0  0  0  0  0  0  0  0  0  0  # atno 17342 bound_to 10162
  140.3256  144.3376  150.5999 LP  0  0  0  0  0  0  0  0  0  0  0  0  # atno 17343 bound_to 10162
  156.9201  130.9680  151.3550 LP  0  0  0  0  0  0  0  0  0  0  0  0  # atno 17370 bound_to 10713
  157.5963  130.8480  149.8735 LP  0  0  0  0  0  0  0  0  0  0  0  0  # atno 17371 bound_to 10713
  140.3096  134.8097  157.4165 LP  0  0  0  0  0  0  0  0  0  0  0  0  # atno 17394 bound_to 11000
  140.1190  134.5245  155.8200 LP  0  0  0  0  0  0  0  0  0  0  0  0  # atno 17395 bound_to 11000

$$$$
