AV-unprocessed.smi:2973|AV-procd|sdf|11345|dock2
  -GOLD-   2272016253D 1   1.00000     0.00000
 Structure written by MMmdl.
 48 50  0  0  0  0  0  0  0  0  2 V2000
  146.4297  134.5919  158.6065 C   0  0  0  0  0  0  0  0  0  0  0  0
  147.0995  134.7446  159.9907 C   0  0  2  0  0  0  0  0  0  0  0  0
  146.0182  134.9077  161.0826 C   0  0  0  0  0  0  0  0  0  0  0  0
  146.6285  134.9914  162.4892 C   0  0  0  0  0  0  0  0  0  0  0  0
  147.6504  136.1311  162.5847 C   0  0  0  0  0  0  0  0  0  0  0  0
  148.7459  135.9781  161.5157 C   0  0  0  0  0  0  0  0  0  0  0  0
  148.1895  135.8660  160.0707 C   0  0  1  0  0  0  0  0  0  0  0  0
  149.2933  135.5616  159.1768 N   0  5  0  0  0  0  0  0  0  0  0  0
  149.4348  136.5702  158.2861 C   0  0  0  0  0  0  0  0  0  0  0  0
  150.2654  136.6405  157.3808 O   0  0  0  0  0  0  0  0  0  0  0  0
  148.5238  137.5373  158.5024 N   0  0  0  0  0  0  0  0  0  0  0  0
  148.3861  138.7565  157.6947 C   0  0  0  0  0  0  0  0  0  0  0  0
  149.5398  139.7492  157.8953 C   0  0  0  0  0  0  0  0  0  0  0  0
  149.3535  140.8377  158.4411 O   0  0  0  0  0  0  0  0  0  0  0  0
  150.7420  139.3431  157.4607 N   0  0  0  0  0  0  0  0  0  0  0  0
  151.9717  140.1222  157.5442 C   0  0  0  0  0  0  0  0  0  0  0  0
  152.1511  140.7549  158.9341 C   0  0  0  0  0  0  0  0  0  0  0  0
  152.0712  142.2693  158.8882 C   0  0  0  0  0  0  0  0  0  0  0  0
  152.4529  143.0446  160.0042 C   0  0  0  0  0  0  0  0  0  0  0  0
  152.3702  144.4472  159.9067 C   0  0  0  0  0  0  0  0  0  0  0  0
  151.9133  145.0181  158.7032 C   0  0  0  0  0  0  0  0  0  0  0  0
  151.5581  144.1569  157.6458 C   0  0  0  0  0  0  0  0  0  0  0  0
  151.6334  142.8111  157.7289 N   0  0  0  0  0  0  0  0  0  0  0  0
  147.7318  137.2206  159.5325 C   0  0  0  0  0  0  0  0  0  0  0  0
  146.7923  137.8808  159.9782 O   0  0  0  0  0  0  0  0  0  0  0  0
  145.8536  135.4763  158.3334 H   0  0  0  0  0  0  0  0  0  0  0  0
  145.7448  133.7441  158.5991 H   0  0  0  0  0  0  0  0  0  0  0  0
  147.1641  134.4173  157.8202 H   0  0  0  0  0  0  0  0  0  0  0  0
  147.6030  133.7972  160.1919 H   0  0  0  0  0  0  0  0  0  0  0  0
  145.4173  135.7970  160.8911 H   0  0  0  0  0  0  0  0  0  0  0  0
  145.3271  134.0650  161.0447 H   0  0  0  0  0  0  0  0  0  0  0  0
  145.8405  135.1363  163.2285 H   0  0  0  0  0  0  0  0  0  0  0  0
  147.1128  134.0451  162.7339 H   0  0  0  0  0  0  0  0  0  0  0  0
  147.1458  137.0910  162.4769 H   0  0  0  0  0  0  0  0  0  0  0  0
  148.1038  136.1369  163.5761 H   0  0  0  0  0  0  0  0  0  0  0  0
  149.4409  136.8162  161.5935 H   0  0  0  0  0  0  0  0  0  0  0  0
  149.3317  135.0871  161.7477 H   0  0  0  0  0  0  0  0  0  0  0  0
  148.3309  138.5049  156.6347 H   0  0  0  0  0  0  0  0  0  0  0  0
  147.4394  139.2456  157.9312 H   0  0  0  0  0  0  0  0  0  0  0  0
  150.8054  138.4328  157.0283 H   0  0  0  0  0  0  0  0  0  0  0  0
  152.8071  139.4545  157.3319 H   0  0  0  0  0  0  0  0  0  0  0  0
  151.9826  140.8891  156.7676 H   0  0  0  0  0  0  0  0  0  0  0  0
  151.3889  140.3830  159.6206 H   0  0  0  0  0  0  0  0  0  0  0  0
  153.1126  140.4599  159.3569 H   0  0  0  0  0  0  0  0  0  0  0  0
  152.8035  142.5774  160.9130 H   0  0  0  0  0  0  0  0  0  0  0  0
  152.6533  145.0738  160.7398 H   0  0  0  0  0  0  0  0  0  0  0  0
  151.8378  146.0896  158.5922 H   0  0  0  0  0  0  0  0  0  0  0  0
  151.2046  144.5597  156.7082 H   0  0  0  0  0  0  0  0  0  0  0  0
  1  2  1  0  0  0  0
  1 26  1  0  0  0  0
  1 27  1  0  0  0  0
  1 28  1  0  0  0  0
  2  7  1  0  0  0  0
  2  3  1  0  0  0  0
  2 29  1  0  0  0  0
  3  4  1  0  0  0  0
  3 30  1  0  0  0  0
  3 31  1  0  0  0  0
  4  5  1  0  0  0  0
  4 32  1  0  0  0  0
  4 33  1  0  0  0  0
  5  6  1  0  0  0  0
  5 34  1  0  0  0  0
  5 35  1  0  0  0  0
  6  7  1  0  0  0  0
  6 36  1  0  0  0  0
  6 37  1  0  0  0  0
  7 24  1  0  0  0  0
  7  8  1  0  0  0  0
  8  9  1  0  0  0  0
  9 10  2  0  0  0  0
  9 11  1  0  0  0  0
 11 12  1  0  0  0  0
 11 24  1  0  0  0  0
 12 13  1  0  0  0  0
 12 38  1  0  0  0  0
 12 39  1  0  0  0  0
 13 14  2  0  0  0  0
 13 15  1  0  0  0  0
 15 16  1  0  0  0  0
 15 40  1  0  0  0  0
 16 17  1  0  0  0  0
 16 41  1  0  0  0  0
 16 42  1  0  0  0  0
 17 18  1  0  0  0  0
 17 43  1  0  0  0  0
 17 44  1  0  0  0  0
 18 23  1  0  0  0  0
 18 19  2  0  0  0  0
 19 20  1  0  0  0  0
 19 45  1  0  0  0  0
 20 21  2  0  0  0  0
 20 46  1  0  0  0  0
 21 22  1  0  0  0  0
 21 47  1  0  0  0  0
 22 23  2  0  0  0  0
 22 48  1  0  0  0  0
 24 25  2  0  0  0  0
M  CHG  1   8  -1
M  END
> <s_m_source_file>
AV-unprocessed.smi

> <i_m_source_file_index>
2973

> <i_lp_mmshare_version>
43012

> <i_f3d_flags>
0

> <s_epik_input>
W0NIMl0xW0NIMl1bQ0gyXVtDSDJdW0NAQEhdKFtDSDNdKVtDQF0xMltOSF1DKD1PKU4oQzI9TylbQ0gyXUMoPU8pW05IXVtDSDJdW0NIMl1jM1tjSF1bY0hdW2NIXVtjSF1uMw==

> <s_epik_cmdline>
J2VwaWtfcHl0aG9uJywgJy1waCcsICc3LjAnLCAnLXRuJywgJzgnLCAnLW1hJywgJzIwMCcsICctbWV0YWxfYmluZGluZycsICctaW1hZScsICc8aW5maWxlLm1hZT4nLCAnLW9tYWUnLCAnPG91dGZpbGUubWFlPic=

> <r_lp_tautomer_probability>
1

> <r_epik_Ionization_Penalty>
6.04175

> <r_epik_Ionization_Penalty_Charging>
6.01728

> <r_epik_Ionization_Penalty_Neutral>
0.0244696

> <r_epik_State_Penalty>
6.03712

> <r_epik_Charging_Adjusted_Penalty>
12.0544

> <i_epik_Tot_Q>
-1

> <i_epik_Tot_abs_Q>
1

> <r_epik_Metal_State_Penalty>
2.01153

> <b_epik_Metal_Only>
1

> <s_lp_Force_Field>
OPLS_2005

> <r_lp_Energy>
12.5421

> <b_lp_Chiralities_Consistent>
1

> <s_lp_Variant>
AV-unprocessed.smi:2973-9

> <Gold.Version>
5.8.1

> <Gold.Id.Protein>
6NUR|6NUR_protein|mol2

> <Gold.PLP.Fitness>
50.1377

> <Gold.PLP.PLP>
-39.5835

> <Gold.PLP.part.hbond>
-2.3142

> <Gold.PLP.part.metal>
0.0000

> <Gold.PLP.part.buried>
-4.4580

> <Gold.PLP.part.nonpolar>
-33.2962

> <Gold.PLP.part.repulsive>
0.1040

> <Gold.PLP.ligand.clash>
0.0000

> <Gold.PLP.ligand.torsion>
0.7063

> <Gold.PLP.Chemscore.Hbond>
2.9760

> <Gold.PLP.Chemscore.CHOScore>
1.0000

> <Gold.PLP.Chemscore.Metal>
0.0000

> <Gold.Chemscore.Hbonds>
donor molecule, donor type, donor heavy atom, donor atom, acceptor molecule, acceptor atom, score
      P1  H  6896  6907       L1     8  2.00
      P1  H  6934  6947       L1    25  0.98
      L1  C    22    48       P1  8028  1.00

> <Gold.PLP.Chemscore.Internal.Correction>
0.0389

> <Gold.Rescore>
     Score         DG    S(hbond)    S(metal)    S(lipo)     H(rot)  DE(clash)    DE(int)     intcor
     17.51     -20.94       1.87        0.00     118.27       1.81       1.55       1.88       ----

> <Gold.Chemscore.Fitness>
17.5063

> <Gold.Chemscore.DG>
-20.9424

> <Gold.Chemscore.ZeroCoef>
-5.4800

> <Gold.Chemscore.Hbond>
1.8731

> <Gold.Chemscore.Metal>
0.0000

> <Gold.Chemscore.Lipo>
118.2671

> <Gold.Chemscore.Internal_Hbond>
0.0000

> <Gold.Chemscore.DEClash>
1.5547

> <Gold.Chemscore.DEInternal>
1.8814

> <Gold.Chemscore.Rot>
1.8090

> <Gold.Chemscore.Internal.Correction>
   9.000000E+99

> <Gold.Chemscore.Hbonds>
donor molecule, donor type, donor heavy atom, donor atom, acceptor molecule, acceptor atom, score
      P1  H  6896  6907       L1     8  0.94
      P1  H  6934  6947       L1    25  0.81

> <Gold.Chemscore.Hbond.Weighted>
-6.2561

> <Gold.Chemscore.Metal.Weighted>
-0.0000

> <Gold.Chemscore.Lipo.Weighted>
-13.8373

> <Gold.Chemscore.Internal_Hbond.Weighted>
0.0000

> <Gold.Chemscore.DEClash.Weighted>
1.5547

> <Gold.Chemscore.DEInternal.Weighted>
1.8814

> <Gold.Chemscore.Rot.Weighted>
4.6310

> <Gold.Chemscore.Internal.Correction.Weighted>
   9.000000E+99

> <Gold.Protein.RotatedTorsions>
[ 6907 6896 6895 6894 ] final  -61.85 input  -60.11 | X-H torsion
[ 7974 7965 7964 7962 ] final  135.63 input  175.53 | X-H torsion
[ 8008 7997 7996 7995 ] final   -3.64 input   59.86 | X-H torsion
[ 10167 10162 10161 10158 ] final   29.68 input  -65.29 | X-H torsion
[ 10718 10713 10712 10709 ] final -172.33 input   66.30 | X-H torsion
[ 10763 10752 10751 10750 ] final   46.02 input  -60.55 | X-H torsion
[ 11005 11000 10999 10996 ] final  115.71 input  -57.11 | X-H torsion

> <Gold.Protein.ActiveResidues>
 VAL166  LYS551  ARG553  GLY616  TRP617  ASP618  TYR619  PRO620  LYS621  CYS622 
 ASP623  PHE694  ASN695  SER759  ASP760  ASP761  ALA762  ILE779  LEU786  VAL792 
 PHE793  MET794  SER795  GLU796  ALA797  LYS798  CYS799  TRP800  GLU811  SER814 

> <Gold.Protein.RotatedAtoms>
  150.7756  134.6649  159.6359 H   0  0  0  0  0  0  0  0  0  0  0  0  # atno 6907 bound_to 6896
  152.3824  134.6566  160.0147 H   0  0  0  0  0  0  0  0  0  0  0  0  # atno 6908 bound_to 6896
  151.6892  133.3274  159.3275 H   0  0  0  0  0  0  0  0  0  0  0  0  # atno 6909 bound_to 6896
  144.9645  139.4673  143.5463 H   0  0  0  0  0  0  0  0  0  0  0  0  # atno 7974 bound_to 7965
  154.6227  140.2504  155.7529 H   0  0  0  0  0  0  0  0  0  0  0  0  # atno 8008 bound_to 7997
  156.2436  140.2923  156.0462 H   0  0  0  0  0  0  0  0  0  0  0  0  # atno 8009 bound_to 7997
  155.1870  140.0390  157.2883 H   0  0  0  0  0  0  0  0  0  0  0  0  # atno 8010 bound_to 7997
  140.4745  144.0712  150.6246 H   0  0  0  0  0  0  0  0  0  0  0  0  # atno 10167 bound_to 10162
  156.7540  130.9389  151.3115 H   0  0  0  0  0  0  0  0  0  0  0  0  # atno 10718 bound_to 10713
  152.9816  135.6021  154.3532 H   0  0  0  0  0  0  0  0  0  0  0  0  # atno 10763 bound_to 10752
  154.3219  135.2769  155.2517 H   0  0  0  0  0  0  0  0  0  0  0  0  # atno 10764 bound_to 10752
  154.4679  135.5949  153.6357 H   0  0  0  0  0  0  0  0  0  0  0  0  # atno 10765 bound_to 10752
  139.9018  134.9588  156.7086 H   0  0  0  0  0  0  0  0  0  0  0  0  # atno 11005 bound_to 11000
  146.3363  139.8816  142.8823 LP  0  0  0  0  0  0  0  0  0  0  0  0  # atno 17320 bound_to 7965
  145.2651  141.0090  143.3804 LP  0  0  0  0  0  0  0  0  0  0  0  0  # atno 17321 bound_to 7965
  140.3936  143.2740  152.0031 LP  0  0  0  0  0  0  0  0  0  0  0  0  # atno 17342 bound_to 10162
  139.4823  144.6057  151.7526 LP  0  0  0  0  0  0  0  0  0  0  0  0  # atno 17343 bound_to 10162
  157.6764  130.9099  150.0161 LP  0  0  0  0  0  0  0  0  0  0  0  0  # atno 17370 bound_to 10713
  156.1382  130.3642  149.9623 LP  0  0  0  0  0  0  0  0  0  0  0  0  # atno 17371 bound_to 10713
  140.7093  133.9237  155.8074 LP  0  0  0  0  0  0  0  0  0  0  0  0  # atno 17394 bound_to 11000
  141.0312  134.0753  157.4011 LP  0  0  0  0  0  0  0  0  0  0  0  0  # atno 17395 bound_to 11000

$$$$
