AV-unprocessed.smi:53|AV-procd|sdf|513|dock6
  -GOLD-   2262016383D 1   1.00000     0.00000
 Structure written by MMmdl.
 30 31  0  0  0  0  0  0  0  0  1 V2000
  152.6238  140.3490  159.3790 N   0  0  0  0  0  0  0  0  0  0  0  0
  151.9334  140.4959  158.2393 C   0  0  0  0  0  0  0  0  0  0  0  0
  150.6649  141.1898  158.2374 C   0  0  0  0  0  0  0  0  0  0  0  0
  150.0315  141.2989  157.0487 C   0  0  0  0  0  0  0  0  0  0  0  0
  150.5655  140.7822  155.8769 N   0  0  0  0  0  0  0  0  0  0  0  0
  149.8258  140.9193  154.5631 C   0  0  2  0  0  0  0  0  0  0  0  0
  148.7419  141.7717  154.7543 O   0  0  0  0  0  0  0  0  0  0  0  0
  147.7096  141.3975  153.8555 C   0  0  2  0  0  0  0  0  0  0  0  0
  146.3629  141.9557  154.3411 C   0  0  0  0  0  0  0  0  0  0  0  0
  146.5731  142.9303  155.3404 O   0  0  0  0  0  0  0  0  0  0  0  0
  147.7824  139.8665  153.8806 C   0  0  1  0  0  0  0  0  0  0  0  0
  147.2804  139.3328  152.6710 O   0  0  0  0  0  0  0  0  0  0  0  0
  149.2752  139.5793  154.0229 C   0  0  2  0  0  0  0  0  0  0  0  0
  149.4901  138.4699  154.8775 O   0  0  0  0  0  0  0  0  0  0  0  0
  151.7999  140.0909  155.9128 C   0  0  0  0  0  0  0  0  0  0  0  0
  152.2907  139.5828  154.9054 O   0  0  0  0  0  0  0  0  0  0  0  0
  152.4293  139.9933  157.1249 N   0  0  0  0  0  0  0  0  0  0  0  0
  150.5003  141.4108  153.8595 H   0  0  0  0  0  0  0  0  0  0  0  0
  147.9557  141.7663  152.8571 H   0  0  0  0  0  0  0  0  0  0  0  0
  147.2261  139.4764  154.7347 H   0  0  0  0  0  0  0  0  0  0  0  0
  149.7471  139.3908  153.0574 H   0  0  0  0  0  0  0  0  0  0  0  0
  153.5077  139.8610  159.3779 H   0  0  0  0  0  0  0  0  0  0  0  0
  152.2558  140.7275  160.2401 H   0  0  0  0  0  0  0  0  0  0  0  0
  150.2155  141.6114  159.1251 H   0  0  0  0  0  0  0  0  0  0  0  0
  149.0759  141.8028  157.0264 H   0  0  0  0  0  0  0  0  0  0  0  0
  145.8400  142.4424  153.5173 H   0  0  0  0  0  0  0  0  0  0  0  0
  145.7144  141.1617  154.7123 H   0  0  0  0  0  0  0  0  0  0  0  0
  147.4426  143.2856  155.2356 H   0  0  0  0  0  0  0  0  0  0  0  0
  147.9542  139.3956  152.0115 H   0  0  0  0  0  0  0  0  0  0  0  0
  150.3746  138.1625  154.7490 H   0  0  0  0  0  0  0  0  0  0  0  0
  1  2  1  0  0  0  0
  1 22  1  0  0  0  0
  1 23  1  0  0  0  0
  2 17  2  0  0  0  0
  2  3  1  0  0  0  0
  3  4  2  0  0  0  0
  3 24  1  0  0  0  0
  4  5  1  0  0  0  0
  4 25  1  0  0  0  0
  5  6  1  0  0  0  0
  5 15  1  0  0  0  0
  6 18  1  0  0  0  0
  6 13  1  0  0  0  0
  6  7  1  0  0  0  0
  7  8  1  0  0  0  0
  8 19  1  0  0  0  0
  8  9  1  0  0  0  0
  8 11  1  0  0  0  0
  9 10  1  0  0  0  0
  9 26  1  0  0  0  0
  9 27  1  0  0  0  0
 10 28  1  0  0  0  0
 11 20  1  0  0  0  0
 11 12  1  0  0  0  0
 11 13  1  0  0  0  0
 12 29  1  0  0  0  0
 13 21  1  0  0  0  0
 13 14  1  0  0  0  0
 14 30  1  0  0  0  0
 15 16  2  0  0  0  0
 15 17  1  0  0  0  0
M  END
> <s_m_source_file>
AV-unprocessed.smi

> <i_m_source_file_index>
53

> <i_lp_mmshare_version>
43012

> <i_f3d_flags>
0

> <s_epik_input>
W05IMl1jMVtjSF1bY0hdbihjKD1PKW4xKVtDQEBIXTJPW0NASF0oW0NIMl1bT0hdKVtDQEBIXShbT0hdKVtDQEBIXTJbT0hd

> <s_epik_cmdline>
J2VwaWtfcHl0aG9uJywgJy1waCcsICc3LjAnLCAnLXRuJywgJzgnLCAnLW1hJywgJzIwMCcsICctbWV0YWxfYmluZGluZycsICctaW1hZScsICc8aW5maWxlLm1hZT4nLCAnLW9tYWUnLCAnPG91dGZpbGUubWFlPic=

> <r_lp_tautomer_probability>
0.99996

> <r_epik_Ionization_Penalty>
0.00069087

> <r_epik_Ionization_Penalty_Charging>
2.61959e-08

> <r_epik_Ionization_Penalty_Neutral>
0.000690844

> <r_epik_State_Penalty>
1.15523e-05

> <r_epik_Charging_Adjusted_Penalty>
1.15785e-05

> <i_epik_Tot_Q>
0

> <i_epik_Tot_abs_Q>
0

> <r_epik_Metal_State_Penalty>
-0

> <b_epik_Metal_Only>
0

> <s_epik_Chemistry_Notes>
This compound contains an acetal/aminal-like group ( X-CH(R)-Y where X, Y are N, S, or O) that may be acid/base labile, releasing an aldehyde.

> <s_lp_Force_Field>
OPLS_2005

> <r_lp_Energy>
35.6127

> <b_lp_Chiralities_Consistent>
1

> <s_lp_Variant>
AV-unprocessed.smi:53-1

> <Gold.Version>
5.8.1

> <Gold.Id.Protein>
6NUR|6NUR_protein|mol2

> <Gold.PLP.Fitness>
36.2215

> <Gold.PLP.PLP>
-26.6421

> <Gold.PLP.part.hbond>
-4.0000

> <Gold.PLP.part.metal>
0.0000

> <Gold.PLP.part.buried>
-1.0720

> <Gold.PLP.part.nonpolar>
-22.4032

> <Gold.PLP.part.repulsive>
0.5775

> <Gold.PLP.ligand.clash>
0.0000

> <Gold.PLP.ligand.torsion>
0.8227

> <Gold.PLP.Chemscore.Hbond>
3.6530

> <Gold.PLP.Chemscore.CHOScore>
0.0000

> <Gold.PLP.Chemscore.Metal>
0.0000

> <Gold.Chemscore.Hbonds>
donor molecule, donor type, donor heavy atom, donor atom, acceptor molecule, acceptor atom, score
      L1  H    10    28       P1  8028  0.84
      L1  H    12    29       P1  7957  1.00
      P1  H  7989  7998       L1    16  0.77
      P1  H  7997  8009       L1    17  1.00

> <Gold.PLP.Chemscore.Internal.Correction>
0.2659

> <Gold.Rescore>
     Score         DG    S(hbond)    S(metal)    S(lipo)     H(rot)  DE(clash)    DE(int)     intcor
      4.98      -7.44       2.24        0.00      34.05       3.71       1.36       1.09       ----

> <Gold.Chemscore.Fitness>
4.9844

> <Gold.Chemscore.DG>
-7.4392

> <Gold.Chemscore.ZeroCoef>
-5.4800

> <Gold.Chemscore.Hbond>
2.2370

> <Gold.Chemscore.Metal>
0.0000

> <Gold.Chemscore.Lipo>
34.0518

> <Gold.Chemscore.Internal_Hbond>
0.0000

> <Gold.Chemscore.DEClash>
1.3603

> <Gold.Chemscore.DEInternal>
1.0946

> <Gold.Chemscore.Rot>
3.7095

> <Gold.Chemscore.Internal.Correction>
   9.000000E+99

> <Gold.Chemscore.Hbonds>
donor molecule, donor type, donor heavy atom, donor atom, acceptor molecule, acceptor atom, score
      L1  H    10    28       P1  8028  0.13
      L1  H    12    29       P1  7957  0.99
      P1  H  7989  7998       L1    16  0.22
      P1  H  7997  8009       L1    17  0.42

> <Gold.Chemscore.Hbond.Weighted>
-7.4716

> <Gold.Chemscore.Metal.Weighted>
-0.0000

> <Gold.Chemscore.Lipo.Weighted>
-3.9841

> <Gold.Chemscore.Internal_Hbond.Weighted>
0.0000

> <Gold.Chemscore.DEClash.Weighted>
1.3603

> <Gold.Chemscore.DEInternal.Weighted>
1.0946

> <Gold.Chemscore.Rot.Weighted>
9.4964

> <Gold.Chemscore.Internal.Correction.Weighted>
   9.000000E+99

> <Gold.Protein.RotatedTorsions>
[ 6907 6896 6895 6894 ] final  116.56 input  -60.11 | X-H torsion
[ 7974 7965 7964 7962 ] final    0.89 input  175.53 | X-H torsion
[ 8008 7997 7996 7995 ] final  177.64 input   59.86 | X-H torsion
[ 10167 10162 10161 10158 ] final  170.00 input  -65.29 | X-H torsion
[ 10718 10713 10712 10709 ] final  112.50 input   66.30 | X-H torsion
[ 10763 10752 10751 10750 ] final  -34.69 input  -60.55 | X-H torsion
[ 11005 11000 10999 10996 ] final  120.15 input  -57.11 | X-H torsion

> <Gold.Protein.ActiveResidues>
 VAL166  LYS551  ARG553  GLY616  TRP617  ASP618  TYR619  PRO620  LYS621  CYS622 
 ASP623  PHE694  ASN695  SER759  ASP760  ASP761  ALA762  ILE779  LEU786  VAL792 
 PHE793  MET794  SER795  GLU796  ALA797  LYS798  CYS799  TRP800  GLU811  SER814 

> <Gold.Protein.RotatedAtoms>
  152.4670  133.7945  159.6919 H   0  0  0  0  0  0  0  0  0  0  0  0  # atno 6907 bound_to 6896
  150.8640  133.7592  159.2989 H   0  0  0  0  0  0  0  0  0  0  0  0  # atno 6908 bound_to 6896
  151.5149  135.1069  159.9915 H   0  0  0  0  0  0  0  0  0  0  0  0  # atno 6909 bound_to 6896
  146.2437  140.1069  142.8345 H   0  0  0  0  0  0  0  0  0  0  0  0  # atno 7974 bound_to 7965
  156.0635  140.1353  156.9914 H   0  0  0  0  0  0  0  0  0  0  0  0  # atno 8008 bound_to 7997
  154.4494  140.0986  156.6623 H   0  0  0  0  0  0  0  0  0  0  0  0  # atno 8009 bound_to 7997
  155.5341  140.3459  155.4434 H   0  0  0  0  0  0  0  0  0  0  0  0  # atno 8010 bound_to 7997
  139.5007  144.3644  151.9790 H   0  0  0  0  0  0  0  0  0  0  0  0  # atno 10167 bound_to 10162
  157.6389  131.0969  150.6905 H   0  0  0  0  0  0  0  0  0  0  0  0  # atno 10718 bound_to 10713
  153.8508  135.6849  153.4792 H   0  0  0  0  0  0  0  0  0  0  0  0  # atno 10763 bound_to 10752
  153.1398  135.4662  154.9477 H   0  0  0  0  0  0  0  0  0  0  0  0  # atno 10764 bound_to 10752
  154.7803  135.3266  154.7952 H   0  0  0  0  0  0  0  0  0  0  0  0  # atno 10765 bound_to 10752
  139.9174  134.9633  156.7763 H   0  0  0  0  0  0  0  0  0  0  0  0  # atno 11005 bound_to 11000
  145.0520  140.9025  143.4990 LP  0  0  0  0  0  0  0  0  0  0  0  0  # atno 17320 bound_to 7965
  145.1169  139.2720  143.5609 LP  0  0  0  0  0  0  0  0  0  0  0  0  # atno 17321 bound_to 7965
  140.3080  144.3570  150.6041 LP  0  0  0  0  0  0  0  0  0  0  0  0  # atno 17342 bound_to 10162
  140.5821  143.2172  151.7410 LP  0  0  0  0  0  0  0  0  0  0  0  0  # atno 17343 bound_to 10162
  156.7232  130.4687  149.5518 LP  0  0  0  0  0  0  0  0  0  0  0  0  # atno 17370 bound_to 10713
  156.1652  130.6400  151.0768 LP  0  0  0  0  0  0  0  0  0  0  0  0  # atno 17371 bound_to 10713
  140.6580  133.9671  155.7790 LP  0  0  0  0  0  0  0  0  0  0  0  0  # atno 17394 bound_to 11000
  141.0663  134.0272  157.3589 LP  0  0  0  0  0  0  0  0  0  0  0  0  # atno 17395 bound_to 11000

$$$$
