AV-unprocessed.smi:2620|AV-procd|sdf|10223|dock9
  -GOLD-   2272014233D 1   1.00000     0.00000
 Structure written by MMmdl.
 36 37  0  0  0  0  0  0  0  0  1 V2000
  147.0229  142.4709  153.7861 C   0  0  0  0  0  0  0  0  0  0  0  0
  147.5148  141.1858  153.4491 O   0  0  0  0  0  0  0  0  0  0  0  0
  148.1373  140.5378  154.5453 C   0  0  0  0  0  0  0  0  0  0  0  0
  149.5700  141.0726  154.6906 C   0  0  0  0  0  0  0  0  0  0  0  0
  150.0943  140.8413  156.0431 N   0  0  0  0  0  0  0  0  0  0  0  0
  150.6705  141.9465  156.6990 C   0  0  0  0  0  0  0  0  0  0  0  0
  151.1956  141.8530  157.9349 C   0  0  0  0  0  0  0  0  0  0  0  0
  151.8011  143.0385  158.5880 C   0  0  0  0  0  0  0  0  0  0  0  0
  151.9678  144.0898  157.9679 O   0  0  0  0  0  0  0  0  0  0  0  0
  152.1875  142.9409  160.0261 C   0  0  0  0  0  0  0  0  0  0  0  0
  153.1063  141.9325  160.3967 C   0  0  0  0  0  0  0  0  0  0  0  0
  153.5214  141.7948  161.7347 C   0  0  0  0  0  0  0  0  0  0  0  0
  153.0156  142.6610  162.7203 C   0  0  0  0  0  0  0  0  0  0  0  0
  152.0887  143.6592  162.3675 C   0  0  0  0  0  0  0  0  0  0  0  0
  151.6669  143.8023  161.0299 C   0  0  0  0  0  0  0  0  0  0  0  0
  150.7347  144.7624  160.7482 O   0  0  0  0  0  0  0  0  0  0  0  0
  151.1392  140.5632  158.5947 C   0  0  0  0  0  0  0  0  0  0  0  0
  150.5974  139.5000  157.9686 C   0  0  0  0  0  0  0  0  0  0  0  0
  150.5369  138.2224  158.5979 C   0  0  0  0  0  0  0  0  0  0  0  0
  150.5141  137.1837  159.1080 N   0  0  0  0  0  0  0  0  0  0  0  0
  150.0412  139.5986  156.6118 C   0  0  0  0  0  0  0  0  0  0  0  0
  149.5579  138.6324  156.0193 O   0  0  0  0  0  0  0  0  0  0  0  0
  146.5497  142.9224  152.9145 H   0  0  0  0  0  0  0  0  0  0  0  0
  147.8300  143.1290  154.1094 H   0  0  0  0  0  0  0  0  0  0  0  0
  146.2781  142.4136  154.5809 H   0  0  0  0  0  0  0  0  0  0  0  0
  147.5691  140.7221  155.4583 H   0  0  0  0  0  0  0  0  0  0  0  0
  148.1535  139.4592  154.3788 H   0  0  0  0  0  0  0  0  0  0  0  0
  150.2139  140.5930  153.9520 H   0  0  0  0  0  0  0  0  0  0  0  0
  149.5983  142.1348  154.4413 H   0  0  0  0  0  0  0  0  0  0  0  0
  150.6680  142.8623  156.1243 H   0  0  0  0  0  0  0  0  0  0  0  0
  153.5094  141.2609  159.6520 H   0  0  0  0  0  0  0  0  0  0  0  0
  154.2290  141.0245  162.0040 H   0  0  0  0  0  0  0  0  0  0  0  0
  153.3325  142.5560  163.7473 H   0  0  0  0  0  0  0  0  0  0  0  0
  151.6952  144.3131  163.1321 H   0  0  0  0  0  0  0  0  0  0  0  0
  151.1154  145.6127  160.5890 H   0  0  0  0  0  0  0  0  0  0  0  0
  151.5283  140.4430  159.5955 H   0  0  0  0  0  0  0  0  0  0  0  0
  1  2  1  0  0  0  0
  1 23  1  0  0  0  0
  1 24  1  0  0  0  0
  1 25  1  0  0  0  0
  2  3  1  0  0  0  0
  3  4  1  0  0  0  0
  3 26  1  0  0  0  0
  3 27  1  0  0  0  0
  4  5  1  0  0  0  0
  4 28  1  0  0  0  0
  4 29  1  0  0  0  0
  5 21  1  0  0  0  0
  5  6  1  0  0  0  0
  6  7  2  0  0  0  0
  6 30  1  0  0  0  0
  7  8  1  0  0  0  0
  7 17  1  0  0  0  0
  8  9  2  0  0  0  0
  8 10  1  0  0  0  0
 10 15  1  0  0  0  0
 10 11  2  0  0  0  0
 11 12  1  0  0  0  0
 11 31  1  0  0  0  0
 12 13  2  0  0  0  0
 12 32  1  0  0  0  0
 13 14  1  0  0  0  0
 13 33  1  0  0  0  0
 14 15  2  0  0  0  0
 14 34  1  0  0  0  0
 15 16  1  0  0  0  0
 16 35  1  0  0  0  0
 17 18  2  0  0  0  0
 17 36  1  0  0  0  0
 18 19  1  0  0  0  0
 18 21  1  0  0  0  0
 19 20  3  0  0  0  0
 21 22  2  0  0  0  0
M  END
> <s_m_source_file>
AV-unprocessed.smi

> <i_m_source_file_index>
2620

> <i_lp_mmshare_version>
43012

> <i_f3d_flags>
0

> <s_epik_input>
W0NIM11PW0NIMl1bQ0gyXW4xW2NIXWMoW2NIXWMoQyNOKWMxPU8pQyg9TyljMltjSF1bY0hdW2NIXVtjSF1jMltPSF0=

> <s_epik_cmdline>
J2VwaWtfcHl0aG9uJywgJy1waCcsICc3LjAnLCAnLXRuJywgJzgnLCAnLW1hJywgJzIwMCcsICctbWV0YWxfYmluZGluZycsICctaW1hZScsICc8aW5maWxlLm1hZT4nLCAnLW9tYWUnLCAnPG91dGZpbGUubWFlPic=

> <r_epik_Ionization_Penalty>
0.219503

> <r_epik_Ionization_Penalty_Charging>
5.62591e-11

> <r_epik_Ionization_Penalty_Neutral>
0.219503

> <r_epik_State_Penalty>
0.209817

> <r_epik_Charging_Adjusted_Penalty>
0.209817

> <i_epik_Tot_Q>
0

> <i_epik_Tot_abs_Q>
0

> <r_epik_Metal_State_Penalty>
0.209817

> <b_epik_Metal_Only>
0

> <s_lp_Force_Field>
OPLS_2005

> <r_lp_Energy>
23.6774

> <b_lp_Chiralities_Consistent>
1

> <s_lp_Variant>
AV-unprocessed.smi:2620-1

> <Gold.Version>
5.8.1

> <Gold.Id.Protein>
6NUR|6NUR_protein|mol2

> <Gold.PLP.Fitness>
51.7189

> <Gold.PLP.PLP>
-48.5788

> <Gold.PLP.part.hbond>
-1.0769

> <Gold.PLP.part.metal>
0.0000

> <Gold.PLP.part.buried>
-5.7062

> <Gold.PLP.part.nonpolar>
-42.2768

> <Gold.PLP.part.repulsive>
0.2665

> <Gold.PLP.ligand.clash>
0.0456

> <Gold.PLP.ligand.torsion>
1.3861

> <Gold.PLP.Chemscore.Hbond>
0.4062

> <Gold.PLP.Chemscore.CHOScore>
1.0000

> <Gold.PLP.Chemscore.Metal>
0.0000

> <Gold.Chemscore.Hbonds>
donor molecule, donor type, donor heavy atom, donor atom, acceptor molecule, acceptor atom, score
      P1  H  6896  6909       L1    20  0.29
      L1  C     6    30       P1  8028  0.80

> <Gold.PLP.Chemscore.Internal.Correction>
1.7393

> <Gold.Rescore>
     Score         DG    S(hbond)    S(metal)    S(lipo)     H(rot)  DE(clash)    DE(int)     intcor
     11.87     -16.04       0.82        0.00     110.30       1.98       0.35       3.82       ----

> <Gold.Chemscore.Fitness>
11.8692

> <Gold.Chemscore.DG>
-16.0402

> <Gold.Chemscore.ZeroCoef>
-5.4800

> <Gold.Chemscore.Hbond>
0.8185

> <Gold.Chemscore.Metal>
0.0000

> <Gold.Chemscore.Lipo>
110.2953

> <Gold.Chemscore.Internal_Hbond>
0.0000

> <Gold.Chemscore.DEClash>
0.3529

> <Gold.Chemscore.DEInternal>
3.8181

> <Gold.Chemscore.Rot>
1.9836

> <Gold.Chemscore.Internal.Correction>
   9.000000E+99

> <Gold.Chemscore.Hbonds>
donor molecule, donor type, donor heavy atom, donor atom, acceptor molecule, acceptor atom, score
      P1  H  6896  6909       L1    20  0.31

> <Gold.Chemscore.Hbond.Weighted>
-2.7336

> <Gold.Chemscore.Metal.Weighted>
-0.0000

> <Gold.Chemscore.Lipo.Weighted>
-12.9046

> <Gold.Chemscore.Internal_Hbond.Weighted>
0.0000

> <Gold.Chemscore.DEClash.Weighted>
0.3529

> <Gold.Chemscore.DEInternal.Weighted>
3.8181

> <Gold.Chemscore.Rot.Weighted>
5.0780

> <Gold.Chemscore.Internal.Correction.Weighted>
   9.000000E+99

> <Gold.Protein.RotatedTorsions>
[ 6907 6896 6895 6894 ] final   96.97 input  -60.11 | X-H torsion
[ 7974 7965 7964 7962 ] final   58.39 input  175.53 | X-H torsion
[ 8008 7997 7996 7995 ] final  123.22 input   59.86 | X-H torsion
[ 10167 10162 10161 10158 ] final   63.66 input  -65.29 | X-H torsion
[ 10718 10713 10712 10709 ] final  -35.29 input   66.30 | X-H torsion
[ 10763 10752 10751 10750 ] final   -8.21 input  -60.55 | X-H torsion
[ 11005 11000 10999 10996 ] final -149.01 input  -57.11 | X-H torsion

> <Gold.Protein.ActiveResidues>
 VAL166  LYS551  ARG553  GLY616  TRP617  ASP618  TYR619  PRO620  LYS621  CYS622 
 ASP623  PHE694  ASN695  SER759  ASP760  ASP761  ALA762  ILE779  LEU786  VAL792 
 PHE793  MET794  SER795  GLU796  ALA797  LYS798  CYS799  TRP800  GLU811  SER814 

> <Gold.Protein.RotatedAtoms>
  152.5429  134.0805  159.8232 H   0  0  0  0  0  0  0  0  0  0  0  0  # atno 6907 bound_to 6896
  151.0907  133.5311  159.2622 H   0  0  0  0  0  0  0  0  0  0  0  0  # atno 6908 bound_to 6896
  151.2103  135.0487  159.8962 H   0  0  0  0  0  0  0  0  0  0  0  0  # atno 6909 bound_to 6896
  145.9186  139.3711  143.0492 H   0  0  0  0  0  0  0  0  0  0  0  0  # atno 7974 bound_to 7965
  156.2757  140.2768  156.1592 H   0  0  0  0  0  0  0  0  0  0  0  0  # atno 8008 bound_to 7997
  155.0771  140.0387  157.2645 H   0  0  0  0  0  0  0  0  0  0  0  0  # atno 8009 bound_to 7997
  154.6993  140.2646  155.6740 H   0  0  0  0  0  0  0  0  0  0  0  0  # atno 8010 bound_to 7997
  140.1307  144.4646  150.6867 H   0  0  0  0  0  0  0  0  0  0  0  0  # atno 10167 bound_to 10162
  156.3404  130.4292  149.7792 H   0  0  0  0  0  0  0  0  0  0  0  0  # atno 10718 bound_to 10713
  153.4372  135.7013  153.6192 H   0  0  0  0  0  0  0  0  0  0  0  0  # atno 10763 bound_to 10752
  153.4582  135.3742  155.2323 H   0  0  0  0  0  0  0  0  0  0  0  0  # atno 10764 bound_to 10752
  154.8727  135.4013  154.3766 H   0  0  0  0  0  0  0  0  0  0  0  0  # atno 10765 bound_to 10752
  140.7552  134.3361  157.5116 H   0  0  0  0  0  0  0  0  0  0  0  0  # atno 11005 bound_to 11000
  145.8579  140.9492  143.0715 LP  0  0  0  0  0  0  0  0  0  0  0  0  # atno 17320 bound_to 7965
  144.6750  140.0491  143.7479 LP  0  0  0  0  0  0  0  0  0  0  0  0  # atno 17321 bound_to 7965
  140.6819  143.2331  151.5362 LP  0  0  0  0  0  0  0  0  0  0  0  0  # atno 17342 bound_to 10162
  139.5521  144.2368  152.1549 LP  0  0  0  0  0  0  0  0  0  0  0  0  # atno 17343 bound_to 10162
  156.5031  130.8138  151.3140 LP  0  0  0  0  0  0  0  0  0  0  0  0  # atno 17370 bound_to 10713
  157.7446  130.9938  150.2685 LP  0  0  0  0  0  0  0  0  0  0  0  0  # atno 17371 bound_to 10713
  139.8780  134.9167  156.3162 LP  0  0  0  0  0  0  0  0  0  0  0  0  # atno 17394 bound_to 11000
  140.9714  133.7325  156.0540 LP  0  0  0  0  0  0  0  0  0  0  0  0  # atno 17395 bound_to 11000

$$$$
