#       Name:                AV-unprocessed.smi:107
#       Creating user name   scv26
#       Creation time:       Thu Mar 26 18:02:08 2020


#       File generated by GOLD software.
#

@<TRIPOS>MOLECULE
AV-unprocessed.smi:107
    41    42     1
SMALL
NO_CHARGES


@<TRIPOS>ATOM
      1 ****        -3.5368   1.4770   0.4520 C.3            1 S1                 0.0000
      2 ****        -2.8217   0.1945   0.0604 C.2            1 S1                 0.0000
      3 ****        -1.5027  -0.0090   0.3094 C.2            1 S1                 0.0000
      4 ****        -0.8169  -1.1675  -0.0340 N.am           1 S1                 0.0000
      5 ****         0.6783  -1.2894   0.1816 C.3            1 S1                 0.0000
      6 ****         1.1697  -0.7407   1.5346 C.3            1 S1                 0.0000
      7 ****         2.1379   0.3639   1.1335 C.3            1 S1                 0.0000
      8 ****         1.5315   1.6372   1.2464 O.3            1 S1                 0.0000
      9 ****         2.4937   0.0088  -0.3193 C.3            1 S1                 0.0000
     10 ****         2.9764   1.1572  -1.2224 C.3            1 S1                 0.0000
     11 ****         4.2072   1.6660  -0.7544 O.3            1 S1                 0.0000
     12 ****         1.3075  -0.5768  -0.8356 O.3            1 S1                 0.0000
     13 ****        -1.4900  -2.1582  -0.7834 C.2            1 S1                 0.0000
     14 ****        -0.9378  -3.1696  -1.2146 O.2            1 S1                 0.0000
     15 ****        -2.8480  -1.9583  -1.0261 N.am           1 S1                 0.0000
     16 ****        -3.5886  -0.8411  -0.6355 C.2            1 S1                 0.0000
     17 ****        -4.7891  -0.7854  -0.8972 O.2            1 S1                 0.0000
     18 ****        -3.3355  -2.6776  -1.5402 H              1 S1                 0.0000
     19 ****        -2.8693   2.1742   0.9591 H              1 S1                 0.0000
     20 ****        -4.3675   1.2602   1.1246 H              1 S1                 0.0000
     21 ****        -3.9330   1.9774  -0.4323 H              1 S1                 0.0000
     22 ****        -0.9605   0.7899   0.7896 H              1 S1                 0.0000
     23 ****         0.9342  -2.3466   0.0989 H              1 S1                 0.0000
     24 ****         0.3630  -0.4190   2.1933 H              1 S1                 0.0000
     25 ****         1.7071  -1.5407   2.0458 H              1 S1                 0.0000
     26 ****         3.0257   0.3626   1.7665 H              1 S1                 0.0000
     27 ****         2.1564   2.2906   0.9707 H              1 S1                 0.0000
     28 ****         3.2505  -0.7781  -0.3082 H              1 S1                 0.0000
     29 ****         3.1213   0.7919  -2.2393 H              1 S1                 0.0000
     30 ****         2.2417   1.9608  -1.2772 H              1 S1                 0.0000
     31 ****         4.4952   2.3452  -1.3454 H              1 S1                 0.0000
     32 ****         1.2671   1.8024   2.1965 LP             1 S1                 0.0000
     33 ****         0.7205   1.6780   0.6628 LP             1 S1                 0.0000
     34 ****         4.8866   0.9328  -0.7265 LP             1 S1                 0.0000
     35 ****         4.0884   2.0454   0.1631 LP             1 S1                 0.0000
     36 ****         0.6968   0.1408  -1.1705 LP             1 S1                 0.0000
     37 ****         1.5377  -1.1957  -1.5866 LP             1 S1                 0.0000
     38 ****         0.0350  -3.3213  -1.0396 LP             1 S1                 0.0000
     39 ****        -1.4618  -3.8399  -1.7401 LP             1 S1                 0.0000
     40 ****        -5.3225   0.0171  -0.6297 LP             1 S1                 0.0000
     41 ****        -5.2318  -1.5425  -1.3776 LP             1 S1                 0.0000
@<TRIPOS>BOND
    1    1    2 1     
    2    1   19 1     
    3    1   20 1     
    4    1   21 1     
    5    2   16 1     
    6    2    3 2     
    7    3    4 1     
    8    3   22 1     
    9    4    5 1     
   10    4   13 1     
   11    5   12 1     
   12    5    6 1     
   13    5   23 1     
   14    6    7 1     
   15    6   24 1     
   16    6   25 1     
   17    7    8 1     
   18    7    9 1     
   19    7   26 1     
   20    8   27 1     
   21    9   10 1     
   22    9   12 1     
   23    9   28 1     
   24   10   11 1     
   25   10   29 1     
   26   10   30 1     
   27   11   31 1     
   28   13   14 2     
   29   13   15 1     
   30   15   18 1     
   31   15   16 1     
   32   16   17 2     
   33    8   32 1     
   34    8   33 1     
   35   11   34 1     
   36   11   35 1     
   37   12   36 1     
   38   12   37 1     
   39   14   38 1     
   40   14   39 1     
   41   17   40 1     
   42   17   41 1     
@<TRIPOS>SUBSTRUCTURE
      1 S1             1
@<TRIPOS>SET
LONE_PAIRS      STATIC     ATOMS    <user>   **** ""
10 32 33 34 35 36 37 38 39 40 41
DONOR_HYDROGENS      STATIC     ATOMS    <user>   **** ""
3 27 31 18
ATOM$BLUE        STATIC     ATOMS    COLORGROUP SYSTEM
10 32 33 34 35 36 37 38 39 40 41
ATOM$RED        STATIC     ATOMS    COLORGROUP SYSTEM
3 27 31 18
