AV-unprocessed.smi:548|AV-procd|sdf|2891|dock4
  -GOLD-   2262023383D 1   1.00000     0.00000
 Structure written by MMmdl.
 24 24  0  0  0  0  0  0  0  0  2 V2000
  150.9566  136.4884  157.1948 C   0  0  0  0  0  0  0  0  0  0  0  0
  151.6725  137.7479  157.7420 C   0  0  0  0  0  0  0  0  0  0  0  0
  151.4836  137.8009  159.2781 C   0  0  0  0  0  0  0  0  0  0  0  0
  153.1911  137.6372  157.4269 C   0  0  0  0  0  0  0  0  0  0  0  0
  153.9397  138.5629  157.8138 O   0  0  0  0  0  0  0  0  0  0  0  0
  153.5837  136.6457  156.7711 O   0  5  0  0  0  0  0  0  0  0  0  0
  151.0711  139.0174  157.0949 C   0  0  0  0  0  0  0  0  0  0  0  0
  150.4685  140.0799  157.8200 C   0  0  0  0  0  0  0  0  0  0  0  0
  149.9524  141.1907  157.1249 C   0  0  0  0  0  0  0  0  0  0  0  0
  150.0515  141.2113  155.7215 C   0  0  0  0  0  0  0  0  0  0  0  0
  149.5526  142.2929  154.9999 N   0  0  0  0  0  0  0  0  0  0  0  0
  150.6176  140.2165  155.0111 N   0  0  0  0  0  0  0  0  0  0  0  0
  151.1094  139.1560  155.6865 C   0  0  0  0  0  0  0  0  0  0  0  0
  150.9887  136.4456  156.1052 H   0  0  0  0  0  0  0  0  0  0  0  0
  149.9059  136.4625  157.4839 H   0  0  0  0  0  0  0  0  0  0  0  0
  151.4119  135.5730  157.5758 H   0  0  0  0  0  0  0  0  0  0  0  0
  151.9011  138.7136  159.7060 H   0  0  0  0  0  0  0  0  0  0  0  0
  151.9653  136.9541  159.7692 H   0  0  0  0  0  0  0  0  0  0  0  0
  150.4304  137.7709  159.5572 H   0  0  0  0  0  0  0  0  0  0  0  0
  150.3858  140.0768  158.8960 H   0  0  0  0  0  0  0  0  0  0  0  0
  149.4918  142.0057  157.6634 H   0  0  0  0  0  0  0  0  0  0  0  0
  149.1140  143.0772  155.4601 H   0  0  0  0  0  0  0  0  0  0  0  0
  149.6169  142.3254  153.9928 H   0  0  0  0  0  0  0  0  0  0  0  0
  151.5512  138.3883  155.0692 H   0  0  0  0  0  0  0  0  0  0  0  0
  1  2  1  0  0  0  0
  1 14  1  0  0  0  0
  1 15  1  0  0  0  0
  1 16  1  0  0  0  0
  2  3  1  0  0  0  0
  2  4  1  0  0  0  0
  2  7  1  0  0  0  0
  3 17  1  0  0  0  0
  3 18  1  0  0  0  0
  3 19  1  0  0  0  0
  4  5  2  0  0  0  0
  4  6  1  0  0  0  0
  7 13  1  0  0  0  0
  7  8  2  0  0  0  0
  8  9  1  0  0  0  0
  8 20  1  0  0  0  0
  9 10  2  0  0  0  0
  9 21  1  0  0  0  0
 10 11  1  0  0  0  0
 10 12  1  0  0  0  0
 11 22  1  0  0  0  0
 11 23  1  0  0  0  0
 12 13  2  0  0  0  0
 13 24  1  0  0  0  0
M  CHG  1   6  -1
M  END
> <s_m_source_file>
AV-unprocessed.smi

> <i_m_source_file_index>
548

> <i_lp_mmshare_version>
43012

> <i_f3d_flags>
0

> <s_epik_input>
Tz1DKFtPSF0pQyhbQ0gzXSkoW0NIM10pYzFbY0hdW2NIXWMoW05IMl0pbltjSF0x

> <s_epik_cmdline>
J2VwaWtfcHl0aG9uJywgJy1waCcsICc3LjAnLCAnLXRuJywgJzgnLCAnLW1hJywgJzIwMCcsICctbWV0YWxfYmluZGluZycsICctaW1hZScsICc8aW5maWxlLm1hZT4nLCAnLW9tYWUnLCAnPG91dGZpbGUubWFlPic=

> <r_lp_tautomer_probability>
1

> <r_epik_Ionization_Penalty>
1.52711

> <r_epik_Ionization_Penalty_Charging>
0.000624596

> <r_epik_Ionization_Penalty_Neutral>
1.52649

> <r_epik_State_Penalty>
1.61852

> <r_epik_Charging_Adjusted_Penalty>
1.61914

> <i_epik_Tot_Q>
-1

> <i_epik_Tot_abs_Q>
1

> <r_epik_Metal_State_Penalty>
0.00844734

> <b_epik_Metal_Only>
0

> <s_lp_Force_Field>
OPLS_2005

> <r_lp_Energy>
9.30736

> <b_lp_Chiralities_Consistent>
1

> <s_lp_Variant>
AV-unprocessed.smi:548-2

> <Gold.Version>
5.8.1

> <Gold.Id.Protein>
6NUR|6NUR_protein|mol2

> <Gold.PLP.Fitness>
33.8626

> <Gold.PLP.PLP>
-16.2143

> <Gold.PLP.part.hbond>
-4.0000

> <Gold.PLP.part.metal>
0.0000

> <Gold.PLP.part.buried>
-3.4445

> <Gold.PLP.part.nonpolar>
-9.4963

> <Gold.PLP.part.repulsive>
0.3297

> <Gold.PLP.ligand.clash>
0.0000

> <Gold.PLP.ligand.torsion>
0.0122

> <Gold.PLP.Chemscore.Hbond>
5.8880

> <Gold.PLP.Chemscore.CHOScore>
0.0000

> <Gold.PLP.Chemscore.Metal>
0.0000

> <Gold.Chemscore.Hbonds>
donor molecule, donor type, donor heavy atom, donor atom, acceptor molecule, acceptor atom, score
      L1  H    11    22       P1  8028  1.00
      P1  H  7989  7998       L1    12  1.00
      P1  H  7997  8009       L1     5  2.00
      P1  H 10752 10765       L1     6  1.89

> <Gold.PLP.Chemscore.Internal.Correction>
0.0087

> <Gold.Rescore>
     Score         DG    S(hbond)    S(metal)    S(lipo)     H(rot)  DE(clash)    DE(int)     intcor
     17.23     -17.36       3.65        0.00      29.57       1.48       0.11       0.01       ----

> <Gold.Chemscore.Fitness>
17.2325

> <Gold.Chemscore.DG>
-17.3584

> <Gold.Chemscore.ZeroCoef>
-5.4800

> <Gold.Chemscore.Hbond>
3.6519

> <Gold.Chemscore.Metal>
0.0000

> <Gold.Chemscore.Lipo>
29.5734

> <Gold.Chemscore.Internal_Hbond>
0.0000

> <Gold.Chemscore.DEClash>
0.1117

> <Gold.Chemscore.DEInternal>
0.0142

> <Gold.Chemscore.Rot>
1.4762

> <Gold.Chemscore.Internal.Correction>
   9.000000E+99

> <Gold.Chemscore.Hbonds>
donor molecule, donor type, donor heavy atom, donor atom, acceptor molecule, acceptor atom, score
      L1  H    11    22       P1  8028  0.95
      P1  H  7989  7998       L1    12  0.78
      P1  H  7997  8009       L1     5  0.96
      P1  H 10752 10765       L1     6  0.91

> <Gold.Chemscore.Hbond.Weighted>
-12.1974

> <Gold.Chemscore.Metal.Weighted>
-0.0000

> <Gold.Chemscore.Lipo.Weighted>
-3.4601

> <Gold.Chemscore.Internal_Hbond.Weighted>
0.0000

> <Gold.Chemscore.DEClash.Weighted>
0.1117

> <Gold.Chemscore.DEInternal.Weighted>
0.0142

> <Gold.Chemscore.Rot.Weighted>
3.7790

> <Gold.Chemscore.Internal.Correction.Weighted>
   9.000000E+99

> <Gold.Protein.RotatedTorsions>
[ 6907 6896 6895 6894 ] final   15.32 input  -60.11 | X-H torsion
[ 7974 7965 7964 7962 ] final  -93.74 input  175.53 | X-H torsion
[ 8008 7997 7996 7995 ] final  139.40 input   59.86 | X-H torsion
[ 10167 10162 10161 10158 ] final -159.07 input  -65.29 | X-H torsion
[ 10718 10713 10712 10709 ] final  178.52 input   66.30 | X-H torsion
[ 10763 10752 10751 10750 ] final -115.57 input  -60.55 | X-H torsion
[ 11005 11000 10999 10996 ] final   36.29 input  -57.11 | X-H torsion

> <Gold.Protein.ActiveResidues>
 VAL166  LYS551  ARG553  GLY616  TRP617  ASP618  TYR619  PRO620  LYS621  CYS622 
 ASP623  PHE694  ASN695  SER759  ASP760  ASP761  ALA762  ILE779  LEU786  VAL792 
 PHE793  MET794  SER795  GLU796  ALA797  LYS798  CYS799  TRP800  GLU811  SER814 

> <Gold.Protein.RotatedAtoms>
  151.8162  135.0666  160.0418 H   0  0  0  0  0  0  0  0  0  0  0  0  # atno 6907 bound_to 6896
  152.2984  133.5626  159.5611 H   0  0  0  0  0  0  0  0  0  0  0  0  # atno 6908 bound_to 6896
  150.7262  134.0243  159.3754 H   0  0  0  0  0  0  0  0  0  0  0  0  # atno 6909 bound_to 6896
  145.3825  140.9519  143.2385 H   0  0  0  0  0  0  0  0  0  0  0  0  # atno 7974 bound_to 7965
  156.2990  140.2368  156.4231 H   0  0  0  0  0  0  0  0  0  0  0  0  # atno 8008 bound_to 7997
  154.8337  140.0431  157.1515 H   0  0  0  0  0  0  0  0  0  0  0  0  # atno 8009 bound_to 7997
  154.9179  140.2999  155.5235 H   0  0  0  0  0  0  0  0  0  0  0  0  # atno 8010 bound_to 7997
  139.6643  143.9857  152.2245 H   0  0  0  0  0  0  0  0  0  0  0  0  # atno 10167 bound_to 10162
  156.8893  130.9842  151.3051 H   0  0  0  0  0  0  0  0  0  0  0  0  # atno 10718 bound_to 10713
  154.8486  135.4377  154.1683 H   0  0  0  0  0  0  0  0  0  0  0  0  # atno 10763 bound_to 10752
  153.2803  135.6953  153.7398 H   0  0  0  0  0  0  0  0  0  0  0  0  # atno 10764 bound_to 10752
  153.6605  135.3436  155.3100 H   0  0  0  0  0  0  0  0  0  0  0  0  # atno 10765 bound_to 10752
  140.2341  134.3493  155.7952 H   0  0  0  0  0  0  0  0  0  0  0  0  # atno 11005 bound_to 11000
  144.8497  139.5341  143.6862 LP  0  0  0  0  0  0  0  0  0  0  0  0  # atno 17320 bound_to 7965
  146.2835  139.6941  142.9212 LP  0  0  0  0  0  0  0  0  0  0  0  0  # atno 17321 bound_to 7965
  139.9604  144.6561  150.8085 LP  0  0  0  0  0  0  0  0  0  0  0  0  # atno 17342 bound_to 10162
  140.7593  143.3126  151.2810 LP  0  0  0  0  0  0  0  0  0  0  0  0  # atno 17343 bound_to 10162
  157.6093  130.8571  149.8926 LP  0  0  0  0  0  0  0  0  0  0  0  0  # atno 17370 bound_to 10713
  156.0637  130.3695  150.0925 LP  0  0  0  0  0  0  0  0  0  0  0  0  # atno 17371 bound_to 10713
  141.2215  133.7262  156.8779 LP  0  0  0  0  0  0  0  0  0  0  0  0  # atno 17394 bound_to 11000
  140.1720  134.9093  157.2845 LP  0  0  0  0  0  0  0  0  0  0  0  0  # atno 17395 bound_to 11000

$$$$
