#       Name:                AV-unprocessed.smi:657
#       Creating user name   scv26
#       Creation time:       Fri Mar 27 00:17:06 2020


#       File generated by GOLD software.
#

@<TRIPOS>MOLECULE
AV-unprocessed.smi:657
    50    51     1
SMALL
NO_CHARGES


@<TRIPOS>ATOM
      1 ****        -1.1139   2.4375  -0.2683 C.3            1 S1                 0.0000
      2 ****        -0.9783   0.9053  -0.2712 C.3            1 S1                 0.0000
      3 ****        -1.7825   0.2655  -1.4201 C.3            1 S1                 0.0000
      4 ****        -1.2787   0.3128   1.0761 N.4            1 S1                 1.0000
      5 ****        -2.7146   0.4368   1.4662 C.3            1 S1                 0.0000
      6 ****        -2.9535   0.0165   2.9222 C.3            1 S1                 0.0000
      7 ****        -2.4984  -1.4268   3.1382 C.3            1 S1                 0.0000
      8 ****        -1.0234  -1.5519   2.7500 C.3            1 S1                 0.0000
      9 ****        -0.7568  -1.0785   1.2996 C.3            1 S1                 0.0000
     10 ****         0.7582  -1.2001   1.0367 C.2            1 S1                 0.0000
     11 ****         1.5183  -0.4240   1.6270 O.2            1 S1                 0.0000
     12 ****         1.0274  -2.1821   0.1328 N.pl3          1 S1                -1.0000
     13 ****         2.3725  -2.5024  -0.3468 C.3            1 S1                 0.0000
     14 ****         2.5322  -2.1147  -1.8348 C.3            1 S1                 0.0000
     15 ****         2.3480  -0.6399  -2.1277 C.2            1 S1                 0.0000
     16 ****         1.3772  -0.0538  -2.9901 C.2            1 S1                 0.0000
     17 ****         1.4525   1.2664  -3.0368 N.2            1 S1                 0.0000
     18 ****         2.4782   1.5713  -2.2168 N.pl3          1 S1                 0.0000
     19 ****         2.8467   2.9563  -2.0192 C.3            1 S1                 0.0000
     20 ****         3.0477   0.4436  -1.6671 C.2            1 S1                 0.0000
     21 ****        -0.7187   2.8574  -1.1939 H              1 S1                 0.0000
     22 ****        -0.5517   2.8802   0.5543 H              1 S1                 0.0000
     23 ****        -2.1498   2.7647  -0.1870 H              1 S1                 0.0000
     24 ****         0.0728   0.7417  -0.4968 H              1 S1                 0.0000
     25 ****        -1.4718   0.6782  -2.3800 H              1 S1                 0.0000
     26 ****        -2.8526   0.4490  -1.3280 H              1 S1                 0.0000
     27 ****        -1.6245  -0.8115  -1.4709 H              1 S1                 0.0000
     28 ****        -3.0599   1.4624   1.3481 H              1 S1                 0.0000
     29 ****        -3.3315  -0.1815   0.8134 H              1 S1                 0.0000
     30 ****        -2.4140   0.6839   3.5957 H              1 S1                 0.0000
     31 ****        -4.0113   0.1127   3.1687 H              1 S1                 0.0000
     32 ****        -2.6413  -1.7174   4.1793 H              1 S1                 0.0000
     33 ****        -3.1026  -2.1057   2.5350 H              1 S1                 0.0000
     34 ****        -0.4260  -0.9688   3.4531 H              1 S1                 0.0000
     35 ****        -0.7073  -2.5895   2.8688 H              1 S1                 0.0000
     36 ****        -1.3093  -1.7422   0.6309 H              1 S1                 0.0000
     37 ****         3.1564  -2.0104   0.2310 H              1 S1                 0.0000
     38 ****         2.5722  -3.5691  -0.2450 H              1 S1                 0.0000
     39 ****         3.5207  -2.4342  -2.1654 H              1 S1                 0.0000
     40 ****         1.8321  -2.7064  -2.4261 H              1 S1                 0.0000
     41 ****         0.6138  -0.5488  -3.5719 H              1 S1                 0.0000
     42 ****         3.5440   3.0409  -1.1854 H              1 S1                 0.0000
     43 ****         1.9585   3.5490  -1.7981 H              1 S1                 0.0000
     44 ****         3.3215   3.3424  -2.9215 H              1 S1                 0.0000
     45 ****         3.8848   0.5022  -0.9872 H              1 S1                 0.0000
     46 ****        -0.7625   0.8828   1.7305 H              1 S1                 0.0000
     47 ****         1.1461   0.2592   2.2552 LP             1 S1                 0.0000
     48 ****         2.5053  -0.4795   1.4762 LP             1 S1                 0.0000
     49 ****         0.2609  -2.7159  -0.2244 LP             1 S1                 0.0000
     50 ****         0.8787   1.8953  -3.5613 LP             1 S1                 0.0000
@<TRIPOS>BOND
    1    1    2 1     
    2    1   21 1     
    3    1   22 1     
    4    1   23 1     
    5    2    3 1     
    6    2    4 1     
    7    2   24 1     
    8    3   25 1     
    9    3   26 1     
   10    3   27 1     
   11    4    9 1     
   12    4    5 1     
   13    4   46 1     
   14    5    6 1     
   15    5   28 1     
   16    5   29 1     
   17    6    7 1     
   18    6   30 1     
   19    6   31 1     
   20    7    8 1     
   21    7   32 1     
   22    7   33 1     
   23    8    9 1     
   24    8   34 1     
   25    8   35 1     
   26    9   10 1     
   27    9   36 1     
   28   10   11 2     
   29   10   12 1     
   30   12   13 1     
   31   13   14 1     
   32   13   37 1     
   33   13   38 1     
   34   14   15 1     
   35   14   39 1     
   36   14   40 1     
   37   15   20 2     
   38   15   16 1     
   39   16   17 2     
   40   16   41 1     
   41   17   18 1     
   42   18   19 1     
   43   18   20 1     
   44   19   42 1     
   45   19   43 1     
   46   19   44 1     
   47   20   45 1     
   48   11   47 1     
   49   11   48 1     
   50   12   49 1     
   51   17   50 1     
@<TRIPOS>SUBSTRUCTURE
      1 S1             1
@<TRIPOS>SET
LONE_PAIRS      STATIC     ATOMS    <user>   **** ""
4 47 48 49 50
DONOR_HYDROGENS      STATIC     ATOMS    <user>   **** ""
1 46
ATOM$BLUE        STATIC     ATOMS    COLORGROUP SYSTEM
4 47 48 49 50
ATOM$RED        STATIC     ATOMS    COLORGROUP SYSTEM
1 46
