AV-unprocessed.smi:2438|AV-procd|sdf|9601|dock8
  -GOLD-   2272013233D 1   1.00000     0.00000
 Structure written by MMmdl.
 44 45  0  0  0  0  0  0  0  0  2 V2000
  151.0006  139.2113  154.8605 C   0  0  0  0  0  0  0  0  0  0  0  0
  149.7136  139.2846  155.5413 N   0  0  0  0  0  0  0  0  0  0  0  0
  149.3989  138.1835  156.4413 C   0  0  0  0  0  0  0  0  0  0  0  0
  148.6154  139.7093  154.7669 C   0  0  0  0  0  0  0  0  0  0  0  0
  148.0503  138.8150  153.9233 N   0  0  0  0  0  0  0  0  0  0  0  0
  146.9970  139.1735  153.1827 C   0  0  0  0  0  0  0  0  0  0  0  0
  146.4598  140.3991  153.2286 N   0  3  0  0  0  0  0  0  0  0  0  0
  146.9898  141.3330  154.0539 C   0  0  0  0  0  0  0  0  0  0  0  0
  148.1021  141.0248  154.8742 C   0  0  0  0  0  0  0  0  0  0  0  0
  148.7378  141.9639  155.7383 N   0  0  0  0  0  0  0  0  0  0  0  0
  149.2391  141.7788  156.9711 C   0  0  0  0  0  0  0  0  0  0  0  0
  149.2402  140.7127  157.5850 O   0  0  0  0  0  0  0  0  0  0  0  0
  149.7555  142.9176  157.4543 N   0  0  0  0  0  0  0  0  0  0  0  0
  150.3756  143.0896  158.7656 C   0  0  2  0  0  0  0  0  0  0  0  0
  150.8940  144.5316  158.9102 C   0  0  0  0  0  0  0  0  0  0  0  0
  151.6271  144.7285  160.2452 C   0  0  0  0  0  0  0  0  0  0  0  0
  152.7667  143.7109  160.4112 C   0  0  0  0  0  0  0  0  0  0  0  0
  152.2581  142.2592  160.2822 C   0  0  2  0  0  0  0  0  0  0  0  0
  153.3925  141.2302  160.4662 C   0  0  0  0  0  0  0  0  0  0  0  0
  152.9856  140.0081  160.1214 F   0  0  0  0  0  0  0  0  0  0  0  0
  154.4392  141.5644  159.7115 F   0  0  0  0  0  0  0  0  0  0  0  0
  153.7881  141.2096  161.7389 F   0  0  0  0  0  0  0  0  0  0  0  0
  151.5201  142.0733  158.9385 C   0  0  0  0  0  0  0  0  0  0  0  0
  151.1760  140.1057  154.2609 H   0  0  0  0  0  0  0  0  0  0  0  0
  151.0483  138.3392  154.2069 H   0  0  0  0  0  0  0  0  0  0  0  0
  151.8080  139.1343  155.5891 H   0  0  0  0  0  0  0  0  0  0  0  0
  148.5043  138.3835  157.0312 H   0  0  0  0  0  0  0  0  0  0  0  0
  150.2237  138.0136  157.1340 H   0  0  0  0  0  0  0  0  0  0  0  0
  149.2359  137.2650  155.8760 H   0  0  0  0  0  0  0  0  0  0  0  0
  146.5406  138.4666  152.5054 H   0  0  0  0  0  0  0  0  0  0  0  0
  146.5007  142.2930  154.0023 H   0  0  0  0  0  0  0  0  0  0  0  0
  148.8572  142.8880  155.3489 H   0  0  0  0  0  0  0  0  0  0  0  0
  149.7106  143.7396  156.8699 H   0  0  0  0  0  0  0  0  0  0  0  0
  149.6452  142.9110  159.5571 H   0  0  0  0  0  0  0  0  0  0  0  0
  151.5723  144.7663  158.0883 H   0  0  0  0  0  0  0  0  0  0  0  0
  150.0654  145.2371  158.8380 H   0  0  0  0  0  0  0  0  0  0  0  0
  152.0231  145.7427  160.3047 H   0  0  0  0  0  0  0  0  0  0  0  0
  150.9203  144.6242  161.0694 H   0  0  0  0  0  0  0  0  0  0  0  0
  153.5353  143.9021  159.6612 H   0  0  0  0  0  0  0  0  0  0  0  0
  153.2418  143.8577  161.3816 H   0  0  0  0  0  0  0  0  0  0  0  0
  151.5349  142.0903  161.0819 H   0  0  0  0  0  0  0  0  0  0  0  0
  151.1183  141.0614  158.8739 H   0  0  0  0  0  0  0  0  0  0  0  0
  152.2293  142.1755  158.1158 H   0  0  0  0  0  0  0  0  0  0  0  0
  145.6594  140.6399  152.6433 H   0  0  0  0  0  0  0  0  0  0  0  0
  1  2  1  0  0  0  0
  1 24  1  0  0  0  0
  1 25  1  0  0  0  0
  1 26  1  0  0  0  0
  2  3  1  0  0  0  0
  2  4  1  0  0  0  0
  3 27  1  0  0  0  0
  3 28  1  0  0  0  0
  3 29  1  0  0  0  0
  4  9  1  0  0  0  0
  4  5  2  0  0  0  0
  5  6  1  0  0  0  0
  6  7  2  0  0  0  0
  6 30  1  0  0  0  0
  7  8  1  0  0  0  0
  7 44  1  0  0  0  0
  8  9  2  0  0  0  0
  8 31  1  0  0  0  0
  9 10  1  0  0  0  0
 10 11  1  0  0  0  0
 10 32  1  0  0  0  0
 11 12  2  0  0  0  0
 11 13  1  0  0  0  0
 13 14  1  0  0  0  0
 13 33  1  0  0  0  0
 14 23  1  0  0  0  0
 14 15  1  0  0  0  0
 14 34  1  0  0  0  0
 15 16  1  0  0  0  0
 15 35  1  0  0  0  0
 15 36  1  0  0  0  0
 16 17  1  0  0  0  0
 16 37  1  0  0  0  0
 16 38  1  0  0  0  0
 17 18  1  0  0  0  0
 17 39  1  0  0  0  0
 17 40  1  0  0  0  0
 18 19  1  0  0  0  0
 18 23  1  0  0  0  0
 18 41  1  0  0  0  0
 19 20  1  0  0  0  0
 19 21  1  0  0  0  0
 19 22  1  0  0  0  0
 23 42  1  0  0  0  0
 23 43  1  0  0  0  0
M  CHG  1   7   1
M  END
> <s_m_source_file>
AV-unprocessed.smi

> <i_m_source_file_index>
2438

> <i_lp_mmshare_version>
43012

> <i_f3d_flags>
0

> <s_epik_input>
W0NIM11OKFtDSDNdKWMxbltjSF1uW2NIXWMxW05IXUMoPU8pW05IXVtDQEBIXTJbQ0gyXVtDSDJdW0NIMl1bQ0BASF0oQyhGKShGKUYpW0NIMl0y

> <s_epik_cmdline>
J2VwaWtfcHl0aG9uJywgJy1waCcsICc3LjAnLCAnLXRuJywgJzgnLCAnLW1hJywgJzIwMCcsICctbWV0YWxfYmluZGluZycsICctaW1hZScsICc8aW5maWxlLm1hZT4nLCAnLW9tYWUnLCAnPG91dGZpbGUubWFlPic=

> <r_lp_tautomer_probability>
0.999336

> <r_epik_Ionization_Penalty>
2.11643

> <r_epik_Ionization_Penalty_Charging>
2.11639

> <r_epik_Ionization_Penalty_Neutral>
4.47523e-05

> <r_epik_State_Penalty>
2.25369

> <r_epik_Charging_Adjusted_Penalty>
4.37008

> <i_epik_Tot_Q>
1

> <i_epik_Tot_abs_Q>
1

> <r_epik_Metal_State_Penalty>
2.27019

> <b_epik_Metal_Only>
0

> <s_lp_Force_Field>
OPLS_2005

> <r_lp_Energy>
18.5992

> <b_lp_Chiralities_Consistent>
1

> <s_lp_Variant>
AV-unprocessed.smi:2438-7

> <Gold.Version>
5.8.1

> <Gold.Id.Protein>
6NUR|6NUR_protein|mol2

> <Gold.PLP.Fitness>
52.7548

> <Gold.PLP.PLP>
-42.6730

> <Gold.PLP.part.hbond>
-3.0000

> <Gold.PLP.part.metal>
0.0000

> <Gold.PLP.part.buried>
-5.9533

> <Gold.PLP.part.nonpolar>
-34.3935

> <Gold.PLP.part.repulsive>
0.3986

> <Gold.PLP.ligand.clash>
0.0000

> <Gold.PLP.ligand.torsion>
0.8165

> <Gold.PLP.Chemscore.Hbond>
3.7840

> <Gold.PLP.Chemscore.CHOScore>
0.0000

> <Gold.PLP.Chemscore.Metal>
0.0000

> <Gold.Chemscore.Hbonds>
donor molecule, donor type, donor heavy atom, donor atom, acceptor molecule, acceptor atom, score
      L1  H     7    44       P1 10175  1.79
      L1  H    10    32       P1  8028  0.96
      L1  H    13    33       P1  8028  1.00

> <Gold.PLP.Chemscore.Internal.Correction>
0.3629

> <Gold.Rescore>
     Score         DG    S(hbond)    S(metal)    S(lipo)     H(rot)  DE(clash)    DE(int)     intcor
     15.07     -22.54       2.87        0.00      92.43       1.31       0.12       7.35       ----

> <Gold.Chemscore.Fitness>
15.0674

> <Gold.Chemscore.DG>
-22.5402

> <Gold.Chemscore.ZeroCoef>
-5.4800

> <Gold.Chemscore.Hbond>
2.8725

> <Gold.Chemscore.Metal>
0.0000

> <Gold.Chemscore.Lipo>
92.4288

> <Gold.Chemscore.Internal_Hbond>
0.0000

> <Gold.Chemscore.DEClash>
0.1237

> <Gold.Chemscore.DEInternal>
7.3491

> <Gold.Chemscore.Rot>
1.3078

> <Gold.Chemscore.Internal.Correction>
   9.000000E+99

> <Gold.Chemscore.Hbonds>
donor molecule, donor type, donor heavy atom, donor atom, acceptor molecule, acceptor atom, score
      L1  H     7    44       P1 10175  0.39
      L1  H    10    32       P1  8028  0.92
      L1  H    13    33       P1  8028  0.92

> <Gold.Chemscore.Hbond.Weighted>
-9.5941

> <Gold.Chemscore.Metal.Weighted>
-0.0000

> <Gold.Chemscore.Lipo.Weighted>
-10.8142

> <Gold.Chemscore.Internal_Hbond.Weighted>
0.0000

> <Gold.Chemscore.DEClash.Weighted>
0.1237

> <Gold.Chemscore.DEInternal.Weighted>
7.3491

> <Gold.Chemscore.Rot.Weighted>
3.3481

> <Gold.Chemscore.Internal.Correction.Weighted>
   9.000000E+99

> <Gold.Protein.RotatedTorsions>
[ 6907 6896 6895 6894 ] final   51.92 input  -60.11 | X-H torsion
[ 7974 7965 7964 7962 ] final  107.77 input  175.53 | X-H torsion
[ 8008 7997 7996 7995 ] final -146.00 input   59.86 | X-H torsion
[ 10167 10162 10161 10158 ] final   83.39 input  -65.29 | X-H torsion
[ 10718 10713 10712 10709 ] final -149.93 input   66.30 | X-H torsion
[ 10763 10752 10751 10750 ] final  173.88 input  -60.55 | X-H torsion
[ 11005 11000 10999 10996 ] final  103.76 input  -57.11 | X-H torsion

> <Gold.Protein.ActiveResidues>
 VAL166  LYS551  ARG553  GLY616  TRP617  ASP618  TYR619  PRO620  LYS621  CYS622 
 ASP623  PHE694  ASN695  SER759  ASP760  ASP761  ALA762  ILE779  LEU786  VAL792 
 PHE793  MET794  SER795  GLU796  ALA797  LYS798  CYS799  TRP800  GLU811  SER814 

> <Gold.Protein.RotatedAtoms>
  152.3178  134.7418  160.0320 H   0  0  0  0  0  0  0  0  0  0  0  0  # atno 6907 bound_to 6896
  151.7877  133.3351  159.3498 H   0  0  0  0  0  0  0  0  0  0  0  0  # atno 6908 bound_to 6896
  150.7353  134.5802  159.5979 H   0  0  0  0  0  0  0  0  0  0  0  0  # atno 6909 bound_to 6896
  145.2892  139.2606  143.3874 H   0  0  0  0  0  0  0  0  0  0  0  0  # atno 7974 bound_to 7965
  155.5524  140.0618  157.2847 H   0  0  0  0  0  0  0  0  0  0  0  0  # atno 8008 bound_to 7997
  154.4416  140.1900  156.0744 H   0  0  0  0  0  0  0  0  0  0  0  0  # atno 8009 bound_to 7997
  156.0507  140.3284  155.7351 H   0  0  0  0  0  0  0  0  0  0  0  0  # atno 8010 bound_to 7997
  139.9189  144.6225  150.8460 H   0  0  0  0  0  0  0  0  0  0  0  0  # atno 10167 bound_to 10162
  156.4395  130.8115  151.2344 H   0  0  0  0  0  0  0  0  0  0  0  0  # atno 10718 bound_to 10713
  154.4461  135.2763  155.1813 H   0  0  0  0  0  0  0  0  0  0  0  0  # atno 10763 bound_to 10752
  154.3660  135.6119  153.5718 H   0  0  0  0  0  0  0  0  0  0  0  0  # atno 10764 bound_to 10752
  152.9844  135.5846  154.4798 H   0  0  0  0  0  0  0  0  0  0  0  0  # atno 10765 bound_to 10752
  139.8786  134.9275  156.5259 H   0  0  0  0  0  0  0  0  0  0  0  0  # atno 11005 bound_to 11000
  146.3190  140.3379  142.8645 LP  0  0  0  0  0  0  0  0  0  0  0  0  # atno 17320 bound_to 7965
  144.9187  140.7842  143.5762 LP  0  0  0  0  0  0  0  0  0  0  0  0  # atno 17321 bound_to 7965
  140.7667  143.3311  151.2408 LP  0  0  0  0  0  0  0  0  0  0  0  0  # atno 17342 bound_to 10162
  139.6878  143.9743  152.2843 LP  0  0  0  0  0  0  0  0  0  0  0  0  # atno 17343 bound_to 10162
  157.7506  131.0173  150.3579 LP  0  0  0  0  0  0  0  0  0  0  0  0  # atno 17370 bound_to 10713
  156.3933  130.3902  149.7013 LP  0  0  0  0  0  0  0  0  0  0  0  0  # atno 17371 bound_to 10713
  140.8416  133.8200  155.9081 LP  0  0  0  0  0  0  0  0  0  0  0  0  # atno 17394 bound_to 11000
  140.9231  134.2116  157.4913 LP  0  0  0  0  0  0  0  0  0  0  0  0  # atno 17395 bound_to 11000

$$$$
