AV-unprocessed.smi:2157|AV-procd|sdf|8783|dock2
  -GOLD-   2272011563D 1   1.00000     0.00000
 Structure written by MMmdl.
 41 42  0  0  0  0  0  0  0  0  1 V2000
  147.9625  141.7518  154.9430 C   0  0  0  0  0  0  0  0  0  0  0  0
  149.0311  140.7145  155.3158 C   0  0  2  0  0  0  0  0  0  0  0  0
  150.2285  141.3727  156.0274 C   0  0  0  0  0  0  0  0  0  0  0  0
  151.3031  140.3389  156.3978 C   0  0  0  0  0  0  0  0  0  0  0  0
  151.7746  139.5568  155.1607 C   0  0  0  0  0  0  0  0  0  0  0  0
  150.6003  138.8924  154.4109 C   0  0  1  0  0  0  0  0  0  0  0  0
  150.0353  137.7822  155.1762 N   0  0  0  0  0  0  0  0  0  0  0  0
  150.6762  136.6466  155.4913 C   0  0  0  0  0  0  0  0  0  0  0  0
  151.8442  136.4196  155.1723 O   0  0  0  0  0  0  0  0  0  0  0  0
  149.8733  135.6281  156.3121 C   0  0  0  0  0  0  0  0  0  0  0  0
  149.7340  134.3295  155.6408 N   0  0  0  0  0  0  0  0  0  0  0  0
  149.0881  134.2540  154.4206 C   0  0  0  0  0  0  0  0  0  0  0  0
  148.9024  133.0981  153.7465 C   0  0  0  0  0  0  0  0  0  0  0  0
  149.3869  131.8315  154.2822 C   0  0  0  0  0  0  0  0  0  0  0  0
  149.2298  130.7563  153.7031 O   0  0  0  0  0  0  0  0  0  0  0  0
  150.0503  131.9388  155.5284 N   0  0  0  0  0  0  0  0  0  0  0  0
  150.5644  130.7415  156.1600 C   0  0  0  0  0  0  0  0  0  0  0  0
  150.2348  133.1496  156.2311 C   0  0  0  0  0  0  0  0  0  0  0  0
  150.8074  133.1856  157.3233 O   0  0  0  0  0  0  0  0  0  0  0  0
  149.5040  139.9242  154.0771 C   0  0  0  0  0  0  0  0  0  0  0  0
  148.3550  142.4929  154.2461 H   0  0  0  0  0  0  0  0  0  0  0  0
  147.6050  142.2822  155.8259 H   0  0  0  0  0  0  0  0  0  0  0  0
  147.1007  141.2768  154.4734 H   0  0  0  0  0  0  0  0  0  0  0  0
  148.5714  140.0123  156.0124 H   0  0  0  0  0  0  0  0  0  0  0  0
  150.6666  142.1362  155.3829 H   0  0  0  0  0  0  0  0  0  0  0  0
  149.8914  141.8865  156.9282 H   0  0  0  0  0  0  0  0  0  0  0  0
  152.1528  140.8384  156.8637 H   0  0  0  0  0  0  0  0  0  0  0  0
  150.9067  139.6479  157.1425 H   0  0  0  0  0  0  0  0  0  0  0  0
  152.2858  140.2420  154.4835 H   0  0  0  0  0  0  0  0  0  0  0  0
  152.5168  138.8119  155.4495 H   0  0  0  0  0  0  0  0  0  0  0  0
  150.9745  138.4921  153.4671 H   0  0  0  0  0  0  0  0  0  0  0  0
  149.0796  137.8855  155.4853 H   0  0  0  0  0  0  0  0  0  0  0  0
  150.3724  135.4979  157.2730 H   0  0  0  0  0  0  0  0  0  0  0  0
  148.8882  136.0365  156.5449 H   0  0  0  0  0  0  0  0  0  0  0  0
  148.7059  135.1649  153.9832 H   0  0  0  0  0  0  0  0  0  0  0  0
  148.3853  133.1100  152.7984 H   0  0  0  0  0  0  0  0  0  0  0  0
  151.6158  130.9176  156.3944 H   0  0  0  0  0  0  0  0  0  0  0  0
  150.4862  129.8794  155.4986 H   0  0  0  0  0  0  0  0  0  0  0  0
  149.9756  130.5805  157.0645 H   0  0  0  0  0  0  0  0  0  0  0  0
  148.6569  139.4252  153.6041 H   0  0  0  0  0  0  0  0  0  0  0  0
  149.8934  140.6230  153.3353 H   0  0  0  0  0  0  0  0  0  0  0  0
  1  2  1  0  0  0  0
  1 21  1  0  0  0  0
  1 22  1  0  0  0  0
  1 23  1  0  0  0  0
  2 20  1  0  0  0  0
  2  3  1  0  0  0  0
  2 24  1  0  0  0  0
  3  4  1  0  0  0  0
  3 25  1  0  0  0  0
  3 26  1  0  0  0  0
  4  5  1  0  0  0  0
  4 27  1  0  0  0  0
  4 28  1  0  0  0  0
  5  6  1  0  0  0  0
  5 29  1  0  0  0  0
  5 30  1  0  0  0  0
  6  7  1  0  0  0  0
  6 20  1  0  0  0  0
  6 31  1  0  0  0  0
  7  8  1  0  0  0  0
  7 32  1  0  0  0  0
  8  9  2  0  0  0  0
  8 10  1  0  0  0  0
 10 11  1  0  0  0  0
 10 33  1  0  0  0  0
 10 34  1  0  0  0  0
 11 18  1  0  0  0  0
 11 12  1  0  0  0  0
 12 13  2  0  0  0  0
 12 35  1  0  0  0  0
 13 14  1  0  0  0  0
 13 36  1  0  0  0  0
 14 15  2  0  0  0  0
 14 16  1  0  0  0  0
 16 17  1  0  0  0  0
 16 18  1  0  0  0  0
 17 37  1  0  0  0  0
 17 38  1  0  0  0  0
 17 39  1  0  0  0  0
 18 19  2  0  0  0  0
 20 40  1  0  0  0  0
 20 41  1  0  0  0  0
M  END
> <s_m_source_file>
AV-unprocessed.smi

> <i_m_source_file_index>
2157

> <i_lp_mmshare_version>
43012

> <i_f3d_flags>
0

> <s_epik_input>
W0NIM11bQ0BASF0xW0NIMl1bQ0gyXVtDSDJdW0NASF0oW0NIMl0xKVtOSF1DKD1PKVtDSDJdbjJbY0hdW2NIXWMoPU8pbihbQ0gzXSljMj1P

> <s_epik_cmdline>
J2VwaWtfcHl0aG9uJywgJy1waCcsICc3LjAnLCAnLXRuJywgJzgnLCAnLW1hJywgJzIwMCcsICctbWV0YWxfYmluZGluZycsICctaW1hZScsICc8aW5maWxlLm1hZT4nLCAnLW9tYWUnLCAnPG91dGZpbGUubWFlPic=

> <r_lp_tautomer_probability>
1

> <r_epik_Ionization_Penalty>
3.1838e-08

> <r_epik_Ionization_Penalty_Charging>
1.27911e-08

> <r_epik_Ionization_Penalty_Neutral>
1.90469e-08

> <r_epik_State_Penalty>
-0

> <r_epik_Charging_Adjusted_Penalty>
1.27911e-08

> <i_epik_Tot_Q>
0

> <i_epik_Tot_abs_Q>
0

> <r_epik_Metal_State_Penalty>
-0

> <b_epik_Metal_Only>
0

> <s_lp_Force_Field>
OPLS_2005

> <r_lp_Energy>
16.0352

> <b_lp_Chiralities_Consistent>
1

> <s_lp_Variant>
AV-unprocessed.smi:2157-1

> <Gold.Version>
5.8.1

> <Gold.Id.Protein>
6NUR|6NUR_protein|mol2

> <Gold.PLP.Fitness>
43.3927

> <Gold.PLP.PLP>
-34.6872

> <Gold.PLP.part.hbond>
-1.9023

> <Gold.PLP.part.metal>
0.0000

> <Gold.PLP.part.buried>
0.3944

> <Gold.PLP.part.nonpolar>
-33.3440

> <Gold.PLP.part.repulsive>
0.2114

> <Gold.PLP.ligand.clash>
0.0000

> <Gold.PLP.ligand.torsion>
0.0437

> <Gold.PLP.Chemscore.Hbond>
1.9280

> <Gold.PLP.Chemscore.CHOScore>
1.0000

> <Gold.PLP.Chemscore.Metal>
0.0000

> <Gold.Chemscore.Hbonds>
donor molecule, donor type, donor heavy atom, donor atom, acceptor molecule, acceptor atom, score
      P1  H  6896  6907       L1    19  0.94
      P1  H 10752 10765       L1     9  0.94
      L1  C    12    35       P1  7948  1.00

> <Gold.PLP.Chemscore.Internal.Correction>
0.0090

> <Gold.Rescore>
     Score         DG    S(hbond)    S(metal)    S(lipo)     H(rot)  DE(clash)    DE(int)     intcor
     14.93     -15.61       1.94        0.00      64.44       1.52       0.62       0.05       ----

> <Gold.Chemscore.Fitness>
14.9319

> <Gold.Chemscore.DG>
-15.6051

> <Gold.Chemscore.ZeroCoef>
-5.4800

> <Gold.Chemscore.Hbond>
1.9424

> <Gold.Chemscore.Metal>
0.0000

> <Gold.Chemscore.Lipo>
64.4383

> <Gold.Chemscore.Internal_Hbond>
0.0000

> <Gold.Chemscore.DEClash>
0.6190

> <Gold.Chemscore.DEInternal>
0.0541

> <Gold.Chemscore.Rot>
1.5242

> <Gold.Chemscore.Internal.Correction>
   9.000000E+99

> <Gold.Chemscore.Hbonds>
donor molecule, donor type, donor heavy atom, donor atom, acceptor molecule, acceptor atom, score
      P1  H  6896  6907       L1    19  0.91
      P1  H 10752 10765       L1     9  0.89

> <Gold.Chemscore.Hbond.Weighted>
-6.4877

> <Gold.Chemscore.Metal.Weighted>
-0.0000

> <Gold.Chemscore.Lipo.Weighted>
-7.5393

> <Gold.Chemscore.Internal_Hbond.Weighted>
0.0000

> <Gold.Chemscore.DEClash.Weighted>
0.6190

> <Gold.Chemscore.DEInternal.Weighted>
0.0541

> <Gold.Chemscore.Rot.Weighted>
3.9019

> <Gold.Chemscore.Internal.Correction.Weighted>
   9.000000E+99

> <Gold.Protein.RotatedTorsions>
[ 6907 6896 6895 6894 ] final -145.13 input  -60.11 | X-H torsion
[ 7974 7965 7964 7962 ] final   57.49 input  175.53 | X-H torsion
[ 8008 7997 7996 7995 ] final  -19.87 input   59.86 | X-H torsion
[ 10167 10162 10161 10158 ] final   97.84 input  -65.29 | X-H torsion
[ 10718 10713 10712 10709 ] final  114.95 input   66.30 | X-H torsion
[ 10763 10752 10751 10750 ] final -162.76 input  -60.55 | X-H torsion
[ 11005 11000 10999 10996 ] final -118.30 input  -57.11 | X-H torsion

> <Gold.Protein.ActiveResidues>
 VAL166  LYS551  ARG553  GLY616  TRP617  ASP618  TYR619  PRO620  LYS621  CYS622 
 ASP623  PHE694  ASN695  SER759  ASP760  ASP761  ALA762  ILE779  LEU786  VAL792 
 PHE793  MET794  SER795  GLU796  ALA797  LYS798  CYS799  TRP800  GLU811  SER814 

> <Gold.Protein.RotatedAtoms>
  151.1236  133.5087  159.2601 H   0  0  0  0  0  0  0  0  0  0  0  0  # atno 6907 bound_to 6896
  151.1835  135.0371  159.8812 H   0  0  0  0  0  0  0  0  0  0  0  0  # atno 6908 bound_to 6896
  152.5457  134.1085  159.8401 H   0  0  0  0  0  0  0  0  0  0  0  0  # atno 6909 bound_to 6896
  145.9285  139.3788  143.0435 H   0  0  0  0  0  0  0  0  0  0  0  0  # atno 7974 bound_to 7965
  154.4807  140.2077  155.9770 H   0  0  0  0  0  0  0  0  0  0  0  0  # atno 8008 bound_to 7997
  156.1161  140.3221  155.8110 H   0  0  0  0  0  0  0  0  0  0  0  0  # atno 8009 bound_to 7997
  155.4551  140.0520  157.2988 H   0  0  0  0  0  0  0  0  0  0  0  0  # atno 8010 bound_to 7997
  139.7763  144.6904  151.0084 H   0  0  0  0  0  0  0  0  0  0  0  0  # atno 10167 bound_to 10162
  157.6251  131.1006  150.7259 H   0  0  0  0  0  0  0  0  0  0  0  0  # atno 10718 bound_to 10713
  154.7185  135.3021  154.9085 H   0  0  0  0  0  0  0  0  0  0  0  0  # atno 10763 bound_to 10752
  153.9964  135.6712  153.4761 H   0  0  0  0  0  0  0  0  0  0  0  0  # atno 10764 bound_to 10752
  153.0814  135.5007  154.8426 H   0  0  0  0  0  0  0  0  0  0  0  0  # atno 10765 bound_to 10752
  141.0295  134.0002  157.3164 H   0  0  0  0  0  0  0  0  0  0  0  0  # atno 11005 bound_to 11000
  145.8457  140.9556  143.0776 LP  0  0  0  0  0  0  0  0  0  0  0  0  # atno 17320 bound_to 7965
  144.6761  140.0342  143.7482 LP  0  0  0  0  0  0  0  0  0  0  0  0  # atno 17321 bound_to 7965
  140.7816  143.4532  151.0383 LP  0  0  0  0  0  0  0  0  0  0  0  0  # atno 17342 bound_to 10162
  139.8214  143.7815  152.3177 LP  0  0  0  0  0  0  0  0  0  0  0  0  # atno 17343 bound_to 10162
  156.7609  130.4798  149.5437 LP  0  0  0  0  0  0  0  0  0  0  0  0  # atno 17370 bound_to 10713
  156.1419  130.6250  151.0478 LP  0  0  0  0  0  0  0  0  0  0  0  0  # atno 17371 bound_to 10713
  139.9198  135.0200  156.8022 LP  0  0  0  0  0  0  0  0  0  0  0  0  # atno 17394 bound_to 11000
  140.6431  133.9800  155.7717 LP  0  0  0  0  0  0  0  0  0  0  0  0  # atno 17395 bound_to 11000

$$$$
