AV-unprocessed.smi:249|AV-procd|sdf|1906|dock6
  -GOLD-   2262020593D 1   1.00000     0.00000
 Structure written by MMmdl.
 64 67  0  0  0  0  0  0  0  0  2 V2000
  152.1874  144.6247  157.9629 C   0  0  0  0  0  0  0  0  0  0  0  0
  152.1839  143.7266  159.2110 C   0  0  0  0  0  0  0  0  0  0  0  0
  152.3973  142.2822  158.9044 N   0  3  2  0  0  0  0  0  0  0  0  0
  151.2414  141.6959  158.1671 C   0  0  0  0  0  0  0  0  0  0  0  0
  151.5129  140.2533  157.7201 C   0  0  0  0  0  0  0  0  0  0  0  0
  151.8431  139.3603  158.9279 C   0  0  1  0  0  0  0  0  0  0  0  0
  152.0490  137.9482  158.5692 N   0  0  0  0  0  0  0  0  0  0  0  0
  153.1109  137.2300  159.2649 C   0  0  0  0  0  0  0  0  0  0  0  0
  150.9372  137.2053  158.3507 C   0  0  0  0  0  0  0  0  0  0  0  0
  150.1964  136.7676  159.4030 N   0  0  0  0  0  0  0  0  0  0  0  0
  149.0602  136.0973  159.1878 C   0  0  0  0  0  0  0  0  0  0  0  0
  148.4874  135.7775  158.0253 N   0  0  0  0  0  0  0  0  0  0  0  0
  149.2411  136.1984  156.9695 C   0  0  0  0  0  0  0  0  0  0  0  0
  150.4799  136.8923  157.0430 C   0  0  0  0  0  0  0  0  0  0  0  0
  150.9660  137.1396  155.7651 N   0  0  0  0  0  0  0  0  0  0  0  0
  150.0502  136.6454  154.9776 C   0  0  0  0  0  0  0  0  0  0  0  0
  148.9603  136.0998  155.6187 N   0  0  0  0  0  0  0  0  0  0  0  0
  147.7806  135.5321  154.9943 C   0  0  0  0  0  0  0  0  0  0  0  0
  148.0714  134.3672  154.0055 C   0  0  2  0  0  0  0  0  0  0  0  0
  146.7890  134.0660  153.1918 C   0  0  0  0  0  0  0  0  0  0  0  0
  147.0619  133.9926  151.8073 O   0  0  0  0  0  0  0  0  0  0  0  0
  148.6289  133.0861  154.7021 C   0  0  1  0  0  0  0  0  0  0  0  0
  149.0126  131.9510  153.7632 C   0  0  0  0  0  0  0  0  0  0  0  0
  149.9207  131.0979  154.6354 C   0  0  0  0  0  0  0  0  0  0  0  0
  150.6855  132.0446  155.3627 O   0  0  0  0  0  0  0  0  0  0  0  0
  149.9515  133.2604  155.4757 C   0  0  0  0  0  0  0  0  0  0  0  0
  153.0270  139.9903  159.6867 C   0  0  0  0  0  0  0  0  0  0  0  0
  152.7584  141.4524  160.0999 C   0  0  1  0  0  0  0  0  0  0  0  0
  153.9976  141.9763  160.8565 C   0  0  0  0  0  0  0  0  0  0  0  0
  152.1905  145.6759  158.2524 H   0  0  0  0  0  0  0  0  0  0  0  0
  151.3076  144.4750  157.3384 H   0  0  0  0  0  0  0  0  0  0  0  0
  153.0740  144.4506  157.3526 H   0  0  0  0  0  0  0  0  0  0  0  0
  152.9844  144.1024  159.8436 H   0  0  0  0  0  0  0  0  0  0  0  0
  151.2572  143.8556  159.7721 H   0  0  0  0  0  0  0  0  0  0  0  0
  150.3510  141.7314  158.7970 H   0  0  0  0  0  0  0  0  0  0  0  0
  151.0171  142.2771  157.2746 H   0  0  0  0  0  0  0  0  0  0  0  0
  150.6390  139.8724  157.1914 H   0  0  0  0  0  0  0  0  0  0  0  0
  152.3355  140.2513  157.0043 H   0  0  0  0  0  0  0  0  0  0  0  0
  150.9833  139.3773  159.5992 H   0  0  0  0  0  0  0  0  0  0  0  0
  153.3050  136.2706  158.7836 H   0  0  0  0  0  0  0  0  0  0  0  0
  152.8515  137.0431  160.3075 H   0  0  0  0  0  0  0  0  0  0  0  0
  154.0362  137.8061  159.2427 H   0  0  0  0  0  0  0  0  0  0  0  0
  148.5254  135.7866  160.0733 H   0  0  0  0  0  0  0  0  0  0  0  0
  150.1298  136.6955  153.9013 H   0  0  0  0  0  0  0  0  0  0  0  0
  147.1078  135.1894  155.7813 H   0  0  0  0  0  0  0  0  0  0  0  0
  147.2648  136.3475  154.4863 H   0  0  0  0  0  0  0  0  0  0  0  0
  148.8258  134.7033  153.2925 H   0  0  0  0  0  0  0  0  0  0  0  0
  146.3550  133.1062  153.4686 H   0  0  0  0  0  0  0  0  0  0  0  0
  146.0278  134.8262  153.3700 H   0  0  0  0  0  0  0  0  0  0  0  0
  147.5795  134.7444  151.5622 H   0  0  0  0  0  0  0  0  0  0  0  0
  147.8739  132.7004  155.3893 H   0  0  0  0  0  0  0  0  0  0  0  0
  148.1542  131.3891  153.3933 H   0  0  0  0  0  0  0  0  0  0  0  0
  149.5716  132.3319  152.9068 H   0  0  0  0  0  0  0  0  0  0  0  0
  149.3317  130.5007  155.3331 H   0  0  0  0  0  0  0  0  0  0  0  0
  150.5549  130.4263  154.0566 H   0  0  0  0  0  0  0  0  0  0  0  0
  150.5616  134.0588  155.0525 H   0  0  0  0  0  0  0  0  0  0  0  0
  149.7850  133.4847  156.5282 H   0  0  0  0  0  0  0  0  0  0  0  0
  153.2394  139.3956  160.5756 H   0  0  0  0  0  0  0  0  0  0  0  0
  153.9279  139.9679  159.0717 H   0  0  0  0  0  0  0  0  0  0  0  0
  151.9110  141.4643  160.7876 H   0  0  0  0  0  0  0  0  0  0  0  0
  154.3197  141.2623  161.6153 H   0  0  0  0  0  0  0  0  0  0  0  0
  153.8007  142.9068  161.3877 H   0  0  0  0  0  0  0  0  0  0  0  0
  154.8396  142.1361  160.1819 H   0  0  0  0  0  0  0  0  0  0  0  0
  153.1913  142.2387  158.2816 H   0  0  0  0  0  0  0  0  0  0  0  0
  1  2  1  0  0  0  0
  1 30  1  0  0  0  0
  1 31  1  0  0  0  0
  1 32  1  0  0  0  0
  2  3  1  0  0  0  0
  2 33  1  0  0  0  0
  2 34  1  0  0  0  0
  3 28  1  0  0  0  0
  3  4  1  0  0  0  0
  3 64  1  0  0  0  0
  4  5  1  0  0  0  0
  4 35  1  0  0  0  0
  4 36  1  0  0  0  0
  5  6  1  0  0  0  0
  5 37  1  0  0  0  0
  5 38  1  0  0  0  0
  6  7  1  0  0  0  0
  6 27  1  0  0  0  0
  6 39  1  0  0  0  0
  7  8  1  0  0  0  0
  7  9  1  0  0  0  0
  8 40  1  0  0  0  0
  8 41  1  0  0  0  0
  8 42  1  0  0  0  0
  9 14  1  0  0  0  0
  9 10  2  0  0  0  0
 10 11  1  0  0  0  0
 11 12  2  0  0  0  0
 11 43  1  0  0  0  0
 12 13  1  0  0  0  0
 13 17  1  0  0  0  0
 13 14  2  0  0  0  0
 14 15  1  0  0  0  0
 15 16  2  0  0  0  0
 16 17  1  0  0  0  0
 16 44  1  0  0  0  0
 17 18  1  0  0  0  0
 18 19  1  0  0  0  0
 18 45  1  0  0  0  0
 18 46  1  0  0  0  0
 19 20  1  0  0  0  0
 19 22  1  0  0  0  0
 19 47  1  0  0  0  0
 20 21  1  0  0  0  0
 20 48  1  0  0  0  0
 20 49  1  0  0  0  0
 21 50  1  0  0  0  0
 22 26  1  0  0  0  0
 22 23  1  0  0  0  0
 22 51  1  0  0  0  0
 23 24  1  0  0  0  0
 23 52  1  0  0  0  0
 23 53  1  0  0  0  0
 24 25  1  0  0  0  0
 24 54  1  0  0  0  0
 24 55  1  0  0  0  0
 25 26  1  0  0  0  0
 26 56  1  0  0  0  0
 26 57  1  0  0  0  0
 27 28  1  0  0  0  0
 27 58  1  0  0  0  0
 27 59  1  0  0  0  0
 28 29  1  0  0  0  0
 28 60  1  0  0  0  0
 29 61  1  0  0  0  0
 29 62  1  0  0  0  0
 29 63  1  0  0  0  0
M  CHG  1   3   1
M  END
> <s_m_source_file>
AV-unprocessed.smi

> <i_m_source_file_index>
249

> <i_lp_mmshare_version>
43012

> <i_f3d_flags>
0

> <s_epik_input>
W0NIM11bQ0gyXU4xW0NIMl1bQ0gyXVtDQEhdKFtDSDJdW0NASF0xW0NIM10pTihbQ0gzXSljKG5bY0hdbjIpYyhjMjMpbltjSF1uM1tDSDJdW0NASF0oW0NIMl1bT0hdKVtDQEBIXTRbQ0gyXVtDSDJdT1tDSDJdNA==

> <s_epik_cmdline>
J2VwaWtfcHl0aG9uJywgJy1waCcsICc3LjAnLCAnLXRuJywgJzgnLCAnLW1hJywgJzIwMCcsICctbWV0YWxfYmluZGluZycsICctaW1hZScsICc8aW5maWxlLm1hZT4nLCAnLW9tYWUnLCAnPG91dGZpbGUubWFlPic=

> <r_lp_tautomer_probability>
1

> <r_epik_Ionization_Penalty>
0.00294688

> <r_epik_Ionization_Penalty_Charging>
0.00169971

> <r_epik_Ionization_Penalty_Neutral>
0.00124717

> <r_epik_State_Penalty>
-0

> <r_epik_Charging_Adjusted_Penalty>
0.00169971

> <i_epik_Tot_Q>
1

> <i_epik_Tot_abs_Q>
1

> <r_epik_Metal_State_Penalty>
-0

> <b_epik_Metal_Only>
0

> <s_lp_Force_Field>
OPLS_2005

> <r_lp_Energy>
53.7377

> <b_lp_Chiralities_Consistent>
1

> <s_lp_Variant>
AV-unprocessed.smi:249-9

> <Gold.Version>
5.8.1

> <Gold.Id.Protein>
6NUR|6NUR_protein|mol2

> <Gold.PLP.Fitness>
47.8302

> <Gold.PLP.PLP>
-42.0914

> <Gold.PLP.part.hbond>
-2.0000

> <Gold.PLP.part.metal>
0.0000

> <Gold.PLP.part.buried>
-3.1631

> <Gold.PLP.part.nonpolar>
-36.1219

> <Gold.PLP.part.repulsive>
0.1282

> <Gold.PLP.ligand.clash>
0.0000

> <Gold.PLP.ligand.torsion>
1.8142

> <Gold.PLP.Chemscore.Hbond>
1.7500

> <Gold.PLP.Chemscore.CHOScore>
1.0338

> <Gold.PLP.Chemscore.Metal>
0.0000

> <Gold.Chemscore.Hbonds>
donor molecule, donor type, donor heavy atom, donor atom, acceptor molecule, acceptor atom, score
      L1  H    21    50       P1  7948  1.00
      P1  H  6896  6909       L1    10  0.70
      L1  C    16    44       P1  7948  0.95
      L1  C    16    44       P1  7949  0.07

> <Gold.PLP.Chemscore.Internal.Correction>
1.0157

> <Gold.Rescore>
     Score         DG    S(hbond)    S(metal)    S(lipo)     H(rot)  DE(clash)    DE(int)     intcor
     11.33     -13.56       1.00        0.00     103.93       2.90       0.18       2.06       ----

> <Gold.Chemscore.Fitness>
11.3261

> <Gold.Chemscore.DG>
-13.5584

> <Gold.Chemscore.ZeroCoef>
-5.4800

> <Gold.Chemscore.Hbond>
1.0013

> <Gold.Chemscore.Metal>
0.0000

> <Gold.Chemscore.Lipo>
103.9302

> <Gold.Chemscore.Internal_Hbond>
0.0000

> <Gold.Chemscore.DEClash>
0.1753

> <Gold.Chemscore.DEInternal>
2.0570

> <Gold.Chemscore.Rot>
2.9006

> <Gold.Chemscore.Internal.Correction>
   9.000000E+99

> <Gold.Chemscore.Hbonds>
donor molecule, donor type, donor heavy atom, donor atom, acceptor molecule, acceptor atom, score
      L1  H    21    50       P1  7948  0.33
      P1  H  6896  6909       L1    10  0.02

> <Gold.Chemscore.Hbond.Weighted>
-3.3442

> <Gold.Chemscore.Metal.Weighted>
-0.0000

> <Gold.Chemscore.Lipo.Weighted>
-12.1598

> <Gold.Chemscore.Internal_Hbond.Weighted>
0.0000

> <Gold.Chemscore.DEClash.Weighted>
0.1753

> <Gold.Chemscore.DEInternal.Weighted>
2.0570

> <Gold.Chemscore.Rot.Weighted>
7.4256

> <Gold.Chemscore.Internal.Correction.Weighted>
   9.000000E+99

> <Gold.Protein.RotatedTorsions>
[ 6907 6896 6895 6894 ] final  101.84 input  -60.11 | X-H torsion
[ 7974 7965 7964 7962 ] final  -44.64 input  175.53 | X-H torsion
[ 8008 7997 7996 7995 ] final  127.47 input   59.86 | X-H torsion
[ 10167 10162 10161 10158 ] final  -13.80 input  -65.29 | X-H torsion
[ 10718 10713 10712 10709 ] final  -35.40 input   66.30 | X-H torsion
[ 10763 10752 10751 10750 ] final -118.48 input  -60.55 | X-H torsion
[ 11005 11000 10999 10996 ] final  -57.38 input  -57.11 | X-H torsion

> <Gold.Protein.ActiveResidues>
 VAL166  LYS551  ARG553  GLY616  TRP617  ASP618  TYR619  PRO620  LYS621  CYS622 
 ASP623  PHE694  ASN695  SER759  ASP760  ASP761  ALA762  ILE779  LEU786  VAL792 
 PHE793  MET794  SER795  GLU796  ALA797  LYS798  CYS799  TRP800  GLU811  SER814 

> <Gold.Protein.RotatedAtoms>
  152.5339  134.0066  159.7918 H   0  0  0  0  0  0  0  0  0  0  0  0  # atno 6907 bound_to 6896
  151.0275  133.5812  159.2671 H   0  0  0  0  0  0  0  0  0  0  0  0  # atno 6908 bound_to 6896
  151.2829  135.0726  159.9229 H   0  0  0  0  0  0  0  0  0  0  0  0  # atno 6909 bound_to 6896
  145.9901  140.7190  142.9321 H   0  0  0  0  0  0  0  0  0  0  0  0  # atno 7974 bound_to 7965
  156.2891  140.2668  156.2278 H   0  0  0  0  0  0  0  0  0  0  0  0  # atno 8008 bound_to 7997
  155.0103  140.0387  157.2415 H   0  0  0  0  0  0  0  0  0  0  0  0  # atno 8009 bound_to 7997
  154.7524  140.2745  155.6287 H   0  0  0  0  0  0  0  0  0  0  0  0  # atno 8010 bound_to 7997
  140.7189  143.5388  150.9434 H   0  0  0  0  0  0  0  0  0  0  0  0  # atno 10167 bound_to 10162
  156.3391  130.4291  149.7803 H   0  0  0  0  0  0  0  0  0  0  0  0  # atno 10718 bound_to 10713
  154.8588  135.4272  154.2145 H   0  0  0  0  0  0  0  0  0  0  0  0  # atno 10763 bound_to 10752
  153.3163  135.6979  153.7076 H   0  0  0  0  0  0  0  0  0  0  0  0  # atno 10764 bound_to 10752
  153.6148  135.3512  155.2965 H   0  0  0  0  0  0  0  0  0  0  0  0  # atno 10765 bound_to 10752
  141.1162  133.6610  156.4761 H   0  0  0  0  0  0  0  0  0  0  0  0  # atno 11005 bound_to 11000
  144.6886  140.3055  143.7256 LP  0  0  0  0  0  0  0  0  0  0  0  0  # atno 17320 bound_to 7965
  145.7643  139.1835  143.2249 LP  0  0  0  0  0  0  0  0  0  0  0  0  # atno 17321 bound_to 7965
  139.9110  143.6720  152.3115 LP  0  0  0  0  0  0  0  0  0  0  0  0  # atno 17342 bound_to 10162
  139.7103  144.7621  151.1123 LP  0  0  0  0  0  0  0  0  0  0  0  0  # atno 17343 bound_to 10162
  156.5046  130.8144  151.3146 LP  0  0  0  0  0  0  0  0  0  0  0  0  # atno 17370 bound_to 10713
  157.7444  130.9933  150.2669 LP  0  0  0  0  0  0  0  0  0  0  0  0  # atno 17371 bound_to 10713
  140.4639  134.6816  157.5098 LP  0  0  0  0  0  0  0  0  0  0  0  0  # atno 17394 bound_to 11000
  140.0086  134.6725  155.9416 LP  0  0  0  0  0  0  0  0  0  0  0  0  # atno 17395 bound_to 11000

$$$$
