#       Name:                AV-unprocessed.smi:102
#       Creating user name   scv26
#       Creation time:       Thu Mar 26 17:52:44 2020


#       File generated by GOLD software.
#

@<TRIPOS>MOLECULE
AV-unprocessed.smi:102
    56    57     1
SMALL
NO_CHARGES


@<TRIPOS>ATOM
      1 ****        -3.6877   3.5494   0.3139 C.3            1 S1                 0.0000
      2 ****        -3.3453   2.2212  -0.3488 C.2            1 S1                 0.0000
      3 ****        -4.2097   1.3720  -0.5661 O.2            1 S1                 0.0000
      4 ****        -2.0402   2.1130  -0.6398 O.3            1 S1                 0.0000
      5 ****        -1.5433   0.9247  -1.2354 C.3            1 S1                 0.0000
      6 ****        -0.0191   0.8403  -1.0392 C.3            1 S1                 0.0000
      7 ****         0.4727  -0.1180  -1.9781 O.3            1 S1                 0.0000
      8 ****         1.0067  -1.2397  -1.3319 C.3            1 S1                 0.0000
      9 ****         2.5197  -1.2044  -1.4151 N.am           1 S1                 0.0000
     10 ****         3.2021  -0.0287  -1.6851 C.2            1 S1                 0.0000
     11 ****         4.5490   0.0027  -1.7386 C.2            1 S1                 0.0000
     12 ****         5.1814   1.1600  -1.9989 F              1 S1                 0.0000
     13 ****         5.3107  -1.2229  -1.5087 C.2            1 S1                 0.0000
     14 ****         6.5392  -1.1877  -1.5584 O.2            1 S1                 0.0000
     15 ****         4.6146  -2.3661  -1.2445 N.pl3          1 S1                -1.0000
     16 ****         3.2511  -2.4020  -1.1850 C.2            1 S1                 0.0000
     17 ****         2.6163  -3.4265  -0.9357 O.2            1 S1                 0.0000
     18 ****         0.5691  -1.1702   0.1352 C.3            1 S1                 0.0000
     19 ****        -0.6833  -1.8315   0.2849 O.3            1 S1                 0.0000
     20 ****        -0.7474  -3.0764   0.7864 C.2            1 S1                 0.0000
     21 ****        -2.1764  -3.5983   0.8608 C.3            1 S1                 0.0000
     22 ****         0.2032  -3.7601   1.1646 O.2            1 S1                 0.0000
     23 ****         0.4412   0.3289   0.3360 C.3            1 S1                 0.0000
     24 ****        -0.4110   0.6433   1.4323 O.3            1 S1                 0.0000
     25 ****        -0.2509   1.7941   2.1077 C.2            1 S1                 0.0000
     26 ****        -1.2568   1.9458   3.2405 C.3            1 S1                 0.0000
     27 ****         0.5845   2.6661   1.8693 O.2            1 S1                 0.0000
     28 ****        -2.7951   4.1618   0.4456 H              1 S1                 0.0000
     29 ****        -4.1336   3.3772   1.2935 H              1 S1                 0.0000
     30 ****        -4.3995   4.1035  -0.2979 H              1 S1                 0.0000
     31 ****        -2.0321   0.0387  -0.8290 H              1 S1                 0.0000
     32 ****        -1.7779   0.9605  -2.2999 H              1 S1                 0.0000
     33 ****         0.4291   1.8101  -1.2580 H              1 S1                 0.0000
     34 ****         0.7057  -2.1490  -1.8553 H              1 S1                 0.0000
     35 ****         2.6628   0.8906  -1.8537 H              1 S1                 0.0000
     36 ****         1.3285  -1.5929   0.7947 H              1 S1                 0.0000
     37 ****        -2.8162  -3.0796   0.1464 H              1 S1                 0.0000
     38 ****        -2.5803  -3.4462   1.8617 H              1 S1                 0.0000
     39 ****        -2.2027  -4.6647   0.6358 H              1 S1                 0.0000
     40 ****         1.4461   0.7098   0.5257 H              1 S1                 0.0000
     41 ****        -1.4142   0.9912   3.7431 H              1 S1                 0.0000
     42 ****        -2.2128   2.2939   2.8498 H              1 S1                 0.0000
     43 ****        -0.8992   2.6675   3.9752 H              1 S1                 0.0000
     44 ****        -5.1593   1.5473  -0.3063 LP             1 S1                 0.0000
     45 ****        -3.9622   0.5069  -1.0024 LP             1 S1                 0.0000
     46 ****         1.1868   0.3078  -2.5338 LP             1 S1                 0.0000
     47 ****        -0.2794  -0.4103  -2.5688 LP             1 S1                 0.0000
     48 ****         7.0072  -0.3261  -1.7546 LP             1 S1                 0.0000
     49 ****         7.0700  -2.0208  -1.4026 LP             1 S1                 0.0000
     50 ****         5.1239  -3.2124  -1.0880 LP             1 S1                 0.0000
     51 ****         1.6173  -3.3995  -0.9000 LP             1 S1                 0.0000
     52 ****         3.0995  -4.2860  -0.7688 LP             1 S1                 0.0000
     53 ****         1.1331  -3.3958   1.1128 LP             1 S1                 0.0000
     54 ****         0.0459  -4.6801   1.5237 LP             1 S1                 0.0000
     55 ****         1.2257   2.5502   1.1107 LP             1 S1                 0.0000
     56 ****         0.6220   3.4904   2.4342 LP             1 S1                 0.0000
@<TRIPOS>BOND
    1    1    2 1     
    2    1   28 1     
    3    1   29 1     
    4    1   30 1     
    5    2    3 2     
    6    2    4 1     
    7    4    5 1     
    8    5    6 1     
    9    5   31 1     
   10    5   32 1     
   11    6   23 1     
   12    6    7 1     
   13    6   33 1     
   14    7    8 1     
   15    8    9 1     
   16    8   18 1     
   17    8   34 1     
   18    9   16 am    
   19    9   10 1     
   20   10   11 2     
   21   10   35 1     
   22   11   12 1     
   23   11   13 1     
   24   13   14 2     
   25   13   15 1     
   26   15   16 1     
   27   16   17 2     
   28   18   19 1     
   29   18   23 1     
   30   18   36 1     
   31   19   20 1     
   32   20   21 1     
   33   20   22 2     
   34   21   37 1     
   35   21   38 1     
   36   21   39 1     
   37   23   24 1     
   38   23   40 1     
   39   24   25 1     
   40   25   26 1     
   41   25   27 2     
   42   26   41 1     
   43   26   42 1     
   44   26   43 1     
   45    3   44 1     
   46    3   45 1     
   47    7   46 1     
   48    7   47 1     
   49   14   48 1     
   50   14   49 1     
   51   15   50 1     
   52   17   51 1     
   53   17   52 1     
   54   22   53 1     
   55   22   54 1     
   56   27   55 1     
   57   27   56 1     
@<TRIPOS>SUBSTRUCTURE
      1 S1             1
@<TRIPOS>SET
LONE_PAIRS      STATIC     ATOMS    <user>   **** ""
13 44 45 46 47 48 49 50 51 52 53 54 55 56
ATOM$BLUE        STATIC     ATOMS    COLORGROUP SYSTEM
13 44 45 46 47 48 49 50 51 52 53 54 55 56
