AV-unprocessed.smi:3187|AV-procd|sdf|12175|dock6
  -GOLD-   2272018 13D 1   1.00000     0.00000
 Structure written by MMmdl.
 41 42  0  0  0  0  0  0  0  0  2 V2000
  151.9411  145.6345  160.1640 C   0  0  0  0  0  0  0  0  0  0  0  0
  151.9108  144.2086  159.6383 C   0  0  0  0  0  0  0  0  0  0  0  0
  152.8492  143.3164  160.0120 C   0  0  0  0  0  0  0  0  0  0  0  0
  152.9406  141.8889  159.5016 C   0  0  0  0  0  0  0  0  0  0  0  0
  151.7360  141.4769  158.6397 C   0  0  0  0  0  0  0  0  0  0  0  0
  151.2474  142.6419  157.7619 C   0  0  1  0  0  0  0  0  0  0  0  0
  150.2033  142.1877  156.7272 C   0  0  0  0  0  0  0  0  0  0  0  0
  150.8055  143.8505  158.6353 C   0  0  1  0  0  0  0  0  0  0  0  0
  149.4346  143.6278  159.3268 C   0  0  0  0  0  0  0  0  0  0  0  0
  148.2917  143.8080  158.4101 N   0  3  0  0  0  0  0  0  0  0  0  0
  147.0000  143.3557  158.9610 C   0  0  0  0  0  0  0  0  0  0  0  0
  146.8426  143.7891  160.4246 C   0  0  0  0  0  0  0  0  0  0  0  0
  145.5319  143.4477  160.9389 N   0  0  0  0  0  0  0  0  0  0  0  0
  144.7787  144.1660  161.8582 C   0  0  0  0  0  0  0  0  0  0  0  0
  143.6139  143.4576  162.0507 C   0  0  0  0  0  0  0  0  0  0  0  0
  143.6299  142.3076  161.2649 N   0  0  0  0  0  0  0  0  0  0  0  0
  144.7950  142.3706  160.6341 C   0  0  0  0  0  0  0  0  0  0  0  0
  151.8439  146.3472  159.3447 H   0  0  0  0  0  0  0  0  0  0  0  0
  152.8829  145.8438  160.6725 H   0  0  0  0  0  0  0  0  0  0  0  0
  151.1419  145.8139  160.8811 H   0  0  0  0  0  0  0  0  0  0  0  0
  153.6257  143.6155  160.7012 H   0  0  0  0  0  0  0  0  0  0  0  0
  153.8550  141.8115  158.9127 H   0  0  0  0  0  0  0  0  0  0  0  0
  153.0509  141.2065  160.3448 H   0  0  0  0  0  0  0  0  0  0  0  0
  152.0111  140.6211  158.0219 H   0  0  0  0  0  0  0  0  0  0  0  0
  150.9250  141.1342  159.2827 H   0  0  0  0  0  0  0  0  0  0  0  0
  152.1076  142.9780  157.1801 H   0  0  0  0  0  0  0  0  0  0  0  0
  149.3545  141.6882  157.1942 H   0  0  0  0  0  0  0  0  0  0  0  0
  150.6416  141.4801  156.0229 H   0  0  0  0  0  0  0  0  0  0  0  0
  149.8263  143.0318  156.1495 H   0  0  0  0  0  0  0  0  0  0  0  0
  150.7020  144.6992  157.9573 H   0  0  0  0  0  0  0  0  0  0  0  0
  149.3626  142.6160  159.7232 H   0  0  0  0  0  0  0  0  0  0  0  0
  149.3227  144.3091  160.1708 H   0  0  0  0  0  0  0  0  0  0  0  0
  148.2181  144.7897  158.1843 H   0  0  0  0  0  0  0  0  0  0  0  0
  146.1893  143.7683  158.3589 H   0  0  0  0  0  0  0  0  0  0  0  0
  146.9383  142.2692  158.8858 H   0  0  0  0  0  0  0  0  0  0  0  0
  147.5965  143.3084  161.0497 H   0  0  0  0  0  0  0  0  0  0  0  0
  146.9850  144.8662  160.5242 H   0  0  0  0  0  0  0  0  0  0  0  0
  145.1227  145.0951  162.2885 H   0  0  0  0  0  0  0  0  0  0  0  0
  142.7730  143.6838  162.6895 H   0  0  0  0  0  0  0  0  0  0  0  0
  145.1214  141.6134  159.9363 H   0  0  0  0  0  0  0  0  0  0  0  0
  148.4784  143.2941  157.5608 H   0  0  0  0  0  0  0  0  0  0  0  0
  1  2  1  0  0  0  0
  1 18  1  0  0  0  0
  1 19  1  0  0  0  0
  1 20  1  0  0  0  0
  2  8  1  0  0  0  0
  2  3  2  0  0  0  0
  3  4  1  0  0  0  0
  3 21  1  0  0  0  0
  4  5  1  0  0  0  0
  4 22  1  0  0  0  0
  4 23  1  0  0  0  0
  5  6  1  0  0  0  0
  5 24  1  0  0  0  0
  5 25  1  0  0  0  0
  6  7  1  0  0  0  0
  6  8  1  0  0  0  0
  6 26  1  0  0  0  0
  7 27  1  0  0  0  0
  7 28  1  0  0  0  0
  7 29  1  0  0  0  0
  8  9  1  0  0  0  0
  8 30  1  0  0  0  0
  9 10  1  0  0  0  0
  9 31  1  0  0  0  0
  9 32  1  0  0  0  0
 10 11  1  0  0  0  0
 10 33  1  0  0  0  0
 10 41  1  0  0  0  0
 11 12  1  0  0  0  0
 11 34  1  0  0  0  0
 11 35  1  0  0  0  0
 12 13  1  0  0  0  0
 12 36  1  0  0  0  0
 12 37  1  0  0  0  0
 13 17  1  0  0  0  0
 13 14  1  0  0  0  0
 14 15  2  0  0  0  0
 14 38  1  0  0  0  0
 15 16  1  0  0  0  0
 15 39  1  0  0  0  0
 16 17  2  0  0  0  0
 17 40  1  0  0  0  0
M  CHG  1  10   1
M  END
> <s_m_source_file>
AV-unprocessed.smi

> <i_m_source_file_index>
3187

> <i_lp_mmshare_version>
43012

> <i_f3d_flags>
0

> <s_epik_input>
W0NIM11DMT1bQ0hdW0NIMl1bQ0gyXVtDQEBIXShbQ0gzXSlbQ0BIXTFbQ0gyXVtOSF1bQ0gyXVtDSDJdbjJbY0hdW2NIXW5bY0hdMg==

> <s_epik_cmdline>
J2VwaWtfcHl0aG9uJywgJy1waCcsICc3LjAnLCAnLXRuJywgJzgnLCAnLW1hJywgJzIwMCcsICctbWV0YWxfYmluZGluZycsICctaW1hZScsICc8aW5maWxlLm1hZT4nLCAnLW9tYWUnLCAnPG91dGZpbGUubWFlPic=

> <r_lp_tautomer_probability>
1

> <r_epik_Ionization_Penalty>
0.0501625

> <r_epik_Ionization_Penalty_Charging>
0.0501625

> <r_epik_Ionization_Penalty_Neutral>
0

> <r_epik_State_Penalty>
0.0972392

> <r_epik_Charging_Adjusted_Penalty>
0.147402

> <i_epik_Tot_Q>
1

> <i_epik_Tot_abs_Q>
1

> <r_epik_Metal_State_Penalty>
0.000104376

> <b_epik_Metal_Only>
0

> <s_lp_Force_Field>
OPLS_2005

> <r_lp_Energy>
16.942

> <b_lp_Chiralities_Consistent>
1

> <s_lp_Variant>
AV-unprocessed.smi:3187-1

> <Gold.Version>
5.8.1

> <Gold.Id.Protein>
6NUR|6NUR_protein|mol2

> <Gold.PLP.Fitness>
45.8413

> <Gold.PLP.PLP>
-41.1235

> <Gold.PLP.part.hbond>
-3.5136

> <Gold.PLP.part.metal>
0.0000

> <Gold.PLP.part.buried>
-0.9799

> <Gold.PLP.part.nonpolar>
-37.0181

> <Gold.PLP.part.repulsive>
0.0781

> <Gold.PLP.ligand.clash>
0.0000

> <Gold.PLP.ligand.torsion>
0.6519

> <Gold.PLP.Chemscore.Hbond>
2.0000

> <Gold.PLP.Chemscore.CHOScore>
0.0000

> <Gold.PLP.Chemscore.Metal>
0.0000

> <Gold.Chemscore.Hbonds>
donor molecule, donor type, donor heavy atom, donor atom, acceptor molecule, acceptor atom, score
      L1  H    10    33       P1  8029  1.85
      L1  H    10    41       P1  8028  0.04

> <Gold.PLP.Chemscore.Internal.Correction>
0.0216

> <Gold.Rescore>
     Score         DG    S(hbond)    S(metal)    S(lipo)     H(rot)  DE(clash)    DE(int)     intcor
     14.97     -15.68       0.77        0.00     106.50       1.89       0.26       0.46       ----

> <Gold.Chemscore.Fitness>
14.9687

> <Gold.Chemscore.DG>
-15.6827

> <Gold.Chemscore.ZeroCoef>
-5.4800

> <Gold.Chemscore.Hbond>
0.7690

> <Gold.Chemscore.Metal>
0.0000

> <Gold.Chemscore.Lipo>
106.5009

> <Gold.Chemscore.Internal_Hbond>
0.0000

> <Gold.Chemscore.DEClash>
0.2584

> <Gold.Chemscore.DEInternal>
0.4556

> <Gold.Chemscore.Rot>
1.8853

> <Gold.Chemscore.Internal.Correction>
   9.000000E+99

> <Gold.Chemscore.Hbonds>
donor molecule, donor type, donor heavy atom, donor atom, acceptor molecule, acceptor atom, score
      L1  H    10    33       P1  8029  0.67

> <Gold.Chemscore.Hbond.Weighted>
-2.5683

> <Gold.Chemscore.Metal.Weighted>
-0.0000

> <Gold.Chemscore.Lipo.Weighted>
-12.4606

> <Gold.Chemscore.Internal_Hbond.Weighted>
0.0000

> <Gold.Chemscore.DEClash.Weighted>
0.2584

> <Gold.Chemscore.DEInternal.Weighted>
0.4556

> <Gold.Chemscore.Rot.Weighted>
4.8263

> <Gold.Chemscore.Internal.Correction.Weighted>
   9.000000E+99

> <Gold.Protein.RotatedTorsions>
[ 6907 6896 6895 6894 ] final   62.17 input  -60.11 | X-H torsion
[ 7974 7965 7964 7962 ] final  148.21 input  175.53 | X-H torsion
[ 8008 7997 7996 7995 ] final  118.75 input   59.86 | X-H torsion
[ 10167 10162 10161 10158 ] final    0.30 input  -65.29 | X-H torsion
[ 10718 10713 10712 10709 ] final  113.93 input   66.30 | X-H torsion
[ 10763 10752 10751 10750 ] final  -70.05 input  -60.55 | X-H torsion
[ 11005 11000 10999 10996 ] final   17.59 input  -57.11 | X-H torsion

> <Gold.Protein.ActiveResidues>
 VAL166  LYS551  ARG553  GLY616  TRP617  ASP618  TYR619  PRO620  LYS621  CYS622 
 ASP623  PHE694  ASN695  SER759  ASP760  ASP761  ALA762  ILE779  LEU786  VAL792 
 PHE793  MET794  SER795  GLU796  ALA797  LYS798  CYS799  TRP800  GLU811  SER814 

> <Gold.Protein.RotatedAtoms>
  152.4150  134.6058  160.0012 H   0  0  0  0  0  0  0  0  0  0  0  0  # atno 6907 bound_to 6896
  151.6224  133.3332  159.3099 H   0  0  0  0  0  0  0  0  0  0  0  0  # atno 6908 bound_to 6896
  150.8039  134.7190  159.6692 H   0  0  0  0  0  0  0  0  0  0  0  0  # atno 6909 bound_to 6896
  144.8531  139.6126  143.5965 H   0  0  0  0  0  0  0  0  0  0  0  0  # atno 7974 bound_to 7965
  156.2562  140.2868  156.0884 H   0  0  0  0  0  0  0  0  0  0  0  0  # atno 8008 bound_to 7997
  155.1490  140.0397  157.2834 H   0  0  0  0  0  0  0  0  0  0  0  0  # atno 8009 bound_to 7997
  154.6475  140.2537  155.7258 H   0  0  0  0  0  0  0  0  0  0  0  0  # atno 8010 bound_to 7997
  140.6735  143.6982  150.7973 H   0  0  0  0  0  0  0  0  0  0  0  0  # atno 10167 bound_to 10162
  157.6310  131.0991  150.7113 H   0  0  0  0  0  0  0  0  0  0  0  0  # atno 10718 bound_to 10713
  154.4121  135.6006  153.5959 H   0  0  0  0  0  0  0  0  0  0  0  0  # atno 10763 bound_to 10752
  152.9790  135.5932  154.4057 H   0  0  0  0  0  0  0  0  0  0  0  0  # atno 10764 bound_to 10752
  154.3871  135.2841  155.2155 H   0  0  0  0  0  0  0  0  0  0  0  0  # atno 10765 bound_to 10752
  140.4343  134.1388  155.7683 H   0  0  0  0  0  0  0  0  0  0  0  0  # atno 11005 bound_to 11000
  146.2801  139.6855  142.9235 LP  0  0  0  0  0  0  0  0  0  0  0  0  # atno 17320 bound_to 7965
  145.4460  141.0425  143.2831 LP  0  0  0  0  0  0  0  0  0  0  0  0  # atno 17321 bound_to 7965
  140.0672  143.5097  152.2598 LP  0  0  0  0  0  0  0  0  0  0  0  0  # atno 17342 bound_to 10162
  139.6015  144.7584  151.3161 LP  0  0  0  0  0  0  0  0  0  0  0  0  # atno 17343 bound_to 10162
  156.7452  130.4751  149.5468 LP  0  0  0  0  0  0  0  0  0  0  0  0  # atno 17370 bound_to 10713
  156.1514  130.6312  151.0600 LP  0  0  0  0  0  0  0  0  0  0  0  0  # atno 17371 bound_to 10713
  141.1732  133.8566  157.1503 LP  0  0  0  0  0  0  0  0  0  0  0  0  # atno 17394 bound_to 11000
  140.0113  134.9987  157.0401 LP  0  0  0  0  0  0  0  0  0  0  0  0  # atno 17395 bound_to 11000

$$$$
