AV-unprocessed.smi:2155|AV-procd|sdf|8778|dock10
  -GOLD-   2272011563D 1   1.00000     0.00000
 Structure written by MMmdl.
 42 43  0  0  0  0  0  0  0  0  1 V2000
  147.1989  134.4145  162.5010 C   0  0  0  0  0  0  0  0  0  0  0  0
  147.4719  134.2271  161.0911 N   0  0  0  0  0  0  0  0  0  0  0  0
  147.3773  132.9266  160.5384 C   0  0  0  0  0  0  0  0  0  0  0  0
  147.0703  131.9401  161.2085 O   0  0  0  0  0  0  0  0  0  0  0  0
  147.6660  132.8561  159.1110 C   0  0  0  0  0  0  0  0  0  0  0  0
  147.9853  133.9667  158.4113 C   0  0  0  0  0  0  0  0  0  0  0  0
  148.0609  135.2276  158.9745 N   0  0  0  0  0  0  0  0  0  0  0  0
  148.4241  136.3778  158.1361 C   0  0  0  0  0  0  0  0  0  0  0  0
  149.5830  137.2053  158.7096 C   0  0  0  0  0  0  0  0  0  0  0  0
  150.3286  136.7402  159.5730 O   0  0  0  0  0  0  0  0  0  0  0  0
  149.7320  138.4356  158.1999 N   0  0  0  0  0  0  0  0  0  0  0  0
  150.7709  139.3750  158.6037 C   0  0  0  0  0  0  0  0  0  0  0  0
  150.5927  140.7408  157.9186 C   0  0  0  0  0  0  0  0  0  0  0  0
  150.9824  141.9212  158.7962 C   0  0  0  0  0  0  0  0  0  0  0  0
  151.6885  141.7634  159.9329 C   0  0  0  0  0  0  0  0  0  0  0  0
  152.1202  142.9062  160.8349 C   0  0  0  0  0  0  0  0  0  0  0  0
  151.9732  144.2774  160.1545 C   0  0  0  0  0  0  0  0  0  0  0  0
  150.6434  144.3800  159.3973 C   0  0  0  0  0  0  0  0  0  0  0  0
  150.5313  143.2945  158.3120 C   0  0  0  0  0  0  0  0  0  0  0  0
  147.7979  135.3855  160.3519 C   0  0  0  0  0  0  0  0  0  0  0  0
  147.8517  136.4995  160.8798 O   0  0  0  0  0  0  0  0  0  0  0  0
  147.1239  133.4587  163.0188 H   0  0  0  0  0  0  0  0  0  0  0  0
  146.2593  134.9643  162.5730 H   0  0  0  0  0  0  0  0  0  0  0  0
  148.0276  134.9831  162.9273 H   0  0  0  0  0  0  0  0  0  0  0  0
  147.6232  131.9014  158.6074 H   0  0  0  0  0  0  0  0  0  0  0  0
  148.1937  133.8604  157.3566 H   0  0  0  0  0  0  0  0  0  0  0  0
  148.7112  136.0341  157.1413 H   0  0  0  0  0  0  0  0  0  0  0  0
  147.5555  137.0217  157.9849 H   0  0  0  0  0  0  0  0  0  0  0  0
  149.0804  138.7454  157.4935 H   0  0  0  0  0  0  0  0  0  0  0  0
  150.7495  139.4901  159.6882 H   0  0  0  0  0  0  0  0  0  0  0  0
  151.7497  138.9653  158.3502 H   0  0  0  0  0  0  0  0  0  0  0  0
  151.1890  140.7749  157.0064 H   0  0  0  0  0  0  0  0  0  0  0  0
  149.5537  140.8506  157.6047 H   0  0  0  0  0  0  0  0  0  0  0  0
  151.9749  140.7728  160.2549 H   0  0  0  0  0  0  0  0  0  0  0  0
  151.5126  142.8676  161.7395 H   0  0  0  0  0  0  0  0  0  0  0  0
  153.1555  142.7530  161.1404 H   0  0  0  0  0  0  0  0  0  0  0  0
  152.0509  145.0721  160.8971 H   0  0  0  0  0  0  0  0  0  0  0  0
  152.7954  144.4273  159.4536 H   0  0  0  0  0  0  0  0  0  0  0  0
  149.8199  144.2736  160.1049 H   0  0  0  0  0  0  0  0  0  0  0  0
  150.5377  145.3675  158.9473 H   0  0  0  0  0  0  0  0  0  0  0  0
  151.1437  143.5698  157.4527 H   0  0  0  0  0  0  0  0  0  0  0  0
  149.5006  143.2373  157.9605 H   0  0  0  0  0  0  0  0  0  0  0  0
  1  2  1  0  0  0  0
  1 22  1  0  0  0  0
  1 23  1  0  0  0  0
  1 24  1  0  0  0  0
  2 20  1  0  0  0  0
  2  3  1  0  0  0  0
  3  4  2  0  0  0  0
  3  5  1  0  0  0  0
  5  6  2  0  0  0  0
  5 25  1  0  0  0  0
  6  7  1  0  0  0  0
  6 26  1  0  0  0  0
  7  8  1  0  0  0  0
  7 20  1  0  0  0  0
  8  9  1  0  0  0  0
  8 27  1  0  0  0  0
  8 28  1  0  0  0  0
  9 10  2  0  0  0  0
  9 11  1  0  0  0  0
 11 12  1  0  0  0  0
 11 29  1  0  0  0  0
 12 13  1  0  0  0  0
 12 30  1  0  0  0  0
 12 31  1  0  0  0  0
 13 14  1  0  0  0  0
 13 32  1  0  0  0  0
 13 33  1  0  0  0  0
 14 19  1  0  0  0  0
 14 15  2  0  0  0  0
 15 16  1  0  0  0  0
 15 34  1  0  0  0  0
 16 17  1  0  0  0  0
 16 35  1  0  0  0  0
 16 36  1  0  0  0  0
 17 18  1  0  0  0  0
 17 37  1  0  0  0  0
 17 38  1  0  0  0  0
 18 19  1  0  0  0  0
 18 39  1  0  0  0  0
 18 40  1  0  0  0  0
 19 41  1  0  0  0  0
 19 42  1  0  0  0  0
 20 21  2  0  0  0  0
M  END
> <s_m_source_file>
AV-unprocessed.smi

> <i_m_source_file_index>
2155

> <i_lp_mmshare_version>
43012

> <i_f3d_flags>
0

> <s_epik_input>
W0NIM11uMWMoPU8pW2NIXVtjSF1uKGMxPU8pW0NIMl1DKD1PKVtOSF1bQ0gyXVtDSDJdQzI9W0NIXVtDSDJdW0NIMl1bQ0gyXVtDSDJdMg==

> <s_epik_cmdline>
J2VwaWtfcHl0aG9uJywgJy1waCcsICc3LjAnLCAnLXRuJywgJzgnLCAnLW1hJywgJzIwMCcsICctbWV0YWxfYmluZGluZycsICctaW1hZScsICc8aW5maWxlLm1hZT4nLCAnLW9tYWUnLCAnPG91dGZpbGUubWFlPic=

> <r_lp_tautomer_probability>
1

> <r_epik_Ionization_Penalty>
3.01725e-08

> <r_epik_Ionization_Penalty_Charging>
1.20689e-08

> <r_epik_Ionization_Penalty_Neutral>
1.81035e-08

> <r_epik_State_Penalty>
-0

> <r_epik_Charging_Adjusted_Penalty>
1.20689e-08

> <i_epik_Tot_Q>
0

> <i_epik_Tot_abs_Q>
0

> <r_epik_Metal_State_Penalty>
-0

> <b_epik_Metal_Only>
0

> <s_lp_Force_Field>
OPLS_2005

> <r_lp_Energy>
16.2907

> <b_lp_Chiralities_Consistent>
1

> <s_lp_Variant>
AV-unprocessed.smi:2155-1

> <Gold.Version>
5.8.1

> <Gold.Id.Protein>
6NUR|6NUR_protein|mol2

> <Gold.PLP.Fitness>
48.9744

> <Gold.PLP.PLP>
-42.1884

> <Gold.PLP.part.hbond>
-3.0000

> <Gold.PLP.part.metal>
0.0000

> <Gold.PLP.part.buried>
-5.8667

> <Gold.PLP.part.nonpolar>
-33.9120

> <Gold.PLP.part.repulsive>
0.1103

> <Gold.PLP.ligand.clash>
0.0000

> <Gold.PLP.ligand.torsion>
0.7117

> <Gold.PLP.Chemscore.Hbond>
2.7280

> <Gold.PLP.Chemscore.CHOScore>
0.0000

> <Gold.PLP.Chemscore.Metal>
0.0000

> <Gold.Chemscore.Hbonds>
donor molecule, donor type, donor heavy atom, donor atom, acceptor molecule, acceptor atom, score
      P1  H  6896  6908       L1    10  1.00
      P1  H  6931  6943       L1    21  0.21

> <Gold.PLP.Chemscore.Internal.Correction>
0.0255

> <Gold.Rescore>
     Score         DG    S(hbond)    S(metal)    S(lipo)     H(rot)  DE(clash)    DE(int)     intcor
     18.73     -19.91       2.70        0.00      88.83       1.94       0.14       1.04       ----

> <Gold.Chemscore.Fitness>
18.7322

> <Gold.Chemscore.DG>
-19.9123

> <Gold.Chemscore.ZeroCoef>
-5.4800

> <Gold.Chemscore.Hbond>
2.6955

> <Gold.Chemscore.Metal>
0.0000

> <Gold.Chemscore.Lipo>
88.8297

> <Gold.Chemscore.Internal_Hbond>
0.0000

> <Gold.Chemscore.DEClash>
0.1390

> <Gold.Chemscore.DEInternal>
1.0410

> <Gold.Chemscore.Rot>
1.9390

> <Gold.Chemscore.Internal.Correction>
   9.000000E+99

> <Gold.Chemscore.Hbonds>
donor molecule, donor type, donor heavy atom, donor atom, acceptor molecule, acceptor atom, score
      P1  H  6896  6908       L1    10  1.00
      P1  H  6931  6943       L1    21  0.21

> <Gold.Chemscore.Hbond.Weighted>
-9.0031

> <Gold.Chemscore.Metal.Weighted>
-0.0000

> <Gold.Chemscore.Lipo.Weighted>
-10.3931

> <Gold.Chemscore.Internal_Hbond.Weighted>
0.0000

> <Gold.Chemscore.DEClash.Weighted>
0.1390

> <Gold.Chemscore.DEInternal.Weighted>
1.0410

> <Gold.Chemscore.Rot.Weighted>
4.9639

> <Gold.Chemscore.Internal.Correction.Weighted>
   9.000000E+99

> <Gold.Protein.RotatedTorsions>
[ 6907 6896 6895 6894 ] final -159.29 input  -60.11 | X-H torsion
[ 7974 7965 7964 7962 ] final   12.90 input  175.53 | X-H torsion
[ 8008 7997 7996 7995 ] final -162.51 input   59.86 | X-H torsion
[ 10167 10162 10161 10158 ] final   73.94 input  -65.29 | X-H torsion
[ 10718 10713 10712 10709 ] final  -56.53 input   66.30 | X-H torsion
[ 10763 10752 10751 10750 ] final -161.11 input  -60.55 | X-H torsion
[ 11005 11000 10999 10996 ] final  171.67 input  -57.11 | X-H torsion

> <Gold.Protein.ActiveResidues>
 VAL166  LYS551  ARG553  GLY616  TRP617  ASP618  TYR619  PRO620  LYS621  CYS622 
 ASP623  PHE694  ASN695  SER759  ASP760  ASP761  ALA762  ILE779  LEU786  VAL792 
 PHE793  MET794  SER795  GLU796  ALA797  LYS798  CYS799  TRP800  GLU811  SER814 

> <Gold.Protein.RotatedAtoms>
  151.3312  133.4000  159.2662 H   0  0  0  0  0  0  0  0  0  0  0  0  # atno 6907 bound_to 6896
  150.9954  134.9279  159.7934 H   0  0  0  0  0  0  0  0  0  0  0  0  # atno 6908 bound_to 6896
  152.5259  134.3277  159.9224 H   0  0  0  0  0  0  0  0  0  0  0  0  # atno 6909 bound_to 6896
  146.2341  139.9267  142.8502 H   0  0  0  0  0  0  0  0  0  0  0  0  # atno 7974 bound_to 7965
  155.8078  140.0901  157.1921 H   0  0  0  0  0  0  0  0  0  0  0  0  # atno 8008 bound_to 7997
  154.3980  140.1460  156.3410 H   0  0  0  0  0  0  0  0  0  0  0  0  # atno 8009 bound_to 7997
  155.8396  140.3439  155.5626 H   0  0  0  0  0  0  0  0  0  0  0  0  # atno 8010 bound_to 7997
  140.0190  144.5555  150.7597 H   0  0  0  0  0  0  0  0  0  0  0  0  # atno 10167 bound_to 10162
  156.1281  130.4161  150.0318 H   0  0  0  0  0  0  0  0  0  0  0  0  # atno 10718 bound_to 10713
  154.7332  135.3051  154.8856 H   0  0  0  0  0  0  0  0  0  0  0  0  # atno 10763 bound_to 10752
  153.9692  135.6744  153.4751 H   0  0  0  0  0  0  0  0  0  0  0  0  # atno 10764 bound_to 10752
  153.0938  135.4946  154.8662 H   0  0  0  0  0  0  0  0  0  0  0  0  # atno 10765 bound_to 10752
  140.3215  134.7433  157.4067 H   0  0  0  0  0  0  0  0  0  0  0  0  # atno 11005 bound_to 11000
  145.2083  140.9885  143.4115 LP  0  0  0  0  0  0  0  0  0  0  0  0  # atno 17320 bound_to 7965
  144.9713  139.3877  143.6307 LP  0  0  0  0  0  0  0  0  0  0  0  0  # atno 17321 bound_to 7965
  140.7350  143.2736  151.3812 LP  0  0  0  0  0  0  0  0  0  0  0  0  # atno 17342 bound_to 10162
  139.6152  144.1017  152.2339 LP  0  0  0  0  0  0  0  0  0  0  0  0  # atno 17343 bound_to 10162
  156.8238  130.9368  151.3640 LP  0  0  0  0  0  0  0  0  0  0  0  0  # atno 17370 bound_to 10713
  157.6461  130.8845  149.9541 LP  0  0  0  0  0  0  0  0  0  0  0  0  # atno 17371 bound_to 10713
  140.0938  134.5565  155.8418 LP  0  0  0  0  0  0  0  0  0  0  0  0  # atno 17394 bound_to 11000
  141.2085  133.6674  156.6378 LP  0  0  0  0  0  0  0  0  0  0  0  0  # atno 17395 bound_to 11000

$$$$
