#       Name:                AV-unprocessed.smi:1843
#       Creating user name   scv26
#       Creation time:       Fri Mar 27 09:20:32 2020


#       File generated by GOLD software.
#

@<TRIPOS>MOLECULE
AV-unprocessed.smi:1843
    43    45     1
SMALL
NO_CHARGES


@<TRIPOS>ATOM
      1 ****         0.2981   1.2925  -0.9889 O.2            1 S1                 0.0000
      2 ****         0.0289   0.3489  -0.2452 C.2            1 S1                 0.0000
      3 ****         0.9072  -0.5692   0.1951 N.am           1 S1                 0.0000
      4 ****         2.2986  -0.6563  -0.0756 C.2            1 S1                 0.0000
      5 ****         2.9662   0.2241  -0.8339 N.2            1 S1                 0.0000
      6 ****         4.3124  -0.0970  -0.9371 N.2            1 S1                 0.0000
      7 ****         4.6243  -1.2054  -0.2549 C.2            1 S1                 0.0000
      8 ****         6.0125  -1.7523  -0.2175 C.3            1 S1                 0.0000
      9 ****         6.5686  -2.4202   1.0212 C.3            1 S1                 0.0000
     10 ****         7.0900  -1.0715   0.5947 C.3            1 S1                 0.0000
     11 ****         3.2721  -1.9593   0.5840 S.3            1 S1                 0.0000
     12 ****        -1.2019   0.1102   0.2307 N.am           1 S1                 0.0000
     13 ****        -2.3854   0.9235  -0.0427 C.3            1 S1                 0.0000
     14 ****        -3.0288   0.5646  -1.3987 C.3            1 S1                 0.0000
     15 ****        -4.2606   1.4436  -1.6719 C.3            1 S1                 0.0000
     16 ****        -5.2850   1.3496  -0.5292 C.3            1 S1                 0.0000
     17 ****        -4.6472   1.6832   0.8326 C.3            1 S1                 0.0000
     18 ****        -3.4013   0.8217   1.1175 C.3            1 S1                 0.0000
     19 ****        -3.8083  -0.5192   1.3229 O.3            1 S1                 0.0000
     20 ****         0.5377  -1.2909   0.7961 H              1 S1                 0.0000
     21 ****         6.2890  -2.1645  -1.1860 H              1 S1                 0.0000
     22 ****         5.9470  -2.4517   1.9137 H              1 S1                 0.0000
     23 ****         7.2204  -3.2792   0.8775 H              1 S1                 0.0000
     24 ****         8.0895  -1.0303   0.1671 H              1 S1                 0.0000
     25 ****         6.8026  -0.2099   1.1943 H              1 S1                 0.0000
     26 ****        -1.3313  -0.6901   0.8316 H              1 S1                 0.0000
     27 ****        -2.0677   1.9672  -0.0928 H              1 S1                 0.0000
     28 ****        -2.3064   0.6953  -2.2051 H              1 S1                 0.0000
     29 ****        -3.3172  -0.4873  -1.4119 H              1 S1                 0.0000
     30 ****        -3.9464   2.4809  -1.7941 H              1 S1                 0.0000
     31 ****        -4.7262   1.1499  -2.6131 H              1 S1                 0.0000
     32 ****        -6.1181   2.0262  -0.7225 H              1 S1                 0.0000
     33 ****        -5.7078   0.3446  -0.5013 H              1 S1                 0.0000
     34 ****        -4.3616   2.7359   0.8413 H              1 S1                 0.0000
     35 ****        -5.3816   1.5620   1.6297 H              1 S1                 0.0000
     36 ****        -2.9344   1.1666   2.0410 H              1 S1                 0.0000
     37 ****        -3.0462  -1.0358   1.5331 H              1 S1                 0.0000
     38 ****         1.2349   1.4213  -1.3141 LP             1 S1                 0.0000
     39 ****        -0.4201   1.9300  -1.2678 LP             1 S1                 0.0000
     40 ****         2.5447   1.0176  -1.2730 LP             1 S1                 0.0000
     41 ****         4.9741   0.4388  -1.4616 LP             1 S1                 0.0000
     42 ****        -4.2363  -0.8728   0.4911 LP             1 S1                 0.0000
     43 ****        -4.4626  -0.5610   2.0779 LP             1 S1                 0.0000
@<TRIPOS>BOND
    1    1    2 2     
    2    2    3 am    
    3    2   12 am    
    4    3    4 1     
    5    3   20 1     
    6    4   11 1     
    7    4    5 2     
    8    5    6 1     
    9    6    7 2     
   10    7    8 1     
   11    7   11 1     
   12    8   10 1     
   13    8    9 1     
   14    8   21 1     
   15    9   10 1     
   16    9   22 1     
   17    9   23 1     
   18   10   24 1     
   19   10   25 1     
   20   12   13 1     
   21   12   26 1     
   22   13   18 1     
   23   13   14 1     
   24   13   27 1     
   25   14   15 1     
   26   14   28 1     
   27   14   29 1     
   28   15   16 1     
   29   15   30 1     
   30   15   31 1     
   31   16   17 1     
   32   16   32 1     
   33   16   33 1     
   34   17   18 1     
   35   17   34 1     
   36   17   35 1     
   37   18   19 1     
   38   18   36 1     
   39   19   37 1     
   40    1   38 1     
   41    1   39 1     
   42    5   40 1     
   43    6   41 1     
   44   19   42 1     
   45   19   43 1     
@<TRIPOS>SUBSTRUCTURE
      1 S1             1
@<TRIPOS>SET
LONE_PAIRS      STATIC     ATOMS    <user>   **** ""
6 38 39 40 41 42 43
DONOR_HYDROGENS      STATIC     ATOMS    <user>   **** ""
3 20 26 37
ATOM$BLUE        STATIC     ATOMS    COLORGROUP SYSTEM
6 38 39 40 41 42 43
ATOM$RED        STATIC     ATOMS    COLORGROUP SYSTEM
3 20 26 37
