AV-unprocessed.smi:1168|AV-procd|sdf|4939|dock6
  -GOLD-   22720 3523D 1   1.00000     0.00000
 Structure written by MMmdl.
 32 33  0  0  0  0  0  0  0  0  1 V2000
  151.2243  140.4816  157.3548 O   0  0  0  0  0  0  0  0  0  0  0  0
  150.6249  141.3462  156.7157 C   0  0  0  0  0  0  0  0  0  0  0  0
  150.1403  141.0522  155.2945 C   0  0  0  0  0  0  0  0  0  0  0  0
  148.7530  141.4455  155.1204 N   0  0  0  0  0  0  0  0  0  0  0  0
  148.0358  141.5693  153.9492 C   0  0  0  0  0  0  0  0  0  0  0  0
  146.7721  141.9603  154.2862 C   0  0  0  0  0  0  0  0  0  0  0  0
  146.8041  142.0486  155.7083 C   0  0  0  0  0  0  0  0  0  0  0  0
  145.6908  142.4344  156.6463 C   0  0  0  0  0  0  0  0  0  0  0  0
  146.1217  142.4158  157.9076 F   0  0  0  0  0  0  0  0  0  0  0  0
  145.2598  143.6626  156.3586 F   0  0  0  0  0  0  0  0  0  0  0  0
  144.6761  141.5782  156.5272 F   0  0  0  0  0  0  0  0  0  0  0  0
  147.9951  141.7340  156.1999 N   0  0  0  0  0  0  0  0  0  0  0  0
  150.3560  142.5691  157.1987 N   0  0  0  0  0  0  0  0  0  0  0  0
  150.7149  143.0445  158.5322 C   0  0  0  0  0  0  0  0  0  0  0  0
  150.7057  144.5848  158.5837 C   0  0  0  0  0  0  0  0  0  0  0  0
  152.0337  144.9983  159.2215 C   0  0  0  0  0  0  0  0  0  0  0  0
  152.9979  143.8762  158.8510 C   0  0  0  0  0  0  0  0  0  0  0  0
  152.1422  142.6118  158.9235 C   0  0  0  0  0  0  0  0  0  0  0  0
  150.7468  141.5837  154.5597 H   0  0  0  0  0  0  0  0  0  0  0  0
  150.2490  139.9861  155.0888 H   0  0  0  0  0  0  0  0  0  0  0  0
  148.4808  141.3740  152.9848 H   0  0  0  0  0  0  0  0  0  0  0  0
  145.9468  142.1540  153.6173 H   0  0  0  0  0  0  0  0  0  0  0  0
  149.8619  143.2170  156.6023 H   0  0  0  0  0  0  0  0  0  0  0  0
  150.0027  142.6524  159.2610 H   0  0  0  0  0  0  0  0  0  0  0  0
  150.6493  145.0045  157.5778 H   0  0  0  0  0  0  0  0  0  0  0  0
  149.8516  144.9720  159.1401 H   0  0  0  0  0  0  0  0  0  0  0  0
  152.3762  145.9762  158.8821 H   0  0  0  0  0  0  0  0  0  0  0  0
  151.9230  145.0416  160.3058 H   0  0  0  0  0  0  0  0  0  0  0  0
  153.3551  144.0206  157.8306 H   0  0  0  0  0  0  0  0  0  0  0  0
  153.8676  143.8335  159.5072 H   0  0  0  0  0  0  0  0  0  0  0  0
  152.1343  142.2431  159.9500 H   0  0  0  0  0  0  0  0  0  0  0  0
  152.5430  141.8106  158.3012 H   0  0  0  0  0  0  0  0  0  0  0  0
  1  2  2  0  0  0  0
  2  3  1  0  0  0  0
  2 13  1  0  0  0  0
  3  4  1  0  0  0  0
  3 19  1  0  0  0  0
  3 20  1  0  0  0  0
  4 12  1  0  0  0  0
  4  5  1  0  0  0  0
  5  6  2  0  0  0  0
  5 21  1  0  0  0  0
  6  7  1  0  0  0  0
  6 22  1  0  0  0  0
  7  8  1  0  0  0  0
  7 12  2  0  0  0  0
  8  9  1  0  0  0  0
  8 10  1  0  0  0  0
  8 11  1  0  0  0  0
 13 14  1  0  0  0  0
 13 23  1  0  0  0  0
 14 18  1  0  0  0  0
 14 15  1  0  0  0  0
 14 24  1  0  0  0  0
 15 16  1  0  0  0  0
 15 25  1  0  0  0  0
 15 26  1  0  0  0  0
 16 17  1  0  0  0  0
 16 27  1  0  0  0  0
 16 28  1  0  0  0  0
 17 18  1  0  0  0  0
 17 29  1  0  0  0  0
 17 30  1  0  0  0  0
 18 31  1  0  0  0  0
 18 32  1  0  0  0  0
M  END
> <s_m_source_file>
AV-unprocessed.smi

> <i_m_source_file_index>
1168

> <i_lp_mmshare_version>
43012

> <i_f3d_flags>
0

> <s_epik_input>
W0NIMl0xW0NIMl1bQ0gyXVtDSDJdW0NIXTFbTkhdQyg9TylbQ0gyXW4yW2NIXVtjSF1jKG4yKUMoRikoRilG

> <s_epik_cmdline>
J2VwaWtfcHl0aG9uJywgJy1waCcsICc3LjAnLCAnLXRuJywgJzgnLCAnLW1hJywgJzIwMCcsICctbWV0YWxfYmluZGluZycsICctaW1hZScsICc8aW5maWxlLm1hZT4nLCAnLW9tYWUnLCAnPG91dGZpbGUubWFlPic=

> <r_lp_tautomer_probability>
1

> <r_epik_Ionization_Penalty>
8.05939e-08

> <r_epik_Ionization_Penalty_Charging>
0

> <r_epik_Ionization_Penalty_Neutral>
8.05939e-08

> <r_epik_State_Penalty>
-0

> <r_epik_Charging_Adjusted_Penalty>
0

> <i_epik_Tot_Q>
0

> <i_epik_Tot_abs_Q>
0

> <r_epik_Metal_State_Penalty>
-0

> <b_epik_Metal_Only>
0

> <s_lp_Force_Field>
OPLS_2005

> <r_lp_Energy>
20.3297

> <b_lp_Chiralities_Consistent>
1

> <s_lp_Variant>
AV-unprocessed.smi:1168-1

> <Gold.Version>
5.8.1

> <Gold.Id.Protein>
6NUR|6NUR_protein|mol2

> <Gold.PLP.Fitness>
40.8860

> <Gold.PLP.PLP>
-35.9477

> <Gold.PLP.part.hbond>
-1.0000

> <Gold.PLP.part.metal>
0.0000

> <Gold.PLP.part.buried>
-4.7639

> <Gold.PLP.part.nonpolar>
-31.5220

> <Gold.PLP.part.repulsive>
0.1508

> <Gold.PLP.ligand.clash>
0.0000

> <Gold.PLP.ligand.torsion>
0.5358

> <Gold.PLP.Chemscore.Hbond>
1.0000

> <Gold.PLP.Chemscore.CHOScore>
1.0000

> <Gold.PLP.Chemscore.Metal>
0.0000

> <Gold.Chemscore.Hbonds>
donor molecule, donor type, donor heavy atom, donor atom, acceptor molecule, acceptor atom, score
      L1  H    13    23       P1  8028  1.00
      L1  C     5    21       P1  7957  1.00

> <Gold.PLP.Chemscore.Internal.Correction>
0.0100

> <Gold.Rescore>
     Score         DG    S(hbond)    S(metal)    S(lipo)     H(rot)  DE(clash)    DE(int)     intcor
     12.79     -14.55       0.98        0.00      83.87       1.57       0.11       1.66       ----

> <Gold.Chemscore.Fitness>
12.7897

> <Gold.Chemscore.DG>
-14.5506

> <Gold.Chemscore.ZeroCoef>
-5.4800

> <Gold.Chemscore.Hbond>
0.9849

> <Gold.Chemscore.Metal>
0.0000

> <Gold.Chemscore.Lipo>
83.8671

> <Gold.Chemscore.Internal_Hbond>
0.0000

> <Gold.Chemscore.DEClash>
0.1057

> <Gold.Chemscore.DEInternal>
1.6552

> <Gold.Chemscore.Rot>
1.5748

> <Gold.Chemscore.Internal.Correction>
   9.000000E+99

> <Gold.Chemscore.Hbonds>
donor molecule, donor type, donor heavy atom, donor atom, acceptor molecule, acceptor atom, score
      L1  H    13    23       P1  8028  0.94

> <Gold.Chemscore.Hbond.Weighted>
-3.2896

> <Gold.Chemscore.Metal.Weighted>
-0.0000

> <Gold.Chemscore.Lipo.Weighted>
-9.8124

> <Gold.Chemscore.Internal_Hbond.Weighted>
0.0000

> <Gold.Chemscore.DEClash.Weighted>
0.1057

> <Gold.Chemscore.DEInternal.Weighted>
1.6552

> <Gold.Chemscore.Rot.Weighted>
4.0315

> <Gold.Chemscore.Internal.Correction.Weighted>
   9.000000E+99

> <Gold.Protein.RotatedTorsions>
[ 6907 6896 6895 6894 ] final -112.61 input  -60.11 | X-H torsion
[ 7974 7965 7964 7962 ] final -169.50 input  175.53 | X-H torsion
[ 8008 7997 7996 7995 ] final   71.32 input   59.86 | X-H torsion
[ 10167 10162 10161 10158 ] final  -66.02 input  -65.29 | X-H torsion
[ 10718 10713 10712 10709 ] final -174.08 input   66.30 | X-H torsion
[ 10763 10752 10751 10750 ] final   12.61 input  -60.55 | X-H torsion
[ 11005 11000 10999 10996 ] final -147.44 input  -57.11 | X-H torsion

> <Gold.Protein.ActiveResidues>
 VAL166  LYS551  ARG553  GLY616  TRP617  ASP618  TYR619  PRO620  LYS621  CYS622 
 ASP623  PHE694  ASN695  SER759  ASP760  ASP761  ALA762  ILE779  LEU786  VAL792 
 PHE793  MET794  SER795  GLU796  ALA797  LYS798  CYS799  TRP800  GLU811  SER814 

> <Gold.Protein.RotatedAtoms>
  150.7770  133.9065  159.3356 H   0  0  0  0  0  0  0  0  0  0  0  0  # atno 6907 bound_to 6896
  151.6937  135.0940  160.0248 H   0  0  0  0  0  0  0  0  0  0  0  0  # atno 6908 bound_to 6896
  152.3810  133.6507  159.6196 H   0  0  0  0  0  0  0  0  0  0  0  0  # atno 6909 bound_to 6896
  144.7184  140.2211  143.6316 H   0  0  0  0  0  0  0  0  0  0  0  0  # atno 7974 bound_to 7965
  155.7521  140.3488  155.5155 H   0  0  0  0  0  0  0  0  0  0  0  0  # atno 8008 bound_to 7997
  155.8994  140.1031  157.1382 H   0  0  0  0  0  0  0  0  0  0  0  0  # atno 8009 bound_to 7997
  154.4042  140.1289  156.4404 H   0  0  0  0  0  0  0  0  0  0  0  0  # atno 8010 bound_to 7997
  140.5687  143.2316  151.6581 H   0  0  0  0  0  0  0  0  0  0  0  0  # atno 10167 bound_to 10162
  156.7798  130.9479  151.3120 H   0  0  0  0  0  0  0  0  0  0  0  0  # atno 10718 bound_to 10713
  153.1805  135.6827  153.8484 H   0  0  0  0  0  0  0  0  0  0  0  0  # atno 10763 bound_to 10752
  153.7817  135.3181  155.3368 H   0  0  0  0  0  0  0  0  0  0  0  0  # atno 10764 bound_to 10752
  154.8057  135.4750  154.0480 H   0  0  0  0  0  0  0  0  0  0  0  0  # atno 10765 bound_to 10752
  140.7717  134.3182  157.5073 H   0  0  0  0  0  0  0  0  0  0  0  0  # atno 11005 bound_to 11000
  145.8500  139.2171  143.1778 LP  0  0  0  0  0  0  0  0  0  0  0  0  # atno 17320 bound_to 7965
  146.0269  140.8295  142.9895 LP  0  0  0  0  0  0  0  0  0  0  0  0  # atno 17321 bound_to 7965
  139.5106  144.3536  152.0629 LP  0  0  0  0  0  0  0  0  0  0  0  0  # atno 17342 bound_to 10162
  140.2671  144.4004  150.6164 LP  0  0  0  0  0  0  0  0  0  0  0  0  # atno 17343 bound_to 10162
  157.6652  130.9001  149.9916 LP  0  0  0  0  0  0  0  0  0  0  0  0  # atno 17370 bound_to 10713
  156.1225  130.3645  149.9863 LP  0  0  0  0  0  0  0  0  0  0  0  0  # atno 17371 bound_to 10713
  139.8755  134.9264  156.3400 LP  0  0  0  0  0  0  0  0  0  0  0  0  # atno 17394 bound_to 11000
  140.9568  133.7415  156.0346 LP  0  0  0  0  0  0  0  0  0  0  0  0  # atno 17395 bound_to 11000

$$$$
