AV-unprocessed.smi:1958|AV-procd|sdf|7910|dock9
  -GOLD-   2272010 73D 1   1.00000     0.00000
 Structure written by MMmdl.
 47 48  0  0  0  0  0  0  0  0  3 V2000
  150.3356  135.7870  155.2159 C   0  0  0  0  0  0  0  0  0  0  0  0
  151.4722  136.5916  155.4758 O   0  0  0  0  0  0  0  0  0  0  0  0
  151.6373  137.6244  154.5188 C   0  0  0  0  0  0  0  0  0  0  0  0
  152.4622  138.7556  155.1502 C   0  0  0  0  0  0  0  0  0  0  0  0
  151.6057  139.7730  155.7677 N   0  0  0  0  0  0  0  0  0  0  0  0
  150.5525  140.1838  154.9689 N   0  0  0  0  0  0  0  0  0  0  0  0
  149.7331  141.0958  155.3840 C   0  0  0  0  0  0  0  0  0  0  0  0
  148.6097  141.5799  154.5227 C   0  0  0  0  0  0  0  0  0  0  0  0
  148.6988  141.3258  153.3148 O   0  0  0  0  0  0  0  0  0  0  0  0
  147.5758  142.2370  155.1301 N   0  5  0  0  0  0  0  0  0  0  0  0
  146.2163  142.3658  154.5976 C   0  0  0  0  0  0  0  0  0  0  0  0
  145.3814  143.3576  155.4518 C   0  0  2  0  0  0  0  0  0  0  0  0
  144.5121  142.6823  156.5414 C   0  0  0  0  0  0  0  0  0  0  0  0
  144.6367  144.3244  154.5818 N   0  3  0  0  0  0  0  0  0  0  0  0
  144.0462  145.5145  155.2540 C   0  0  0  0  0  0  0  0  0  0  0  0
  143.1578  146.2850  154.2668 C   0  0  0  0  0  0  0  0  0  0  0  0
  143.9362  146.6779  153.1426 O   0  0  0  0  0  0  0  0  0  0  0  0
  144.4632  145.5585  152.4403 C   0  0  0  0  0  0  0  0  0  0  0  0
  145.3791  144.7396  153.3668 C   0  0  0  0  0  0  0  0  0  0  0  0
  149.8978  141.6929  156.7019 C   0  0  0  0  0  0  0  0  0  0  0  0
  150.9241  141.2741  157.4740 C   0  0  0  0  0  0  0  0  0  0  0  0
  151.8661  140.2498  157.0219 C   0  0  0  0  0  0  0  0  0  0  0  0
  152.8089  139.8535  157.7066 O   0  0  0  0  0  0  0  0  0  0  0  0
  150.2567  135.0080  155.9741 H   0  0  0  0  0  0  0  0  0  0  0  0
  150.4093  135.3028  154.2415 H   0  0  0  0  0  0  0  0  0  0  0  0
  149.4193  136.3781  155.2449 H   0  0  0  0  0  0  0  0  0  0  0  0
  152.1460  137.2365  153.6349 H   0  0  0  0  0  0  0  0  0  0  0  0
  150.6612  137.9953  154.2018 H   0  0  0  0  0  0  0  0  0  0  0  0
  153.1545  138.3463  155.8879 H   0  0  0  0  0  0  0  0  0  0  0  0
  153.0920  139.2137  154.3851 H   0  0  0  0  0  0  0  0  0  0  0  0
  146.2285  142.7101  153.5636 H   0  0  0  0  0  0  0  0  0  0  0  0
  145.6879  141.4116  154.5726 H   0  0  0  0  0  0  0  0  0  0  0  0
  146.1267  143.9320  156.0038 H   0  0  0  0  0  0  0  0  0  0  0  0
  145.1177  142.0908  157.2304 H   0  0  0  0  0  0  0  0  0  0  0  0
  143.7525  142.0173  156.1268 H   0  0  0  0  0  0  0  0  0  0  0  0
  143.9998  143.4315  157.1457 H   0  0  0  0  0  0  0  0  0  0  0  0
  143.4486  145.2157  156.1150 H   0  0  0  0  0  0  0  0  0  0  0  0
  144.8344  146.1728  155.6209 H   0  0  0  0  0  0  0  0  0  0  0  0
  142.3095  145.6768  153.9486 H   0  0  0  0  0  0  0  0  0  0  0  0
  142.7506  147.1761  154.7445 H   0  0  0  0  0  0  0  0  0  0  0  0
  143.6489  144.9415  152.0572 H   0  0  0  0  0  0  0  0  0  0  0  0
  145.0248  145.9157  151.5771 H   0  0  0  0  0  0  0  0  0  0  0  0
  146.2529  145.3263  153.6546 H   0  0  0  0  0  0  0  0  0  0  0  0
  145.7402  143.8618  152.8296 H   0  0  0  0  0  0  0  0  0  0  0  0
  149.2183  142.4481  157.0690 H   0  0  0  0  0  0  0  0  0  0  0  0
  151.0543  141.7067  158.4551 H   0  0  0  0  0  0  0  0  0  0  0  0
  143.8500  143.7874  154.2440 H   0  0  0  0  0  0  0  0  0  0  0  0
  1  2  1  0  0  0  0
  1 24  1  0  0  0  0
  1 25  1  0  0  0  0
  1 26  1  0  0  0  0
  2  3  1  0  0  0  0
  3  4  1  0  0  0  0
  3 27  1  0  0  0  0
  3 28  1  0  0  0  0
  4  5  1  0  0  0  0
  4 29  1  0  0  0  0
  4 30  1  0  0  0  0
  5 22  1  0  0  0  0
  5  6  1  0  0  0  0
  6  7  2  0  0  0  0
  7  8  1  0  0  0  0
  7 20  1  0  0  0  0
  8  9  2  0  0  0  0
  8 10  1  0  0  0  0
 10 11  1  0  0  0  0
 11 12  1  0  0  0  0
 11 31  1  0  0  0  0
 11 32  1  0  0  0  0
 12 13  1  0  0  0  0
 12 14  1  0  0  0  0
 12 33  1  0  0  0  0
 13 34  1  0  0  0  0
 13 35  1  0  0  0  0
 13 36  1  0  0  0  0
 14 19  1  0  0  0  0
 14 15  1  0  0  0  0
 14 47  1  0  0  0  0
 15 16  1  0  0  0  0
 15 37  1  0  0  0  0
 15 38  1  0  0  0  0
 16 17  1  0  0  0  0
 16 39  1  0  0  0  0
 16 40  1  0  0  0  0
 17 18  1  0  0  0  0
 18 19  1  0  0  0  0
 18 41  1  0  0  0  0
 18 42  1  0  0  0  0
 19 43  1  0  0  0  0
 19 44  1  0  0  0  0
 20 21  2  0  0  0  0
 20 45  1  0  0  0  0
 21 22  1  0  0  0  0
 21 46  1  0  0  0  0
 22 23  2  0  0  0  0
M  CHG  1  10  -1
M  CHG  1  14   1
M  END
> <s_m_source_file>
AV-unprocessed.smi

> <i_m_source_file_index>
1958

> <i_lp_mmshare_version>
43012

> <i_f3d_flags>
0

> <s_epik_input>
W0NIM11PW0NIMl1bQ0gyXW4xbmMoW2NIXVtjSF1jMT1PKUMoPU8pW05IXVtDSDJdW0NASF0oW0NIM10pTjJbQ0gyXVtDSDJdT1tDSDJdW0NIMl0y

> <s_epik_cmdline>
J2VwaWtfcHl0aG9uJywgJy1waCcsICc3LjAnLCAnLXRuJywgJzgnLCAnLW1hJywgJzIwMCcsICctbWV0YWxfYmluZGluZycsICctaW1hZScsICc8aW5maWxlLm1hZT4nLCAnLW9tYWUnLCAnPG91dGZpbGUubWFlPic=

> <r_lp_tautomer_probability>
1

> <r_epik_Ionization_Penalty>
6.89388

> <r_epik_Ionization_Penalty_Charging>
6.89388

> <r_epik_Ionization_Penalty_Neutral>
1.08445e-11

> <r_epik_State_Penalty>
7.53214

> <r_epik_Charging_Adjusted_Penalty>
14.426

> <i_epik_Tot_Q>
0

> <i_epik_Tot_abs_Q>
2

> <r_epik_Metal_State_Penalty>
3.44743

> <b_epik_Metal_Only>
1

> <s_lp_Force_Field>
OPLS_2005

> <r_lp_Energy>
42.3217

> <b_lp_Chiralities_Consistent>
1

> <s_lp_Variant>
AV-unprocessed.smi:1958-5

> <Gold.Version>
5.8.1

> <Gold.Id.Protein>
6NUR|6NUR_protein|mol2

> <Gold.PLP.Fitness>
47.6309

> <Gold.PLP.PLP>
-39.1204

> <Gold.PLP.part.hbond>
-6.1020

> <Gold.PLP.part.metal>
0.0000

> <Gold.PLP.part.buried>
-2.8286

> <Gold.PLP.part.nonpolar>
-35.5186

> <Gold.PLP.part.repulsive>
4.9463

> <Gold.PLP.ligand.clash>
0.0000

> <Gold.PLP.ligand.torsion>
1.5602

> <Gold.PLP.Chemscore.Hbond>
3.7960

> <Gold.PLP.Chemscore.CHOScore>
0.0000

> <Gold.PLP.Chemscore.Metal>
0.0000

> <Gold.Chemscore.Hbonds>
donor molecule, donor type, donor heavy atom, donor atom, acceptor molecule, acceptor atom, score
      P1  H  7989  7998       L1     6  0.85
      P1  H  7997  8009       L1    23  1.00
      P1  H  8011  8017       L1     9  0.90
      P1  H 10752 10763       L1     2  0.80

> <Gold.PLP.Chemscore.Internal.Correction>
0.2429

> <Gold.Rescore>
     Score         DG    S(hbond)    S(metal)    S(lipo)     H(rot)  DE(clash)    DE(int)     intcor
     12.00     -16.20       2.17        0.00      74.94       2.07       2.83       1.37       ----

> <Gold.Chemscore.Fitness>
12.0016

> <Gold.Chemscore.DG>
-16.2010

> <Gold.Chemscore.ZeroCoef>
-5.4800

> <Gold.Chemscore.Hbond>
2.1693

> <Gold.Chemscore.Metal>
0.0000

> <Gold.Chemscore.Lipo>
74.9383

> <Gold.Chemscore.Internal_Hbond>
0.0000

> <Gold.Chemscore.DEClash>
2.8343

> <Gold.Chemscore.DEInternal>
1.3651

> <Gold.Chemscore.Rot>
2.0673

> <Gold.Chemscore.Internal.Correction>
   9.000000E+99

> <Gold.Chemscore.Hbonds>
donor molecule, donor type, donor heavy atom, donor atom, acceptor molecule, acceptor atom, score
      P1  H  7989  7998       L1     6  0.11
      P1  H  7997  8009       L1    23  0.48
      P1  H  8011  8017       L1     9  0.83
      P1  H 10752 10763       L1     2  0.06

> <Gold.Chemscore.Hbond.Weighted>
-7.2456

> <Gold.Chemscore.Metal.Weighted>
-0.0000

> <Gold.Chemscore.Lipo.Weighted>
-8.7678

> <Gold.Chemscore.Internal_Hbond.Weighted>
0.0000

> <Gold.Chemscore.DEClash.Weighted>
2.8343

> <Gold.Chemscore.DEInternal.Weighted>
1.3651

> <Gold.Chemscore.Rot.Weighted>
5.2923

> <Gold.Chemscore.Internal.Correction.Weighted>
   9.000000E+99

> <Gold.Protein.RotatedTorsions>
[ 6907 6896 6895 6894 ] final   -4.08 input  -60.11 | X-H torsion
[ 7974 7965 7964 7962 ] final  -18.43 input  175.53 | X-H torsion
[ 8008 7997 7996 7995 ] final -177.23 input   59.86 | X-H torsion
[ 10167 10162 10161 10158 ] final   46.96 input  -65.29 | X-H torsion
[ 10718 10713 10712 10709 ] final   18.32 input   66.30 | X-H torsion
[ 10763 10752 10751 10750 ] final   78.29 input  -60.55 | X-H torsion
[ 11005 11000 10999 10996 ] final   49.22 input  -57.11 | X-H torsion

> <Gold.Protein.ActiveResidues>
 VAL166  LYS551  ARG553  GLY616  TRP617  ASP618  TYR619  PRO620  LYS621  CYS622 
 ASP623  PHE694  ASN695  SER759  ASP760  ASP761  ALA762  ILE779  LEU786  VAL792 
 PHE793  MET794  SER795  GLU796  ALA797  LYS798  CYS799  TRP800  GLU811  SER814 

> <Gold.Protein.RotatedAtoms>
  151.5035  135.1062  159.9834 H   0  0  0  0  0  0  0  0  0  0  0  0  # atno 6907 bound_to 6896
  152.4692  133.7987  159.6951 H   0  0  0  0  0  0  0  0  0  0  0  0  # atno 6908 bound_to 6896
  150.8691  133.7468  159.2993 H   0  0  0  0  0  0  0  0  0  0  0  0  # atno 6909 bound_to 6896
  146.1892  140.3920  142.8464 H   0  0  0  0  0  0  0  0  0  0  0  0  # atno 7974 bound_to 7965
  156.0045  140.1227  157.0515 H   0  0  0  0  0  0  0  0  0  0  0  0  # atno 8008 bound_to 7997
  154.4254  140.1100  156.5812 H   0  0  0  0  0  0  0  0  0  0  0  0  # atno 8009 bound_to 7997
  155.6166  140.3472  155.4641 H   0  0  0  0  0  0  0  0  0  0  0  0  # atno 8010 bound_to 7997
  140.3085  144.2848  150.6204 H   0  0  0  0  0  0  0  0  0  0  0  0  # atno 10167 bound_to 10162
  157.0947  130.6442  149.5857 H   0  0  0  0  0  0  0  0  0  0  0  0  # atno 10718 bound_to 10713
  153.0863  135.4882  154.8603 H   0  0  0  0  0  0  0  0  0  0  0  0  # atno 10763 bound_to 10752
  154.7215  135.3040  154.9042 H   0  0  0  0  0  0  0  0  0  0  0  0  # atno 10764 bound_to 10752
  153.9705  135.6801  153.4800 H   0  0  0  0  0  0  0  0  0  0  0  0  # atno 10765 bound_to 10752
  140.1123  134.4939  155.8667 H   0  0  0  0  0  0  0  0  0  0  0  0  # atno 11005 bound_to 11000
  144.8455  140.6922  143.6202 LP  0  0  0  0  0  0  0  0  0  0  0  0  # atno 17320 bound_to 7965
  145.3844  139.1630  143.4263 LP  0  0  0  0  0  0  0  0  0  0  0  0  # atno 17321 bound_to 7965
  140.5589  143.2195  151.7800 LP  0  0  0  0  0  0  0  0  0  0  0  0  # atno 17342 bound_to 10162
  139.4899  144.4376  151.9801 LP  0  0  0  0  0  0  0  0  0  0  0  0  # atno 17343 bound_to 10162
  155.9889  130.4934  150.7190 LP  0  0  0  0  0  0  0  0  0  0  0  0  # atno 17370 bound_to 10713
  157.4691  131.0891  151.0662 LP  0  0  0  0  0  0  0  0  0  0  0  0  # atno 17371 bound_to 10713
  141.2133  133.6731  156.6728 LP  0  0  0  0  0  0  0  0  0  0  0  0  # atno 17394 bound_to 11000
  140.3075  134.8113  157.4149 LP  0  0  0  0  0  0  0  0  0  0  0  0  # atno 17395 bound_to 11000

$$$$
