AV-unprocessed.smi:3113|AV-procd|sdf|11853|dock8
  -GOLD-   2272017233D 1   1.00000     0.00000
 Structure written by MMmdl.
 35 36  0  0  0  0  0  0  0  0  2 V2000
  152.8557  143.2320  160.5960 C   0  0  0  0  0  0  0  0  0  0  0  0
  152.5450  144.2661  159.6689 C   0  0  0  0  0  0  0  0  0  0  0  0
  151.8808  143.8223  158.6136 N   0  0  0  0  0  0  0  0  0  0  0  0
  151.7492  142.4960  158.8299 N   0  0  0  0  0  0  0  0  0  0  0  0
  151.0560  141.6760  157.8559 C   0  0  0  0  0  0  0  0  0  0  0  0
  150.7231  142.4678  156.5837 C   0  0  0  0  0  0  0  0  0  0  0  0
  149.3738  142.1325  156.0903 N   0  3  0  0  0  0  0  0  0  0  0  0
  149.3675  141.2337  154.9193 C   0  0  0  0  0  0  0  0  0  0  0  0
  150.1757  139.9585  155.1980 C   0  0  1  0  0  0  0  0  0  0  0  0
  149.8305  138.8289  154.2085 C   0  0  0  0  0  0  0  0  0  0  0  0
  150.7143  137.6024  154.4626 C   0  0  0  0  0  0  0  0  0  0  0  0
  152.1899  138.0155  154.4521 C   0  0  0  0  0  0  0  0  0  0  0  0
  152.4233  139.1946  155.4103 C   0  0  0  0  0  0  0  0  0  0  0  0
  151.5604  140.2764  155.0714 O   0  0  0  0  0  0  0  0  0  0  0  0
  152.3289  142.1111  160.0207 C   0  0  0  0  0  0  0  0  0  0  0  0
  153.3831  143.3026  161.5359 H   0  0  0  0  0  0  0  0  0  0  0  0
  152.7795  145.3186  159.7317 H   0  0  0  0  0  0  0  0  0  0  0  0
  151.6809  140.8135  157.6186 H   0  0  0  0  0  0  0  0  0  0  0  0
  150.1447  141.2902  158.3145 H   0  0  0  0  0  0  0  0  0  0  0  0
  150.7761  143.5384  156.7870 H   0  0  0  0  0  0  0  0  0  0  0  0
  151.4526  142.2497  155.8023 H   0  0  0  0  0  0  0  0  0  0  0  0
  148.8606  141.6849  156.8368 H   0  0  0  0  0  0  0  0  0  0  0  0
  148.3341  140.9720  154.6878 H   0  0  0  0  0  0  0  0  0  0  0  0
  149.7701  141.7560  154.0500 H   0  0  0  0  0  0  0  0  0  0  0  0
  149.9702  139.6219  156.2162 H   0  0  0  0  0  0  0  0  0  0  0  0
  148.7791  138.5536  154.2987 H   0  0  0  0  0  0  0  0  0  0  0  0
  149.9757  139.1773  153.1849 H   0  0  0  0  0  0  0  0  0  0  0  0
  150.4625  137.1622  155.4283 H   0  0  0  0  0  0  0  0  0  0  0  0
  150.5282  136.8354  153.7105 H   0  0  0  0  0  0  0  0  0  0  0  0
  152.8202  137.1709  154.7318 H   0  0  0  0  0  0  0  0  0  0  0  0
  152.4831  138.3039  153.4418 H   0  0  0  0  0  0  0  0  0  0  0  0
  152.2570  138.8943  156.4460 H   0  0  0  0  0  0  0  0  0  0  0  0
  153.4569  139.5339  155.3407 H   0  0  0  0  0  0  0  0  0  0  0  0
  152.3176  141.0848  160.3572 H   0  0  0  0  0  0  0  0  0  0  0  0
  148.9001  142.9888  155.8409 H   0  0  0  0  0  0  0  0  0  0  0  0
  1 15  2  0  0  0  0
  1  2  1  0  0  0  0
  1 16  1  0  0  0  0
  2  3  2  0  0  0  0
  2 17  1  0  0  0  0
  3  4  1  0  0  0  0
  4  5  1  0  0  0  0
  4 15  1  0  0  0  0
  5  6  1  0  0  0  0
  5 18  1  0  0  0  0
  5 19  1  0  0  0  0
  6  7  1  0  0  0  0
  6 20  1  0  0  0  0
  6 21  1  0  0  0  0
  7  8  1  0  0  0  0
  7 22  1  0  0  0  0
  7 35  1  0  0  0  0
  8  9  1  0  0  0  0
  8 23  1  0  0  0  0
  8 24  1  0  0  0  0
  9 14  1  0  0  0  0
  9 10  1  0  0  0  0
  9 25  1  0  0  0  0
 10 11  1  0  0  0  0
 10 26  1  0  0  0  0
 10 27  1  0  0  0  0
 11 12  1  0  0  0  0
 11 28  1  0  0  0  0
 11 29  1  0  0  0  0
 12 13  1  0  0  0  0
 12 30  1  0  0  0  0
 12 31  1  0  0  0  0
 13 14  1  0  0  0  0
 13 32  1  0  0  0  0
 13 33  1  0  0  0  0
 15 34  1  0  0  0  0
M  CHG  1   7   1
M  END
> <s_m_source_file>
AV-unprocessed.smi

> <i_m_source_file_index>
3113

> <i_lp_mmshare_version>
43012

> <i_f3d_flags>
0

> <s_epik_input>
W2NIXTFbY0hdW2NIXW5uMVtDSDJdW0NIMl1bTkhdW0NIMl1bQ0BASF0yW0NIMl1bQ0gyXVtDSDJdW0NIMl1PMg==

> <s_epik_cmdline>
J2VwaWtfcHl0aG9uJywgJy1waCcsICc3LjAnLCAnLXRuJywgJzgnLCAnLW1hJywgJzIwMCcsICctbWV0YWxfYmluZGluZycsICctaW1hZScsICc8aW5maWxlLm1hZT4nLCAnLW9tYWUnLCAnPG91dGZpbGUubWFlPic=

> <r_lp_tautomer_probability>
1

> <r_epik_Ionization_Penalty>
0.00849054

> <r_epik_Ionization_Penalty_Charging>
0.00848754

> <r_epik_Ionization_Penalty_Neutral>
3.00382e-06

> <r_epik_State_Penalty>
0.00639836

> <r_epik_Charging_Adjusted_Penalty>
0.0148859

> <i_epik_Tot_Q>
1

> <i_epik_Tot_abs_Q>
1

> <r_epik_Metal_State_Penalty>
0.00641155

> <b_epik_Metal_Only>
0

> <s_lp_Force_Field>
OPLS_2005

> <r_lp_Energy>
10.7636

> <b_lp_Chiralities_Consistent>
1

> <s_lp_Variant>
AV-unprocessed.smi:3113-2

> <Gold.Version>
5.8.1

> <Gold.Id.Protein>
6NUR|6NUR_protein|mol2

> <Gold.PLP.Fitness>
44.0320

> <Gold.PLP.PLP>
-36.8004

> <Gold.PLP.part.hbond>
-2.0000

> <Gold.PLP.part.metal>
0.0000

> <Gold.PLP.part.buried>
-2.1662

> <Gold.PLP.part.nonpolar>
-32.9956

> <Gold.PLP.part.repulsive>
0.1908

> <Gold.PLP.ligand.clash>
0.0000

> <Gold.PLP.ligand.torsion>
0.8191

> <Gold.PLP.Chemscore.Hbond>
2.9440

> <Gold.PLP.Chemscore.CHOScore>
0.0000

> <Gold.PLP.Chemscore.Metal>
0.0000

> <Gold.Chemscore.Hbonds>
donor molecule, donor type, donor heavy atom, donor atom, acceptor molecule, acceptor atom, score
      L1  H     7    35       P1  8028  2.00
      P1  H  7989  7998       L1    14  0.96

> <Gold.PLP.Chemscore.Internal.Correction>
0.0378

> <Gold.Rescore>
     Score         DG    S(hbond)    S(metal)    S(lipo)     H(rot)  DE(clash)    DE(int)     intcor
     15.78     -18.02       1.87        0.00      91.04       1.70       0.05       2.19       ----

> <Gold.Chemscore.Fitness>
15.7827

> <Gold.Chemscore.DG>
-18.0164

> <Gold.Chemscore.ZeroCoef>
-5.4800

> <Gold.Chemscore.Hbond>
1.8663

> <Gold.Chemscore.Metal>
0.0000

> <Gold.Chemscore.Lipo>
91.0361

> <Gold.Chemscore.Internal_Hbond>
0.0000

> <Gold.Chemscore.DEClash>
0.0456

> <Gold.Chemscore.DEInternal>
2.1881

> <Gold.Chemscore.Rot>
1.6985

> <Gold.Chemscore.Internal.Correction>
   9.000000E+99

> <Gold.Chemscore.Hbonds>
donor molecule, donor type, donor heavy atom, donor atom, acceptor molecule, acceptor atom, score
      L1  H     7    35       P1  8028  0.96
      P1  H  7989  7998       L1    14  0.34

> <Gold.Chemscore.Hbond.Weighted>
-6.2334

> <Gold.Chemscore.Metal.Weighted>
-0.0000

> <Gold.Chemscore.Lipo.Weighted>
-10.6512

> <Gold.Chemscore.Internal_Hbond.Weighted>
0.0000

> <Gold.Chemscore.DEClash.Weighted>
0.0456

> <Gold.Chemscore.DEInternal.Weighted>
2.1881

> <Gold.Chemscore.Rot.Weighted>
4.3482

> <Gold.Chemscore.Internal.Correction.Weighted>
   9.000000E+99

> <Gold.Protein.RotatedTorsions>
[ 6907 6896 6895 6894 ] final  143.77 input  -60.11 | X-H torsion
[ 7974 7965 7964 7962 ] final   -2.32 input  175.53 | X-H torsion
[ 8008 7997 7996 7995 ] final  -93.40 input   59.86 | X-H torsion
[ 10167 10162 10161 10158 ] final  -60.55 input  -65.29 | X-H torsion
[ 10718 10713 10712 10709 ] final  167.42 input   66.30 | X-H torsion
[ 10763 10752 10751 10750 ] final  117.91 input  -60.55 | X-H torsion
[ 11005 11000 10999 10996 ] final -129.54 input  -57.11 | X-H torsion

> <Gold.Protein.ActiveResidues>
 VAL166  LYS551  ARG553  GLY616  TRP617  ASP618  TYR619  PRO620  LYS621  CYS622 
 ASP623  PHE694  ASN695  SER759  ASP760  ASP761  ALA762  ILE779  LEU786  VAL792 
 PHE793  MET794  SER795  GLU796  ALA797  LYS798  CYS799  TRP800  GLU811  SER814 

> <Gold.Protein.RotatedAtoms>
  152.2021  133.4848  159.5063 H   0  0  0  0  0  0  0  0  0  0  0  0  # atno 6907 bound_to 6896
  150.6972  134.1577  159.4173 H   0  0  0  0  0  0  0  0  0  0  0  0  # atno 6908 bound_to 6896
  151.9495  135.0175  160.0592 H   0  0  0  0  0  0  0  0  0  0  0  0  # atno 6909 bound_to 6896
  146.2406  140.1554  142.8333 H   0  0  0  0  0  0  0  0  0  0  0  0  # atno 7974 bound_to 7965
  154.7351  140.0499  157.0762 H   0  0  0  0  0  0  0  0  0  0  0  0  # atno 8008 bound_to 7997
  155.0250  140.3151  155.4760 H   0  0  0  0  0  0  0  0  0  0  0  0  # atno 8009 bound_to 7997
  156.2851  140.2160  156.5370 H   0  0  0  0  0  0  0  0  0  0  0  0  # atno 8010 bound_to 7997
  140.6064  143.2374  151.5812 H   0  0  0  0  0  0  0  0  0  0  0  0  # atno 10167 bound_to 10162
  157.0517  131.0315  151.2678 H   0  0  0  0  0  0  0  0  0  0  0  0  # atno 10718 bound_to 10713
  153.5595  135.3523  155.2793 H   0  0  0  0  0  0  0  0  0  0  0  0  # atno 10763 bound_to 10752
  154.8697  135.4133  154.2846 H   0  0  0  0  0  0  0  0  0  0  0  0  # atno 10764 bound_to 10752
  153.3589  135.7059  153.6797 H   0  0  0  0  0  0  0  0  0  0  0  0  # atno 10765 bound_to 10752
  140.9423  134.1177  157.4139 H   0  0  0  0  0  0  0  0  0  0  0  0  # atno 11005 bound_to 11000
  145.0133  140.8732  143.5211 LP  0  0  0  0  0  0  0  0  0  0  0  0  # atno 17320 bound_to 7965
  145.1591  139.2469  143.5401 LP  0  0  0  0  0  0  0  0  0  0  0  0  # atno 17321 bound_to 7965
  139.5328  144.2867  152.1185 LP  0  0  0  0  0  0  0  0  0  0  0  0  # atno 17342 bound_to 10162
  140.2058  144.4613  150.6409 LP  0  0  0  0  0  0  0  0  0  0  0  0  # atno 17343 bound_to 10162
  157.5024  130.7888  149.7619 LP  0  0  0  0  0  0  0  0  0  0  0  0  # atno 17370 bound_to 10713
  156.0005  130.3883  150.2623 LP  0  0  0  0  0  0  0  0  0  0  0  0  # atno 17371 bound_to 10713
  139.8823  135.0040  156.6224 LP  0  0  0  0  0  0  0  0  0  0  0  0  # atno 17394 bound_to 11000
  140.7717  133.8733  155.8497 LP  0  0  0  0  0  0  0  0  0  0  0  0  # atno 17395 bound_to 11000

$$$$
