AV-unprocessed.smi:281|AV-procd|sdf|2111|dock4
  -GOLD-   2262021403D 1   1.00000     0.00000
 Structure written by MMmdl.
 55 59  0  0  0  0  0  0  0  0  1 V2000
  154.9952  140.8746  160.2249 C   0  0  0  0  0  0  0  0  0  0  0  0
  153.5626  141.4006  160.0937 C   0  0  2  0  0  0  0  0  0  0  0  0
  152.7228  140.5409  159.1329 C   0  0  0  0  0  0  0  0  0  0  0  0
  151.4097  141.1429  158.9379 N   0  0  0  0  0  0  0  0  0  0  0  0
  150.4850  140.3266  158.3725 C   0  0  0  0  0  0  0  0  0  0  0  0
  150.7783  139.0178  158.1467 N   0  0  0  0  0  0  0  0  0  0  0  0
  149.8682  138.2066  157.6001 C   0  0  0  0  0  0  0  0  0  0  0  0
  148.6248  138.4910  157.2088 N   0  0  0  0  0  0  0  0  0  0  0  0
  148.3253  139.8033  157.4269 C   0  0  0  0  0  0  0  0  0  0  0  0
  149.1904  140.7815  157.9940 C   0  0  0  0  0  0  0  0  0  0  0  0
  148.5475  142.0129  158.0366 N   0  0  0  0  0  0  0  0  0  0  0  0
  147.3673  141.7737  157.5345 C   0  0  0  0  0  0  0  0  0  0  0  0
  147.1410  140.4685  157.1592 N   0  0  0  0  0  0  0  0  0  0  0  0
  145.9177  139.9260  156.5873 C   0  0  0  0  0  0  0  0  0  0  0  0
  145.5665  140.4725  155.1778 C   0  0  2  0  0  0  0  0  0  0  0  0
  144.3241  139.9106  154.8030 O   0  0  0  0  0  0  0  0  0  0  0  0
  146.6114  140.1634  154.1056 C   0  0  0  0  0  0  0  0  0  0  0  0
  147.4285  141.4538  153.9690 C   0  0  0  0  0  0  0  0  0  0  0  0
  146.8296  142.4001  154.8452 O   0  0  0  0  0  0  0  0  0  0  0  0
  145.4922  142.0007  155.0984 C   0  0  0  0  0  0  0  0  0  0  0  0
  151.4817  142.5262  158.4766 C   0  0  0  0  0  0  0  0  0  0  0  0
  152.3556  143.3754  159.4341 C   0  0  2  0  0  0  0  0  0  0  0  0
  151.6778  143.6413  160.7756 C   0  0  0  0  0  0  0  0  0  0  0  0
  150.8100  144.8607  160.4885 C   0  0  0  0  0  0  0  0  0  0  0  0
  151.5106  145.6028  159.4983 O   0  0  0  0  0  0  0  0  0  0  0  0
  152.5811  144.8272  158.9655 C   0  0  2  0  0  0  0  0  0  0  0  0
  152.7207  145.0553  157.4534 C   0  0  0  0  0  0  0  0  0  0  0  0
  153.6267  142.7417  159.6081 O   0  0  0  0  0  0  0  0  0  0  0  0
  155.0048  139.8546  160.6093 H   0  0  0  0  0  0  0  0  0  0  0  0
  155.5769  141.4939  160.9082 H   0  0  0  0  0  0  0  0  0  0  0  0
  155.5044  140.8737  159.2608 H   0  0  0  0  0  0  0  0  0  0  0  0
  153.1052  141.3920  161.0839 H   0  0  0  0  0  0  0  0  0  0  0  0
  153.2204  140.4645  158.1651 H   0  0  0  0  0  0  0  0  0  0  0  0
  152.6432  139.5281  159.5264 H   0  0  0  0  0  0  0  0  0  0  0  0
  150.1806  137.1826  157.4575 H   0  0  0  0  0  0  0  0  0  0  0  0
  146.6219  142.5484  157.4307 H   0  0  0  0  0  0  0  0  0  0  0  0
  146.0184  138.8402  156.5506 H   0  0  0  0  0  0  0  0  0  0  0  0
  145.1002  140.1288  157.2806 H   0  0  0  0  0  0  0  0  0  0  0  0
  143.9841  140.3980  154.0682 H   0  0  0  0  0  0  0  0  0  0  0  0
  147.2281  139.2992  154.3518 H   0  0  0  0  0  0  0  0  0  0  0  0
  146.1360  139.9487  153.1469 H   0  0  0  0  0  0  0  0  0  0  0  0
  148.4742  141.3072  154.2404 H   0  0  0  0  0  0  0  0  0  0  0  0
  147.3937  141.8269  152.9449 H   0  0  0  0  0  0  0  0  0  0  0  0
  144.8775  142.3196  154.2546 H   0  0  0  0  0  0  0  0  0  0  0  0
  145.0868  142.4634  155.9979 H   0  0  0  0  0  0  0  0  0  0  0  0
  151.9131  142.5224  157.4751 H   0  0  0  0  0  0  0  0  0  0  0  0
  150.4811  142.9527  158.3950 H   0  0  0  0  0  0  0  0  0  0  0  0
  151.1032  142.7973  161.1587 H   0  0  0  0  0  0  0  0  0  0  0  0
  152.4270  143.9009  161.5251 H   0  0  0  0  0  0  0  0  0  0  0  0
  149.8447  144.5578  160.0813 H   0  0  0  0  0  0  0  0  0  0  0  0
  150.6270  145.4602  161.3806 H   0  0  0  0  0  0  0  0  0  0  0  0
  153.4851  145.1999  159.4505 H   0  0  0  0  0  0  0  0  0  0  0  0
  153.5232  144.4456  157.0375 H   0  0  0  0  0  0  0  0  0  0  0  0
  152.9537  146.0991  157.2422 H   0  0  0  0  0  0  0  0  0  0  0  0
  151.7995  144.8141  156.9228 H   0  0  0  0  0  0  0  0  0  0  0  0
  1  2  1  0  0  0  0
  1 29  1  0  0  0  0
  1 30  1  0  0  0  0
  1 31  1  0  0  0  0
  2 28  1  0  0  0  0
  2  3  1  0  0  0  0
  2 32  1  0  0  0  0
  3  4  1  0  0  0  0
  3 33  1  0  0  0  0
  3 34  1  0  0  0  0
  4  5  1  0  0  0  0
  4 21  1  0  0  0  0
  5 10  1  0  0  0  0
  5  6  2  0  0  0  0
  6  7  1  0  0  0  0
  7  8  2  0  0  0  0
  7 35  1  0  0  0  0
  8  9  1  0  0  0  0
  9 13  1  0  0  0  0
  9 10  2  0  0  0  0
 10 11  1  0  0  0  0
 11 12  2  0  0  0  0
 12 13  1  0  0  0  0
 12 36  1  0  0  0  0
 13 14  1  0  0  0  0
 14 15  1  0  0  0  0
 14 37  1  0  0  0  0
 14 38  1  0  0  0  0
 15 20  1  0  0  0  0
 15 16  1  0  0  0  0
 15 17  1  0  0  0  0
 16 39  1  0  0  0  0
 17 18  1  0  0  0  0
 17 40  1  0  0  0  0
 17 41  1  0  0  0  0
 18 19  1  0  0  0  0
 18 42  1  0  0  0  0
 18 43  1  0  0  0  0
 19 20  1  0  0  0  0
 20 44  1  0  0  0  0
 20 45  1  0  0  0  0
 21 22  1  0  0  0  0
 21 46  1  0  0  0  0
 21 47  1  0  0  0  0
 22 26  1  0  0  0  0
 22 23  1  0  0  0  0
 22 28  1  0  0  0  0
 23 24  1  0  0  0  0
 23 48  1  0  0  0  0
 23 49  1  0  0  0  0
 24 25  1  0  0  0  0
 24 50  1  0  0  0  0
 24 51  1  0  0  0  0
 25 26  1  0  0  0  0
 26 27  1  0  0  0  0
 26 52  1  0  0  0  0
 27 53  1  0  0  0  0
 27 54  1  0  0  0  0
 27 55  1  0  0  0  0
M  END
> <s_m_source_file>
AV-unprocessed.smi

> <i_m_source_file_index>
281

> <i_lp_mmshare_version>
43012

> <i_f3d_flags>
0

> <s_epik_input>
W0NIM11bQ0BASF0xT1tDSDJdW0NIMl1bQ0BAXTEyW0NIMl1OKFtDSDJdW0NASF0oTzIpW0NIM10pYyhuW2NIXW4zKWMoYzM0KW5bY0hdbjRbQ0gyXVtDQEBdNShbT0hdKVtDSDJdW0NIMl1PW0NIMl01

> <s_epik_cmdline>
J2VwaWtfcHl0aG9uJywgJy1waCcsICc3LjAnLCAnLXRuJywgJzgnLCAnLW1hJywgJzIwMCcsICctbWV0YWxfYmluZGluZycsICctaW1hZScsICc8aW5maWxlLm1hZT4nLCAnLW9tYWUnLCAnPG91dGZpbGUubWFlPic=

> <r_lp_tautomer_probability>
1

> <r_epik_Ionization_Penalty>
0.00571331

> <r_epik_Ionization_Penalty_Charging>
0

> <r_epik_Ionization_Penalty_Neutral>
0.00571331

> <r_epik_State_Penalty>
0.00399586

> <r_epik_Charging_Adjusted_Penalty>
0.00399586

> <i_epik_Tot_Q>
0

> <i_epik_Tot_abs_Q>
0

> <r_epik_Metal_State_Penalty>
-0

> <b_epik_Metal_Only>
0

> <s_lp_Force_Field>
OPLS_2005

> <r_lp_Energy>
56.9308

> <b_lp_Chiralities_Consistent>
1

> <s_lp_Variant>
AV-unprocessed.smi:281-11

> <Gold.Version>
5.8.1

> <Gold.Id.Protein>
6NUR|6NUR_protein|mol2

> <Gold.PLP.Fitness>
43.0031

> <Gold.PLP.PLP>
-40.5465

> <Gold.PLP.part.hbond>
-1.7796

> <Gold.PLP.part.metal>
0.0000

> <Gold.PLP.part.buried>
-8.2991

> <Gold.PLP.part.nonpolar>
-31.6709

> <Gold.PLP.part.repulsive>
0.4679

> <Gold.PLP.ligand.clash>
0.0000

> <Gold.PLP.ligand.torsion>
0.4192

> <Gold.PLP.Chemscore.Hbond>
1.0000

> <Gold.PLP.Chemscore.CHOScore>
0.0000

> <Gold.PLP.Chemscore.Metal>
0.0000

> <Gold.Chemscore.Hbonds>
donor molecule, donor type, donor heavy atom, donor atom, acceptor molecule, acceptor atom, score
      L1  H    16    39       P1 10175  1.00

> <Gold.PLP.Chemscore.Internal.Correction>
0.2951

> <Gold.Rescore>
     Score         DG    S(hbond)    S(metal)    S(lipo)     H(rot)  DE(clash)    DE(int)     intcor
     12.88     -17.00       1.00        0.00     115.71       2.09       0.08       4.04       ----

> <Gold.Chemscore.Fitness>
12.8765

> <Gold.Chemscore.DG>
-16.9953

> <Gold.Chemscore.ZeroCoef>
-5.4800

> <Gold.Chemscore.Hbond>
0.9983

> <Gold.Chemscore.Metal>
0.0000

> <Gold.Chemscore.Lipo>
115.7120

> <Gold.Chemscore.Internal_Hbond>
0.0000

> <Gold.Chemscore.DEClash>
0.0771

> <Gold.Chemscore.DEInternal>
4.0417

> <Gold.Chemscore.Rot>
2.0927

> <Gold.Chemscore.Internal.Correction>
   9.000000E+99

> <Gold.Chemscore.Hbonds>
donor molecule, donor type, donor heavy atom, donor atom, acceptor molecule, acceptor atom, score
      L1  H    16    39       P1 10175  0.93

> <Gold.Chemscore.Hbond.Weighted>
-3.3344

> <Gold.Chemscore.Metal.Weighted>
-0.0000

> <Gold.Chemscore.Lipo.Weighted>
-13.5383

> <Gold.Chemscore.Internal_Hbond.Weighted>
0.0000

> <Gold.Chemscore.DEClash.Weighted>
0.0771

> <Gold.Chemscore.DEInternal.Weighted>
4.0417

> <Gold.Chemscore.Rot.Weighted>
5.3573

> <Gold.Chemscore.Internal.Correction.Weighted>
   9.000000E+99

> <Gold.Protein.RotatedTorsions>
[ 6907 6896 6895 6894 ] final  -45.92 input  -60.11 | X-H torsion
[ 7974 7965 7964 7962 ] final   99.50 input  175.53 | X-H torsion
[ 8008 7997 7996 7995 ] final  -15.91 input   59.86 | X-H torsion
[ 10167 10162 10161 10158 ] final   28.77 input  -65.29 | X-H torsion
[ 10718 10713 10712 10709 ] final   85.30 input   66.30 | X-H torsion
[ 10763 10752 10751 10750 ] final  173.33 input  -60.55 | X-H torsion
[ 11005 11000 10999 10996 ] final -162.62 input  -57.11 | X-H torsion

> <Gold.Protein.ActiveResidues>
 VAL166  LYS551  ARG553  GLY616  TRP617  ASP618  TYR619  PRO620  LYS621  CYS622 
 ASP623  PHE694  ASN695  SER759  ASP760  ASP761  ALA762  ILE779  LEU786  VAL792 
 PHE793  MET794  SER795  GLU796  ALA797  LYS798  CYS799  TRP800  GLU811  SER814 

> <Gold.Protein.RotatedAtoms>
  150.9167  134.8585  159.7461 H   0  0  0  0  0  0  0  0  0  0  0  0  # atno 6907 bound_to 6896
  152.4972  134.4278  159.9512 H   0  0  0  0  0  0  0  0  0  0  0  0  # atno 6908 bound_to 6896
  151.4316  133.3629  159.2804 H   0  0  0  0  0  0  0  0  0  0  0  0  # atno 6909 bound_to 6896
  145.3980  139.2352  143.3315 H   0  0  0  0  0  0  0  0  0  0  0  0  # atno 7974 bound_to 7965
  154.5094  140.2184  155.9187 H   0  0  0  0  0  0  0  0  0  0  0  0  # atno 8008 bound_to 7997
  156.1533  140.3157  155.8651 H   0  0  0  0  0  0  0  0  0  0  0  0  # atno 8009 bound_to 7997
  155.3896  140.0477  157.3032 H   0  0  0  0  0  0  0  0  0  0  0  0  # atno 8010 bound_to 7997
  140.4824  144.0596  150.6269 H   0  0  0  0  0  0  0  0  0  0  0  0  # atno 10167 bound_to 10162
  157.6912  131.0169  150.2801 H   0  0  0  0  0  0  0  0  0  0  0  0  # atno 10718 bound_to 10713
  154.4385  135.2761  155.1864 H   0  0  0  0  0  0  0  0  0  0  0  0  # atno 10763 bound_to 10752
  154.3740  135.6102  153.5759 H   0  0  0  0  0  0  0  0  0  0  0  0  # atno 10764 bound_to 10752
  152.9839  135.5864  154.4709 H   0  0  0  0  0  0  0  0  0  0  0  0  # atno 10765 bound_to 10752
  140.6072  134.4886  157.5212 H   0  0  0  0  0  0  0  0  0  0  0  0  # atno 11005 bound_to 11000
  146.2766  140.4673  142.8793 LP  0  0  0  0  0  0  0  0  0  0  0  0  # atno 17320 bound_to 7965
  144.8394  140.6833  143.6239 LP  0  0  0  0  0  0  0  0  0  0  0  0  # atno 17321 bound_to 7965
  140.3841  143.2787  152.0136 LP  0  0  0  0  0  0  0  0  0  0  0  0  # atno 17342 bound_to 10162
  139.4836  144.6131  151.7397 LP  0  0  0  0  0  0  0  0  0  0  0  0  # atno 17343 bound_to 10162
  156.3349  130.3806  149.7458 LP  0  0  0  0  0  0  0  0  0  0  0  0  # atno 17370 bound_to 10713
  156.4986  130.8118  151.3123 LP  0  0  0  0  0  0  0  0  0  0  0  0  # atno 17371 bound_to 10713
  139.9207  134.8154  156.1220 LP  0  0  0  0  0  0  0  0  0  0  0  0  # atno 17394 bound_to 11000
  141.0832  133.6745  156.2381 LP  0  0  0  0  0  0  0  0  0  0  0  0  # atno 17395 bound_to 11000

$$$$
