#       Name:                AV-unprocessed.smi:3238
#       Creating user name   scv26
#       Creation time:       Fri Mar 27 18:23:48 2020


#       File generated by GOLD software.
#

@<TRIPOS>MOLECULE
AV-unprocessed.smi:3238
    43    45     1
SMALL
NO_CHARGES


@<TRIPOS>ATOM
      1 ****        -5.6670   3.9047   1.3204 C.3            1 S1                 0.0000
      2 ****        -5.0625   2.5957   1.1256 N.am           1 S1                 0.0000
      3 ****        -3.7905   2.2984   1.4285 C.2            1 S1                 0.0000
      4 ****        -3.0088   3.1186   1.9132 O.2            1 S1                 0.0000
      5 ****        -3.3553   0.8548   1.1422 C.3            1 S1                 0.0000
      6 ****        -1.8663   0.6927   1.1409 C.2            1 S1                 0.0000
      7 ****        -1.2162   0.2819   2.2239 N.2            1 S1                 0.0000
      8 ****         0.1227   0.2569   1.8084 O.3            1 S1                 0.0000
      9 ****         0.1166   0.6615   0.5155 C.2            1 S1                 0.0000
     10 ****         1.4066   0.7070  -0.2360 C.3            1 S1                 0.0000
     11 ****         1.7211  -0.6009  -0.9904 C.3            1 S1                 0.0000
     12 ****         3.0030  -0.5009  -1.8488 C.3            1 S1                 0.0000
     13 ****         3.8493  -1.6893  -1.3571 C.3            1 S1                 0.0000
     14 ****         3.2010  -3.0080  -1.8166 C.3            1 S1                 0.0000
     15 ****         1.9550  -3.1034  -0.9159 C.3            1 S1                 0.0000
     16 ****         2.0398  -1.8120  -0.0798 C.3            1 S1                 0.0000
     17 ****         3.5453  -1.6894   0.1352 C.3            1 S1                 0.0000
     18 ****        -1.0975   0.9287   0.0410 N.2            1 S1                 0.0000
     19 ****        -6.6990   3.8932   0.9703 H              1 S1                 0.0000
     20 ****        -5.1265   4.6700   0.7619 H              1 S1                 0.0000
     21 ****        -5.6675   4.1789   2.3761 H              1 S1                 0.0000
     22 ****        -5.6472   1.8701   0.7368 H              1 S1                 0.0000
     23 ****        -3.7957   0.1952   1.8911 H              1 S1                 0.0000
     24 ****        -3.7475   0.5408   0.1738 H              1 S1                 0.0000
     25 ****         1.3515   1.5332  -0.9458 H              1 S1                 0.0000
     26 ****         2.2084   0.9557   0.4598 H              1 S1                 0.0000
     27 ****         0.8698  -0.8319  -1.6329 H              1 S1                 0.0000
     28 ****         2.7919  -0.5580  -2.9173 H              1 S1                 0.0000
     29 ****         3.5304   0.4370  -1.6681 H              1 S1                 0.0000
     30 ****         4.9062  -1.6082  -1.6123 H              1 S1                 0.0000
     31 ****         2.9493  -2.9962  -2.8778 H              1 S1                 0.0000
     32 ****         3.8678  -3.8528  -1.6394 H              1 S1                 0.0000
     33 ****         1.0293  -3.1714  -1.4885 H              1 S1                 0.0000
     34 ****         2.0139  -3.9838  -0.2745 H              1 S1                 0.0000
     35 ****         1.4478  -1.8594   0.8339 H              1 S1                 0.0000
     36 ****         3.9781  -2.5401   0.6647 H              1 S1                 0.0000
     37 ****         3.8432  -0.7683   0.6384 H              1 S1                 0.0000
     38 ****        -3.3147   4.0527   2.0971 LP             1 S1                 0.0000
     39 ****        -2.0686   2.8500   2.1226 LP             1 S1                 0.0000
     40 ****        -1.5916   0.0468   3.1205 LP             1 S1                 0.0000
     41 ****         0.4926  -0.6693   1.8815 LP             1 S1                 0.0000
     42 ****         0.6717   0.8800   2.3655 LP             1 S1                 0.0000
     43 ****        -1.3714   1.2229  -0.8746 LP             1 S1                 0.0000
@<TRIPOS>BOND
    1    1    2 1     
    2    1   19 1     
    3    1   20 1     
    4    1   21 1     
    5    2    3 am    
    6    2   22 1     
    7    3    4 2     
    8    3    5 1     
    9    5    6 1     
   10    5   23 1     
   11    5   24 1     
   12    6   18 1     
   13    6    7 2     
   14    7    8 1     
   15    8    9 1     
   16    9   10 1     
   17    9   18 2     
   18   10   11 1     
   19   10   25 1     
   20   10   26 1     
   21   11   16 1     
   22   11   12 1     
   23   11   27 1     
   24   12   13 1     
   25   12   28 1     
   26   12   29 1     
   27   13   17 1     
   28   13   14 1     
   29   13   30 1     
   30   14   15 1     
   31   14   31 1     
   32   14   32 1     
   33   15   16 1     
   34   15   33 1     
   35   15   34 1     
   36   16   17 1     
   37   16   35 1     
   38   17   36 1     
   39   17   37 1     
   40    4   38 1     
   41    4   39 1     
   42    7   40 1     
   43    8   41 1     
   44    8   42 1     
   45   18   43 1     
@<TRIPOS>SUBSTRUCTURE
      1 S1             1
@<TRIPOS>SET
LONE_PAIRS      STATIC     ATOMS    <user>   **** ""
6 38 39 40 41 42 43
DONOR_HYDROGENS      STATIC     ATOMS    <user>   **** ""
1 22
ATOM$BLUE        STATIC     ATOMS    COLORGROUP SYSTEM
6 38 39 40 41 42 43
ATOM$RED        STATIC     ATOMS    COLORGROUP SYSTEM
1 22
