#       Name:                AV-unprocessed.smi:1230
#       Creating user name   scv26
#       Creation time:       Fri Mar 27 04:22:58 2020


#       File generated by GOLD software.
#

@<TRIPOS>MOLECULE
AV-unprocessed.smi:1230
    46    47     1
SMALL
NO_CHARGES


@<TRIPOS>ATOM
      1 ****        -2.2641   0.8152  -2.4914 C.3            1 S1                 0.0000
      2 ****        -2.7044   0.9488  -1.0242 C.3            1 S1                 0.0000
      3 ****        -3.5064   2.2494  -0.8148 C.3            1 S1                 0.0000
      4 ****        -3.9528   2.4157   0.6453 C.3            1 S1                 0.0000
      5 ****        -2.7503   2.3648   1.5972 C.3            1 S1                 0.0000
      6 ****        -1.9521   1.0668   1.4072 C.3            1 S1                 0.0000
      7 ****        -1.4995   0.8872  -0.0579 C.3            1 S1                 0.0000
      8 ****        -0.8807  -0.3842  -0.2143 O.3            1 S1                 0.0000
      9 ****         0.4885  -0.4226   0.1572 C.3            1 S1                 0.0000
     10 ****         1.0185  -1.8428  -0.0908 C.3            1 S1                 0.0000
     11 ****         2.4261  -1.9728   0.1915 N.am           1 S1                 0.0000
     12 ****         3.3915  -1.9193  -0.8021 C.2            1 S1                 0.0000
     13 ****         4.7165  -2.0231  -0.5430 C.2            1 S1                 0.0000
     14 ****         5.6978  -1.9653  -1.5753 C.1            1 S1                 0.0000
     15 ****         6.4758  -1.9146  -2.4306 N.1            1 S1                 0.0000
     16 ****         5.1988  -2.1974   0.8260 C.2            1 S1                 0.0000
     17 ****         6.3764  -2.3037   1.1635 O.2            1 S1                 0.0000
     18 ****         4.1882  -2.2369   1.7922 N.am           1 S1                 0.0000
     19 ****         2.8186  -2.1284   1.5419 C.2            1 S1                 0.0000
     20 ****         2.0192  -2.1671   2.4773 O.2            1 S1                 0.0000
     21 ****         4.4736  -2.3509   2.7540 H              1 S1                 0.0000
     22 ****        -1.5830   1.6180  -2.7750 H              1 S1                 0.0000
     23 ****        -3.1219   0.8535  -3.1632 H              1 S1                 0.0000
     24 ****        -1.7538  -0.1317  -2.6692 H              1 S1                 0.0000
     25 ****        -3.3641   0.1094  -0.7983 H              1 S1                 0.0000
     26 ****        -2.8996   3.1074  -1.1072 H              1 S1                 0.0000
     27 ****        -4.3818   2.2566  -1.4652 H              1 S1                 0.0000
     28 ****        -4.4836   3.3603   0.7666 H              1 S1                 0.0000
     29 ****        -4.6601   1.6270   0.9048 H              1 S1                 0.0000
     30 ****        -2.1022   3.2232   1.4161 H              1 S1                 0.0000
     31 ****        -3.0898   2.4451   2.6301 H              1 S1                 0.0000
     32 ****        -1.0929   1.0753   2.0772 H              1 S1                 0.0000
     33 ****        -2.5666   0.2165   1.7061 H              1 S1                 0.0000
     34 ****        -0.8020   1.6832  -0.3263 H              1 S1                 0.0000
     35 ****         1.0552   0.2941  -0.4392 H              1 S1                 0.0000
     36 ****         0.6097  -0.1479   1.2047 H              1 S1                 0.0000
     37 ****         0.4894  -2.5972   0.4956 H              1 S1                 0.0000
     38 ****         0.8901  -2.1235  -1.1373 H              1 S1                 0.0000
     39 ****         3.0794  -1.7869  -1.8286 H              1 S1                 0.0000
     40 ****        -0.9509  -0.6495  -1.1759 LP             1 S1                 0.0000
     41 ****        -1.3761  -1.0442   0.3505 LP             1 S1                 0.0000
     42 ****         7.1480  -1.8708  -3.1696 LP             1 S1                 0.0000
     43 ****         7.0991  -2.2736   0.4730 LP             1 S1                 0.0000
     44 ****         6.6114  -2.4203   2.1285 LP             1 S1                 0.0000
     45 ****         1.0382  -2.0868   2.3003 LP             1 S1                 0.0000
     46 ****         2.3507  -2.2789   3.4141 LP             1 S1                 0.0000
@<TRIPOS>BOND
    1    1    2 1     
    2    1   22 1     
    3    1   23 1     
    4    1   24 1     
    5    2    7 1     
    6    2    3 1     
    7    2   25 1     
    8    3    4 1     
    9    3   26 1     
   10    3   27 1     
   11    4    5 1     
   12    4   28 1     
   13    4   29 1     
   14    5    6 1     
   15    5   30 1     
   16    5   31 1     
   17    6    7 1     
   18    6   32 1     
   19    6   33 1     
   20    7    8 1     
   21    7   34 1     
   22    8    9 1     
   23    9   10 1     
   24    9   35 1     
   25    9   36 1     
   26   10   11 1     
   27   10   37 1     
   28   10   38 1     
   29   11   19 1     
   30   11   12 1     
   31   12   13 2     
   32   12   39 1     
   33   13   14 1     
   34   13   16 1     
   35   14   15 3     
   36   16   17 2     
   37   16   18 1     
   38   18   21 1     
   39   18   19 1     
   40   19   20 2     
   41    8   40 1     
   42    8   41 1     
   43   15   42 1     
   44   17   43 1     
   45   17   44 1     
   46   20   45 1     
   47   20   46 1     
@<TRIPOS>SUBSTRUCTURE
      1 S1             1
@<TRIPOS>SET
LONE_PAIRS      STATIC     ATOMS    <user>   **** ""
7 40 41 42 43 44 45 46
DONOR_HYDROGENS      STATIC     ATOMS    <user>   **** ""
1 21
ATOM$BLUE        STATIC     ATOMS    COLORGROUP SYSTEM
7 40 41 42 43 44 45 46
ATOM$RED        STATIC     ATOMS    COLORGROUP SYSTEM
1 21
