AV-unprocessed.smi:604|AV-procd|sdf|3037|dock3
  -GOLD-   2262023553D 1   1.00000     0.00000
 Structure written by MMmdl.
 49 51  0  0  0  0  0  0  0  0  2 V2000
  146.6078  137.6912  155.6562 O   0  0  0  0  0  0  0  0  0  0  0  0
  146.0368  138.6981  155.2386 C   0  0  0  0  0  0  0  0  0  0  0  0
  144.8115  138.7261  154.6869 N   0  0  0  0  0  0  0  0  0  0  0  0
  143.9175  137.6432  154.4681 C   0  0  0  0  0  0  0  0  0  0  0  0
  143.9849  136.5424  155.3467 C   0  0  0  0  0  0  0  0  0  0  0  0
  143.1220  135.4488  155.1448 C   0  0  0  0  0  0  0  0  0  0  0  0
  142.2262  135.4947  154.0593 C   0  0  0  0  0  0  0  0  0  0  0  0
  142.1594  136.5321  153.1984 N   0  0  0  0  0  0  0  0  0  0  0  0
  142.9891  137.5789  153.3992 C   0  0  0  0  0  0  0  0  0  0  0  0
  146.5865  139.9210  155.2633 N   0  0  0  0  0  0  0  0  0  0  0  0
  147.9248  140.2296  155.7589 C   0  0  2  0  0  0  0  0  0  0  0  0
  147.8658  140.8468  157.1682 C   0  0  0  0  0  0  0  0  0  0  0  0
  149.2655  141.2633  157.6521 C   0  0  0  0  0  0  0  0  0  0  0  0
  149.9104  142.1986  156.6941 N   0  3  1  0  0  0  0  0  0  0  0  0
  151.2047  142.7343  157.1901 C   0  0  0  0  0  0  0  0  0  0  0  0
  151.0853  143.2932  158.6208 C   0  0  0  0  0  0  0  0  0  0  0  0
  151.0649  144.8214  158.7252 C   0  0  0  0  0  0  0  0  0  0  0  0
  151.4457  145.1271  160.1772 C   0  0  0  0  0  0  0  0  0  0  0  0
  152.2315  143.9072  160.6799 C   0  0  0  0  0  0  0  0  0  0  0  0
  152.2666  142.9101  159.5167 C   0  0  0  0  0  0  0  0  0  0  0  0
  150.0107  141.6044  155.3352 C   0  0  0  0  0  0  0  0  0  0  0  0
  148.6252  141.2061  154.8008 C   0  0  0  0  0  0  0  0  0  0  0  0
  144.5099  139.6158  154.3177 H   0  0  0  0  0  0  0  0  0  0  0  0
  144.6846  136.5356  156.1701 H   0  0  0  0  0  0  0  0  0  0  0  0
  143.1467  134.5948  155.8053 H   0  0  0  0  0  0  0  0  0  0  0  0
  141.5495  134.6736  153.8739 H   0  0  0  0  0  0  0  0  0  0  0  0
  142.9074  138.3647  152.6647 H   0  0  0  0  0  0  0  0  0  0  0  0
  146.0463  140.6912  154.8967 H   0  0  0  0  0  0  0  0  0  0  0  0
  148.5108  139.3088  155.7970 H   0  0  0  0  0  0  0  0  0  0  0  0
  147.2096  141.7186  157.1649 H   0  0  0  0  0  0  0  0  0  0  0  0
  147.4325  140.1374  157.8743 H   0  0  0  0  0  0  0  0  0  0  0  0
  149.1760  141.7414  158.6284 H   0  0  0  0  0  0  0  0  0  0  0  0
  149.8969  140.3830  157.7845 H   0  0  0  0  0  0  0  0  0  0  0  0
  151.9467  141.9345  157.2098 H   0  0  0  0  0  0  0  0  0  0  0  0
  151.6030  143.4850  156.5054 H   0  0  0  0  0  0  0  0  0  0  0  0
  150.1765  142.9021  159.0815 H   0  0  0  0  0  0  0  0  0  0  0  0
  151.8147  145.2504  158.0588 H   0  0  0  0  0  0  0  0  0  0  0  0
  150.0979  145.2482  158.4571 H   0  0  0  0  0  0  0  0  0  0  0  0
  152.0255  146.0475  160.2524 H   0  0  0  0  0  0  0  0  0  0  0  0
  150.5468  145.2581  160.7807 H   0  0  0  0  0  0  0  0  0  0  0  0
  153.2381  144.1756  161.0024 H   0  0  0  0  0  0  0  0  0  0  0  0
  151.7213  143.4678  161.5379 H   0  0  0  0  0  0  0  0  0  0  0  0
  152.2147  141.8754  159.8570 H   0  0  0  0  0  0  0  0  0  0  0  0
  153.2025  143.0284  158.9682 H   0  0  0  0  0  0  0  0  0  0  0  0
  150.4699  142.3133  154.6471 H   0  0  0  0  0  0  0  0  0  0  0  0
  150.6637  140.7305  155.3660 H   0  0  0  0  0  0  0  0  0  0  0  0
  148.7283  140.7529  153.8141 H   0  0  0  0  0  0  0  0  0  0  0  0
  148.0162  142.1019  154.6686 H   0  0  0  0  0  0  0  0  0  0  0  0
  149.2896  142.9921  156.6224 H   0  0  0  0  0  0  0  0  0  0  0  0
  1  2  2  0  0  0  0
  2  3  1  0  0  0  0
  2 10  1  0  0  0  0
  3  4  1  0  0  0  0
  3 23  1  0  0  0  0
  4  9  1  0  0  0  0
  4  5  2  0  0  0  0
  5  6  1  0  0  0  0
  5 24  1  0  0  0  0
  6  7  2  0  0  0  0
  6 25  1  0  0  0  0
  7  8  1  0  0  0  0
  7 26  1  0  0  0  0
  8  9  2  0  0  0  0
  9 27  1  0  0  0  0
 10 11  1  0  0  0  0
 10 28  1  0  0  0  0
 11 22  1  0  0  0  0
 11 12  1  0  0  0  0
 11 29  1  0  0  0  0
 12 13  1  0  0  0  0
 12 30  1  0  0  0  0
 12 31  1  0  0  0  0
 13 14  1  0  0  0  0
 13 32  1  0  0  0  0
 13 33  1  0  0  0  0
 14 15  1  0  0  0  0
 14 21  1  0  0  0  0
 14 49  1  0  0  0  0
 15 16  1  0  0  0  0
 15 34  1  0  0  0  0
 15 35  1  0  0  0  0
 16 20  1  0  0  0  0
 16 17  1  0  0  0  0
 16 36  1  0  0  0  0
 17 18  1  0  0  0  0
 17 37  1  0  0  0  0
 17 38  1  0  0  0  0
 18 19  1  0  0  0  0
 18 39  1  0  0  0  0
 18 40  1  0  0  0  0
 19 20  1  0  0  0  0
 19 41  1  0  0  0  0
 19 42  1  0  0  0  0
 20 43  1  0  0  0  0
 20 44  1  0  0  0  0
 21 22  1  0  0  0  0
 21 45  1  0  0  0  0
 21 46  1  0  0  0  0
 22 47  1  0  0  0  0
 22 48  1  0  0  0  0
M  CHG  1  14   1
M  END
> <s_m_source_file>
AV-unprocessed.smi

> <i_m_source_file_index>
604

> <i_lp_mmshare_version>
43012

> <i_f3d_flags>
0

> <s_epik_input>
W2NIXTFuW2NIXVtjSF1bY0hdYzFbTkhdQyg9TylbTkhdW0NIXTJbQ0gyXVtDSDJdTihbQ0gyXVtDSDJdMilbQ0gyXVtDSF0zW0NIMl1bQ0gyXVtDSDJdW0NIMl0z

> <s_epik_cmdline>
J2VwaWtfcHl0aG9uJywgJy1waCcsICc3LjAnLCAnLXRuJywgJzgnLCAnLW1hJywgJzIwMCcsICctbWV0YWxfYmluZGluZycsICctaW1hZScsICc8aW5maWxlLm1hZT4nLCAnLW9tYWUnLCAnPG91dGZpbGUubWFlPic=

> <r_lp_tautomer_probability>
1

> <r_epik_Ionization_Penalty>
0.00608112

> <r_epik_Ionization_Penalty_Charging>
0.00207989

> <r_epik_Ionization_Penalty_Neutral>
0.00400122

> <r_epik_State_Penalty>
-0

> <r_epik_Charging_Adjusted_Penalty>
0.00207989

> <i_epik_Tot_Q>
1

> <i_epik_Tot_abs_Q>
1

> <r_epik_Metal_State_Penalty>
-0

> <b_epik_Metal_Only>
0

> <s_lp_Force_Field>
OPLS_2005

> <r_lp_Energy>
41.6956

> <b_lp_Chiralities_Consistent>
1

> <s_lp_Variant>
AV-unprocessed.smi:604-1

> <Gold.Version>
5.8.1

> <Gold.Id.Protein>
6NUR|6NUR_protein|mol2

> <Gold.PLP.Fitness>
45.9237

> <Gold.PLP.PLP>
-33.3634

> <Gold.PLP.part.hbond>
-2.0000

> <Gold.PLP.part.metal>
0.0000

> <Gold.PLP.part.buried>
-3.0635

> <Gold.PLP.part.nonpolar>
-27.2062

> <Gold.PLP.part.repulsive>
0.2578

> <Gold.PLP.ligand.clash>
0.0000

> <Gold.PLP.ligand.torsion>
1.0623

> <Gold.PLP.Chemscore.Hbond>
2.9360

> <Gold.PLP.Chemscore.CHOScore>
1.9417

> <Gold.PLP.Chemscore.Metal>
0.0000

> <Gold.Chemscore.Hbonds>
donor molecule, donor type, donor heavy atom, donor atom, acceptor molecule, acceptor atom, score
      L1  H     3    23       P1 10175  0.49
      L1  H    14    49       P1  8028  1.86
      L1  C     9    27       P1 10175  1.00

> <Gold.PLP.Chemscore.Internal.Correction>
0.0517

> <Gold.Rescore>
     Score         DG    S(hbond)    S(metal)    S(lipo)     H(rot)  DE(clash)    DE(int)     intcor
     18.63     -19.95       1.87        0.00      99.60       1.35       0.07       1.25       ----

> <Gold.Chemscore.Fitness>
18.6278

> <Gold.Chemscore.DG>
-19.9494

> <Gold.Chemscore.ZeroCoef>
-5.4800

> <Gold.Chemscore.Hbond>
1.8744

> <Gold.Chemscore.Metal>
0.0000

> <Gold.Chemscore.Lipo>
99.6015

> <Gold.Chemscore.Internal_Hbond>
0.0000

> <Gold.Chemscore.DEClash>
0.0699

> <Gold.Chemscore.DEInternal>
1.2518

> <Gold.Chemscore.Rot>
1.3455

> <Gold.Chemscore.Internal.Correction>
   9.000000E+99

> <Gold.Chemscore.Hbonds>
donor molecule, donor type, donor heavy atom, donor atom, acceptor molecule, acceptor atom, score
      L1  H     3    23       P1 10175  0.48
      L1  H    14    49       P1  8028  0.84

> <Gold.Chemscore.Hbond.Weighted>
-6.2605

> <Gold.Chemscore.Metal.Weighted>
-0.0000

> <Gold.Chemscore.Lipo.Weighted>
-11.6534

> <Gold.Chemscore.Internal_Hbond.Weighted>
0.0000

> <Gold.Chemscore.DEClash.Weighted>
0.0699

> <Gold.Chemscore.DEInternal.Weighted>
1.2518

> <Gold.Chemscore.Rot.Weighted>
3.4445

> <Gold.Chemscore.Internal.Correction.Weighted>
   9.000000E+99

> <Gold.Protein.RotatedTorsions>
[ 6907 6896 6895 6894 ] final  152.48 input  -60.11 | X-H torsion
[ 7974 7965 7964 7962 ] final -117.53 input  175.53 | X-H torsion
[ 8008 7997 7996 7995 ] final  153.45 input   59.86 | X-H torsion
[ 10167 10162 10161 10158 ] final  -43.19 input  -65.29 | X-H torsion
[ 10718 10713 10712 10709 ] final  -69.97 input   66.30 | X-H torsion
[ 10763 10752 10751 10750 ] final  -27.90 input  -60.55 | X-H torsion
[ 11005 11000 10999 10996 ] final -168.60 input  -57.11 | X-H torsion

> <Gold.Protein.ActiveResidues>
 VAL166  LYS551  ARG553  GLY616  TRP617  ASP618  TYR619  PRO620  LYS621  CYS622 
 ASP623  PHE694  ASN695  SER759  ASP760  ASP761  ALA762  ILE779  LEU786  VAL792 
 PHE793  MET794  SER795  GLU796  ALA797  LYS798  CYS799  TRP800  GLU811  SER814 

> <Gold.Protein.RotatedAtoms>
  152.0861  133.4177  159.4522 H   0  0  0  0  0  0  0  0  0  0  0  0  # atno 6907 bound_to 6896
  150.6862  134.2925  159.4682 H   0  0  0  0  0  0  0  0  0  0  0  0  # atno 6908 bound_to 6896
  152.0772  134.9494  160.0624 H   0  0  0  0  0  0  0  0  0  0  0  0  # atno 6909 bound_to 6896
  145.0842  140.8446  143.4021 H   0  0  0  0  0  0  0  0  0  0  0  0  # atno 7974 bound_to 7965
  156.2581  140.1993  156.6493 H   0  0  0  0  0  0  0  0  0  0  0  0  # atno 8008 bound_to 7997
  154.6549  140.0567  157.0022 H   0  0  0  0  0  0  0  0  0  0  0  0  # atno 8009 bound_to 7997
  155.1362  140.3238  155.4465 H   0  0  0  0  0  0  0  0  0  0  0  0  # atno 8010 bound_to 7997
  140.6943  143.2996  151.3316 H   0  0  0  0  0  0  0  0  0  0  0  0  # atno 10167 bound_to 10162
  156.0430  130.4322  150.2227 H   0  0  0  0  0  0  0  0  0  0  0  0  # atno 10718 bound_to 10713
  153.7395  135.6933  153.4970 H   0  0  0  0  0  0  0  0  0  0  0  0  # atno 10763 bound_to 10752
  153.2079  135.4413  155.0343 H   0  0  0  0  0  0  0  0  0  0  0  0  # atno 10764 bound_to 10752
  154.8225  135.3429  154.6922 H   0  0  0  0  0  0  0  0  0  0  0  0  # atno 10765 bound_to 10752
  140.5402  134.5530  157.5097 H   0  0  0  0  0  0  0  0  0  0  0  0  # atno 11005 bound_to 11000
  145.1142  139.2737  143.5622 LP  0  0  0  0  0  0  0  0  0  0  0  0  # atno 17320 bound_to 7965
  146.3531  140.0747  142.8621 LP  0  0  0  0  0  0  0  0  0  0  0  0  # atno 17321 bound_to 7965
  139.6379  144.0595  152.2531 LP  0  0  0  0  0  0  0  0  0  0  0  0  # atno 17342 bound_to 10162
  140.0091  144.6237  150.7663 LP  0  0  0  0  0  0  0  0  0  0  0  0  # atno 17343 bound_to 10162
  157.0320  131.0010  151.3309 LP  0  0  0  0  0  0  0  0  0  0  0  0  # atno 17370 bound_to 10713
  157.5271  130.8034  149.7874 LP  0  0  0  0  0  0  0  0  0  0  0  0  # atno 17371 bound_to 10713
  139.9508  134.7620  156.0453 LP  0  0  0  0  0  0  0  0  0  0  0  0  # atno 17394 bound_to 11000
  141.1231  133.6607  156.3267 LP  0  0  0  0  0  0  0  0  0  0  0  0  # atno 17395 bound_to 11000

$$$$
