AV-unprocessed.smi:1632|AV-procd|sdf|6528|dock9
  -GOLD-   22720 7203D 1   1.00000     0.00000
 Structure written by MMmdl.
 42 44  0  0  0  0  0  0  0  0  1 V2000
  151.8502  136.6737  154.2446 O   0  0  0  0  0  0  0  0  0  0  0  0
  151.0304  136.7359  155.3921 C   0  0  0  0  0  0  0  0  0  0  0  0
  151.5090  137.8455  156.3391 C   0  0  0  0  0  0  0  0  0  0  0  0
  151.7677  139.1845  155.6279 C   0  0  0  0  0  0  0  0  0  0  0  0
  150.5021  139.8492  155.1630 C   0  0  0  0  0  0  0  0  0  0  0  0
  149.6811  139.2255  154.3163 N   0  0  0  0  0  0  0  0  0  0  0  0
  148.6658  140.1418  154.1360 C   0  0  0  0  0  0  0  0  0  0  0  0
  147.4887  140.0670  153.3574 C   0  0  0  0  0  0  0  0  0  0  0  0
  146.5848  141.1490  153.3247 C   0  0  0  0  0  0  0  0  0  0  0  0
  146.8458  142.3186  154.0675 C   0  0  0  0  0  0  0  0  0  0  0  0
  148.0139  142.4132  154.8480 C   0  0  0  0  0  0  0  0  0  0  0  0
  148.9121  141.3291  154.8790 C   0  0  0  0  0  0  0  0  0  0  0  0
  150.1243  141.1060  155.5265 N   0  0  0  0  0  0  0  0  0  0  0  0
  150.7970  142.0737  156.3868 C   0  0  0  0  0  0  0  0  0  0  0  0
  150.6693  141.7321  157.8846 C   0  0  2  0  0  0  0  0  0  0  0  0
  149.3504  141.2802  158.1165 O   0  0  0  0  0  0  0  0  0  0  0  0
  151.0420  142.8958  158.7950 C   0  0  0  0  0  0  0  0  0  0  0  0
  150.3381  144.1179  158.7093 C   0  0  0  0  0  0  0  0  0  0  0  0
  150.6685  145.1920  159.5580 C   0  0  0  0  0  0  0  0  0  0  0  0
  151.7069  145.0526  160.4979 C   0  0  0  0  0  0  0  0  0  0  0  0
  152.4173  143.8400  160.5846 C   0  0  0  0  0  0  0  0  0  0  0  0
  152.0901  142.7650  159.7349 C   0  0  0  0  0  0  0  0  0  0  0  0
  152.7907  141.6091  159.8276 F   0  0  0  0  0  0  0  0  0  0  0  0
  151.3183  136.4138  153.5081 H   0  0  0  0  0  0  0  0  0  0  0  0
  150.0065  136.9326  155.0739 H   0  0  0  0  0  0  0  0  0  0  0  0
  151.0303  135.7681  155.8939 H   0  0  0  0  0  0  0  0  0  0  0  0
  150.7885  137.9794  157.1473 H   0  0  0  0  0  0  0  0  0  0  0  0
  152.4322  137.5172  156.8133 H   0  0  0  0  0  0  0  0  0  0  0  0
  152.3274  139.8306  156.2984 H   0  0  0  0  0  0  0  0  0  0  0  0
  152.4073  139.0264  154.7590 H   0  0  0  0  0  0  0  0  0  0  0  0
  147.2812  139.1755  152.7842 H   0  0  0  0  0  0  0  0  0  0  0  0
  145.6882  141.0815  152.7263 H   0  0  0  0  0  0  0  0  0  0  0  0
  146.1493  143.1436  154.0367 H   0  0  0  0  0  0  0  0  0  0  0  0
  148.2161  143.3083  155.4170 H   0  0  0  0  0  0  0  0  0  0  0  0
  151.8367  142.2022  156.0944 H   0  0  0  0  0  0  0  0  0  0  0  0
  150.3302  143.0421  156.2004 H   0  0  0  0  0  0  0  0  0  0  0  0
  151.3157  140.8833  158.1088 H   0  0  0  0  0  0  0  0  0  0  0  0
  149.3821  140.5736  158.7432 H   0  0  0  0  0  0  0  0  0  0  0  0
  149.5401  144.2354  157.9908 H   0  0  0  0  0  0  0  0  0  0  0  0
  150.1255  146.1229  159.4869 H   0  0  0  0  0  0  0  0  0  0  0  0
  151.9614  145.8760  161.1487 H   0  0  0  0  0  0  0  0  0  0  0  0
  153.2178  143.7351  161.3018 H   0  0  0  0  0  0  0  0  0  0  0  0
  1  2  1  0  0  0  0
  1 24  1  0  0  0  0
  2  3  1  0  0  0  0
  2 25  1  0  0  0  0
  2 26  1  0  0  0  0
  3  4  1  0  0  0  0
  3 27  1  0  0  0  0
  3 28  1  0  0  0  0
  4  5  1  0  0  0  0
  4 29  1  0  0  0  0
  4 30  1  0  0  0  0
  5 13  1  0  0  0  0
  5  6  2  0  0  0  0
  6  7  1  0  0  0  0
  7 12  2  0  0  0  0
  7  8  1  0  0  0  0
  8  9  2  0  0  0  0
  8 31  1  0  0  0  0
  9 10  1  0  0  0  0
  9 32  1  0  0  0  0
 10 11  2  0  0  0  0
 10 33  1  0  0  0  0
 11 12  1  0  0  0  0
 11 34  1  0  0  0  0
 12 13  1  0  0  0  0
 13 14  1  0  0  0  0
 14 15  1  0  0  0  0
 14 35  1  0  0  0  0
 14 36  1  0  0  0  0
 15 16  1  0  0  0  0
 15 17  1  0  0  0  0
 15 37  1  0  0  0  0
 16 38  1  0  0  0  0
 17 22  1  0  0  0  0
 17 18  2  0  0  0  0
 18 19  1  0  0  0  0
 18 39  1  0  0  0  0
 19 20  2  0  0  0  0
 19 40  1  0  0  0  0
 20 21  1  0  0  0  0
 20 41  1  0  0  0  0
 21 22  2  0  0  0  0
 21 42  1  0  0  0  0
 22 23  1  0  0  0  0
M  END
> <s_m_source_file>
AV-unprocessed.smi

> <i_m_source_file_index>
1632

> <i_lp_mmshare_version>
43012

> <i_f3d_flags>
0

> <s_epik_input>
W09IXVtDSDJdW0NIMl1bQ0gyXWMobjEpbihjKGMxMilbY0hdW2NIXVtjSF1bY0hdMilbQ0gyXVtDQEhdKFtPSF0pYzNbY0hdW2NIXVtjSF1bY0hdYzNG

> <s_epik_cmdline>
J2VwaWtfcHl0aG9uJywgJy1waCcsICc3LjAnLCAnLXRuJywgJzgnLCAnLW1hJywgJzIwMCcsICctbWV0YWxfYmluZGluZycsICctaW1hZScsICc8aW5maWxlLm1hZT4nLCAnLW9tYWUnLCAnPG91dGZpbGUubWFlPic=

> <r_epik_Ionization_Penalty>
0.182561

> <r_epik_Ionization_Penalty_Charging>
0

> <r_epik_Ionization_Penalty_Neutral>
0.182561

> <r_epik_State_Penalty>
0.172086

> <r_epik_Charging_Adjusted_Penalty>
0.172086

> <i_epik_Tot_Q>
0

> <i_epik_Tot_abs_Q>
0

> <r_epik_Metal_State_Penalty>
0.000199649

> <b_epik_Metal_Only>
0

> <s_lp_Force_Field>
OPLS_2005

> <r_lp_Energy>
12.9461

> <b_lp_Chiralities_Consistent>
1

> <s_lp_Variant>
AV-unprocessed.smi:1632-1

> <Gold.Version>
5.8.1

> <Gold.Id.Protein>
6NUR|6NUR_protein|mol2

> <Gold.PLP.Fitness>
54.4376

> <Gold.PLP.PLP>
-49.4890

> <Gold.PLP.part.hbond>
-2.0000

> <Gold.PLP.part.metal>
0.0000

> <Gold.PLP.part.buried>
0.4485

> <Gold.PLP.part.nonpolar>
-48.6301

> <Gold.PLP.part.repulsive>
0.1799

> <Gold.PLP.ligand.clash>
0.0000

> <Gold.PLP.ligand.torsion>
0.4178

> <Gold.PLP.Chemscore.Hbond>
1.9120

> <Gold.PLP.Chemscore.CHOScore>
0.0000

> <Gold.PLP.Chemscore.Metal>
0.0000

> <Gold.Chemscore.Hbonds>
donor molecule, donor type, donor heavy atom, donor atom, acceptor molecule, acceptor atom, score
      L1  H     1    24       P1  7949  0.89
      P1  H 10752 10764       L1     1  0.94

> <Gold.PLP.Chemscore.Internal.Correction>
0.0483

> <Gold.Rescore>
     Score         DG    S(hbond)    S(metal)    S(lipo)     H(rot)  DE(clash)    DE(int)     intcor
     14.59     -16.92       0.98        0.00     137.00       3.07       1.93       0.40       ----

> <Gold.Chemscore.Fitness>
14.5877

> <Gold.Chemscore.DG>
-16.9209

> <Gold.Chemscore.ZeroCoef>
-5.4800

> <Gold.Chemscore.Hbond>
0.9824

> <Gold.Chemscore.Metal>
0.0000

> <Gold.Chemscore.Lipo>
137.0033

> <Gold.Chemscore.Internal_Hbond>
0.0000

> <Gold.Chemscore.DEClash>
1.9328

> <Gold.Chemscore.DEInternal>
0.4004

> <Gold.Chemscore.Rot>
3.0741

> <Gold.Chemscore.Internal.Correction>
   9.000000E+99

> <Gold.Chemscore.Hbonds>
donor molecule, donor type, donor heavy atom, donor atom, acceptor molecule, acceptor atom, score
      L1  H     1    24       P1  7949  0.54
      P1  H 10752 10764       L1     1  0.46

> <Gold.Chemscore.Hbond.Weighted>
-3.2813

> <Gold.Chemscore.Metal.Weighted>
-0.0000

> <Gold.Chemscore.Lipo.Weighted>
-16.0294

> <Gold.Chemscore.Internal_Hbond.Weighted>
0.0000

> <Gold.Chemscore.DEClash.Weighted>
1.9328

> <Gold.Chemscore.DEInternal.Weighted>
0.4004

> <Gold.Chemscore.Rot.Weighted>
7.8698

> <Gold.Chemscore.Internal.Correction.Weighted>
   9.000000E+99

> <Gold.Protein.RotatedTorsions>
[ 6907 6896 6895 6894 ] final   69.02 input  -60.11 | X-H torsion
[ 7974 7965 7964 7962 ] final  138.02 input  175.53 | X-H torsion
[ 8008 7997 7996 7995 ] final  -70.41 input   59.86 | X-H torsion
[ 10167 10162 10161 10158 ] final  117.50 input  -65.29 | X-H torsion
[ 10718 10713 10712 10709 ] final  128.93 input   66.30 | X-H torsion
[ 10763 10752 10751 10750 ] final  -69.21 input  -60.55 | X-H torsion
[ 11005 11000 10999 10996 ] final  -98.33 input  -57.11 | X-H torsion

> <Gold.Protein.ActiveResidues>
 VAL166  LYS551  ARG553  GLY616  TRP617  ASP618  TYR619  PRO620  LYS621  CYS622 
 ASP623  PHE694  ASN695  SER759  ASP760  ASP761  ALA762  ILE779  LEU786  VAL792 
 PHE793  MET794  SER795  GLU796  ALA797  LYS798  CYS799  TRP800  GLU811  SER814 

> <Gold.Protein.RotatedAtoms>
  152.4659  134.5077  159.9743 H   0  0  0  0  0  0  0  0  0  0  0  0  # atno 6907 bound_to 6896
  151.5115  133.3478  159.2893 H   0  0  0  0  0  0  0  0  0  0  0  0  # atno 6908 bound_to 6896
  150.8643  134.8031  159.7169 H   0  0  0  0  0  0  0  0  0  0  0  0  # atno 6909 bound_to 6896
  144.9412  139.4929  143.5571 H   0  0  0  0  0  0  0  0  0  0  0  0  # atno 7974 bound_to 7965
  154.5010  140.0835  156.7796 H   0  0  0  0  0  0  0  0  0  0  0  0  # atno 8008 bound_to 7997
  155.4004  140.3437  155.4238 H   0  0  0  0  0  0  0  0  0  0  0  0  # atno 8009 bound_to 7997
  156.1456  140.1542  156.8840 H   0  0  0  0  0  0  0  0  0  0  0  0  # atno 8010 bound_to 7997
  139.6174  144.7094  151.2708 H   0  0  0  0  0  0  0  0  0  0  0  0  # atno 10167 bound_to 10162
  157.5200  131.1098  150.9167 H   0  0  0  0  0  0  0  0  0  0  0  0  # atno 10718 bound_to 10713
  154.4002  135.6033  153.5893 H   0  0  0  0  0  0  0  0  0  0  0  0  # atno 10763 bound_to 10752
  152.9788  135.5904  154.4193 H   0  0  0  0  0  0  0  0  0  0  0  0  # atno 10764 bound_to 10752
  154.3991  135.2842  155.2086 H   0  0  0  0  0  0  0  0  0  0  0  0  # atno 10765 bound_to 10752
  141.1348  133.8237  157.0825 H   0  0  0  0  0  0  0  0  0  0  0  0  # atno 11005 bound_to 11000
  146.3286  139.8431  142.8886 LP  0  0  0  0  0  0  0  0  0  0  0  0  # atno 17320 bound_to 7965
  145.2989  141.0188  143.3620 LP  0  0  0  0  0  0  0  0  0  0  0  0  # atno 17321 bound_to 7965
  140.7360  143.6720  150.8073 LP  0  0  0  0  0  0  0  0  0  0  0  0  # atno 17342 bound_to 10162
  140.0325  143.5429  152.2754 LP  0  0  0  0  0  0  0  0  0  0  0  0  # atno 17343 bound_to 10162
  156.9780  130.5516  149.5294 LP  0  0  0  0  0  0  0  0  0  0  0  0  # atno 17370 bound_to 10713
  156.0347  130.5435  150.8623 LP  0  0  0  0  0  0  0  0  0  0  0  0  # atno 17371 bound_to 10713
  140.0443  134.9838  157.1019 LP  0  0  0  0  0  0  0  0  0  0  0  0  # atno 17394 bound_to 11000
  140.4088  134.2004  155.7163 LP  0  0  0  0  0  0  0  0  0  0  0  0  # atno 17395 bound_to 11000

$$$$
