AV-unprocessed.smi:244|AV-procd|sdf|1865|dock2
  -GOLD-   2262020503D 1   1.00000     0.00000
 Structure written by MMmdl.
 57 61  0  0  0  0  0  0  0  0  2 V2000
  151.6503  144.0833  156.4272 C   0  0  0  0  0  0  0  0  0  0  0  0
  150.8061  143.6907  157.5794 N   0  3  2  0  0  0  0  0  0  0  0  0
  151.0213  144.5290  158.7873 C   0  0  0  0  0  0  0  0  0  0  0  0
  152.3193  144.1576  159.5278 C   0  0  0  0  0  0  0  0  0  0  0  0
  152.3346  142.6626  159.8689 C   0  0  2  0  0  0  0  0  0  0  0  0
  153.5659  142.3297  160.5001 O   0  0  0  0  0  0  0  0  0  0  0  0
  153.5993  140.9640  160.9012 C   0  0  0  0  0  0  0  0  0  0  0  0
  153.4534  140.0661  159.6625 C   0  0  0  0  0  0  0  0  0  0  0  0
  152.2339  140.4009  158.9303 N   0  0  0  0  0  0  0  0  0  0  0  0
  151.9821  139.5536  157.9063 C   0  0  0  0  0  0  0  0  0  0  0  0
  152.7100  139.6281  156.7609 N   0  0  0  0  0  0  0  0  0  0  0  0
  152.4411  138.8009  155.7460 C   0  0  0  0  0  0  0  0  0  0  0  0
  151.5034  137.8538  155.6664 N   0  0  0  0  0  0  0  0  0  0  0  0
  150.7689  137.7838  156.8139 C   0  0  0  0  0  0  0  0  0  0  0  0
  150.9393  138.5931  157.9708 C   0  0  0  0  0  0  0  0  0  0  0  0
  150.0016  138.2533  158.9367 N   0  0  0  0  0  0  0  0  0  0  0  0
  149.3156  137.2906  158.3830 C   0  0  0  0  0  0  0  0  0  0  0  0
  149.7149  136.9382  157.1125 N   0  0  0  0  0  0  0  0  0  0  0  0
  149.1329  135.9039  156.2708 C   0  0  0  0  0  0  0  0  0  0  0  0
  149.7699  134.5043  156.4593 C   0  0  0  0  0  0  0  0  0  0  0  0
  149.5297  134.0958  157.7948 O   0  0  0  0  0  0  0  0  0  0  0  0
  149.1694  133.4441  155.5099 C   0  0  0  0  0  0  0  0  0  0  0  0
  149.9496  132.1183  155.5529 C   0  0  0  0  0  0  0  0  0  0  0  0
  151.3247  132.3501  155.2736 O   0  0  0  0  0  0  0  0  0  0  0  0
  151.9485  133.1825  156.2434 C   0  0  0  0  0  0  0  0  0  0  0  0
  151.2944  134.5757  156.2399 C   0  0  0  0  0  0  0  0  0  0  0  0
  152.1660  141.8230  158.5838 C   0  0  1  0  0  0  0  0  0  0  0  0
  150.8481  142.2349  157.8771 C   0  0  0  0  0  0  0  0  0  0  0  0
  152.7100  143.9230  156.6253 H   0  0  0  0  0  0  0  0  0  0  0  0
  151.5064  145.1377  156.1897 H   0  0  0  0  0  0  0  0  0  0  0  0
  151.3807  143.5073  155.5415 H   0  0  0  0  0  0  0  0  0  0  0  0
  151.0237  145.5852  158.5153 H   0  0  0  0  0  0  0  0  0  0  0  0
  150.1712  144.3875  159.4562 H   0  0  0  0  0  0  0  0  0  0  0  0
  153.1874  144.4100  158.9181 H   0  0  0  0  0  0  0  0  0  0  0  0
  152.4043  144.7471  160.4411 H   0  0  0  0  0  0  0  0  0  0  0  0
  151.5148  142.4544  160.5599 H   0  0  0  0  0  0  0  0  0  0  0  0
  154.5461  140.7631  161.4025 H   0  0  0  0  0  0  0  0  0  0  0  0
  152.8070  140.7631  161.6242 H   0  0  0  0  0  0  0  0  0  0  0  0
  154.3236  140.1973  159.0174 H   0  0  0  0  0  0  0  0  0  0  0  0
  153.4298  139.0176  159.9634 H   0  0  0  0  0  0  0  0  0  0  0  0
  153.0652  138.9140  154.8716 H   0  0  0  0  0  0  0  0  0  0  0  0
  148.4974  136.8019  158.8919 H   0  0  0  0  0  0  0  0  0  0  0  0
  148.0646  135.8595  156.4873 H   0  0  0  0  0  0  0  0  0  0  0  0
  149.2169  136.2213  155.2301 H   0  0  0  0  0  0  0  0  0  0  0  0
  148.6549  133.7421  157.8487 H   0  0  0  0  0  0  0  0  0  0  0  0
  148.1218  133.2566  155.7478 H   0  0  0  0  0  0  0  0  0  0  0  0
  149.1894  133.8252  154.4880 H   0  0  0  0  0  0  0  0  0  0  0  0
  149.8405  131.6293  156.5221 H   0  0  0  0  0  0  0  0  0  0  0  0
  149.5518  131.4295  154.8075 H   0  0  0  0  0  0  0  0  0  0  0  0
  151.8874  132.7204  157.2300 H   0  0  0  0  0  0  0  0  0  0  0  0
  153.0079  133.2683  156.0015 H   0  0  0  0  0  0  0  0  0  0  0  0
  151.4985  135.0483  155.2780 H   0  0  0  0  0  0  0  0  0  0  0  0
  151.7606  135.2098  156.9954 H   0  0  0  0  0  0  0  0  0  0  0  0
  153.0037  142.0337  157.9174 H   0  0  0  0  0  0  0  0  0  0  0  0
  149.9970  141.9883  158.5134 H   0  0  0  0  0  0  0  0  0  0  0  0
  150.7045  141.6857  156.9458 H   0  0  0  0  0  0  0  0  0  0  0  0
  149.8599  143.8810  157.2810 H   0  0  0  0  0  0  0  0  0  0  0  0
  1  2  1  0  0  0  0
  1 29  1  0  0  0  0
  1 30  1  0  0  0  0
  1 31  1  0  0  0  0
  2 28  1  0  0  0  0
  2  3  1  0  0  0  0
  2 57  1  0  0  0  0
  3  4  1  0  0  0  0
  3 32  1  0  0  0  0
  3 33  1  0  0  0  0
  4  5  1  0  0  0  0
  4 34  1  0  0  0  0
  4 35  1  0  0  0  0
  5 27  1  0  0  0  0
  5  6  1  0  0  0  0
  5 36  1  0  0  0  0
  6  7  1  0  0  0  0
  7  8  1  0  0  0  0
  7 37  1  0  0  0  0
  7 38  1  0  0  0  0
  8  9  1  0  0  0  0
  8 39  1  0  0  0  0
  8 40  1  0  0  0  0
  9 10  1  0  0  0  0
  9 27  1  0  0  0  0
 10 15  1  0  0  0  0
 10 11  2  0  0  0  0
 11 12  1  0  0  0  0
 12 13  2  0  0  0  0
 12 41  1  0  0  0  0
 13 14  1  0  0  0  0
 14 18  1  0  0  0  0
 14 15  2  0  0  0  0
 15 16  1  0  0  0  0
 16 17  2  0  0  0  0
 17 18  1  0  0  0  0
 17 42  1  0  0  0  0
 18 19  1  0  0  0  0
 19 20  1  0  0  0  0
 19 43  1  0  0  0  0
 19 44  1  0  0  0  0
 20 26  1  0  0  0  0
 20 21  1  0  0  0  0
 20 22  1  0  0  0  0
 21 45  1  0  0  0  0
 22 23  1  0  0  0  0
 22 46  1  0  0  0  0
 22 47  1  0  0  0  0
 23 24  1  0  0  0  0
 23 48  1  0  0  0  0
 23 49  1  0  0  0  0
 24 25  1  0  0  0  0
 25 26  1  0  0  0  0
 25 50  1  0  0  0  0
 25 51  1  0  0  0  0
 26 52  1  0  0  0  0
 26 53  1  0  0  0  0
 27 28  1  0  0  0  0
 27 54  1  0  0  0  0
 28 55  1  0  0  0  0
 28 56  1  0  0  0  0
M  CHG  1   2   1
M  END
> <s_m_source_file>
AV-unprocessed.smi

> <i_m_source_file_index>
244

> <i_lp_mmshare_version>
43012

> <i_f3d_flags>
0

> <s_epik_input>
W0NIMl0xW0NIMl1OKFtDSDNdKVtDSDJdW0NAQEhdKFtDQEhdMTIpTihbQ0gyXVtDSDJdTzIpYyhuW2NIXW4zKWMoYzM0KW5bY0hdbjRbQ0gyXUM1KFtPSF0pW0NIMl1bQ0gyXU9bQ0gyXVtDSDJdNQ==

> <s_epik_cmdline>
J2VwaWtfcHl0aG9uJywgJy1waCcsICc3LjAnLCAnLXRuJywgJzgnLCAnLW1hJywgJzIwMCcsICctbWV0YWxfYmluZGluZycsICctaW1hZScsICc8aW5maWxlLm1hZT4nLCAnLW9tYWUnLCAnPG91dGZpbGUubWFlPic=

> <r_lp_tautomer_probability>
1

> <r_epik_Ionization_Penalty>
0.0136215

> <r_epik_Ionization_Penalty_Charging>
0.0131385

> <r_epik_Ionization_Penalty_Neutral>
0.000483022

> <r_epik_State_Penalty>
0.0104001

> <r_epik_Charging_Adjusted_Penalty>
0.0235387

> <i_epik_Tot_Q>
1

> <i_epik_Tot_abs_Q>
1

> <r_epik_Metal_State_Penalty>
0.0104469

> <b_epik_Metal_Only>
0

> <s_lp_Force_Field>
OPLS_2005

> <r_lp_Energy>
43.138

> <b_lp_Chiralities_Consistent>
1

> <s_lp_Variant>
AV-unprocessed.smi:244-2

> <Gold.Version>
5.8.1

> <Gold.Id.Protein>
6NUR|6NUR_protein|mol2

> <Gold.PLP.Fitness>
48.7719

> <Gold.PLP.PLP>
-37.7959

> <Gold.PLP.part.hbond>
-3.9207

> <Gold.PLP.part.metal>
0.0000

> <Gold.PLP.part.buried>
-5.9671

> <Gold.PLP.part.nonpolar>
-28.1119

> <Gold.PLP.part.repulsive>
0.0227

> <Gold.PLP.ligand.clash>
0.0000

> <Gold.PLP.ligand.torsion>
0.5591

> <Gold.PLP.Chemscore.Hbond>
3.9840

> <Gold.PLP.Chemscore.CHOScore>
0.0000

> <Gold.PLP.Chemscore.Metal>
0.0000

> <Gold.Chemscore.Hbonds>
donor molecule, donor type, donor heavy atom, donor atom, acceptor molecule, acceptor atom, score
      L1  H     2    57       P1  8028  1.47
      P1  H  6896  6908       L1    21  1.00
      P1  H  7997  8010       L1    11  1.00

> <Gold.PLP.Chemscore.Internal.Correction>
0.1422

> <Gold.Rescore>
     Score         DG    S(hbond)    S(metal)    S(lipo)     H(rot)  DE(clash)    DE(int)     intcor
     19.73     -22.40       2.73        0.00     112.29       2.09       2.17       0.50       ----

> <Gold.Chemscore.Fitness>
19.7329

> <Gold.Chemscore.DG>
-22.3999

> <Gold.Chemscore.ZeroCoef>
-5.4800

> <Gold.Chemscore.Hbond>
2.7349

> <Gold.Chemscore.Metal>
0.0000

> <Gold.Chemscore.Lipo>
112.2939

> <Gold.Chemscore.Internal_Hbond>
0.0000

> <Gold.Chemscore.DEClash>
2.1716

> <Gold.Chemscore.DEInternal>
0.4955

> <Gold.Chemscore.Rot>
2.0911

> <Gold.Chemscore.Internal.Correction>
   9.000000E+99

> <Gold.Chemscore.Hbonds>
donor molecule, donor type, donor heavy atom, donor atom, acceptor molecule, acceptor atom, score
      L1  H     2    57       P1  8028  0.55
      P1  H  6896  6908       L1    21  0.97
      P1  H  7997  8010       L1    11  0.40

> <Gold.Chemscore.Hbond.Weighted>
-9.1347

> <Gold.Chemscore.Metal.Weighted>
-0.0000

> <Gold.Chemscore.Lipo.Weighted>
-13.1384

> <Gold.Chemscore.Internal_Hbond.Weighted>
0.0000

> <Gold.Chemscore.DEClash.Weighted>
2.1716

> <Gold.Chemscore.DEInternal.Weighted>
0.4955

> <Gold.Chemscore.Rot.Weighted>
5.3531

> <Gold.Chemscore.Internal.Correction.Weighted>
   9.000000E+99

> <Gold.Protein.RotatedTorsions>
[ 6907 6896 6895 6894 ] final  130.68 input  -60.11 | X-H torsion
[ 7974 7965 7964 7962 ] final -160.95 input  175.53 | X-H torsion
[ 8008 7997 7996 7995 ] final   71.73 input   59.86 | X-H torsion
[ 10167 10162 10161 10158 ] final -159.33 input  -65.29 | X-H torsion
[ 10718 10713 10712 10709 ] final -157.67 input   66.30 | X-H torsion
[ 10763 10752 10751 10750 ] final   -9.90 input  -60.55 | X-H torsion
[ 11005 11000 10999 10996 ] final  122.57 input  -57.11 | X-H torsion

> <Gold.Protein.ActiveResidues>
 VAL166  LYS551  ARG553  GLY616  TRP617  ASP618  TYR619  PRO620  LYS621  CYS622 
 ASP623  PHE694  ASN695  SER759  ASP760  ASP761  ALA762  ILE779  LEU786  VAL792 
 PHE793  MET794  SER795  GLU796  ALA797  LYS798  CYS799  TRP800  GLU811  SER814 

> <Gold.Protein.RotatedAtoms>
  152.3502  133.6170  159.5938 H   0  0  0  0  0  0  0  0  0  0  0  0  # atno 6907 bound_to 6896
  150.7533  133.9586  159.3517 H   0  0  0  0  0  0  0  0  0  0  0  0  # atno 6908 bound_to 6896
  151.7439  135.0849  160.0371 H   0  0  0  0  0  0  0  0  0  0  0  0  # atno 6909 bound_to 6896
  144.7408  140.3467  143.6124 H   0  0  0  0  0  0  0  0  0  0  0  0  # atno 7974 bound_to 7965
  155.7582  140.3487  155.5185 H   0  0  0  0  0  0  0  0  0  0  0  0  # atno 8008 bound_to 7997
  155.8939  140.1022  157.1420 H   0  0  0  0  0  0  0  0  0  0  0  0  # atno 8009 bound_to 7997
  154.4036  140.1299  156.4337 H   0  0  0  0  0  0  0  0  0  0  0  0  # atno 8010 bound_to 7997
  139.6623  143.9890  152.2233 H   0  0  0  0  0  0  0  0  0  0  0  0  # atno 10167 bound_to 10162
  156.5435  130.8574  151.2757 H   0  0  0  0  0  0  0  0  0  0  0  0  # atno 10718 bound_to 10713
  153.4614  135.7016  153.6048 H   0  0  0  0  0  0  0  0  0  0  0  0  # atno 10763 bound_to 10752
  153.4341  135.3795  155.2189 H   0  0  0  0  0  0  0  0  0  0  0  0  # atno 10764 bound_to 10752
  154.8727  135.3958  154.4040 H   0  0  0  0  0  0  0  0  0  0  0  0  # atno 10765 bound_to 10752
  139.9274  134.9641  156.8129 H   0  0  0  0  0  0  0  0  0  0  0  0  # atno 11005 bound_to 11000
  145.7318  139.1738  143.2426 LP  0  0  0  0  0  0  0  0  0  0  0  0  # atno 17320 bound_to 7965
  146.1200  140.7320  142.9462 LP  0  0  0  0  0  0  0  0  0  0  0  0  # atno 17321 bound_to 7965
  139.9632  144.6543  150.8059 LP  0  0  0  0  0  0  0  0  0  0  0  0  # atno 17342 bound_to 10162
  140.7585  143.3109  151.2848 LP  0  0  0  0  0  0  0  0  0  0  0  0  # atno 17343 bound_to 10162
  157.7401  130.9843  150.2354 LP  0  0  0  0  0  0  0  0  0  0  0  0  # atno 17370 bound_to 10713
  156.2949  130.3750  149.7805 LP  0  0  0  0  0  0  0  0  0  0  0  0  # atno 17371 bound_to 10713
  140.6297  133.9917  155.7656 LP  0  0  0  0  0  0  0  0  0  0  0  0  # atno 17394 bound_to 11000
  141.0841  134.0017  157.3341 LP  0  0  0  0  0  0  0  0  0  0  0  0  # atno 17395 bound_to 11000

$$$$
