AV-unprocessed.smi:191|AV-procd|sdf|1494|dock9
  -GOLD-   2262019313D 1   1.00000     0.00000
 Structure written by MMmdl.
 46 48  0  0  0  0  0  0  0  0  1 V2000
  148.7815  138.5708  157.2125 C   0  0  0  0  0  0  0  0  0  0  0  0
  149.3833  138.7240  158.6179 C   0  0  0  0  0  0  0  0  0  0  0  0
  150.0650  137.5115  159.0809 N   0  0  0  0  0  0  0  0  0  0  0  0
  151.4623  137.6250  159.5015 C   0  0  0  0  0  0  0  0  0  0  0  0
  152.0090  139.0607  159.3814 C   0  0  1  0  0  0  0  0  0  0  0  0
  153.1104  139.3231  160.4152 C   0  0  0  0  0  0  0  0  0  0  0  0
  152.4807  139.3824  158.0240 C   0  0  0  0  0  0  0  0  0  0  0  0
  152.8535  139.6377  156.9586 N   0  0  0  0  0  0  0  0  0  0  0  0
  149.3455  136.3785  159.3390 C   0  0  0  0  0  0  0  0  0  0  0  0
  149.3408  135.3908  158.4025 N   0  0  0  0  0  0  0  0  0  0  0  0
  148.6597  134.2593  158.5947 C   0  0  0  0  0  0  0  0  0  0  0  0
  147.9219  133.9010  159.6441 N   0  0  0  0  0  0  0  0  0  0  0  0
  147.9206  134.8735  160.5986 C   0  0  0  0  0  0  0  0  0  0  0  0
  148.5953  136.1291  160.5319 C   0  0  0  0  0  0  0  0  0  0  0  0
  148.3596  136.8333  161.7090 N   0  0  0  0  0  0  0  0  0  0  0  0
  147.5945  136.0512  162.4180 C   0  0  0  0  0  0  0  0  0  0  0  0
  147.2730  134.8549  161.8223 N   0  0  0  0  0  0  0  0  0  0  0  0
  146.4480  133.7955  162.3837 C   0  0  0  0  0  0  0  0  0  0  0  0
  145.0060  133.7730  161.8431 C   0  0  0  0  0  0  0  0  0  0  0  0
  144.7797  132.4385  161.1044 C   0  0  0  0  0  0  0  0  0  0  0  0
  143.4105  132.1767  160.8674 O   0  0  0  0  0  0  0  0  0  0  0  0
  143.9288  134.1810  162.8587 C   0  0  0  0  0  0  0  0  0  0  0  0
  143.3843  135.1809  161.9691 O   0  0  0  0  0  0  0  0  0  0  0  0
  144.5354  135.0364  161.1078 C   0  0  0  0  0  0  0  0  0  0  0  0
  148.2836  139.4910  156.9064 H   0  0  0  0  0  0  0  0  0  0  0  0
  148.0420  137.7711  157.1775 H   0  0  0  0  0  0  0  0  0  0  0  0
  149.5485  138.3492  156.4706 H   0  0  0  0  0  0  0  0  0  0  0  0
  150.0594  139.5791  158.6487 H   0  0  0  0  0  0  0  0  0  0  0  0
  148.5845  138.9670  159.3179 H   0  0  0  0  0  0  0  0  0  0  0  0
  151.5201  137.3215  160.5466 H   0  0  0  0  0  0  0  0  0  0  0  0
  152.1064  136.9197  158.9813 H   0  0  0  0  0  0  0  0  0  0  0  0
  151.1979  139.7610  159.5796 H   0  0  0  0  0  0  0  0  0  0  0  0
  153.4632  140.3531  160.3558 H   0  0  0  0  0  0  0  0  0  0  0  0
  153.9671  138.6679  160.2538 H   0  0  0  0  0  0  0  0  0  0  0  0
  152.7464  139.1560  161.4293 H   0  0  0  0  0  0  0  0  0  0  0  0
  148.7150  133.5381  157.7926 H   0  0  0  0  0  0  0  0  0  0  0  0
  147.2466  136.3287  163.4023 H   0  0  0  0  0  0  0  0  0  0  0  0
  146.9399  132.8396  162.2006 H   0  0  0  0  0  0  0  0  0  0  0  0
  146.4475  133.9212  163.4673 H   0  0  0  0  0  0  0  0  0  0  0  0
  145.2793  132.4358  160.1357 H   0  0  0  0  0  0  0  0  0  0  0  0
  145.1894  131.6044  161.6748 H   0  0  0  0  0  0  0  0  0  0  0  0
  142.9154  132.9548  161.0736 H   0  0  0  0  0  0  0  0  0  0  0  0
  143.2112  133.3956  163.0986 H   0  0  0  0  0  0  0  0  0  0  0  0
  144.3261  134.6283  163.7711 H   0  0  0  0  0  0  0  0  0  0  0  0
  145.2116  135.8866  161.2013 H   0  0  0  0  0  0  0  0  0  0  0  0
  144.2621  134.8711  160.0652 H   0  0  0  0  0  0  0  0  0  0  0  0
  1  2  1  0  0  0  0
  1 25  1  0  0  0  0
  1 26  1  0  0  0  0
  1 27  1  0  0  0  0
  2  3  1  0  0  0  0
  2 28  1  0  0  0  0
  2 29  1  0  0  0  0
  3  4  1  0  0  0  0
  3  9  1  0  0  0  0
  4  5  1  0  0  0  0
  4 30  1  0  0  0  0
  4 31  1  0  0  0  0
  5  6  1  0  0  0  0
  5  7  1  0  0  0  0
  5 32  1  0  0  0  0
  6 33  1  0  0  0  0
  6 34  1  0  0  0  0
  6 35  1  0  0  0  0
  7  8  3  0  0  0  0
  9 14  1  0  0  0  0
  9 10  2  0  0  0  0
 10 11  1  0  0  0  0
 11 12  2  0  0  0  0
 11 36  1  0  0  0  0
 12 13  1  0  0  0  0
 13 17  1  0  0  0  0
 13 14  2  0  0  0  0
 14 15  1  0  0  0  0
 15 16  2  0  0  0  0
 16 17  1  0  0  0  0
 16 37  1  0  0  0  0
 17 18  1  0  0  0  0
 18 19  1  0  0  0  0
 18 38  1  0  0  0  0
 18 39  1  0  0  0  0
 19 24  1  0  0  0  0
 19 20  1  0  0  0  0
 19 22  1  0  0  0  0
 20 21  1  0  0  0  0
 20 40  1  0  0  0  0
 20 41  1  0  0  0  0
 21 42  1  0  0  0  0
 22 23  1  0  0  0  0
 22 43  1  0  0  0  0
 22 44  1  0  0  0  0
 23 24  1  0  0  0  0
 24 45  1  0  0  0  0
 24 46  1  0  0  0  0
M  END
> <s_m_source_file>
AV-unprocessed.smi

> <i_m_source_file_index>
191

> <i_lp_mmshare_version>
43012

> <i_f3d_flags>
0

> <s_epik_input>
TiNDW0NAQEhdKFtDSDNdKVtDSDJdTihbQ0gyXVtDSDNdKWMobltjSF1uMSljKGMxMiluW2NIXW4yW0NIMl1DMyhbQ0gyXVtPSF0pW0NIMl1PW0NIMl0z

> <s_epik_cmdline>
J2VwaWtfcHl0aG9uJywgJy1waCcsICc3LjAnLCAnLXRuJywgJzgnLCAnLW1hJywgJzIwMCcsICctbWV0YWxfYmluZGluZycsICctaW1hZScsICc8aW5maWxlLm1hZT4nLCAnLW9tYWUnLCAnPG91dGZpbGUubWFlPic=

> <r_lp_tautomer_probability>
1

> <r_epik_Ionization_Penalty>
0.000569684

> <r_epik_Ionization_Penalty_Charging>
0

> <r_epik_Ionization_Penalty_Neutral>
0.000569684

> <r_epik_State_Penalty>
0.000286009

> <r_epik_Charging_Adjusted_Penalty>
0.000286009

> <i_epik_Tot_Q>
0

> <i_epik_Tot_abs_Q>
0

> <r_epik_Metal_State_Penalty>
-0

> <b_epik_Metal_Only>
0

> <s_lp_Force_Field>
OPLS_2005

> <r_lp_Energy>
30.7711

> <b_lp_Chiralities_Consistent>
1

> <s_lp_Variant>
AV-unprocessed.smi:191-2

> <Gold.Version>
5.8.1

> <Gold.Id.Protein>
6NUR|6NUR_protein|mol2

> <Gold.PLP.Fitness>
38.6352

> <Gold.PLP.PLP>
-38.6525

> <Gold.PLP.part.hbond>
-4.0712

> <Gold.PLP.part.metal>
0.0000

> <Gold.PLP.part.buried>
-5.2840

> <Gold.PLP.part.nonpolar>
-29.6936

> <Gold.PLP.part.repulsive>
0.0396

> <Gold.PLP.ligand.clash>
0.0000

> <Gold.PLP.ligand.torsion>
3.3967

> <Gold.PLP.Chemscore.Hbond>
2.0278

> <Gold.PLP.Chemscore.CHOScore>
0.0000

> <Gold.PLP.Chemscore.Metal>
0.0000

> <Gold.Chemscore.Hbonds>
donor molecule, donor type, donor heavy atom, donor atom, acceptor molecule, acceptor atom, score
      P1  H  6896  6908       L1    10  0.05
      P1  H  6931  6943       L1    15  1.00
      P1  H  7997  8009       L1     8  1.00

> <Gold.PLP.Chemscore.Internal.Correction>
0.6927

> <Gold.Rescore>
     Score         DG    S(hbond)    S(metal)    S(lipo)     H(rot)  DE(clash)    DE(int)     intcor
      7.22     -10.65       1.99        0.00      55.46       3.11       0.01       3.41       ----

> <Gold.Chemscore.Fitness>
7.2196

> <Gold.Chemscore.DG>
-10.6472

> <Gold.Chemscore.ZeroCoef>
-5.4800

> <Gold.Chemscore.Hbond>
1.9856

> <Gold.Chemscore.Metal>
0.0000

> <Gold.Chemscore.Lipo>
55.4583

> <Gold.Chemscore.Internal_Hbond>
0.0000

> <Gold.Chemscore.DEClash>
0.0135

> <Gold.Chemscore.DEInternal>
3.4141

> <Gold.Chemscore.Rot>
3.1067

> <Gold.Chemscore.Internal.Correction>
   9.000000E+99

> <Gold.Chemscore.Hbonds>
donor molecule, donor type, donor heavy atom, donor atom, acceptor molecule, acceptor atom, score
      P1  H  6931  6943       L1    15  0.94
      P1  H  7997  8009       L1     8  0.98

> <Gold.Chemscore.Hbond.Weighted>
-6.6318

> <Gold.Chemscore.Metal.Weighted>
-0.0000

> <Gold.Chemscore.Lipo.Weighted>
-6.4886

> <Gold.Chemscore.Internal_Hbond.Weighted>
0.0000

> <Gold.Chemscore.DEClash.Weighted>
0.0135

> <Gold.Chemscore.DEInternal.Weighted>
3.4141

> <Gold.Chemscore.Rot.Weighted>
7.9532

> <Gold.Chemscore.Internal.Correction.Weighted>
   9.000000E+99

> <Gold.Protein.RotatedTorsions>
[ 6907 6896 6895 6894 ] final  165.09 input  -60.11 | X-H torsion
[ 7974 7965 7964 7962 ] final -151.81 input  175.53 | X-H torsion
[ 8008 7997 7996 7995 ] final -178.73 input   59.86 | X-H torsion
[ 10167 10162 10161 10158 ] final  -83.87 input  -65.29 | X-H torsion
[ 10718 10713 10712 10709 ] final  -12.26 input   66.30 | X-H torsion
[ 10763 10752 10751 10750 ] final  140.05 input  -60.55 | X-H torsion
[ 11005 11000 10999 10996 ] final  -20.83 input  -57.11 | X-H torsion

> <Gold.Protein.ActiveResidues>
 VAL166  LYS551  ARG553  GLY616  TRP617  ASP618  TYR619  PRO620  LYS621  CYS622 
 ASP623  PHE694  ASN695  SER759  ASP760  ASP761  ALA762  ILE779  LEU786  VAL792 
 PHE793  MET794  SER795  GLU796  ALA797  LYS798  CYS799  TRP800  GLU811  SER814 

> <Gold.Protein.RotatedAtoms>
  151.8998  133.3535  159.3826 H   0  0  0  0  0  0  0  0  0  0  0  0  # atno 6907 bound_to 6896
  150.7083  134.4839  159.5493 H   0  0  0  0  0  0  0  0  0  0  0  0  # atno 6908 bound_to 6896
  152.2426  134.8214  160.0509 H   0  0  0  0  0  0  0  0  0  0  0  0  # atno 6909 bound_to 6896
  144.7829  140.4747  143.5826 H   0  0  0  0  0  0  0  0  0  0  0  0  # atno 7974 bound_to 7965
  156.0222  140.1263  157.0345 H   0  0  0  0  0  0  0  0  0  0  0  0  # atno 8008 bound_to 7997
  154.4316  140.1066  156.6050 H   0  0  0  0  0  0  0  0  0  0  0  0  # atno 8009 bound_to 7997
  155.5928  140.3469  155.4573 H   0  0  0  0  0  0  0  0  0  0  0  0  # atno 8010 bound_to 7997
  140.4186  143.2594  151.8921 H   0  0  0  0  0  0  0  0  0  0  0  0  # atno 10167 bound_to 10162
  156.6471  130.4944  149.6075 H   0  0  0  0  0  0  0  0  0  0  0  0  # atno 10718 bound_to 10713
  153.9163  135.3005  155.3448 H   0  0  0  0  0  0  0  0  0  0  0  0  # atno 10763 bound_to 10752
  154.7598  135.4940  153.9445 H   0  0  0  0  0  0  0  0  0  0  0  0  # atno 10764 bound_to 10752
  153.1165  135.6772  153.9511 H   0  0  0  0  0  0  0  0  0  0  0  0  # atno 10765 bound_to 10752
  140.8502  133.7862  155.9958 H   0  0  0  0  0  0  0  0  0  0  0  0  # atno 11005 bound_to 11000
  145.6001  139.1503  143.3134 LP  0  0  0  0  0  0  0  0  0  0  0  0  # atno 17320 bound_to 7965
  146.2046  140.6122  142.9087 LP  0  0  0  0  0  0  0  0  0  0  0  0  # atno 17321 bound_to 7965
  139.4782  144.5462  151.8455 LP  0  0  0  0  0  0  0  0  0  0  0  0  # atno 17342 bound_to 10162
  140.4559  144.1790  150.5901 LP  0  0  0  0  0  0  0  0  0  0  0  0  # atno 17343 bound_to 10162
  156.2113  130.6680  151.1272 LP  0  0  0  0  0  0  0  0  0  0  0  0  # atno 17370 bound_to 10713
  157.7153  131.0713  150.6351 LP  0  0  0  0  0  0  0  0  0  0  0  0  # atno 17371 bound_to 10713
  140.8798  134.2625  157.5150 LP  0  0  0  0  0  0  0  0  0  0  0  0  # atno 17394 bound_to 11000
  139.8704  134.9609  156.4380 LP  0  0  0  0  0  0  0  0  0  0  0  0  # atno 17395 bound_to 11000

$$$$
