#       Name:                AV-unprocessed.smi:519
#       Creating user name   scv26
#       Creation time:       Thu Mar 26 23:27:00 2020


#       File generated by GOLD software.
#

@<TRIPOS>MOLECULE
AV-unprocessed.smi:519
    41    43     1
SMALL
NO_CHARGES


@<TRIPOS>ATOM
      1 ****        -1.5617   4.1644  -1.6826 O.3            1 S1                 0.0000
      2 ****        -0.5990   3.1363  -1.8025 C.3            1 S1                 0.0000
      3 ****        -1.1744   1.7499  -1.7395 C.2            1 S1                 0.0000
      4 ****        -2.4867   1.5050  -1.7167 N.2            1 S1                 0.0000
      5 ****        -2.5404   0.1261  -1.6666 C.ar           1 S1                 0.0000
      6 ****        -3.6494  -0.7486  -1.6194 C.ar           1 S1                 0.0000
      7 ****        -3.4555  -2.1446  -1.5719 C.ar           1 S1                 0.0000
      8 ****        -2.1532  -2.6847  -1.5733 C.ar           1 S1                 0.0000
      9 ****        -1.0349  -1.8307  -1.6216 C.ar           1 S1                 0.0000
     10 ****        -1.2338  -0.4379  -1.6656 C.ar           1 S1                 0.0000
     11 ****        -0.3737   0.6551  -1.7100 N.pl3          1 S1                 0.0000
     12 ****         1.0814   0.6064  -1.7168 C.3            1 S1                 0.0000
     13 ****         1.6681   0.6360  -0.2977 C.3            1 S1                 0.0000
     14 ****         1.1619  -0.4649   0.4461 O.3            1 S1                 0.0000
     15 ****         1.5579  -0.6127   1.7589 C.ar           1 S1                 0.0000
     16 ****         2.4588   0.2642   2.4158 C.ar           1 S1                 0.0000
     17 ****         2.8178   0.0456   3.7599 C.ar           1 S1                 0.0000
     18 ****         2.2854  -1.0492   4.4645 C.ar           1 S1                 0.0000
     19 ****         1.3905  -1.9248   3.8231 C.ar           1 S1                 0.0000
     20 ****         1.0276  -1.7071   2.4792 C.ar           1 S1                 0.0000
     21 ****        -0.0770  -2.7959   1.7185 Cl             1 S1                 0.0000
     22 ****        -1.1205   4.9978  -1.7387 H              1 S1                 0.0000
     23 ****        -0.0768   3.2600  -2.7516 H              1 S1                 0.0000
     24 ****         0.1346   3.2596  -1.0058 H              1 S1                 0.0000
     25 ****        -4.6508  -0.3443  -1.6182 H              1 S1                 0.0000
     26 ****        -4.3101  -2.8040  -1.5335 H              1 S1                 0.0000
     27 ****        -2.0127  -3.7550  -1.5343 H              1 S1                 0.0000
     28 ****        -0.0362  -2.2414  -1.6170 H              1 S1                 0.0000
     29 ****         1.3947  -0.3037  -2.2296 H              1 S1                 0.0000
     30 ****         1.4695   1.4363  -2.3071 H              1 S1                 0.0000
     31 ****         2.7560   0.5819  -0.3553 H              1 S1                 0.0000
     32 ****         1.4022   1.5743   0.1913 H              1 S1                 0.0000
     33 ****         2.8908   1.1141   1.9101 H              1 S1                 0.0000
     34 ****         3.5043   0.7200   4.2506 H              1 S1                 0.0000
     35 ****         2.5624  -1.2169   5.4950 H              1 S1                 0.0000
     36 ****         0.9813  -2.7653   4.3639 H              1 S1                 0.0000
     37 ****        -2.0278   4.0885  -0.8012 LP             1 S1                 0.0000
     38 ****        -2.2311   4.0870  -2.4215 LP             1 S1                 0.0000
     39 ****        -3.2434   2.1585  -1.7321 LP             1 S1                 0.0000
     40 ****         1.4316  -1.2970  -0.0386 LP             1 S1                 0.0000
     41 ****         0.1650  -0.3873   0.4459 LP             1 S1                 0.0000
@<TRIPOS>BOND
    1    1    2 1     
    2    1   22 1     
    3    2    3 1     
    4    2   23 1     
    5    2   24 1     
    6    3   11 1     
    7    3    4 2     
    8    4    5 1     
    9    5   10 ar    
   10    5    6 ar    
   11    6    7 ar    
   12    6   25 1     
   13    7    8 ar    
   14    7   26 1     
   15    8    9 ar    
   16    8   27 1     
   17    9   10 ar    
   18    9   28 1     
   19   10   11 1     
   20   11   12 1     
   21   12   13 1     
   22   12   29 1     
   23   12   30 1     
   24   13   14 1     
   25   13   31 1     
   26   13   32 1     
   27   14   15 1     
   28   15   20 ar    
   29   15   16 ar    
   30   16   17 ar    
   31   16   33 1     
   32   17   18 ar    
   33   17   34 1     
   34   18   19 ar    
   35   18   35 1     
   36   19   20 ar    
   37   19   36 1     
   38   20   21 1     
   39    1   37 1     
   40    1   38 1     
   41    4   39 1     
   42   14   40 1     
   43   14   41 1     
@<TRIPOS>SUBSTRUCTURE
      1 S1             1
@<TRIPOS>SET
LONE_PAIRS      STATIC     ATOMS    <user>   **** ""
5 37 38 39 40 41
DONOR_HYDROGENS      STATIC     ATOMS    <user>   **** ""
1 22
ATOM$BLUE        STATIC     ATOMS    COLORGROUP SYSTEM
5 37 38 39 40 41
ATOM$RED        STATIC     ATOMS    COLORGROUP SYSTEM
1 22
