AV-unprocessed.smi:1535|AV-procd|sdf|6180|dock3
  -GOLD-   22720 6333D 1   1.00000     0.00000
 Structure written by MMmdl.
 47 48  0  0  0  0  0  0  0  0  2 V2000
  153.5647  142.4641  161.6627 C   0  0  0  0  0  0  0  0  0  0  0  0
  152.8900  142.2410  160.3206 C   0  0  0  0  0  0  0  0  0  0  0  0
  153.1084  141.0245  159.6357 C   0  0  0  0  0  0  0  0  0  0  0  0
  152.5000  140.7779  158.3857 C   0  0  0  0  0  0  0  0  0  0  0  0
  152.5749  139.6760  157.5512 N   0  0  0  0  0  0  0  0  0  0  0  0
  151.7926  140.0485  156.5429 C   0  0  0  0  0  0  0  0  0  0  0  0
  151.2302  141.2706  156.6184 N   0  0  0  0  0  0  0  0  0  0  0  0
  150.3599  141.8962  155.6396 C   0  0  0  0  0  0  0  0  0  0  0  0
  149.4585  140.8772  154.9144 C   0  0  2  0  0  0  0  0  0  0  0  0
  149.4921  141.1710  153.5326 O   0  0  0  0  0  0  0  0  0  0  0  0
  147.9890  140.9030  155.3854 C   0  0  0  0  0  0  0  0  0  0  0  0
  147.4481  142.2862  155.4083 N   0  3  1  0  0  0  0  0  0  0  0  0
  146.4987  142.5407  154.2994 C   0  0  0  0  0  0  0  0  0  0  0  0
  146.8858  142.6761  156.7256 C   0  0  0  0  0  0  0  0  0  0  0  0
  145.6572  141.8294  157.1122 C   0  0  2  0  0  0  0  0  0  0  0  0
  144.3825  142.3456  156.4331 C   0  0  0  0  0  0  0  0  0  0  0  0
  145.4858  141.7732  158.5730 C   0  0  0  0  0  0  0  0  0  0  0  0
  145.3521  141.7332  159.7207 N   0  0  0  0  0  0  0  0  0  0  0  0
  151.6614  141.7903  157.8343 C   0  0  0  0  0  0  0  0  0  0  0  0
  151.4322  143.0026  158.5088 C   0  0  0  0  0  0  0  0  0  0  0  0
  152.0483  143.2329  159.7564 C   0  0  0  0  0  0  0  0  0  0  0  0
  151.7966  144.5462  160.4759 C   0  0  0  0  0  0  0  0  0  0  0  0
  154.1867  141.6134  161.9423 H   0  0  0  0  0  0  0  0  0  0  0  0
  152.8190  142.6049  162.4455 H   0  0  0  0  0  0  0  0  0  0  0  0
  154.2030  143.3474  161.6285 H   0  0  0  0  0  0  0  0  0  0  0  0
  153.7471  140.2674  160.0667 H   0  0  0  0  0  0  0  0  0  0  0  0
  151.6282  139.3999  155.6949 H   0  0  0  0  0  0  0  0  0  0  0  0
  149.7513  142.6470  156.1465 H   0  0  0  0  0  0  0  0  0  0  0  0
  150.9847  142.4307  154.9228 H   0  0  0  0  0  0  0  0  0  0  0  0
  149.8765  139.8803  155.0522 H   0  0  0  0  0  0  0  0  0  0  0  0
  149.4094  140.3626  153.0488 H   0  0  0  0  0  0  0  0  0  0  0  0
  147.3536  140.2938  154.7413 H   0  0  0  0  0  0  0  0  0  0  0  0
  147.9311  140.4405  156.3707 H   0  0  0  0  0  0  0  0  0  0  0  0
  145.5909  141.9475  154.4185 H   0  0  0  0  0  0  0  0  0  0  0  0
  146.9406  142.2938  153.3340 H   0  0  0  0  0  0  0  0  0  0  0  0
  146.2159  143.5934  154.2688 H   0  0  0  0  0  0  0  0  0  0  0  0
  147.6464  142.5398  157.4959 H   0  0  0  0  0  0  0  0  0  0  0  0
  146.6411  143.7394  156.7187 H   0  0  0  0  0  0  0  0  0  0  0  0
  145.8059  140.7991  156.7917 H   0  0  0  0  0  0  0  0  0  0  0  0
  143.5238  141.7266  156.6945 H   0  0  0  0  0  0  0  0  0  0  0  0
  144.4814  142.3320  155.3474 H   0  0  0  0  0  0  0  0  0  0  0  0
  144.1590  143.3688  156.7368 H   0  0  0  0  0  0  0  0  0  0  0  0
  150.7869  143.7497  158.0710 H   0  0  0  0  0  0  0  0  0  0  0  0
  151.1134  145.1837  159.9139 H   0  0  0  0  0  0  0  0  0  0  0  0
  152.7303  145.0928  160.6100 H   0  0  0  0  0  0  0  0  0  0  0  0
  151.3553  144.3671  161.4567 H   0  0  0  0  0  0  0  0  0  0  0  0
  148.2360  142.9000  155.2538 H   0  0  0  0  0  0  0  0  0  0  0  0
  1  2  1  0  0  0  0
  1 23  1  0  0  0  0
  1 24  1  0  0  0  0
  1 25  1  0  0  0  0
  2 21  1  0  0  0  0
  2  3  2  0  0  0  0
  3  4  1  0  0  0  0
  3 26  1  0  0  0  0
  4 19  2  0  0  0  0
  4  5  1  0  0  0  0
  5  6  2  0  0  0  0
  6  7  1  0  0  0  0
  6 27  1  0  0  0  0
  7  8  1  0  0  0  0
  7 19  1  0  0  0  0
  8  9  1  0  0  0  0
  8 28  1  0  0  0  0
  8 29  1  0  0  0  0
  9 10  1  0  0  0  0
  9 11  1  0  0  0  0
  9 30  1  0  0  0  0
 10 31  1  0  0  0  0
 11 12  1  0  0  0  0
 11 32  1  0  0  0  0
 11 33  1  0  0  0  0
 12 13  1  0  0  0  0
 12 14  1  0  0  0  0
 12 47  1  0  0  0  0
 13 34  1  0  0  0  0
 13 35  1  0  0  0  0
 13 36  1  0  0  0  0
 14 15  1  0  0  0  0
 14 37  1  0  0  0  0
 14 38  1  0  0  0  0
 15 16  1  0  0  0  0
 15 17  1  0  0  0  0
 15 39  1  0  0  0  0
 16 40  1  0  0  0  0
 16 41  1  0  0  0  0
 16 42  1  0  0  0  0
 17 18  3  0  0  0  0
 19 20  1  0  0  0  0
 20 21  2  0  0  0  0
 20 43  1  0  0  0  0
 21 22  1  0  0  0  0
 22 44  1  0  0  0  0
 22 45  1  0  0  0  0
 22 46  1  0  0  0  0
M  CHG  1  12   1
M  END
> <s_m_source_file>
AV-unprocessed.smi

> <i_m_source_file_index>
1535

> <i_lp_mmshare_version>
43012

> <i_f3d_flags>
0

> <s_epik_input>
W0NIM11jKFtjSF0xKWMoW0NIM10pW2NIXWMoYzEyKW4oW2NIXW4yKVtDSDJdW0NASF0oW09IXSlbQ0gyXU4oW0NIM10pW0NIMl1bQ0BIXShbQ0gzXSlDI04=

> <s_epik_cmdline>
J2VwaWtfcHl0aG9uJywgJy1waCcsICc3LjAnLCAnLXRuJywgJzgnLCAnLW1hJywgJzIwMCcsICctbWV0YWxfYmluZGluZycsICctaW1hZScsICc8aW5maWxlLm1hZT4nLCAnLW9tYWUnLCAnPG91dGZpbGUubWFlPic=

> <r_epik_Ionization_Penalty>
2.21058

> <r_epik_Ionization_Penalty_Charging>
2.12381

> <r_epik_Ionization_Penalty_Neutral>
0.0867699

> <r_epik_State_Penalty>
2.36208

> <r_epik_Charging_Adjusted_Penalty>
4.48589

> <i_epik_Tot_Q>
1

> <i_epik_Tot_abs_Q>
1

> <r_epik_Metal_State_Penalty>
2.2818

> <b_epik_Metal_Only>
0

> <s_lp_Force_Field>
OPLS_2005

> <r_lp_Energy>
13.2218

> <b_lp_Chiralities_Consistent>
1

> <s_lp_Variant>
AV-unprocessed.smi:1535-11

> <Gold.Version>
5.8.1

> <Gold.Id.Protein>
6NUR|6NUR_protein|mol2

> <Gold.PLP.Fitness>
57.0927

> <Gold.PLP.PLP>
-44.0989

> <Gold.PLP.part.hbond>
-6.0000

> <Gold.PLP.part.metal>
0.0000

> <Gold.PLP.part.buried>
-3.2738

> <Gold.PLP.part.nonpolar>
-33.9194

> <Gold.PLP.part.repulsive>
0.0700

> <Gold.PLP.ligand.clash>
0.0000

> <Gold.PLP.ligand.torsion>
2.0233

> <Gold.PLP.Chemscore.Hbond>
5.5828

> <Gold.PLP.Chemscore.CHOScore>
0.0000

> <Gold.PLP.Chemscore.Metal>
0.0000

> <Gold.Chemscore.Hbonds>
donor molecule, donor type, donor heavy atom, donor atom, acceptor molecule, acceptor atom, score
      L1  H    10    31       P1  7957  0.58
      L1  H    12    47       P1  8028  1.63
      P1  H  6934  6946       L1    18  0.99
      P1  H  7989  7998       L1    10  0.04
      P1  H  7997  8009       L1     5  0.82
      P1  H  8011  8017       L1    10  1.00

> <Gold.PLP.Chemscore.Internal.Correction>
0.2919

> <Gold.Rescore>
     Score         DG    S(hbond)    S(metal)    S(lipo)     H(rot)  DE(clash)    DE(int)     intcor
     19.07     -21.45       2.92        0.00     110.16       2.60       0.26       2.12       ----

> <Gold.Chemscore.Fitness>
19.0698

> <Gold.Chemscore.DG>
-21.4469

> <Gold.Chemscore.ZeroCoef>
-5.4800

> <Gold.Chemscore.Hbond>
2.9168

> <Gold.Chemscore.Metal>
0.0000

> <Gold.Chemscore.Lipo>
110.1605

> <Gold.Chemscore.Internal_Hbond>
0.0000

> <Gold.Chemscore.DEClash>
0.2606

> <Gold.Chemscore.DEInternal>
2.1165

> <Gold.Chemscore.Rot>
2.6031

> <Gold.Chemscore.Internal.Correction>
   9.000000E+99

> <Gold.Chemscore.Hbonds>
donor molecule, donor type, donor heavy atom, donor atom, acceptor molecule, acceptor atom, score
      L1  H    10    31       P1  7957  0.58
      L1  H    12    47       P1  8028  0.79
      P1  H  6934  6946       L1    18  0.81
      P1  H  7997  8009       L1     5  0.04
      P1  H  8011  8017       L1    10  0.52

> <Gold.Chemscore.Hbond.Weighted>
-9.7421

> <Gold.Chemscore.Metal.Weighted>
-0.0000

> <Gold.Chemscore.Lipo.Weighted>
-12.8888

> <Gold.Chemscore.Internal_Hbond.Weighted>
0.0000

> <Gold.Chemscore.DEClash.Weighted>
0.2606

> <Gold.Chemscore.DEInternal.Weighted>
2.1165

> <Gold.Chemscore.Rot.Weighted>
6.6640

> <Gold.Chemscore.Internal.Correction.Weighted>
   9.000000E+99

> <Gold.Protein.RotatedTorsions>
[ 6907 6896 6895 6894 ] final  -91.38 input  -60.11 | X-H torsion
[ 7974 7965 7964 7962 ] final  -77.47 input  175.53 | X-H torsion
[ 8008 7997 7996 7995 ] final  175.85 input   59.86 | X-H torsion
[ 10167 10162 10161 10158 ] final -134.35 input  -65.29 | X-H torsion
[ 10718 10713 10712 10709 ] final  -37.89 input   66.30 | X-H torsion
[ 10763 10752 10751 10750 ] final -138.58 input  -60.55 | X-H torsion
[ 11005 11000 10999 10996 ] final -119.37 input  -57.11 | X-H torsion

> <Gold.Protein.ActiveResidues>
 VAL166  LYS551  ARG553  GLY616  TRP617  ASP618  TYR619  PRO620  LYS621  CYS622 
 ASP623  PHE694  ASN695  SER759  ASP760  ASP761  ALA762  ILE779  LEU786  VAL792 
 PHE793  MET794  SER795  GLU796  ALA797  LYS798  CYS799  TRP800  GLU811  SER814 

> <Gold.Protein.RotatedAtoms>
  150.6892  134.2287  159.4425 H   0  0  0  0  0  0  0  0  0  0  0  0  # atno 6907 bound_to 6896
  152.0239  134.9804  160.0580 H   0  0  0  0  0  0  0  0  0  0  0  0  # atno 6908 bound_to 6896
  152.1371  133.4407  159.4785 H   0  0  0  0  0  0  0  0  0  0  0  0  # atno 6909 bound_to 6896
  145.5993  140.9412  143.1249 H   0  0  0  0  0  0  0  0  0  0  0  0  # atno 7974 bound_to 7965
  156.0826  140.1398  156.9693 H   0  0  0  0  0  0  0  0  0  0  0  0  # atno 8008 bound_to 7997
  154.4594  140.0949  156.6899 H   0  0  0  0  0  0  0  0  0  0  0  0  # atno 8009 bound_to 7997
  155.5050  140.3452  155.4380 H   0  0  0  0  0  0  0  0  0  0  0  0  # atno 8010 bound_to 7997
  139.8889  143.6746  152.2615 H   0  0  0  0  0  0  0  0  0  0  0  0  # atno 10167 bound_to 10162
  156.3100  130.4251  149.8060 H   0  0  0  0  0  0  0  0  0  0  0  0  # atno 10718 bound_to 10713
  154.8633  135.3608  154.5408 H   0  0  0  0  0  0  0  0  0  0  0  0  # atno 10763 bound_to 10752
  153.6030  135.7012  153.5381 H   0  0  0  0  0  0  0  0  0  0  0  0  # atno 10764 bound_to 10752
  153.3274  135.4134  155.1428 H   0  0  0  0  0  0  0  0  0  0  0  0  # atno 10765 bound_to 10752
  141.0220  134.0110  157.3268 H   0  0  0  0  0  0  0  0  0  0  0  0  # atno 11005 bound_to 11000
  144.7317  139.7707  143.7345 LP  0  0  0  0  0  0  0  0  0  0  0  0  # atno 17320 bound_to 7965
  146.1588  139.4695  143.0001 LP  0  0  0  0  0  0  0  0  0  0  0  0  # atno 17321 bound_to 7965
  139.7127  144.7617  151.1085 LP  0  0  0  0  0  0  0  0  0  0  0  0  # atno 17342 bound_to 10162
  140.7730  143.5309  150.9424 LP  0  0  0  0  0  0  0  0  0  0  0  0  # atno 17343 bound_to 10162
  156.5407  130.8298  151.3268 LP  0  0  0  0  0  0  0  0  0  0  0  0  # atno 17370 bound_to 10713
  157.7388  130.9821  150.2278 LP  0  0  0  0  0  0  0  0  0  0  0  0  # atno 17371 bound_to 10713
  139.9152  135.0196  156.7853 LP  0  0  0  0  0  0  0  0  0  0  0  0  # atno 17394 bound_to 11000
  140.6556  133.9692  155.7778 LP  0  0  0  0  0  0  0  0  0  0  0  0  # atno 17395 bound_to 11000

$$$$
