AV-unprocessed.smi:884|AV-procd|sdf|4042|dock8
  -GOLD-   22720 1533D 1   1.00000     0.00000
 Structure written by MMmdl.
 47 49  0  0  0  0  0  0  0  0  1 V2000
  146.5064  137.1367  155.0850 O   0  0  0  0  0  0  0  0  0  0  0  0
  146.1578  138.1936  154.5569 C   0  0  0  0  0  0  0  0  0  0  0  0
  145.3017  138.2288  153.5205 N   0  0  0  0  0  0  0  0  0  0  0  0
  144.7307  137.0669  152.8432 C   0  0  0  0  0  0  0  0  0  0  0  0
  145.6164  136.5727  151.6836 C   0  0  0  0  0  0  0  0  0  0  0  0
  145.4434  135.0980  151.3564 C   0  0  0  0  0  0  0  0  0  0  0  0
  146.5096  134.1927  151.5418 C   0  0  0  0  0  0  0  0  0  0  0  0
  146.3068  132.8395  151.2081 C   0  0  0  0  0  0  0  0  0  0  0  0
  145.0511  132.4450  150.7075 C   0  0  0  0  0  0  0  0  0  0  0  0
  144.0511  133.4261  150.5576 C   0  0  0  0  0  0  0  0  0  0  0  0
  144.2377  134.7274  150.8673 N   0  0  0  0  0  0  0  0  0  0  0  0
  146.6155  139.4074  154.9593 N   0  0  0  0  0  0  0  0  0  0  0  0
  146.2985  140.7033  154.3397 C   0  0  0  0  0  0  0  0  0  0  0  0
  147.4794  141.1353  153.4606 C   0  0  0  0  0  0  0  0  0  0  0  0
  148.9796  141.3780  154.4611 S   0  0  0  0  0  0  0  0  0  0  0  0
  149.0407  139.8210  155.4287 C   0  0  0  0  0  0  0  0  0  0  0  0
  149.5199  138.6426  154.5392 C   0  0  0  0  0  0  0  0  0  0  0  0
  150.9869  138.7666  154.0922 C   0  0  0  0  0  0  0  0  0  0  0  0
  151.9236  138.9252  155.2964 C   0  0  0  0  0  0  0  0  0  0  0  0
  151.5004  140.1172  156.1648 C   0  0  0  0  0  0  0  0  0  0  0  0
  150.0310  139.9923  156.6080 C   0  0  0  0  0  0  0  0  0  0  0  0
  147.6287  139.5472  156.0162 C   0  0  0  0  0  0  0  0  0  0  0  0
  145.0637  139.1341  153.1426 H   0  0  0  0  0  0  0  0  0  0  0  0
  144.5636  136.2477  153.5444 H   0  0  0  0  0  0  0  0  0  0  0  0
  143.7471  137.3407  152.4613 H   0  0  0  0  0  0  0  0  0  0  0  0
  145.4070  137.1589  150.7882 H   0  0  0  0  0  0  0  0  0  0  0  0
  146.6642  136.7599  151.9244 H   0  0  0  0  0  0  0  0  0  0  0  0
  147.4628  134.5275  151.9244 H   0  0  0  0  0  0  0  0  0  0  0  0
  147.1002  132.1175  151.3339 H   0  0  0  0  0  0  0  0  0  0  0  0
  144.8599  131.4163  150.4401 H   0  0  0  0  0  0  0  0  0  0  0  0
  143.0791  133.1609  150.1687 H   0  0  0  0  0  0  0  0  0  0  0  0
  145.3824  140.6883  153.7491 H   0  0  0  0  0  0  0  0  0  0  0  0
  146.1183  141.4507  155.1135 H   0  0  0  0  0  0  0  0  0  0  0  0
  147.6754  140.3922  152.6881 H   0  0  0  0  0  0  0  0  0  0  0  0
  147.2486  142.0701  152.9498 H   0  0  0  0  0  0  0  0  0  0  0  0
  149.4038  137.7074  155.0887 H   0  0  0  0  0  0  0  0  0  0  0  0
  148.8906  138.5472  153.6568 H   0  0  0  0  0  0  0  0  0  0  0  0
  151.2715  137.8848  153.5181 H   0  0  0  0  0  0  0  0  0  0  0  0
  151.1019  139.6175  153.4201 H   0  0  0  0  0  0  0  0  0  0  0  0
  151.9088  138.0132  155.8943 H   0  0  0  0  0  0  0  0  0  0  0  0
  152.9509  139.0567  154.9558 H   0  0  0  0  0  0  0  0  0  0  0  0
  152.1450  140.1801  157.0420 H   0  0  0  0  0  0  0  0  0  0  0  0
  151.6484  141.0456  155.6124 H   0  0  0  0  0  0  0  0  0  0  0  0
  149.7562  140.8640  157.2034 H   0  0  0  0  0  0  0  0  0  0  0  0
  149.9473  139.1347  157.2773 H   0  0  0  0  0  0  0  0  0  0  0  0
  147.3399  140.3623  156.6816 H   0  0  0  0  0  0  0  0  0  0  0  0
  147.6563  138.6655  156.6586 H   0  0  0  0  0  0  0  0  0  0  0  0
  1  2  2  0  0  0  0
  2  3  1  0  0  0  0
  2 12  1  0  0  0  0
  3  4  1  0  0  0  0
  3 23  1  0  0  0  0
  4  5  1  0  0  0  0
  4 24  1  0  0  0  0
  4 25  1  0  0  0  0
  5  6  1  0  0  0  0
  5 26  1  0  0  0  0
  5 27  1  0  0  0  0
  6 11  1  0  0  0  0
  6  7  2  0  0  0  0
  7  8  1  0  0  0  0
  7 28  1  0  0  0  0
  8  9  2  0  0  0  0
  8 29  1  0  0  0  0
  9 10  1  0  0  0  0
  9 30  1  0  0  0  0
 10 11  2  0  0  0  0
 10 31  1  0  0  0  0
 12 22  1  0  0  0  0
 12 13  1  0  0  0  0
 13 14  1  0  0  0  0
 13 32  1  0  0  0  0
 13 33  1  0  0  0  0
 14 15  1  0  0  0  0
 14 34  1  0  0  0  0
 14 35  1  0  0  0  0
 15 16  1  0  0  0  0
 16 21  1  0  0  0  0
 16 17  1  0  0  0  0
 16 22  1  0  0  0  0
 17 18  1  0  0  0  0
 17 36  1  0  0  0  0
 17 37  1  0  0  0  0
 18 19  1  0  0  0  0
 18 38  1  0  0  0  0
 18 39  1  0  0  0  0
 19 20  1  0  0  0  0
 19 40  1  0  0  0  0
 19 41  1  0  0  0  0
 20 21  1  0  0  0  0
 20 42  1  0  0  0  0
 20 43  1  0  0  0  0
 21 44  1  0  0  0  0
 21 45  1  0  0  0  0
 22 46  1  0  0  0  0
 22 47  1  0  0  0  0
M  END
> <s_m_source_file>
AV-unprocessed.smi

> <i_m_source_file_index>
884

> <i_lp_mmshare_version>
43012

> <i_f3d_flags>
0

> <s_epik_input>
bjFbY0hdW2NIXVtjSF1bY0hdYzFbQ0gyXVtDSDJdW05IXUMoPU8pTihbQ0gyXTIpW0NIMl1bQ0gyXVNDMjNbQ0gyXVtDSDJdW0NIMl1bQ0gyXVtDSDJdMw==

> <s_epik_cmdline>
J2VwaWtfcHl0aG9uJywgJy1waCcsICc3LjAnLCAnLXRuJywgJzgnLCAnLW1hJywgJzIwMCcsICctbWV0YWxfYmluZGluZycsICctaW1hZScsICc8aW5maWxlLm1hZT4nLCAnLW9tYWUnLCAnPG91dGZpbGUubWFlPic=

> <r_epik_Ionization_Penalty>
0.0449137

> <r_epik_Ionization_Penalty_Charging>
0

> <r_epik_Ionization_Penalty_Neutral>
0.0449137

> <r_epik_State_Penalty>
0.0380475

> <r_epik_Charging_Adjusted_Penalty>
0.0380475

> <i_epik_Tot_Q>
0

> <i_epik_Tot_abs_Q>
0

> <r_epik_Metal_State_Penalty>
0.0353559

> <b_epik_Metal_Only>
0

> <s_lp_Force_Field>
OPLS_2005

> <r_lp_Energy>
30.1612

> <b_lp_Chiralities_Consistent>
1

> <s_lp_Variant>
AV-unprocessed.smi:884-1

> <Gold.Version>
5.8.1

> <Gold.Id.Protein>
6NUR|6NUR_protein|mol2

> <Gold.PLP.Fitness>
40.2024

> <Gold.PLP.PLP>
-34.9168

> <Gold.PLP.part.hbond>
-1.0000

> <Gold.PLP.part.metal>
0.0000

> <Gold.PLP.part.buried>
-4.1026

> <Gold.PLP.part.nonpolar>
-30.2694

> <Gold.PLP.part.repulsive>
0.2421

> <Gold.PLP.ligand.clash>
0.0000

> <Gold.PLP.ligand.torsion>
0.3676

> <Gold.PLP.Chemscore.Hbond>
1.0000

> <Gold.PLP.Chemscore.CHOScore>
1.0000

> <Gold.PLP.Chemscore.Metal>
0.0000

> <Gold.Chemscore.Hbonds>
donor molecule, donor type, donor heavy atom, donor atom, acceptor molecule, acceptor atom, score
      L1  H     3    23       P1 10175  0.99
      L1  C    10    31       P1 10186  1.00

> <Gold.PLP.Chemscore.Internal.Correction>
0.0208

> <Gold.Rescore>
     Score         DG    S(hbond)    S(metal)    S(lipo)     H(rot)  DE(clash)    DE(int)     intcor
     17.16     -17.60       0.96        0.00     103.16       1.23       0.12       0.33       ----

> <Gold.Chemscore.Fitness>
17.1551

> <Gold.Chemscore.DG>
-17.6047

> <Gold.Chemscore.ZeroCoef>
-5.4800

> <Gold.Chemscore.Hbond>
0.9576

> <Gold.Chemscore.Metal>
0.0000

> <Gold.Chemscore.Lipo>
103.1555

> <Gold.Chemscore.Internal_Hbond>
0.0000

> <Gold.Chemscore.DEClash>
0.1158

> <Gold.Chemscore.DEInternal>
0.3339

> <Gold.Chemscore.Rot>
1.2276

> <Gold.Chemscore.Internal.Correction>
   9.000000E+99

> <Gold.Chemscore.Hbonds>
donor molecule, donor type, donor heavy atom, donor atom, acceptor molecule, acceptor atom, score
      L1  H     3    23       P1 10175  0.87

> <Gold.Chemscore.Hbond.Weighted>
-3.1983

> <Gold.Chemscore.Metal.Weighted>
-0.0000

> <Gold.Chemscore.Lipo.Weighted>
-12.0692

> <Gold.Chemscore.Internal_Hbond.Weighted>
0.0000

> <Gold.Chemscore.DEClash.Weighted>
0.1158

> <Gold.Chemscore.DEInternal.Weighted>
0.3339

> <Gold.Chemscore.Rot.Weighted>
3.1427

> <Gold.Chemscore.Internal.Correction.Weighted>
   9.000000E+99

> <Gold.Protein.RotatedTorsions>
[ 6907 6896 6895 6894 ] final   14.49 input  -60.11 | X-H torsion
[ 7974 7965 7964 7962 ] final  144.03 input  175.53 | X-H torsion
[ 8008 7997 7996 7995 ] final   86.37 input   59.86 | X-H torsion
[ 10167 10162 10161 10158 ] final  121.62 input  -65.29 | X-H torsion
[ 10718 10713 10712 10709 ] final   27.99 input   66.30 | X-H torsion
[ 10763 10752 10751 10750 ] final   43.34 input  -60.55 | X-H torsion
[ 11005 11000 10999 10996 ] final -127.74 input  -57.11 | X-H torsion

> <Gold.Protein.ActiveResidues>
 VAL166  LYS551  ARG553  GLY616  TRP617  ASP618  TYR619  PRO620  LYS621  CYS622 
 ASP623  PHE694  ASN695  SER759  ASP760  ASP761  ALA762  ILE779  LEU786  VAL792 
 PHE793  MET794  SER795  GLU796  ALA797  LYS798  CYS799  TRP800  GLU811  SER814 

> <Gold.Protein.RotatedAtoms>
  151.8031  135.0703  160.0402 H   0  0  0  0  0  0  0  0  0  0  0  0  # atno 6907 bound_to 6896
  152.3075  133.5714  159.5667 H   0  0  0  0  0  0  0  0  0  0  0  0  # atno 6908 bound_to 6896
  150.7303  134.0117  159.3714 H   0  0  0  0  0  0  0  0  0  0  0  0  # atno 6909 bound_to 6896
  144.8871  139.5613  143.5816 H   0  0  0  0  0  0  0  0  0  0  0  0  # atno 7974 bound_to 7965
  155.9619  140.3392  155.6498 H   0  0  0  0  0  0  0  0  0  0  0  0  # atno 8008 bound_to 7997
  155.6787  140.0735  157.2511 H   0  0  0  0  0  0  0  0  0  0  0  0  # atno 8009 bound_to 7997
  154.4145  140.1678  156.1946 H   0  0  0  0  0  0  0  0  0  0  0  0  # atno 8010 bound_to 7997
  139.5909  144.7024  151.3294 H   0  0  0  0  0  0  0  0  0  0  0  0  # atno 10167 bound_to 10162
  157.2275  130.7008  149.6298 H   0  0  0  0  0  0  0  0  0  0  0  0  # atno 10718 bound_to 10713
  152.9863  135.6104  154.3096 H   0  0  0  0  0  0  0  0  0  0  0  0  # atno 10763 bound_to 10752
  154.2812  135.2777  155.2698 H   0  0  0  0  0  0  0  0  0  0  0  0  # atno 10764 bound_to 10752
  154.5036  135.5860  153.6606 H   0  0  0  0  0  0  0  0  0  0  0  0  # atno 10765 bound_to 10752
  140.9575  134.0982  157.4002 H   0  0  0  0  0  0  0  0  0  0  0  0  # atno 11005 bound_to 11000
  146.3031  139.7490  142.9076 LP  0  0  0  0  0  0  0  0  0  0  0  0  # atno 17320 bound_to 7965
  145.3850  141.0364  143.3156 LP  0  0  0  0  0  0  0  0  0  0  0  0  # atno 17321 bound_to 7965
  140.7172  143.7235  150.7678 LP  0  0  0  0  0  0  0  0  0  0  0  0  # atno 17342 bound_to 10162
  140.0790  143.4987  152.2540 LP  0  0  0  0  0  0  0  0  0  0  0  0  # atno 17343 bound_to 10162
  155.9678  130.4500  150.5679 LP  0  0  0  0  0  0  0  0  0  0  0  0  # atno 17370 bound_to 10713
  157.3513  131.0734  151.1711 LP  0  0  0  0  0  0  0  0  0  0  0  0  # atno 17371 bound_to 10713
  139.8867  135.0083  156.6514 LP  0  0  0  0  0  0  0  0  0  0  0  0  # atno 17394 bound_to 11000
  140.7516  133.8893  155.8351 LP  0  0  0  0  0  0  0  0  0  0  0  0  # atno 17395 bound_to 11000

$$$$
