AV-unprocessed.smi:2023|AV-procd|sdf|8190|dock5
  -GOLD-   2272010443D 1   1.00000     0.00000
 Structure written by MMmdl.
 34 35  0  0  0  0  0  0  0  0  2 V2000
  151.1612  140.0084  155.0468 O   0  0  0  0  0  0  0  0  0  0  0  0
  151.8533  139.0619  155.9367 S   0  0  0  0  0  0  0  0  0  0  0  0
  152.6994  138.0292  155.3159 O   0  0  0  0  0  0  0  0  0  0  0  0
  152.5557  139.7621  157.2173 N   0  5  0  0  0  0  0  0  0  0  0  0
  151.9282  140.9219  157.8252 C   0  0  0  0  0  0  0  0  0  0  0  0
  152.8064  141.4620  158.9749 C   0  0  0  0  0  0  0  0  0  0  0  0
  152.4568  142.8733  159.4363 C   0  0  0  0  0  0  0  0  0  0  0  0
  152.4071  143.9467  158.5205 C   0  0  0  0  0  0  0  0  0  0  0  0
  152.0684  145.2295  158.9917 C   0  0  0  0  0  0  0  0  0  0  0  0
  151.7890  145.3871  160.3636 C   0  0  0  0  0  0  0  0  0  0  0  0
  151.8249  144.3697  161.2501 N   0  0  0  0  0  0  0  0  0  0  0  0
  152.1527  143.1426  160.7902 C   0  0  0  0  0  0  0  0  0  0  0  0
  150.6036  138.2193  156.8005 N   0  0  0  0  0  0  0  0  0  0  0  0
  151.0073  137.5025  158.0220 C   0  0  0  0  0  0  0  0  0  0  0  0
  149.7816  137.0201  158.8145 C   0  0  0  0  0  0  0  0  0  0  0  0
  148.9339  136.2426  157.9838 O   0  0  0  0  0  0  0  0  0  0  0  0
  148.4333  137.0095  156.8998 C   0  0  0  0  0  0  0  0  0  0  0  0
  149.5917  137.4878  156.0107 C   0  0  0  0  0  0  0  0  0  0  0  0
  151.7540  141.7183  157.1010 H   0  0  0  0  0  0  0  0  0  0  0  0
  150.9482  140.6693  158.2305 H   0  0  0  0  0  0  0  0  0  0  0  0
  152.7173  140.7936  159.8319 H   0  0  0  0  0  0  0  0  0  0  0  0
  153.8579  141.4327  158.6855 H   0  0  0  0  0  0  0  0  0  0  0  0
  152.6262  143.7902  157.4746 H   0  0  0  0  0  0  0  0  0  0  0  0
  152.0241  146.0720  158.3178 H   0  0  0  0  0  0  0  0  0  0  0  0
  151.5257  146.3571  160.7586 H   0  0  0  0  0  0  0  0  0  0  0  0
  152.1738  142.3513  161.5252 H   0  0  0  0  0  0  0  0  0  0  0  0
  151.6328  136.6543  157.7411 H   0  0  0  0  0  0  0  0  0  0  0  0
  151.6130  138.1532  158.6522 H   0  0  0  0  0  0  0  0  0  0  0  0
  150.1007  136.4116  159.6605 H   0  0  0  0  0  0  0  0  0  0  0  0
  149.2293  137.8670  159.2252 H   0  0  0  0  0  0  0  0  0  0  0  0
  147.7479  136.3930  156.3182 H   0  0  0  0  0  0  0  0  0  0  0  0
  147.8563  137.8573  157.2728 H   0  0  0  0  0  0  0  0  0  0  0  0
  149.1968  138.1181  155.2149 H   0  0  0  0  0  0  0  0  0  0  0  0
  150.0709  136.6342  155.5304 H   0  0  0  0  0  0  0  0  0  0  0  0
  1  2  2  0  0  0  0
  2  3  2  0  0  0  0
  2  4  1  0  0  0  0
  2 13  1  0  0  0  0
  4  5  1  0  0  0  0
  5  6  1  0  0  0  0
  5 19  1  0  0  0  0
  5 20  1  0  0  0  0
  6  7  1  0  0  0  0
  6 21  1  0  0  0  0
  6 22  1  0  0  0  0
  7 12  1  0  0  0  0
  7  8  2  0  0  0  0
  8  9  1  0  0  0  0
  8 23  1  0  0  0  0
  9 10  2  0  0  0  0
  9 24  1  0  0  0  0
 10 11  1  0  0  0  0
 10 25  1  0  0  0  0
 11 12  2  0  0  0  0
 12 26  1  0  0  0  0
 13 18  1  0  0  0  0
 13 14  1  0  0  0  0
 14 15  1  0  0  0  0
 14 27  1  0  0  0  0
 14 28  1  0  0  0  0
 15 16  1  0  0  0  0
 15 29  1  0  0  0  0
 15 30  1  0  0  0  0
 16 17  1  0  0  0  0
 17 18  1  0  0  0  0
 17 31  1  0  0  0  0
 17 32  1  0  0  0  0
 18 33  1  0  0  0  0
 18 34  1  0  0  0  0
M  CHG  1   4  -1
M  END
> <s_m_source_file>
AV-unprocessed.smi

> <i_m_source_file_index>
2023

> <i_lp_mmshare_version>
43012

> <i_f3d_flags>
0

> <s_epik_input>
W0NIMl0xW0NIMl1PW0NIMl1bQ0gyXU4xUyg9TykoPU8pW05IXVtDSDJdW0NIMl1jMltjSF1bY0hdW2NIXW5bY0hdMg==

> <s_epik_cmdline>
J2VwaWtfcHl0aG9uJywgJy1waCcsICc3LjAnLCAnLXRuJywgJzgnLCAnLW1hJywgJzIwMCcsICctbWV0YWxfYmluZGluZycsICctaW1hZScsICc8aW5maWxlLm1hZT4nLCAnLW9tYWUnLCAnPG91dGZpbGUubWFlPic=

> <r_epik_Ionization_Penalty>
1.23471

> <r_epik_Ionization_Penalty_Charging>
1.20871

> <r_epik_Ionization_Penalty_Neutral>
0.025996

> <r_epik_State_Penalty>
1.46261

> <r_epik_Charging_Adjusted_Penalty>
2.67132

> <i_epik_Tot_Q>
-1

> <i_epik_Tot_abs_Q>
1

> <r_epik_Metal_State_Penalty>
0.521406

> <b_epik_Metal_Only>
0

> <s_lp_Force_Field>
OPLS_2005

> <r_lp_Energy>
4.19534

> <b_lp_Chiralities_Consistent>
1

> <s_lp_Variant>
AV-unprocessed.smi:2023-2

> <Gold.Version>
5.8.1

> <Gold.Id.Protein>
6NUR|6NUR_protein|mol2

> <Gold.PLP.Fitness>
44.1025

> <Gold.PLP.PLP>
-35.3281

> <Gold.PLP.part.hbond>
-2.4990

> <Gold.PLP.part.metal>
0.0000

> <Gold.PLP.part.buried>
-6.4439

> <Gold.PLP.part.nonpolar>
-27.0527

> <Gold.PLP.part.repulsive>
0.2401

> <Gold.PLP.ligand.clash>
0.0000

> <Gold.PLP.ligand.torsion>
0.8842

> <Gold.PLP.Chemscore.Hbond>
3.0000

> <Gold.PLP.Chemscore.CHOScore>
0.0000

> <Gold.PLP.Chemscore.Metal>
0.0000

> <Gold.Chemscore.Hbonds>
donor molecule, donor type, donor heavy atom, donor atom, acceptor molecule, acceptor atom, score
      P1  H  7989  7998       L1     1  1.00
      P1  H  7997  8010       L1     4  1.90

> <Gold.PLP.Chemscore.Internal.Correction>
1.5428

> <Gold.Rescore>
     Score         DG    S(hbond)    S(metal)    S(lipo)     H(rot)  DE(clash)    DE(int)     intcor
     16.84     -17.69       1.69        0.00      90.26       1.56       0.00       0.85       ----

> <Gold.Chemscore.Fitness>
16.8385

> <Gold.Chemscore.DG>
-17.6943

> <Gold.Chemscore.ZeroCoef>
-5.4800

> <Gold.Chemscore.Hbond>
1.6933

> <Gold.Chemscore.Metal>
0.0000

> <Gold.Chemscore.Lipo>
90.2571

> <Gold.Chemscore.Internal_Hbond>
0.0000

> <Gold.Chemscore.DEClash>
0.0015

> <Gold.Chemscore.DEInternal>
0.8544

> <Gold.Chemscore.Rot>
1.5630

> <Gold.Chemscore.Internal.Correction>
   9.000000E+99

> <Gold.Chemscore.Hbonds>
donor molecule, donor type, donor heavy atom, donor atom, acceptor molecule, acceptor atom, score
      P1  H  7989  7998       L1     1  1.00
      P1  H  7997  8010       L1     4  0.18

> <Gold.Chemscore.Hbond.Weighted>
-5.6555

> <Gold.Chemscore.Metal.Weighted>
-0.0000

> <Gold.Chemscore.Lipo.Weighted>
-10.5601

> <Gold.Chemscore.Internal_Hbond.Weighted>
0.0000

> <Gold.Chemscore.DEClash.Weighted>
0.0015

> <Gold.Chemscore.DEInternal.Weighted>
0.8544

> <Gold.Chemscore.Rot.Weighted>
4.0013

> <Gold.Chemscore.Internal.Correction.Weighted>
   9.000000E+99

> <Gold.Protein.RotatedTorsions>
[ 6907 6896 6895 6894 ] final  -57.13 input  -60.11 | X-H torsion
[ 7974 7965 7964 7962 ] final   71.10 input  175.53 | X-H torsion
[ 8008 7997 7996 7995 ] final   73.84 input   59.86 | X-H torsion
[ 10167 10162 10161 10158 ] final -176.61 input  -65.29 | X-H torsion
[ 10718 10713 10712 10709 ] final  -52.28 input   66.30 | X-H torsion
[ 10763 10752 10751 10750 ] final -173.84 input  -60.55 | X-H torsion
[ 11005 11000 10999 10996 ] final -117.32 input  -57.11 | X-H torsion

> <Gold.Protein.ActiveResidues>
 VAL166  LYS551  ARG553  GLY616  TRP617  ASP618  TYR619  PRO620  LYS621  CYS622 
 ASP623  PHE694  ASN695  SER759  ASP760  ASP761  ALA762  ILE779  LEU786  VAL792 
 PHE793  MET794  SER795  GLU796  ALA797  LYS798  CYS799  TRP800  GLU811  SER814 

> <Gold.Protein.RotatedAtoms>
  150.8111  134.7266  159.6688 H   0  0  0  0  0  0  0  0  0  0  0  0  # atno 6907 bound_to 6896
  152.4231  134.5916  159.9985 H   0  0  0  0  0  0  0  0  0  0  0  0  # atno 6908 bound_to 6896
  151.6125  133.3309  159.3106 H   0  0  0  0  0  0  0  0  0  0  0  0  # atno 6909 bound_to 6896
  145.7700  139.2839  143.1326 H   0  0  0  0  0  0  0  0  0  0  0  0  # atno 7974 bound_to 7965
  155.7896  140.3479  155.5342 H   0  0  0  0  0  0  0  0  0  0  0  0  # atno 8008 bound_to 7997
  155.8647  140.0977  157.1610 H   0  0  0  0  0  0  0  0  0  0  0  0  # atno 8009 bound_to 7997
  154.4014  140.1352  156.3992 H   0  0  0  0  0  0  0  0  0  0  0  0  # atno 8010 bound_to 7997
  139.5521  144.2082  152.1096 H   0  0  0  0  0  0  0  0  0  0  0  0  # atno 10167 bound_to 10162
  156.1635  130.4149  149.9756 H   0  0  0  0  0  0  0  0  0  0  0  0  # atno 10718 bound_to 10713
  154.6032  135.2856  155.0512 H   0  0  0  0  0  0  0  0  0  0  0  0  # atno 10763 bound_to 10752
  154.1770  135.6463  153.5028 H   0  0  0  0  0  0  0  0  0  0  0  0  # atno 10764 bound_to 10752
  153.0165  135.5414  154.6759 H   0  0  0  0  0  0  0  0  0  0  0  0  # atno 10765 bound_to 10752
  141.0363  133.9905  157.3066 H   0  0  0  0  0  0  0  0  0  0  0  0  # atno 11005 bound_to 11000
  146.0179  140.8375  142.9938 LP  0  0  0  0  0  0  0  0  0  0  0  0  # atno 17320 bound_to 7965
  144.6814  140.2585  143.7322 LP  0  0  0  0  0  0  0  0  0  0  0  0  # atno 17321 bound_to 7965
  140.1579  144.5053  150.6649 LP  0  0  0  0  0  0  0  0  0  0  0  0  # atno 17342 bound_to 10162
  140.6786  143.2316  151.5442 LP  0  0  0  0  0  0  0  0  0  0  0  0  # atno 17343 bound_to 10162
  156.7578  130.9139  151.3640 LP  0  0  0  0  0  0  0  0  0  0  0  0  # atno 17370 bound_to 10713
  157.6750  130.9086  150.0130 LP  0  0  0  0  0  0  0  0  0  0  0  0  # atno 17371 bound_to 10713
  139.9243  135.0201  156.8177 LP  0  0  0  0  0  0  0  0  0  0  0  0  # atno 17394 bound_to 11000
  140.6316  133.9900  155.7665 LP  0  0  0  0  0  0  0  0  0  0  0  0  # atno 17395 bound_to 11000

$$$$
