AV-unprocessed.smi:3329|AV-procd|sdf|12798|dock8
  -GOLD-   2272019153D 1   1.00000     0.00000
 Structure written by MMmdl.
 41 42  0  0  0  0  0  0  0  0  1 V2000
  146.2126  130.7055  152.1918 C   0  0  0  0  0  0  0  0  0  0  0  0
  146.3401  132.2015  152.2129 C   0  0  0  0  0  0  0  0  0  0  0  0
  147.3871  132.9830  152.7802 C   0  0  0  0  0  0  0  0  0  0  0  0
  147.1995  134.2837  152.6267 N   0  0  0  0  0  0  0  0  0  0  0  0
  146.0300  134.3789  151.9596 N   0  0  0  0  0  0  0  0  0  0  0  0
  145.5038  135.6851  151.6053 C   0  0  0  0  0  0  0  0  0  0  0  0
  145.2579  136.5754  152.8357 C   0  0  0  0  0  0  0  0  0  0  0  0
  145.1863  137.9739  152.4373 N   0  0  0  0  0  0  0  0  0  0  0  0
  146.4818  138.4389  151.9325 C   0  0  0  0  0  0  0  0  0  0  0  0
  147.3134  139.0897  153.0365 C   0  0  0  0  0  0  0  0  0  0  0  0
  146.8936  140.0967  153.6043 O   0  0  0  0  0  0  0  0  0  0  0  0
  148.4887  138.5024  153.3223 N   0  0  0  0  0  0  0  0  0  0  0  0
  149.4666  138.8843  154.3441 C   0  0  2  0  0  0  0  0  0  0  0  0
  148.8024  138.8604  155.7353 C   0  0  0  0  0  0  0  0  0  0  0  0
  149.8653  140.2771  154.0675 C   0  0  0  0  0  0  0  0  0  0  0  0
  150.1760  141.3704  153.8486 N   0  0  0  0  0  0  0  0  0  0  0  0
  150.7115  137.9901  154.3517 C   0  0  0  0  0  0  0  0  0  0  0  0
  150.7284  136.6249  155.0030 C   0  0  0  0  0  0  0  0  0  0  0  0
  151.5401  137.7566  155.5949 C   0  0  0  0  0  0  0  0  0  0  0  0
  145.4880  133.1379  151.6998 C   0  0  0  0  0  0  0  0  0  0  0  0
  147.1671  130.2147  152.3835 H   0  0  0  0  0  0  0  0  0  0  0  0
  145.8553  130.3450  151.2270 H   0  0  0  0  0  0  0  0  0  0  0  0
  145.5114  130.3520  152.9479 H   0  0  0  0  0  0  0  0  0  0  0  0
  148.2738  132.6447  153.2957 H   0  0  0  0  0  0  0  0  0  0  0  0
  146.1965  136.1685  150.9148 H   0  0  0  0  0  0  0  0  0  0  0  0
  144.5705  135.5416  151.0593 H   0  0  0  0  0  0  0  0  0  0  0  0
  144.3217  136.2839  153.3136 H   0  0  0  0  0  0  0  0  0  0  0  0
  146.0532  136.4338  153.5692 H   0  0  0  0  0  0  0  0  0  0  0  0
  144.4658  138.0731  151.7361 H   0  0  0  0  0  0  0  0  0  0  0  0
  147.0434  137.6003  151.5180 H   0  0  0  0  0  0  0  0  0  0  0  0
  146.3270  139.1571  151.1257 H   0  0  0  0  0  0  0  0  0  0  0  0
  148.7222  137.6810  152.7832 H   0  0  0  0  0  0  0  0  0  0  0  0
  149.4848  139.2364  156.4985 H   0  0  0  0  0  0  0  0  0  0  0  0
  148.5101  137.8539  156.0347 H   0  0  0  0  0  0  0  0  0  0  0  0
  147.9096  139.4865  155.7591 H   0  0  0  0  0  0  0  0  0  0  0  0
  151.2793  138.0424  153.4250 H   0  0  0  0  0  0  0  0  0  0  0  0
  149.8454  136.2996  155.5487 H   0  0  0  0  0  0  0  0  0  0  0  0
  151.2709  135.8338  154.4892 H   0  0  0  0  0  0  0  0  0  0  0  0
  152.6207  137.7176  155.4737 H   0  0  0  0  0  0  0  0  0  0  0  0
  151.1957  138.1858  156.5333 H   0  0  0  0  0  0  0  0  0  0  0  0
  144.5521  133.0256  151.1722 H   0  0  0  0  0  0  0  0  0  0  0  0
  1  2  1  0  0  0  0
  1 21  1  0  0  0  0
  1 22  1  0  0  0  0
  1 23  1  0  0  0  0
  2 20  2  0  0  0  0
  2  3  1  0  0  0  0
  3  4  2  0  0  0  0
  3 24  1  0  0  0  0
  4  5  1  0  0  0  0
  5  6  1  0  0  0  0
  5 20  1  0  0  0  0
  6  7  1  0  0  0  0
  6 25  1  0  0  0  0
  6 26  1  0  0  0  0
  7  8  1  0  0  0  0
  7 27  1  0  0  0  0
  7 28  1  0  0  0  0
  8  9  1  0  0  0  0
  8 29  1  0  0  0  0
  9 10  1  0  0  0  0
  9 30  1  0  0  0  0
  9 31  1  0  0  0  0
 10 11  2  0  0  0  0
 10 12  1  0  0  0  0
 12 13  1  0  0  0  0
 12 32  1  0  0  0  0
 13 14  1  0  0  0  0
 13 15  1  0  0  0  0
 13 17  1  0  0  0  0
 14 33  1  0  0  0  0
 14 34  1  0  0  0  0
 14 35  1  0  0  0  0
 15 16  3  0  0  0  0
 17 19  1  0  0  0  0
 17 18  1  0  0  0  0
 17 36  1  0  0  0  0
 18 19  1  0  0  0  0
 18 37  1  0  0  0  0
 18 38  1  0  0  0  0
 19 39  1  0  0  0  0
 19 40  1  0  0  0  0
 20 41  1  0  0  0  0
M  END
> <s_m_source_file>
AV-unprocessed.smi

> <i_m_source_file_index>
3329

> <i_lp_mmshare_version>
43012

> <i_f3d_flags>
0

> <s_epik_input>
W0NIM11jMVtjSF1ubihbY0hdMSlbQ0gyXVtDSDJdW05IXVtDSDJdQyg9TylbTkhdW0NAQF0oW0NIM10pKEMjTilbQ0hdMltDSDJdW0NIMl0y

> <s_epik_cmdline>
J2VwaWtfcHl0aG9uJywgJy1waCcsICc3LjAnLCAnLXRuJywgJzgnLCAnLW1hJywgJzIwMCcsICctbWV0YWxfYmluZGluZycsICctaW1hZScsICc8aW5maWxlLm1hZT4nLCAnLW9tYWUnLCAnPG91dGZpbGUubWFlPic=

> <r_lp_tautomer_probability>
1

> <r_epik_Ionization_Penalty>
0.481866

> <r_epik_Ionization_Penalty_Charging>
0

> <r_epik_Ionization_Penalty_Neutral>
0.481866

> <r_epik_State_Penalty>
0.48398

> <r_epik_Charging_Adjusted_Penalty>
0.48398

> <i_epik_Tot_Q>
0

> <i_epik_Tot_abs_Q>
0

> <r_epik_Metal_State_Penalty>
0.5042

> <b_epik_Metal_Only>
0

> <s_lp_Force_Field>
OPLS_2005

> <r_lp_Energy>
14.7625

> <b_lp_Chiralities_Consistent>
1

> <s_lp_Variant>
AV-unprocessed.smi:3329-4

> <Gold.Version>
5.8.1

> <Gold.Id.Protein>
6NUR|6NUR_protein|mol2

> <Gold.PLP.Fitness>
43.5311

> <Gold.PLP.PLP>
-35.3215

> <Gold.PLP.part.hbond>
-4.2122

> <Gold.PLP.part.metal>
0.0000

> <Gold.PLP.part.buried>
-5.2748

> <Gold.PLP.part.nonpolar>
-27.8456

> <Gold.PLP.part.repulsive>
1.2024

> <Gold.PLP.ligand.clash>
0.0000

> <Gold.PLP.ligand.torsion>
1.0968

> <Gold.PLP.Chemscore.Hbond>
2.9280

> <Gold.PLP.Chemscore.CHOScore>
0.0000

> <Gold.PLP.Chemscore.Metal>
0.0000

> <Gold.Chemscore.Hbonds>
donor molecule, donor type, donor heavy atom, donor atom, acceptor molecule, acceptor atom, score
      L1  H     8    29       P1 10171  0.89
      L1  H    12    32       P1  7948  1.00
      P1  H  7989  7998       L1    16  0.11
      P1  H  8011  8017       L1    16  0.66

> <Gold.PLP.Chemscore.Internal.Correction>
1.6191

> <Gold.Rescore>
     Score         DG    S(hbond)    S(metal)    S(lipo)     H(rot)  DE(clash)    DE(int)     intcor
     15.41     -17.50       2.91        0.00      70.22       2.31       0.04       2.05       ----

> <Gold.Chemscore.Fitness>
15.4052

> <Gold.Chemscore.DG>
-17.4959

> <Gold.Chemscore.ZeroCoef>
-5.4800

> <Gold.Chemscore.Hbond>
2.9105

> <Gold.Chemscore.Metal>
0.0000

> <Gold.Chemscore.Lipo>
70.2217

> <Gold.Chemscore.Internal_Hbond>
0.0000

> <Gold.Chemscore.DEClash>
0.0415

> <Gold.Chemscore.DEInternal>
2.0491

> <Gold.Chemscore.Rot>
2.3129

> <Gold.Chemscore.Internal.Correction>
   9.000000E+99

> <Gold.Chemscore.Hbonds>
donor molecule, donor type, donor heavy atom, donor atom, acceptor molecule, acceptor atom, score
      L1  H     8    29       P1 10171  0.82
      L1  H    12    32       P1  7948  1.00
      P1  H  7989  7998       L1    16  0.01
      P1  H  8011  8017       L1    16  0.66

> <Gold.Chemscore.Hbond.Weighted>
-9.7211

> <Gold.Chemscore.Metal.Weighted>
-0.0000

> <Gold.Chemscore.Lipo.Weighted>
-8.2159

> <Gold.Chemscore.Internal_Hbond.Weighted>
0.0000

> <Gold.Chemscore.DEClash.Weighted>
0.0415

> <Gold.Chemscore.DEInternal.Weighted>
2.0491

> <Gold.Chemscore.Rot.Weighted>
5.9211

> <Gold.Chemscore.Internal.Correction.Weighted>
   9.000000E+99

> <Gold.Protein.RotatedTorsions>
[ 6907 6896 6895 6894 ] final -141.26 input  -60.11 | X-H torsion
[ 7974 7965 7964 7962 ] final   65.57 input  175.53 | X-H torsion
[ 8008 7997 7996 7995 ] final   97.55 input   59.86 | X-H torsion
[ 10167 10162 10161 10158 ] final  -48.76 input  -65.29 | X-H torsion
[ 10718 10713 10712 10709 ] final  111.01 input   66.30 | X-H torsion
[ 10763 10752 10751 10750 ] final   98.17 input  -60.55 | X-H torsion
[ 11005 11000 10999 10996 ] final -115.77 input  -57.11 | X-H torsion

> <Gold.Protein.ActiveResidues>
 VAL166  LYS551  ARG553  GLY616  TRP617  ASP618  TYR619  PRO620  LYS621  CYS622 
 ASP623  PHE694  ASN695  SER759  ASP760  ASP761  ALA762  ILE779  LEU786  VAL792 
 PHE793  MET794  SER795  GLU796  ALA797  LYS798  CYS799  TRP800  GLU811  SER814 

> <Gold.Protein.RotatedAtoms>
  151.0715  133.5463  159.2626 H   0  0  0  0  0  0  0  0  0  0  0  0  # atno 6907 bound_to 6896
  151.2400  135.0585  159.9031 H   0  0  0  0  0  0  0  0  0  0  0  0  # atno 6908 bound_to 6896
  152.5412  134.0491  159.8155 H   0  0  0  0  0  0  0  0  0  0  0  0  # atno 6909 bound_to 6896
  145.8369  139.3172  143.0954 H   0  0  0  0  0  0  0  0  0  0  0  0  # atno 7974 bound_to 7965
  156.0913  140.3257  155.7819 H   0  0  0  0  0  0  0  0  0  0  0  0  # atno 8008 bound_to 7997
  155.4992  140.0568  157.2959 H   0  0  0  0  0  0  0  0  0  0  0  0  # atno 8009 bound_to 7997
  154.4639  140.1980  156.0186 H   0  0  0  0  0  0  0  0  0  0  0  0  # atno 8010 bound_to 7997
  140.6716  143.2726  151.4117 H   0  0  0  0  0  0  0  0  0  0  0  0  # atno 10167 bound_to 10162
  157.6466  131.0943  150.6686 H   0  0  0  0  0  0  0  0  0  0  0  0  # atno 10718 bound_to 10713
  153.2858  135.4157  155.1121 H   0  0  0  0  0  0  0  0  0  0  0  0  # atno 10763 bound_to 10752
  154.8504  135.3506  154.6049 H   0  0  0  0  0  0  0  0  0  0  0  0  # atno 10764 bound_to 10752
  153.6471  135.7054  153.5279 H   0  0  0  0  0  0  0  0  0  0  0  0  # atno 10765 bound_to 10752
  141.0466  133.9753  157.2907 H   0  0  0  0  0  0  0  0  0  0  0  0  # atno 11005 bound_to 11000
  145.9508  140.8910  143.0260 LP  0  0  0  0  0  0  0  0  0  0  0  0  # atno 17320 bound_to 7965
  144.6736  140.1678  143.7417 LP  0  0  0  0  0  0  0  0  0  0  0  0  # atno 17321 bound_to 7965
  139.5988  144.1340  152.2174 LP  0  0  0  0  0  0  0  0  0  0  0  0  # atno 17342 bound_to 10162
  140.0718  144.5773  150.7186 LP  0  0  0  0  0  0  0  0  0  0  0  0  # atno 17343 bound_to 10162
  156.7003  130.4621  149.5575 LP  0  0  0  0  0  0  0  0  0  0  0  0  # atno 17370 bound_to 10713
  156.1800  130.6493  151.0940 LP  0  0  0  0  0  0  0  0  0  0  0  0  # atno 17371 bound_to 10713
  139.9316  135.0199  156.8420 LP  0  0  0  0  0  0  0  0  0  0  0  0  # atno 17394 bound_to 11000
  140.6135  134.0060  155.7587 LP  0  0  0  0  0  0  0  0  0  0  0  0  # atno 17395 bound_to 11000

$$$$
