AV-unprocessed.smi:3127|AV-procd|sdf|11914|dock6
  -GOLD-   2272017293D 1   1.00000     0.00000
 Structure written by MMmdl.
 34 35  0  0  0  0  0  0  0  0  2 V2000
  152.0478  144.6568  158.3448 C   0  0  0  0  0  0  0  0  0  0  0  0
  151.3638  143.5802  159.2146 C   0  0  0  0  0  0  0  0  0  0  0  0
  152.4657  142.7990  159.9572 C   0  0  0  0  0  0  0  0  0  0  0  0
  150.4534  144.2970  160.2310 C   0  0  0  0  0  0  0  0  0  0  0  0
  150.5417  142.6312  158.3652 C   0  0  0  0  0  0  0  0  0  0  0  0
  149.2133  142.2996  158.5048 C   0  0  0  0  0  0  0  0  0  0  0  0
  148.6859  141.1560  157.3013 S   0  0  0  0  0  0  0  0  0  0  0  0
  150.3049  141.1735  156.6189 C   0  0  0  0  0  0  0  0  0  0  0  0
  150.7056  140.3297  155.4518 C   0  0  2  0  0  0  0  0  0  0  0  0
  149.5585  139.4279  154.9581 C   0  0  0  0  0  0  0  0  0  0  0  0
  150.0365  138.5553  153.8681 N   0  3  0  0  0  0  0  0  0  0  0  0
  151.2250  137.7805  154.2770 C   0  0  0  0  0  0  0  0  0  0  0  0
  152.3206  138.7265  154.7999 C   0  0  0  0  0  0  0  0  0  0  0  0
  151.8040  139.5189  155.8642 O   0  0  0  0  0  0  0  0  0  0  0  0
  151.1449  141.9674  157.2886 N   0  0  0  0  0  0  0  0  0  0  0  0
  152.6421  145.3398  158.9530 H   0  0  0  0  0  0  0  0  0  0  0  0
  151.3175  145.2598  157.8035 H   0  0  0  0  0  0  0  0  0  0  0  0
  152.7203  144.2105  157.6110 H   0  0  0  0  0  0  0  0  0  0  0  0
  153.1238  142.2816  159.2580 H   0  0  0  0  0  0  0  0  0  0  0  0
  152.0453  142.0492  160.6283 H   0  0  0  0  0  0  0  0  0  0  0  0
  153.0849  143.4625  160.5617 H   0  0  0  0  0  0  0  0  0  0  0  0
  151.0180  145.0015  160.8427 H   0  0  0  0  0  0  0  0  0  0  0  0
  149.9744  143.5912  160.9105 H   0  0  0  0  0  0  0  0  0  0  0  0
  149.6638  144.8568  159.7284 H   0  0  0  0  0  0  0  0  0  0  0  0
  148.5091  142.6533  159.2435 H   0  0  0  0  0  0  0  0  0  0  0  0
  151.0315  140.9952  154.6503 H   0  0  0  0  0  0  0  0  0  0  0  0
  149.1844  138.8060  155.7729 H   0  0  0  0  0  0  0  0  0  0  0  0
  148.7216  140.0283  154.6002 H   0  0  0  0  0  0  0  0  0  0  0  0
  149.2985  137.9207  153.5972 H   0  0  0  0  0  0  0  0  0  0  0  0
  150.9401  137.0694  155.0535 H   0  0  0  0  0  0  0  0  0  0  0  0
  151.5897  137.2017  153.4282 H   0  0  0  0  0  0  0  0  0  0  0  0
  153.1706  138.1515  155.1676 H   0  0  0  0  0  0  0  0  0  0  0  0
  152.6933  139.3702  154.0015 H   0  0  0  0  0  0  0  0  0  0  0  0
  150.2824  139.1319  153.0760 H   0  0  0  0  0  0  0  0  0  0  0  0
  1  2  1  0  0  0  0
  1 16  1  0  0  0  0
  1 17  1  0  0  0  0
  1 18  1  0  0  0  0
  2  3  1  0  0  0  0
  2  4  1  0  0  0  0
  2  5  1  0  0  0  0
  3 19  1  0  0  0  0
  3 20  1  0  0  0  0
  3 21  1  0  0  0  0
  4 22  1  0  0  0  0
  4 23  1  0  0  0  0
  4 24  1  0  0  0  0
  5 15  1  0  0  0  0
  5  6  2  0  0  0  0
  6  7  1  0  0  0  0
  6 25  1  0  0  0  0
  7  8  1  0  0  0  0
  8  9  1  0  0  0  0
  8 15  2  0  0  0  0
  9 14  1  0  0  0  0
  9 10  1  0  0  0  0
  9 26  1  0  0  0  0
 10 11  1  0  0  0  0
 10 27  1  0  0  0  0
 10 28  1  0  0  0  0
 11 12  1  0  0  0  0
 11 29  1  0  0  0  0
 11 34  1  0  0  0  0
 12 13  1  0  0  0  0
 12 30  1  0  0  0  0
 12 31  1  0  0  0  0
 13 14  1  0  0  0  0
 13 32  1  0  0  0  0
 13 33  1  0  0  0  0
M  CHG  1  11   1
M  END
> <s_m_source_file>
AV-unprocessed.smi

> <i_m_source_file_index>
3127

> <i_lp_mmshare_version>
43012

> <i_f3d_flags>
0

> <s_epik_input>
W0NIM11DKFtDSDNdKShbQ0gzXSljMVtjSF1zYyhuMSlbQ0BASF0yW0NIMl1bTkhdW0NIMl1bQ0gyXU8y

> <s_epik_cmdline>
J2VwaWtfcHl0aG9uJywgJy1waCcsICc3LjAnLCAnLXRuJywgJzgnLCAnLW1hJywgJzIwMCcsICctbWV0YWxfYmluZGluZycsICctaW1hZScsICc8aW5maWxlLm1hZT4nLCAnLW9tYWUnLCAnPG91dGZpbGUubWFlPic=

> <r_epik_Ionization_Penalty>
0.125708

> <r_epik_Ionization_Penalty_Charging>
0.125708

> <r_epik_Ionization_Penalty_Neutral>
5.37588e-07

> <r_epik_State_Penalty>
0.0155352

> <r_epik_Charging_Adjusted_Penalty>
0.141243

> <i_epik_Tot_Q>
1

> <i_epik_Tot_abs_Q>
1

> <r_epik_Metal_State_Penalty>
0.0155796

> <b_epik_Metal_Only>
0

> <s_lp_Force_Field>
OPLS_2005

> <r_lp_Energy>
5.69116

> <b_lp_Chiralities_Consistent>
1

> <s_lp_Variant>
AV-unprocessed.smi:3127-1

> <Gold.Version>
5.8.1

> <Gold.Id.Protein>
6NUR|6NUR_protein|mol2

> <Gold.PLP.Fitness>
32.5104

> <Gold.PLP.PLP>
-31.0517

> <Gold.PLP.part.hbond>
-1.1291

> <Gold.PLP.part.metal>
0.0000

> <Gold.PLP.part.buried>
-5.4405

> <Gold.PLP.part.nonpolar>
-28.3055

> <Gold.PLP.part.repulsive>
0.1238

> <Gold.PLP.ligand.clash>
0.0000

> <Gold.PLP.ligand.torsion>
0.1277

> <Gold.PLP.Chemscore.Hbond>
0.5673

> <Gold.PLP.Chemscore.CHOScore>
0.0000

> <Gold.PLP.Chemscore.Metal>
0.0000

> <Gold.Chemscore.Hbonds>
donor molecule, donor type, donor heavy atom, donor atom, acceptor molecule, acceptor atom, score
      L1  H    11    29       P1  7948  0.05
      L1  H    11    34       P1  7957  0.52

> <Gold.PLP.Chemscore.Internal.Correction>
0.0123

> <Gold.Rescore>
     Score         DG    S(hbond)    S(metal)    S(lipo)     H(rot)  DE(clash)    DE(int)     intcor
     17.06     -17.18       0.98        0.00      97.09       1.14       0.05       0.07       ----

> <Gold.Chemscore.Fitness>
17.0640

> <Gold.Chemscore.DG>
-17.1832

> <Gold.Chemscore.ZeroCoef>
-5.4800

> <Gold.Chemscore.Hbond>
0.9760

> <Gold.Chemscore.Metal>
0.0000

> <Gold.Chemscore.Lipo>
97.0939

> <Gold.Chemscore.Internal_Hbond>
0.0000

> <Gold.Chemscore.DEClash>
0.0519

> <Gold.Chemscore.DEInternal>
0.0672

> <Gold.Chemscore.Rot>
1.1393

> <Gold.Chemscore.Internal.Correction>
   9.000000E+99

> <Gold.Chemscore.Hbonds>
donor molecule, donor type, donor heavy atom, donor atom, acceptor molecule, acceptor atom, score
      L1  H    11    29       P1  7948  0.06
      L1  H    11    34       P1  7957  0.40

> <Gold.Chemscore.Hbond.Weighted>
-3.2599

> <Gold.Chemscore.Metal.Weighted>
-0.0000

> <Gold.Chemscore.Lipo.Weighted>
-11.3600

> <Gold.Chemscore.Internal_Hbond.Weighted>
0.0000

> <Gold.Chemscore.DEClash.Weighted>
0.0519

> <Gold.Chemscore.DEInternal.Weighted>
0.0672

> <Gold.Chemscore.Rot.Weighted>
2.9167

> <Gold.Chemscore.Internal.Correction.Weighted>
   9.000000E+99

> <Gold.Protein.RotatedTorsions>
[ 6907 6896 6895 6894 ] final    1.76 input  -60.11 | X-H torsion
[ 7974 7965 7964 7962 ] final  122.09 input  175.53 | X-H torsion
[ 8008 7997 7996 7995 ] final -169.36 input   59.86 | X-H torsion
[ 10167 10162 10161 10158 ] final  155.49 input  -65.29 | X-H torsion
[ 10718 10713 10712 10709 ] final  175.98 input   66.30 | X-H torsion
[ 10763 10752 10751 10750 ] final   84.29 input  -60.55 | X-H torsion
[ 11005 11000 10999 10996 ] final   55.39 input  -57.11 | X-H torsion

> <Gold.Protein.ActiveResidues>
 VAL166  LYS551  ARG553  GLY616  TRP617  ASP618  TYR619  PRO620  LYS621  CYS622 
 ASP623  PHE694  ASN695  SER759  ASP760  ASP761  ALA762  ILE779  LEU786  VAL792 
 PHE793  MET794  SER795  GLU796  ALA797  LYS798  CYS799  TRP800  GLU811  SER814 

> <Gold.Protein.RotatedAtoms>
  151.5979  135.1049  160.0053 H   0  0  0  0  0  0  0  0  0  0  0  0  # atno 6907 bound_to 6896
  152.4273  133.7212  159.6545 H   0  0  0  0  0  0  0  0  0  0  0  0  # atno 6908 bound_to 6896
  150.8163  133.8260  159.3181 H   0  0  0  0  0  0  0  0  0  0  0  0  # atno 6909 bound_to 6896
  145.1116  139.3449  143.4760 H   0  0  0  0  0  0  0  0  0  0  0  0  # atno 7974 bound_to 7965
  155.9039  140.1045  157.1330 H   0  0  0  0  0  0  0  0  0  0  0  0  # atno 8008 bound_to 7997
  154.4030  140.1287  156.4535 H   0  0  0  0  0  0  0  0  0  0  0  0  # atno 8009 bound_to 7997
  155.7390  140.3467  155.5097 H   0  0  0  0  0  0  0  0  0  0  0  0  # atno 8010 bound_to 7997
  139.4821  144.5094  151.8048 H   0  0  0  0  0  0  0  0  0  0  0  0  # atno 10167 bound_to 10162
  156.9268  130.9958  151.2994 H   0  0  0  0  0  0  0  0  0  0  0  0  # atno 10718 bound_to 10713
  153.1368  135.4659  154.9435 H   0  0  0  0  0  0  0  0  0  0  0  0  # atno 10763 bound_to 10752
  154.7713  135.3159  154.8186 H   0  0  0  0  0  0  0  0  0  0  0  0  # atno 10764 bound_to 10752
  153.8717  135.6903  153.4828 H   0  0  0  0  0  0  0  0  0  0  0  0  # atno 10765 bound_to 10752
  140.0611  134.5602  155.9151 H   0  0  0  0  0  0  0  0  0  0  0  0  # atno 11005 bound_to 11000
  146.3526  140.1038  142.8607 LP  0  0  0  0  0  0  0  0  0  0  0  0  # atno 17320 bound_to 7965
  145.0840  140.9240  143.4808 LP  0  0  0  0  0  0  0  0  0  0  0  0  # atno 17321 bound_to 7965
  140.4595  144.1742  150.5905 LP  0  0  0  0  0  0  0  0  0  0  0  0  # atno 17342 bound_to 10162
  140.4499  143.2491  151.9361 LP  0  0  0  0  0  0  0  0  0  0  0  0  # atno 17343 bound_to 10162
  157.5872  130.8418  149.8607 LP  0  0  0  0  0  0  0  0  0  0  0  0  # atno 17370 bound_to 10713
  156.0465  130.3727  150.1304 LP  0  0  0  0  0  0  0  0  0  0  0  0  # atno 17371 bound_to 10713
  141.1973  133.6596  156.5736 LP  0  0  0  0  0  0  0  0  0  0  0  0  # atno 17394 bound_to 11000
  140.3769  134.7557  157.4636 LP  0  0  0  0  0  0  0  0  0  0  0  0  # atno 17395 bound_to 11000

$$$$
