AV-unprocessed.smi:561|AV-procd|sdf|2941|dock10
  -GOLD-   2262023443D 1   1.00000     0.00000
 Structure written by MMmdl.
 36 37  0  0  0  0  0  0  0  0  3 V2000
  151.9174  138.0416  156.2808 C   0  0  0  0  0  0  0  0  0  0  0  0
  151.6317  139.5495  156.2859 C   0  0  1  0  0  0  0  0  0  0  0  0
  150.1169  139.8341  156.4586 C   0  0  0  0  0  0  0  0  0  0  0  0
  149.3043  139.5558  155.2596 N   0  0  0  0  0  0  0  0  0  0  0  0
  148.3667  140.3785  154.6849 C   0  0  0  0  0  0  0  0  0  0  0  0
  147.8743  139.7118  153.5932 C   0  0  0  0  0  0  0  0  0  0  0  0
  148.5196  138.5053  153.5524 N   0  3  0  0  0  0  0  0  0  0  0  0
  149.3822  138.4082  154.5691 C   0  0  0  0  0  0  0  0  0  0  0  0
  152.3896  140.1691  157.3791 N   0  5  0  0  0  0  0  0  0  0  0  0
  151.9869  141.2499  158.1117 C   0  0  0  0  0  0  0  0  0  0  0  0
  151.0708  142.0304  157.8173 O   0  0  0  0  0  0  0  0  0  0  0  0
  152.6891  141.5194  159.4010 C   0  0  0  0  0  0  0  0  0  0  0  0
  152.2694  142.4920  160.1480 N   0  0  0  0  0  0  0  0  0  0  0  0
  152.8737  142.8155  161.3452 N   0  0  0  0  0  0  0  0  0  0  0  0
  152.4522  144.0919  161.9186 C   0  0  0  0  0  0  0  0  0  0  0  0
  153.7659  142.0289  161.9958 C   0  0  0  0  0  0  0  0  0  0  0  0
  154.3014  142.3370  163.0608 O   0  0  0  0  0  0  0  0  0  0  0  0
  154.0736  140.6729  161.3562 C   0  0  0  0  0  0  0  0  0  0  0  0
  153.8917  140.6922  159.8258 C   0  0  0  0  0  0  0  0  0  0  0  0
  151.3771  137.5442  155.4750 H   0  0  0  0  0  0  0  0  0  0  0  0
  151.6170  137.5741  157.2194 H   0  0  0  0  0  0  0  0  0  0  0  0
  152.9795  137.8425  156.1333 H   0  0  0  0  0  0  0  0  0  0  0  0
  151.9346  139.9351  155.3113 H   0  0  0  0  0  0  0  0  0  0  0  0
  149.7132  139.2295  157.2717 H   0  0  0  0  0  0  0  0  0  0  0  0
  149.9519  140.8761  156.7369 H   0  0  0  0  0  0  0  0  0  0  0  0
  148.1410  141.3586  155.0796 H   0  0  0  0  0  0  0  0  0  0  0  0
  147.1339  139.9993  152.8613 H   0  0  0  0  0  0  0  0  0  0  0  0
  150.0278  137.5753  154.7828 H   0  0  0  0  0  0  0  0  0  0  0  0
  151.9468  143.9347  162.8726 H   0  0  0  0  0  0  0  0  0  0  0  0
  151.7628  144.6274  161.2634 H   0  0  0  0  0  0  0  0  0  0  0  0
  153.3126  144.7408  162.0897 H   0  0  0  0  0  0  0  0  0  0  0  0
  155.0845  140.3559  161.6142 H   0  0  0  0  0  0  0  0  0  0  0  0
  153.3933  139.9428  161.7960 H   0  0  0  0  0  0  0  0  0  0  0  0
  153.7936  139.6593  159.4901 H   0  0  0  0  0  0  0  0  0  0  0  0
  154.7877  141.0886  159.3470 H   0  0  0  0  0  0  0  0  0  0  0  0
  148.3723  137.7901  152.8517 H   0  0  0  0  0  0  0  0  0  0  0  0
  1  2  1  0  0  0  0
  1 20  1  0  0  0  0
  1 21  1  0  0  0  0
  1 22  1  0  0  0  0
  2  3  1  0  0  0  0
  2  9  1  0  0  0  0
  2 23  1  0  0  0  0
  3  4  1  0  0  0  0
  3 24  1  0  0  0  0
  3 25  1  0  0  0  0
  4  8  1  0  0  0  0
  4  5  1  0  0  0  0
  5  6  2  0  0  0  0
  5 26  1  0  0  0  0
  6  7  1  0  0  0  0
  6 27  1  0  0  0  0
  7  8  2  0  0  0  0
  7 36  1  0  0  0  0
  8 28  1  0  0  0  0
  9 10  1  0  0  0  0
 10 11  2  0  0  0  0
 10 12  1  0  0  0  0
 12 19  1  0  0  0  0
 12 13  2  0  0  0  0
 13 14  1  0  0  0  0
 14 15  1  0  0  0  0
 14 16  1  0  0  0  0
 15 29  1  0  0  0  0
 15 30  1  0  0  0  0
 15 31  1  0  0  0  0
 16 17  2  0  0  0  0
 16 18  1  0  0  0  0
 18 19  1  0  0  0  0
 18 32  1  0  0  0  0
 18 33  1  0  0  0  0
 19 34  1  0  0  0  0
 19 35  1  0  0  0  0
M  CHG  1   7   1
M  CHG  1   9  -1
M  END
> <s_m_source_file>
AV-unprocessed.smi

> <i_m_source_file_index>
561

> <i_lp_mmshare_version>
43012

> <i_f3d_flags>
0

> <s_epik_input>
W2NIXTFuW2NIXVtjSF1uMVtDSDJdW0NAQEhdKFtDSDNdKVtOSF1DKD1PKUMyPU5OKFtDSDNdKUMoPU8pW0NIMl1bQ0gyXTI=

> <s_epik_cmdline>
J2VwaWtfcHl0aG9uJywgJy1waCcsICc3LjAnLCAnLXRuJywgJzgnLCAnLW1hJywgJzIwMCcsICctbWV0YWxfYmluZGluZycsICctaW1hZScsICc8aW5maWxlLm1hZT4nLCAnLW9tYWUnLCAnPG91dGZpbGUubWFlPic=

> <r_lp_tautomer_probability>
1

> <r_epik_Ionization_Penalty>
5.37239

> <r_epik_Ionization_Penalty_Charging>
5.18263

> <r_epik_Ionization_Penalty_Neutral>
0.189756

> <r_epik_State_Penalty>
5.53772

> <r_epik_Charging_Adjusted_Penalty>
10.7204

> <i_epik_Tot_Q>
0

> <i_epik_Tot_abs_Q>
2

> <r_epik_Metal_State_Penalty>
1.80836

> <b_epik_Metal_Only>
1

> <s_epik_Chemistry_Notes>
This compound has an imine and may undergo hydrolysis.

> <s_lp_Force_Field>
OPLS_2005

> <r_lp_Energy>
21.245

> <b_lp_Chiralities_Consistent>
1

> <s_lp_Variant>
AV-unprocessed.smi:561-6

> <Gold.Version>
5.8.1

> <Gold.Id.Protein>
6NUR|6NUR_protein|mol2

> <Gold.PLP.Fitness>
48.2834

> <Gold.PLP.PLP>
-37.5063

> <Gold.PLP.part.hbond>
-4.0000

> <Gold.PLP.part.metal>
0.0000

> <Gold.PLP.part.buried>
-0.4420

> <Gold.PLP.part.nonpolar>
-31.4090

> <Gold.PLP.part.repulsive>
0.1606

> <Gold.PLP.ligand.clash>
0.0000

> <Gold.PLP.ligand.torsion>
0.6344

> <Gold.PLP.Chemscore.Hbond>
4.0000

> <Gold.PLP.Chemscore.CHOScore>
0.0000

> <Gold.PLP.Chemscore.Metal>
0.0000

> <Gold.Chemscore.Hbonds>
donor molecule, donor type, donor heavy atom, donor atom, acceptor molecule, acceptor atom, score
      L1  H     7    36       P1  7948  2.00
      P1  H  7997  8009       L1     9  1.59

> <Gold.PLP.Chemscore.Internal.Correction>
0.0459

> <Gold.Rescore>
     Score         DG    S(hbond)    S(metal)    S(lipo)     H(rot)  DE(clash)    DE(int)     intcor
     11.38     -13.75       1.54        0.00      64.49       1.73       0.11       2.26       ----

> <Gold.Chemscore.Fitness>
11.3791

> <Gold.Chemscore.DG>
-13.7516

> <Gold.Chemscore.ZeroCoef>
-5.4800

> <Gold.Chemscore.Hbond>
1.5435

> <Gold.Chemscore.Metal>
0.0000

> <Gold.Chemscore.Lipo>
64.4855

> <Gold.Chemscore.Internal_Hbond>
0.0000

> <Gold.Chemscore.DEClash>
0.1128

> <Gold.Chemscore.DEInternal>
2.2597

> <Gold.Chemscore.Rot>
1.7299

> <Gold.Chemscore.Internal.Correction>
   9.000000E+99

> <Gold.Chemscore.Hbonds>
donor molecule, donor type, donor heavy atom, donor atom, acceptor molecule, acceptor atom, score
      L1  H     7    36       P1  7948  0.95
      P1  H  7997  8009       L1     9  0.26

> <Gold.Chemscore.Hbond.Weighted>
-5.1554

> <Gold.Chemscore.Metal.Weighted>
-0.0000

> <Gold.Chemscore.Lipo.Weighted>
-7.5448

> <Gold.Chemscore.Internal_Hbond.Weighted>
0.0000

> <Gold.Chemscore.DEClash.Weighted>
0.1128

> <Gold.Chemscore.DEInternal.Weighted>
2.2597

> <Gold.Chemscore.Rot.Weighted>
4.4286

> <Gold.Chemscore.Internal.Correction.Weighted>
   9.000000E+99

> <Gold.Protein.RotatedTorsions>
[ 6907 6896 6895 6894 ] final  -87.88 input  -60.11 | X-H torsion
[ 7974 7965 7964 7962 ] final -173.54 input  175.53 | X-H torsion
[ 8008 7997 7996 7995 ] final -179.96 input   59.86 | X-H torsion
[ 10167 10162 10161 10158 ] final  -85.68 input  -65.29 | X-H torsion
[ 10718 10713 10712 10709 ] final   58.00 input   66.30 | X-H torsion
[ 10763 10752 10751 10750 ] final  -25.38 input  -60.55 | X-H torsion
[ 11005 11000 10999 10996 ] final  -69.83 input  -57.11 | X-H torsion

> <Gold.Protein.ActiveResidues>
 VAL166  LYS551  ARG553  GLY616  TRP617  ASP618  TYR619  PRO620  LYS621  CYS622 
 ASP623  PHE694  ASN695  SER759  ASP760  ASP761  ALA762  ILE779  LEU786  VAL792 
 PHE793  MET794  SER795  GLU796  ALA797  LYS798  CYS799  TRP800  GLU811  SER814 

> <Gold.Protein.RotatedAtoms>
  150.6867  134.2827  159.4633 H   0  0  0  0  0  0  0  0  0  0  0  0  # atno 6907 bound_to 6896
  152.0740  134.9512  160.0583 H   0  0  0  0  0  0  0  0  0  0  0  0  # atno 6908 bound_to 6896
  152.0891  133.4156  159.4572 H   0  0  0  0  0  0  0  0  0  0  0  0  # atno 6909 bound_to 6896
  144.7137  140.1607  143.6376 H   0  0  0  0  0  0  0  0  0  0  0  0  # atno 7974 bound_to 7965
  156.0365  140.1294  157.0202 H   0  0  0  0  0  0  0  0  0  0  0  0  # atno 8008 bound_to 7997
  154.4372  140.1039  156.6246 H   0  0  0  0  0  0  0  0  0  0  0  0  # atno 8009 bound_to 7997
  155.5729  140.3467  155.4522 H   0  0  0  0  0  0  0  0  0  0  0  0  # atno 8010 bound_to 7997
  140.4014  143.2661  151.9137 H   0  0  0  0  0  0  0  0  0  0  0  0  # atno 10167 bound_to 10162
  157.5561  130.8801  149.9037 H   0  0  0  0  0  0  0  0  0  0  0  0  # atno 10718 bound_to 10713
  153.6989  135.6957  153.5069 H   0  0  0  0  0  0  0  0  0  0  0  0  # atno 10763 bound_to 10752
  153.2357  135.4322  155.0643 H   0  0  0  0  0  0  0  0  0  0  0  0  # atno 10764 bound_to 10752
  154.8350  135.3495  154.6529 H   0  0  0  0  0  0  0  0  0  0  0  0  # atno 10765 bound_to 10752
  141.1562  133.6774  156.6659 H   0  0  0  0  0  0  0  0  0  0  0  0  # atno 11005 bound_to 11000
  145.9033  139.2443  143.1481 LP  0  0  0  0  0  0  0  0  0  0  0  0  # atno 17320 bound_to 7965
  145.9789  140.8699  143.0124 LP  0  0  0  0  0  0  0  0  0  0  0  0  # atno 17321 bound_to 7965
  139.4784  144.5629  151.8210 LP  0  0  0  0  0  0  0  0  0  0  0  0  # atno 17342 bound_to 10162
  140.4736  144.1552  150.5921 LP  0  0  0  0  0  0  0  0  0  0  0  0  # atno 17343 bound_to 10162
  156.0619  130.3698  150.0962 LP  0  0  0  0  0  0  0  0  0  0  0  0  # atno 17370 bound_to 10713
  156.9131  130.9658  151.3560 LP  0  0  0  0  0  0  0  0  0  0  0  0  # atno 17371 bound_to 10713
  140.3211  134.8007  157.4253 LP  0  0  0  0  0  0  0  0  0  0  0  0  # atno 17394 bound_to 11000
  140.1096  134.5363  155.8278 LP  0  0  0  0  0  0  0  0  0  0  0  0  # atno 17395 bound_to 11000

$$$$
