AV-unprocessed.smi:767|AV-procd|sdf|3669|dock9
  -GOLD-   22720 1 83D 1   1.00000     0.00000
 Structure written by MMmdl.
 48 50  0  0  0  0  0  0  0  0  2 V2000
  150.8416  143.7345  157.7980 C   0  0  0  0  0  0  0  0  0  0  0  0
  150.7404  142.4358  157.0261 C   0  0  0  0  0  0  0  0  0  0  0  0
  151.4668  141.2822  157.3920 C   0  0  0  0  0  0  0  0  0  0  0  0
  151.3244  140.1069  156.6256 C   0  0  0  0  0  0  0  0  0  0  0  0
  150.4592  140.1082  155.5098 C   0  0  0  0  0  0  0  0  0  0  0  0
  150.2801  138.8592  154.6695 C   0  0  0  0  0  0  0  0  0  0  0  0
  149.8288  137.6563  155.5134 C   0  0  0  0  0  0  0  0  0  0  0  0
  149.4154  136.5378  154.6753 N   0  0  0  0  0  0  0  0  0  0  0  0
  149.0555  135.3308  155.1329 C   0  0  0  0  0  0  0  0  0  0  0  0
  149.0267  135.0261  156.3256 O   0  0  0  0  0  0  0  0  0  0  0  0
  148.7260  134.4984  154.1369 N   0  0  0  0  0  0  0  0  0  0  0  0
  148.3041  133.1141  154.3258 C   0  0  2  0  0  0  0  0  0  0  0  0
  149.3925  132.1083  153.9194 C   0  0  1  0  0  0  0  0  0  0  0  0
  150.0275  131.2292  154.9619 C   0  0  0  0  0  0  0  0  0  0  0  0
  149.2078  129.9390  154.8656 C   0  0  0  0  0  0  0  0  0  0  0  0
  147.9769  130.3372  154.2663 O   0  0  0  0  0  0  0  0  0  0  0  0
  148.2813  131.3032  153.2630 C   0  0  1  0  0  0  0  0  0  0  0  0
  147.3822  132.5568  153.2110 C   0  0  0  0  0  0  0  0  0  0  0  0
  145.9157  132.3457  153.5906 C   0  0  0  0  0  0  0  0  0  0  0  0
  147.3895  133.2792  151.8562 C   0  0  0  0  0  0  0  0  0  0  0  0
  149.7570  141.2906  155.1921 C   0  0  0  0  0  0  0  0  0  0  0  0
  149.9214  142.3964  155.9509 N   0  3  0  0  0  0  0  0  0  0  0  0
  151.5185  143.6352  158.6472 H   0  0  0  0  0  0  0  0  0  0  0  0
  149.8624  144.0294  158.1765 H   0  0  0  0  0  0  0  0  0  0  0  0
  151.2174  144.5306  157.1549 H   0  0  0  0  0  0  0  0  0  0  0  0
  152.1257  141.2946  158.2481 H   0  0  0  0  0  0  0  0  0  0  0  0
  151.8725  139.2153  156.8941 H   0  0  0  0  0  0  0  0  0  0  0  0
  149.5525  139.0658  153.8833 H   0  0  0  0  0  0  0  0  0  0  0  0
  151.2199  138.6316  154.1646 H   0  0  0  0  0  0  0  0  0  0  0  0
  150.6481  137.3181  156.1483 H   0  0  0  0  0  0  0  0  0  0  0  0
  149.0141  137.9410  156.1816 H   0  0  0  0  0  0  0  0  0  0  0  0
  149.4083  136.6917  153.6774 H   0  0  0  0  0  0  0  0  0  0  0  0
  148.7791  134.8373  153.1875 H   0  0  0  0  0  0  0  0  0  0  0  0
  147.9151  132.9067  155.3253 H   0  0  0  0  0  0  0  0  0  0  0  0
  150.0854  132.5120  153.1786 H   0  0  0  0  0  0  0  0  0  0  0  0
  151.0854  131.0479  154.7708 H   0  0  0  0  0  0  0  0  0  0  0  0
  149.9373  131.6741  155.9533 H   0  0  0  0  0  0  0  0  0  0  0  0
  149.7026  129.2183  154.2127 H   0  0  0  0  0  0  0  0  0  0  0  0
  149.0477  129.4680  155.8356 H   0  0  0  0  0  0  0  0  0  0  0  0
  148.5559  130.8650  152.3022 H   0  0  0  0  0  0  0  0  0  0  0  0
  145.4019  131.7133  152.8660 H   0  0  0  0  0  0  0  0  0  0  0  0
  145.3765  133.2918  153.6464 H   0  0  0  0  0  0  0  0  0  0  0  0
  145.8176  131.8653  154.5643 H   0  0  0  0  0  0  0  0  0  0  0  0
  146.8912  132.6873  151.0878 H   0  0  0  0  0  0  0  0  0  0  0  0
  148.4037  133.4688  151.5037 H   0  0  0  0  0  0  0  0  0  0  0  0
  146.8788  134.2412  151.9089 H   0  0  0  0  0  0  0  0  0  0  0  0
  149.0733  141.3854  154.3609 H   0  0  0  0  0  0  0  0  0  0  0  0
  149.4039  143.2396  155.7012 H   0  0  0  0  0  0  0  0  0  0  0  0
  1  2  1  0  0  0  0
  1 23  1  0  0  0  0
  1 24  1  0  0  0  0
  1 25  1  0  0  0  0
  2 22  1  0  0  0  0
  2  3  2  0  0  0  0
  3  4  1  0  0  0  0
  3 26  1  0  0  0  0
  4  5  2  0  0  0  0
  4 27  1  0  0  0  0
  5  6  1  0  0  0  0
  5 21  1  0  0  0  0
  6  7  1  0  0  0  0
  6 28  1  0  0  0  0
  6 29  1  0  0  0  0
  7  8  1  0  0  0  0
  7 30  1  0  0  0  0
  7 31  1  0  0  0  0
  8  9  1  0  0  0  0
  8 32  1  0  0  0  0
  9 10  2  0  0  0  0
  9 11  1  0  0  0  0
 11 12  1  0  0  0  0
 11 33  1  0  0  0  0
 12 18  1  0  0  0  0
 12 13  1  0  0  0  0
 12 34  1  0  0  0  0
 13 17  1  0  0  0  0
 13 14  1  0  0  0  0
 13 35  1  0  0  0  0
 14 15  1  0  0  0  0
 14 36  1  0  0  0  0
 14 37  1  0  0  0  0
 15 16  1  0  0  0  0
 15 38  1  0  0  0  0
 15 39  1  0  0  0  0
 16 17  1  0  0  0  0
 17 18  1  0  0  0  0
 17 40  1  0  0  0  0
 18 19  1  0  0  0  0
 18 20  1  0  0  0  0
 19 41  1  0  0  0  0
 19 42  1  0  0  0  0
 19 43  1  0  0  0  0
 20 44  1  0  0  0  0
 20 45  1  0  0  0  0
 20 46  1  0  0  0  0
 21 22  2  0  0  0  0
 21 47  1  0  0  0  0
 22 48  1  0  0  0  0
M  CHG  1  22   1
M  END
> <s_m_source_file>
AV-unprocessed.smi

> <i_m_source_file_index>
767

> <i_lp_mmshare_version>
43012

> <i_f3d_flags>
0

> <s_epik_input>
W0NIM11jMVtjSF1bY0hdYyhbY0hdbjEpW0NIMl1bQ0gyXVtOSF1DKD1PKVtOSF1bQ0BIXTJDKFtDSDNdKShbQ0gzXSlbQ0BIXShbQ0BASF0yMylPW0NIMl1bQ0gyXTM=

> <s_epik_cmdline>
J2VwaWtfcHl0aG9uJywgJy1waCcsICc3LjAnLCAnLXRuJywgJzgnLCAnLW1hJywgJzIwMCcsICctbWV0YWxfYmluZGluZycsICctaW1hZScsICc8aW5maWxlLm1hZT4nLCAnLW9tYWUnLCAnPG91dGZpbGUubWFlPic=

> <r_epik_Ionization_Penalty>
1.41853

> <r_epik_Ionization_Penalty_Charging>
1.41848

> <r_epik_Ionization_Penalty_Neutral>
5.17407e-05

> <r_epik_State_Penalty>
1.50205

> <r_epik_Charging_Adjusted_Penalty>
2.92053

> <i_epik_Tot_Q>
1

> <i_epik_Tot_abs_Q>
1

> <r_epik_Metal_State_Penalty>
1.5544

> <b_epik_Metal_Only>
0

> <s_lp_Force_Field>
OPLS_2005

> <r_lp_Energy>
38.5293

> <b_lp_Chiralities_Consistent>
1

> <s_lp_Variant>
AV-unprocessed.smi:767-13

> <Gold.Version>
5.8.1

> <Gold.Id.Protein>
6NUR|6NUR_protein|mol2

> <Gold.PLP.Fitness>
48.0691

> <Gold.PLP.PLP>
-36.5236

> <Gold.PLP.part.hbond>
-3.0000

> <Gold.PLP.part.metal>
0.0000

> <Gold.PLP.part.buried>
-3.3302

> <Gold.PLP.part.nonpolar>
-30.2271

> <Gold.PLP.part.repulsive>
0.2136

> <Gold.PLP.ligand.clash>
0.0000

> <Gold.PLP.ligand.torsion>
0.3177

> <Gold.PLP.Chemscore.Hbond>
4.0000

> <Gold.PLP.Chemscore.CHOScore>
0.0000

> <Gold.PLP.Chemscore.Metal>
0.0000

> <Gold.Chemscore.Hbonds>
donor molecule, donor type, donor heavy atom, donor atom, acceptor molecule, acceptor atom, score
      L1  H     8    32       P1  7948  1.00
      L1  H    11    33       P1  7948  1.00
      L1  H    22    48       P1  8028  2.00

> <Gold.PLP.Chemscore.Internal.Correction>
0.1809

> <Gold.Rescore>
     Score         DG    S(hbond)    S(metal)    S(lipo)     H(rot)  DE(clash)    DE(int)     intcor
     21.55     -21.98       2.77        0.00      95.30       1.52       0.10       0.33       ----

> <Gold.Chemscore.Fitness>
21.5526

> <Gold.Chemscore.DG>
-21.9805

> <Gold.Chemscore.ZeroCoef>
-5.4800

> <Gold.Chemscore.Hbond>
2.7696

> <Gold.Chemscore.Metal>
0.0000

> <Gold.Chemscore.Lipo>
95.2965

> <Gold.Chemscore.Internal_Hbond>
0.0000

> <Gold.Chemscore.DEClash>
0.1004

> <Gold.Chemscore.DEInternal>
0.3275

> <Gold.Chemscore.Rot>
1.5233

> <Gold.Chemscore.Internal.Correction>
   9.000000E+99

> <Gold.Chemscore.Hbonds>
donor molecule, donor type, donor heavy atom, donor atom, acceptor molecule, acceptor atom, score
      L1  H     8    32       P1  7948  0.88
      L1  H    11    33       P1  7948  0.29
      L1  H    22    48       P1  8028  0.97

> <Gold.Chemscore.Hbond.Weighted>
-9.2504

> <Gold.Chemscore.Metal.Weighted>
-0.0000

> <Gold.Chemscore.Lipo.Weighted>
-11.1497

> <Gold.Chemscore.Internal_Hbond.Weighted>
0.0000

> <Gold.Chemscore.DEClash.Weighted>
0.1004

> <Gold.Chemscore.DEInternal.Weighted>
0.3275

> <Gold.Chemscore.Rot.Weighted>
3.8995

> <Gold.Chemscore.Internal.Correction.Weighted>
   9.000000E+99

> <Gold.Protein.RotatedTorsions>
[ 6907 6896 6895 6894 ] final -133.96 input  -60.11 | X-H torsion
[ 7974 7965 7964 7962 ] final  121.32 input  175.53 | X-H torsion
[ 8008 7997 7996 7995 ] final  -14.25 input   59.86 | X-H torsion
[ 10167 10162 10161 10158 ] final  -66.26 input  -65.29 | X-H torsion
[ 10718 10713 10712 10709 ] final  100.71 input   66.30 | X-H torsion
[ 10763 10752 10751 10750 ] final  -88.28 input  -60.55 | X-H torsion
[ 11005 11000 10999 10996 ] final  144.05 input  -57.11 | X-H torsion

> <Gold.Protein.ActiveResidues>
 VAL166  LYS551  ARG553  GLY616  TRP617  ASP618  TYR619  PRO620  LYS621  CYS622 
 ASP623  PHE694  ASN695  SER759  ASP760  ASP761  ALA762  ILE779  LEU786  VAL792 
 PHE793  MET794  SER795  GLU796  ALA797  LYS798  CYS799  TRP800  GLU811  SER814 

> <Gold.Protein.RotatedAtoms>
  150.9801  133.6254  159.2723 H   0  0  0  0  0  0  0  0  0  0  0  0  # atno 6907 bound_to 6896
  151.3512  135.0883  159.9413 H   0  0  0  0  0  0  0  0  0  0  0  0  # atno 6908 bound_to 6896
  152.5213  133.9394  159.7673 H   0  0  0  0  0  0  0  0  0  0  0  0  # atno 6909 bound_to 6896
  145.1207  139.3391  143.4716 H   0  0  0  0  0  0  0  0  0  0  0  0  # atno 7974 bound_to 7965
  154.5226  140.2228  155.8949 H   0  0  0  0  0  0  0  0  0  0  0  0  # atno 8008 bound_to 7997
  156.1678  140.3128  155.8884 H   0  0  0  0  0  0  0  0  0  0  0  0  # atno 8009 bound_to 7997
  155.3620  140.0461  157.3037 H   0  0  0  0  0  0  0  0  0  0  0  0  # atno 8010 bound_to 7997
  140.5670  143.2315  151.6615 H   0  0  0  0  0  0  0  0  0  0  0  0  # atno 10167 bound_to 10162
  157.6847  131.0706  150.5142 H   0  0  0  0  0  0  0  0  0  0  0  0  # atno 10718 bound_to 10713
  154.6429  135.5382  153.7810 H   0  0  0  0  0  0  0  0  0  0  0  0  # atno 10763 bound_to 10752
  153.0343  135.6463  154.1133 H   0  0  0  0  0  0  0  0  0  0  0  0  # atno 10764 bound_to 10752
  154.1056  135.2930  155.3222 H   0  0  0  0  0  0  0  0  0  0  0  0  # atno 10765 bound_to 10752
  140.0602  134.9209  157.1170 H   0  0  0  0  0  0  0  0  0  0  0  0  # atno 11005 bound_to 11000
  146.3521  140.1165  142.8602 LP  0  0  0  0  0  0  0  0  0  0  0  0  # atno 17320 bound_to 7965
  145.0744  140.9178  143.4863 LP  0  0  0  0  0  0  0  0  0  0  0  0  # atno 17321 bound_to 7965
  139.5098  144.3565  152.0602 LP  0  0  0  0  0  0  0  0  0  0  0  0  # atno 17342 bound_to 10162
  140.2698  144.3976  150.6155 LP  0  0  0  0  0  0  0  0  0  0  0  0  # atno 17343 bound_to 10162
  156.5458  130.4219  149.6131 LP  0  0  0  0  0  0  0  0  0  0  0  0  # atno 17370 bound_to 10713
  156.2945  130.7143  151.2000 LP  0  0  0  0  0  0  0  0  0  0  0  0  # atno 17371 bound_to 10713
  140.3782  134.2315  155.7173 LP  0  0  0  0  0  0  0  0  0  0  0  0  # atno 17394 bound_to 11000
  141.1969  133.8070  157.0649 LP  0  0  0  0  0  0  0  0  0  0  0  0  # atno 17395 bound_to 11000

$$$$
