AV-unprocessed.smi:1490|AV-procd|sdf|6030|dock5
  -GOLD-   22720 6133D 1   1.00000     0.00000
 Structure written by MMmdl.
 38 39  0  0  0  0  0  0  0  0  2 V2000
  153.9029  137.2555  157.1178 C   0  0  0  0  0  0  0  0  0  0  0  0
  153.0073  137.3015  156.0215 O   0  0  0  0  0  0  0  0  0  0  0  0
  152.5144  138.6081  155.7735 C   0  0  0  0  0  0  0  0  0  0  0  0
  151.7940  139.1297  157.0247 C   0  0  0  0  0  0  0  0  0  0  0  0
  151.3713  140.5300  156.8792 N   0  0  0  0  0  0  0  0  0  0  0  0
  150.6569  141.1393  155.8920 C   0  0  0  0  0  0  0  0  0  0  0  0
  150.0140  140.3662  154.4421 S   0  0  0  0  0  0  0  0  0  0  0  0
  148.2076  140.4666  154.5863 C   0  0  0  0  0  0  0  0  0  0  0  0
  147.6631  141.8615  154.2856 C   0  0  0  0  0  0  0  0  0  0  0  0
  148.4386  142.7879  154.0536 O   0  0  0  0  0  0  0  0  0  0  0  0
  146.3296  142.0025  154.2773 N   0  0  0  0  0  0  0  0  0  0  0  0
  145.6380  143.2516  153.9940 C   0  0  0  0  0  0  0  0  0  0  0  0
  144.8210  143.7121  155.1279 C   0  0  0  0  0  0  0  0  0  0  0  0
  144.1780  144.0732  156.0193 N   0  0  0  0  0  0  0  0  0  0  0  0
  150.5211  142.4514  156.2308 N   0  3  0  0  0  0  0  0  0  0  0  0
  151.1516  142.6844  157.4546 C   0  0  0  0  0  0  0  0  0  0  0  0
  151.2816  143.8483  158.2058 C   0  0  0  0  0  0  0  0  0  0  0  0
  151.9862  143.7427  159.4234 C   0  0  0  0  0  0  0  0  0  0  0  0
  152.1868  145.1450  160.4080 Cl  0  0  0  0  0  0  0  0  0  0  0  0
  152.5280  142.5126  159.8512 C   0  0  0  0  0  0  0  0  0  0  0  0
  152.3911  141.3384  159.0817 C   0  0  0  0  0  0  0  0  0  0  0  0
  151.6960  141.4536  157.8785 C   0  0  0  0  0  0  0  0  0  0  0  0
  154.2443  136.2313  157.2684 H   0  0  0  0  0  0  0  0  0  0  0  0
  153.4192  137.5876  158.0371 H   0  0  0  0  0  0  0  0  0  0  0  0
  154.7794  137.8791  156.9368 H   0  0  0  0  0  0  0  0  0  0  0  0
  153.3389  139.2726  155.5108 H   0  0  0  0  0  0  0  0  0  0  0  0
  151.8236  138.5954  154.9290 H   0  0  0  0  0  0  0  0  0  0  0  0
  150.9245  138.5165  157.2624 H   0  0  0  0  0  0  0  0  0  0  0  0
  152.4567  139.0705  157.8884 H   0  0  0  0  0  0  0  0  0  0  0  0
  147.7603  139.7489  153.8975 H   0  0  0  0  0  0  0  0  0  0  0  0
  147.9104  140.1742  155.5938 H   0  0  0  0  0  0  0  0  0  0  0  0
  145.7587  141.1940  154.4768 H   0  0  0  0  0  0  0  0  0  0  0  0
  146.3738  144.0242  153.7707 H   0  0  0  0  0  0  0  0  0  0  0  0
  144.9966  143.1497  153.1173 H   0  0  0  0  0  0  0  0  0  0  0  0
  150.8650  144.7902  157.8801 H   0  0  0  0  0  0  0  0  0  0  0  0
  153.0604  142.4671  160.7903 H   0  0  0  0  0  0  0  0  0  0  0  0
  152.8088  140.4021  159.4213 H   0  0  0  0  0  0  0  0  0  0  0  0
  150.0286  143.1332  155.6681 H   0  0  0  0  0  0  0  0  0  0  0  0
  1  2  1  0  0  0  0
  1 23  1  0  0  0  0
  1 24  1  0  0  0  0
  1 25  1  0  0  0  0
  2  3  1  0  0  0  0
  3  4  1  0  0  0  0
  3 26  1  0  0  0  0
  3 27  1  0  0  0  0
  4  5  1  0  0  0  0
  4 28  1  0  0  0  0
  4 29  1  0  0  0  0
  5 22  1  0  0  0  0
  5  6  1  0  0  0  0
  6  7  1  0  0  0  0
  6 15  2  0  0  0  0
  7  8  1  0  0  0  0
  8  9  1  0  0  0  0
  8 30  1  0  0  0  0
  8 31  1  0  0  0  0
  9 10  2  0  0  0  0
  9 11  1  0  0  0  0
 11 12  1  0  0  0  0
 11 32  1  0  0  0  0
 12 13  1  0  0  0  0
 12 33  1  0  0  0  0
 12 34  1  0  0  0  0
 13 14  3  0  0  0  0
 15 16  1  0  0  0  0
 15 38  1  0  0  0  0
 16 22  2  0  0  0  0
 16 17  1  0  0  0  0
 17 18  2  0  0  0  0
 17 35  1  0  0  0  0
 18 19  1  0  0  0  0
 18 20  1  0  0  0  0
 20 21  2  0  0  0  0
 20 36  1  0  0  0  0
 21 22  1  0  0  0  0
 21 37  1  0  0  0  0
M  CHG  1  15   1
M  END
> <s_m_source_file>
AV-unprocessed.smi

> <i_m_source_file_index>
1490

> <i_lp_mmshare_version>
43012

> <i_f3d_flags>
0

> <s_epik_input>
W2NIXTFjKENsKVtjSF1bY0hdYyhjMTIpbihbQ0gyXVtDSDJdT1tDSDNdKWMobjIpU1tDSDJdQyg9TylbTkhdW0NIMl1DI04=

> <s_epik_cmdline>
J2VwaWtfcHl0aG9uJywgJy1waCcsICc3LjAnLCAnLXRuJywgJzgnLCAnLW1hJywgJzIwMCcsICctbWV0YWxfYmluZGluZycsICctaW1hZScsICc8aW5maWxlLm1hZT4nLCAnLW9tYWUnLCAnPG91dGZpbGUubWFlPic=

> <r_epik_Ionization_Penalty>
2.45232

> <r_epik_Ionization_Penalty_Charging>
2.45231

> <r_epik_Ionization_Penalty_Neutral>
6.97855e-06

> <r_epik_State_Penalty>
2.61389

> <r_epik_Charging_Adjusted_Penalty>
5.0662

> <i_epik_Tot_Q>
1

> <i_epik_Tot_abs_Q>
1

> <r_epik_Metal_State_Penalty>
2.62983

> <b_epik_Metal_Only>
0

> <s_lp_Force_Field>
OPLS_2005

> <r_lp_Energy>
5.53111

> <b_lp_Chiralities_Consistent>
1

> <s_lp_Variant>
AV-unprocessed.smi:1490-2

> <Gold.Version>
5.8.1

> <Gold.Id.Protein>
6NUR|6NUR_protein|mol2

> <Gold.PLP.Fitness>
52.6146

> <Gold.PLP.PLP>
-42.5039

> <Gold.PLP.part.hbond>
-4.0000

> <Gold.PLP.part.metal>
0.0000

> <Gold.PLP.part.buried>
-3.7010

> <Gold.PLP.part.nonpolar>
-39.5288

> <Gold.PLP.part.repulsive>
4.2097

> <Gold.PLP.ligand.clash>
0.0000

> <Gold.PLP.ligand.torsion>
0.1880

> <Gold.PLP.Chemscore.Hbond>
3.4754

> <Gold.PLP.Chemscore.CHOScore>
0.0000

> <Gold.PLP.Chemscore.Metal>
0.0000

> <Gold.Chemscore.Hbonds>
donor molecule, donor type, donor heavy atom, donor atom, acceptor molecule, acceptor atom, score
      L1  H    15    38       P1  8028  1.89
      P1  H  8022  8030       L1    10  1.00
      P1  H 10752 10765       L1     2  0.59

> <Gold.PLP.Chemscore.Internal.Correction>
0.0604

> <Gold.Rescore>
     Score         DG    S(hbond)    S(metal)    S(lipo)     H(rot)  DE(clash)    DE(int)     intcor
     14.11     -17.79       2.11        0.00     106.96       2.84       3.39       0.29       ----

> <Gold.Chemscore.Fitness>
14.1084

> <Gold.Chemscore.DG>
-17.7924

> <Gold.Chemscore.ZeroCoef>
-5.4800

> <Gold.Chemscore.Hbond>
2.1147

> <Gold.Chemscore.Metal>
0.0000

> <Gold.Chemscore.Lipo>
106.9572

> <Gold.Chemscore.Internal_Hbond>
0.0000

> <Gold.Chemscore.DEClash>
3.3946

> <Gold.Chemscore.DEInternal>
0.2894

> <Gold.Chemscore.Rot>
2.8378

> <Gold.Chemscore.Internal.Correction>
   9.000000E+99

> <Gold.Chemscore.Hbonds>
donor molecule, donor type, donor heavy atom, donor atom, acceptor molecule, acceptor atom, score
      L1  H    15    38       P1  8028  0.90
      P1  H  8011  8017       L1    10  0.03
      P1  H  8022  8030       L1    10  0.91
      P1  H 10752 10765       L1     2  0.25

> <Gold.Chemscore.Hbond.Weighted>
-7.0633

> <Gold.Chemscore.Metal.Weighted>
-0.0000

> <Gold.Chemscore.Lipo.Weighted>
-12.5140

> <Gold.Chemscore.Internal_Hbond.Weighted>
0.0000

> <Gold.Chemscore.DEClash.Weighted>
3.3946

> <Gold.Chemscore.DEInternal.Weighted>
0.2894

> <Gold.Chemscore.Rot.Weighted>
7.2649

> <Gold.Chemscore.Internal.Correction.Weighted>
   9.000000E+99

> <Gold.Protein.RotatedTorsions>
[ 6907 6896 6895 6894 ] final -146.84 input  -60.11 | X-H torsion
[ 7974 7965 7964 7962 ] final  -26.66 input  175.53 | X-H torsion
[ 8008 7997 7996 7995 ] final -169.52 input   59.86 | X-H torsion
[ 10167 10162 10161 10158 ] final  159.42 input  -65.29 | X-H torsion
[ 10718 10713 10712 10709 ] final   82.06 input   66.30 | X-H torsion
[ 10763 10752 10751 10750 ] final -143.46 input  -60.55 | X-H torsion
[ 11005 11000 10999 10996 ] final   76.58 input  -57.11 | X-H torsion

> <Gold.Protein.ActiveResidues>
 VAL166  LYS551  ARG553  GLY616  TRP617  ASP618  TYR619  PRO620  LYS621  CYS622 
 ASP623  PHE694  ASN695  SER759  ASP760  ASP761  ALA762  ILE779  LEU786  VAL792 
 PHE793  MET794  SER795  GLU796  ALA797  LYS798  CYS799  TRP800  GLU811  SER814 

> <Gold.Protein.RotatedAtoms>
  151.1473  133.4931  159.2595 H   0  0  0  0  0  0  0  0  0  0  0  0  # atno 6907 bound_to 6896
  151.1591  135.0264  159.8712 H   0  0  0  0  0  0  0  0  0  0  0  0  # atno 6908 bound_to 6896
  152.5463  134.1349  159.8508 H   0  0  0  0  0  0  0  0  0  0  0  0  # atno 6909 bound_to 6896
  146.1410  140.5049  142.8652 H   0  0  0  0  0  0  0  0  0  0  0  0  # atno 7974 bound_to 7965
  155.9061  140.1049  157.1314 H   0  0  0  0  0  0  0  0  0  0  0  0  # atno 8008 bound_to 7997
  154.4033  140.1283  156.4562 H   0  0  0  0  0  0  0  0  0  0  0  0  # atno 8009 bound_to 7997
  155.7366  140.3467  155.5086 H   0  0  0  0  0  0  0  0  0  0  0  0  # atno 8010 bound_to 7997
  139.4832  144.4731  151.8548 H   0  0  0  0  0  0  0  0  0  0  0  0  # atno 10167 bound_to 10162
  157.6848  131.0031  150.2318 H   0  0  0  0  0  0  0  0  0  0  0  0  # atno 10718 bound_to 10713
  154.8469  135.3467  154.6191 H   0  0  0  0  0  0  0  0  0  0  0  0  # atno 10763 bound_to 10752
  153.6800  135.6980  153.5125 H   0  0  0  0  0  0  0  0  0  0  0  0  # atno 10764 bound_to 10752
  153.2675  135.4303  155.0912 H   0  0  0  0  0  0  0  0  0  0  0  0  # atno 10765 bound_to 10752
  139.9292  134.7612  156.1413 H   0  0  0  0  0  0  0  0  0  0  0  0  # atno 11005 bound_to 11000
  144.7793  140.5806  143.6617 LP  0  0  0  0  0  0  0  0  0  0  0  0  # atno 17320 bound_to 7965
  145.5046  139.1482  143.3638 LP  0  0  0  0  0  0  0  0  0  0  0  0  # atno 17321 bound_to 7965
  140.4201  144.2254  150.5887 LP  0  0  0  0  0  0  0  0  0  0  0  0  # atno 17342 bound_to 10162
  140.4882  143.2356  151.8857 LP  0  0  0  0  0  0  0  0  0  0  0  0  # atno 17343 bound_to 10162
  156.2949  130.3750  149.7805 LP  0  0  0  0  0  0  0  0  0  0  0  0  # atno 17370 bound_to 10713
  156.5453  130.8318  151.3282 LP  0  0  0  0  0  0  0  0  0  0  0  0  # atno 17371 bound_to 10713
  141.0870  133.6730  156.2457 LP  0  0  0  0  0  0  0  0  0  0  0  0  # atno 17394 bound_to 11000
  140.6250  134.5323  157.5552 LP  0  0  0  0  0  0  0  0  0  0  0  0  # atno 17395 bound_to 11000

$$$$
