AV-unprocessed.smi:3042|AV-procd|sdf|11599|dock7
  -GOLD-   2272016573D 1   1.00000     0.00000
 Structure written by MMmdl.
 33 34  0  0  0  0  0  0  0  0  2 V2000
  148.4270  138.9075  152.9108 N   0  3  0  0  0  0  0  0  0  0  0  0
  148.9366  139.1673  154.2698 C   0  0  0  0  0  0  0  0  0  0  0  0
  149.4382  140.6250  154.4368 C   0  0  2  0  0  0  0  0  0  0  0  0
  150.4099  140.6776  155.6152 C   0  0  0  0  0  0  0  0  0  0  0  0
  150.1951  141.5469  156.7078 C   0  0  0  0  0  0  0  0  0  0  0  0
  151.1187  141.5462  157.7701 C   0  0  0  0  0  0  0  0  0  0  0  0
  152.2253  140.6775  157.6964 C   0  0  0  0  0  0  0  0  0  0  0  0
  152.4428  139.8423  156.6579 N   0  0  0  0  0  0  0  0  0  0  0  0
  151.5536  139.8496  155.6424 C   0  0  0  0  0  0  0  0  0  0  0  0
  148.3627  141.6290  154.5781 N   0  0  0  0  0  0  0  0  0  0  0  0
  147.6310  141.8291  153.3213 C   0  0  0  0  0  0  0  0  0  0  0  0
  146.5086  142.8725  153.4512 C   0  0  0  0  0  0  0  0  0  0  0  0
  145.6116  142.4785  154.4815 O   0  0  0  0  0  0  0  0  0  0  0  0
  146.2626  142.3304  155.7365 C   0  0  0  0  0  0  0  0  0  0  0  0
  147.3885  141.2878  155.6188 C   0  0  0  0  0  0  0  0  0  0  0  0
  148.8691  139.5383  152.2576 H   0  0  0  0  0  0  0  0  0  0  0  0
  147.4274  139.0525  152.8956 H   0  0  0  0  0  0  0  0  0  0  0  0
  148.1136  138.9464  154.9478 H   0  0  0  0  0  0  0  0  0  0  0  0
  149.7334  138.4558  154.4892 H   0  0  0  0  0  0  0  0  0  0  0  0
  150.0079  140.8719  153.5392 H   0  0  0  0  0  0  0  0  0  0  0  0
  149.3370  142.2026  156.7324 H   0  0  0  0  0  0  0  0  0  0  0  0
  150.9838  142.1973  158.6213 H   0  0  0  0  0  0  0  0  0  0  0  0
  152.9539  140.6520  158.4931 H   0  0  0  0  0  0  0  0  0  0  0  0
  151.7590  139.1688  154.8294 H   0  0  0  0  0  0  0  0  0  0  0  0
  148.3049  142.1569  152.5303 H   0  0  0  0  0  0  0  0  0  0  0  0
  147.2024  140.8821  152.9897 H   0  0  0  0  0  0  0  0  0  0  0  0
  146.9196  143.8593  153.6703 H   0  0  0  0  0  0  0  0  0  0  0  0
  145.9586  142.9548  152.5137 H   0  0  0  0  0  0  0  0  0  0  0  0
  146.6597  143.2925  156.0649 H   0  0  0  0  0  0  0  0  0  0  0  0
  145.5316  142.0157  156.4812 H   0  0  0  0  0  0  0  0  0  0  0  0
  146.9549  140.3077  155.4140 H   0  0  0  0  0  0  0  0  0  0  0  0
  147.8723  141.2248  156.5918 H   0  0  0  0  0  0  0  0  0  0  0  0
  148.6321  137.9538  152.6494 H   0  0  0  0  0  0  0  0  0  0  0  0
  1  2  1  0  0  0  0
  1 16  1  0  0  0  0
  1 17  1  0  0  0  0
  1 33  1  0  0  0  0
  2  3  1  0  0  0  0
  2 18  1  0  0  0  0
  2 19  1  0  0  0  0
  3  4  1  0  0  0  0
  3 10  1  0  0  0  0
  3 20  1  0  0  0  0
  4  9  1  0  0  0  0
  4  5  2  0  0  0  0
  5  6  1  0  0  0  0
  5 21  1  0  0  0  0
  6  7  2  0  0  0  0
  6 22  1  0  0  0  0
  7  8  1  0  0  0  0
  7 23  1  0  0  0  0
  8  9  2  0  0  0  0
  9 24  1  0  0  0  0
 10 15  1  0  0  0  0
 10 11  1  0  0  0  0
 11 12  1  0  0  0  0
 11 25  1  0  0  0  0
 11 26  1  0  0  0  0
 12 13  1  0  0  0  0
 12 27  1  0  0  0  0
 12 28  1  0  0  0  0
 13 14  1  0  0  0  0
 14 15  1  0  0  0  0
 14 29  1  0  0  0  0
 14 30  1  0  0  0  0
 15 31  1  0  0  0  0
 15 32  1  0  0  0  0
M  CHG  1   1   1
M  END
> <s_m_source_file>
AV-unprocessed.smi

> <i_m_source_file_index>
3042

> <i_lp_mmshare_version>
43012

> <i_f3d_flags>
0

> <s_epik_input>
W0NIMl0xW0NIMl1PW0NIMl1bQ0gyXU4xW0NASF0oW0NIMl1bTkgyXSljMltjSF1bY0hdW2NIXW5bY0hdMg==

> <s_epik_cmdline>
J2VwaWtfcHl0aG9uJywgJy1waCcsICc3LjAnLCAnLXRuJywgJzgnLCAnLW1hJywgJzIwMCcsICctbWV0YWxfYmluZGluZycsICctaW1hZScsICc8aW5maWxlLm1hZT4nLCAnLW9tYWUnLCAnPG91dGZpbGUubWFlPic=

> <r_epik_Ionization_Penalty>
0.0112597

> <r_epik_Ionization_Penalty_Charging>
0.00794922

> <r_epik_Ionization_Penalty_Neutral>
0.00331052

> <r_epik_State_Penalty>
0.00596555

> <r_epik_Charging_Adjusted_Penalty>
0.0139148

> <i_epik_Tot_Q>
1

> <i_epik_Tot_abs_Q>
1

> <r_epik_Metal_State_Penalty>
0.00603286

> <b_epik_Metal_Only>
0

> <s_lp_Force_Field>
OPLS_2005

> <r_lp_Energy>
28.2789

> <b_lp_Chiralities_Consistent>
1

> <s_lp_Variant>
AV-unprocessed.smi:3042-1

> <Gold.Version>
5.8.1

> <Gold.Id.Protein>
6NUR|6NUR_protein|mol2

> <Gold.PLP.Fitness>
39.3622

> <Gold.PLP.PLP>
-27.9636

> <Gold.PLP.part.hbond>
-2.7674

> <Gold.PLP.part.metal>
0.0000

> <Gold.PLP.part.buried>
-4.9378

> <Gold.PLP.part.nonpolar>
-20.1081

> <Gold.PLP.part.repulsive>
0.3944

> <Gold.PLP.ligand.clash>
0.0000

> <Gold.PLP.ligand.torsion>
0.3363

> <Gold.PLP.Chemscore.Hbond>
4.0000

> <Gold.PLP.Chemscore.CHOScore>
0.0000

> <Gold.PLP.Chemscore.Metal>
0.0000

> <Gold.Chemscore.Hbonds>
donor molecule, donor type, donor heavy atom, donor atom, acceptor molecule, acceptor atom, score
      L1  H     1    16       P1  7957  0.70
      L1  H     1    33       P1  7948  2.00
      P1  H  7997  8009       L1     8  1.00

> <Gold.PLP.Chemscore.Internal.Correction>
0.0712

> <Gold.Rescore>
     Score         DG    S(hbond)    S(metal)    S(lipo)     H(rot)  DE(clash)    DE(int)     intcor
     17.74     -18.55       2.78        0.00      64.78       1.48       0.32       0.49       ----

> <Gold.Chemscore.Fitness>
17.7433

> <Gold.Chemscore.DG>
-18.5519

> <Gold.Chemscore.ZeroCoef>
-5.4800

> <Gold.Chemscore.Hbond>
2.7824

> <Gold.Chemscore.Metal>
0.0000

> <Gold.Chemscore.Lipo>
64.7805

> <Gold.Chemscore.Internal_Hbond>
0.0000

> <Gold.Chemscore.DEClash>
0.3150

> <Gold.Chemscore.DEInternal>
0.4936

> <Gold.Chemscore.Rot>
1.4846

> <Gold.Chemscore.Internal.Correction>
   9.000000E+99

> <Gold.Chemscore.Hbonds>
donor molecule, donor type, donor heavy atom, donor atom, acceptor molecule, acceptor atom, score
      L1  H     1    16       P1  7957  0.69
      L1  H     1    33       P1  7948  1.00
      P1  H  7997  8009       L1     8  0.29

> <Gold.Chemscore.Hbond.Weighted>
-9.2931

> <Gold.Chemscore.Metal.Weighted>
-0.0000

> <Gold.Chemscore.Lipo.Weighted>
-7.5793

> <Gold.Chemscore.Internal_Hbond.Weighted>
0.0000

> <Gold.Chemscore.DEClash.Weighted>
0.3150

> <Gold.Chemscore.DEInternal.Weighted>
0.4936

> <Gold.Chemscore.Rot.Weighted>
3.8005

> <Gold.Chemscore.Internal.Correction.Weighted>
   9.000000E+99

> <Gold.Protein.RotatedTorsions>
[ 6907 6896 6895 6894 ] final   28.39 input  -60.11 | X-H torsion
[ 7974 7965 7964 7962 ] final  154.13 input  175.53 | X-H torsion
[ 8008 7997 7996 7995 ] final -162.08 input   59.86 | X-H torsion
[ 10167 10162 10161 10158 ] final  143.98 input  -65.29 | X-H torsion
[ 10718 10713 10712 10709 ] final  -89.46 input   66.30 | X-H torsion
[ 10763 10752 10751 10750 ] final   97.23 input  -60.55 | X-H torsion
[ 11005 11000 10999 10996 ] final   95.47 input  -57.11 | X-H torsion

> <Gold.Protein.ActiveResidues>
 VAL166  LYS551  ARG553  GLY616  TRP617  ASP618  TYR619  PRO620  LYS621  CYS622 
 ASP623  PHE694  ASN695  SER759  ASP760  ASP761  ALA762  ILE779  LEU786  VAL792 
 PHE793  MET794  SER795  GLU796  ALA797  LYS798  CYS799  TRP800  GLU811  SER814 

> <Gold.Protein.RotatedAtoms>
  152.0162  134.9848  160.0569 H   0  0  0  0  0  0  0  0  0  0  0  0  # atno 6907 bound_to 6896
  152.1381  133.4442  159.4761 H   0  0  0  0  0  0  0  0  0  0  0  0  # atno 6908 bound_to 6896
  150.6862  134.2257  159.4457 H   0  0  0  0  0  0  0  0  0  0  0  0  # atno 6909 bound_to 6896
  144.8109  139.6893  143.6142 H   0  0  0  0  0  0  0  0  0  0  0  0  # atno 7974 bound_to 7965
  155.8015  140.0892  157.1954 H   0  0  0  0  0  0  0  0  0  0  0  0  # atno 8008 bound_to 7997
  154.3982  140.1471  156.3339 H   0  0  0  0  0  0  0  0  0  0  0  0  # atno 8009 bound_to 7997
  155.8457  140.3437  155.5663 H   0  0  0  0  0  0  0  0  0  0  0  0  # atno 8010 bound_to 7997
  139.4957  144.6004  151.6494 H   0  0  0  0  0  0  0  0  0  0  0  0  # atno 10167 bound_to 10162
  155.9984  130.4873  150.5174 H   0  0  0  0  0  0  0  0  0  0  0  0  # atno 10718 bound_to 10713
  153.2744  135.4191  155.1018 H   0  0  0  0  0  0  0  0  0  0  0  0  # atno 10763 bound_to 10752
  154.8467  135.3480  154.6200 H   0  0  0  0  0  0  0  0  0  0  0  0  # atno 10764 bound_to 10752
  153.6620  135.7048  153.5232 H   0  0  0  0  0  0  0  0  0  0  0  0  # atno 10765 bound_to 10752
  139.8789  134.8900  156.4016 H   0  0  0  0  0  0  0  0  0  0  0  0  # atno 11005 bound_to 11000
  146.2407  139.5995  142.9493 LP  0  0  0  0  0  0  0  0  0  0  0  0  # atno 17320 bound_to 7965
  145.5327  141.0426  143.2374 LP  0  0  0  0  0  0  0  0  0  0  0  0  # atno 17321 bound_to 7965
  140.5652  144.0202  150.6189 LP  0  0  0  0  0  0  0  0  0  0  0  0  # atno 17342 bound_to 10162
  140.3301  143.3083  152.0696 LP  0  0  0  0  0  0  0  0  0  0  0  0  # atno 17343 bound_to 10162
  157.3140  131.0669  151.1981 LP  0  0  0  0  0  0  0  0  0  0  0  0  # atno 17370 bound_to 10713
  157.2917  130.6799  149.6117 LP  0  0  0  0  0  0  0  0  0  0  0  0  # atno 17371 bound_to 10713
  140.9263  133.7610  155.9969 LP  0  0  0  0  0  0  0  0  0  0  0  0  # atno 17394 bound_to 11000
  140.8382  134.3098  157.5323 LP  0  0  0  0  0  0  0  0  0  0  0  0  # atno 17395 bound_to 11000

$$$$
