AV-unprocessed.smi:2539|AV-procd|sdf|9986|dock6
  -GOLD-   2272014 33D 1   1.00000     0.00000
 Structure written by MMmdl.
 41 42  0  0  0  0  0  0  0  0  2 V2000
  145.1236  138.2517  154.4607 O   0  0  0  0  0  0  0  0  0  0  0  0
  146.1060  138.1510  153.7242 C   0  0  0  0  0  0  0  0  0  0  0  0
  146.4328  136.9945  153.1204 N   0  0  0  0  0  0  0  0  0  0  0  0
  145.6627  135.7542  153.1736 C   0  0  0  0  0  0  0  0  0  0  0  0
  146.3894  134.5870  152.4762 C   0  0  0  0  0  0  0  0  0  0  0  0
  145.4822  133.7414  151.5987 C   0  0  0  0  0  0  0  0  0  0  0  0
  145.8692  132.4427  151.1991 C   0  0  0  0  0  0  0  0  0  0  0  0
  145.0206  131.6972  150.3548 C   0  0  0  0  0  0  0  0  0  0  0  0
  143.8031  132.2662  149.9295 C   0  0  0  0  0  0  0  0  0  0  0  0
  143.4640  133.5093  150.3356 N   0  3  0  0  0  0  0  0  0  0  0  0
  144.2478  134.2547  151.1447 C   0  0  0  0  0  0  0  0  0  0  0  0
  146.9348  139.1887  153.4469 N   0  0  0  0  0  0  0  0  0  0  0  0
  146.7602  140.5809  153.8889 C   0  0  0  0  0  0  0  0  0  0  0  0
  147.6891  140.8322  155.0925 C   0  0  0  0  0  0  0  0  0  0  0  0
  149.1721  140.5089  154.7697 C   0  0  0  0  0  0  0  0  0  0  0  0
  149.6436  141.5052  153.8798 O   0  0  0  0  0  0  0  0  0  0  0  0
  150.0573  140.5730  156.0371 C   0  0  0  0  0  0  0  0  0  0  0  0
  149.6668  139.6478  156.9147 F   0  0  0  0  0  0  0  0  0  0  0  0
  151.3353  140.3440  155.7332 F   0  0  0  0  0  0  0  0  0  0  0  0
  149.9542  141.7677  156.6210 F   0  0  0  0  0  0  0  0  0  0  0  0
  149.3017  139.1399  154.0506 C   0  0  0  0  0  0  0  0  0  0  0  0
  148.2818  138.9798  152.9059 C   0  0  0  0  0  0  0  0  0  0  0  0
  147.2635  136.9865  152.5464 H   0  0  0  0  0  0  0  0  0  0  0  0
  145.4952  135.5044  154.2215 H   0  0  0  0  0  0  0  0  0  0  0  0
  144.6732  135.8975  152.7363 H   0  0  0  0  0  0  0  0  0  0  0  0
  147.2092  134.9770  151.8713 H   0  0  0  0  0  0  0  0  0  0  0  0
  146.8487  133.9423  153.2262 H   0  0  0  0  0  0  0  0  0  0  0  0
  146.8103  132.0244  151.5249 H   0  0  0  0  0  0  0  0  0  0  0  0
  145.3008  130.7042  150.0354 H   0  0  0  0  0  0  0  0  0  0  0  0
  143.0960  131.7689  149.2817 H   0  0  0  0  0  0  0  0  0  0  0  0
  143.8733  135.2378  151.3906 H   0  0  0  0  0  0  0  0  0  0  0  0
  147.0161  141.2540  153.0695 H   0  0  0  0  0  0  0  0  0  0  0  0
  145.7332  140.8346  154.1515 H   0  0  0  0  0  0  0  0  0  0  0  0
  147.5883  141.8644  155.4291 H   0  0  0  0  0  0  0  0  0  0  0  0
  147.3533  140.2104  155.9230 H   0  0  0  0  0  0  0  0  0  0  0  0
  150.0084  142.2137  154.3879 H   0  0  0  0  0  0  0  0  0  0  0  0
  150.3137  139.0067  153.6661 H   0  0  0  0  0  0  0  0  0  0  0  0
  149.1439  138.3348  154.7693 H   0  0  0  0  0  0  0  0  0  0  0  0
  148.3979  138.0032  152.4340 H   0  0  0  0  0  0  0  0  0  0  0  0
  148.4774  139.7085  152.1181 H   0  0  0  0  0  0  0  0  0  0  0  0
  142.5794  133.9038  150.0146 H   0  0  0  0  0  0  0  0  0  0  0  0
  1  2  2  0  0  0  0
  2  3  1  0  0  0  0
  2 12  1  0  0  0  0
  3  4  1  0  0  0  0
  3 23  1  0  0  0  0
  4  5  1  0  0  0  0
  4 24  1  0  0  0  0
  4 25  1  0  0  0  0
  5  6  1  0  0  0  0
  5 26  1  0  0  0  0
  5 27  1  0  0  0  0
  6 11  1  0  0  0  0
  6  7  2  0  0  0  0
  7  8  1  0  0  0  0
  7 28  1  0  0  0  0
  8  9  2  0  0  0  0
  8 29  1  0  0  0  0
  9 10  1  0  0  0  0
  9 30  1  0  0  0  0
 10 11  2  0  0  0  0
 10 41  1  0  0  0  0
 11 31  1  0  0  0  0
 12 22  1  0  0  0  0
 12 13  1  0  0  0  0
 13 14  1  0  0  0  0
 13 32  1  0  0  0  0
 13 33  1  0  0  0  0
 14 15  1  0  0  0  0
 14 34  1  0  0  0  0
 14 35  1  0  0  0  0
 15 16  1  0  0  0  0
 15 17  1  0  0  0  0
 15 21  1  0  0  0  0
 16 36  1  0  0  0  0
 17 18  1  0  0  0  0
 17 19  1  0  0  0  0
 17 20  1  0  0  0  0
 21 22  1  0  0  0  0
 21 37  1  0  0  0  0
 21 38  1  0  0  0  0
 22 39  1  0  0  0  0
 22 40  1  0  0  0  0
M  CHG  1  10   1
M  END
> <s_m_source_file>
AV-unprocessed.smi

> <i_m_source_file_index>
2539

> <i_lp_mmshare_version>
43012

> <i_f3d_flags>
0

> <s_epik_input>
RkMoRikoRilDMShbT0hdKVtDSDJdW0NIMl1OKFtDSDJdW0NIMl0xKUMoPU8pW05IXVtDSDJdW0NIMl1jMltjSF1bY0hdW2NIXW5bY0hdMg==

> <s_epik_cmdline>
J2VwaWtfcHl0aG9uJywgJy1waCcsICc3LjAnLCAnLXRuJywgJzgnLCAnLW1hJywgJzIwMCcsICctbWV0YWxfYmluZGluZycsICctaW1hZScsICc8aW5maWxlLm1hZT4nLCAnLW9tYWUnLCAnPG91dGZpbGUubWFlPic=

> <r_epik_Ionization_Penalty>
2.21039

> <r_epik_Ionization_Penalty_Charging>
2.21033

> <r_epik_Ionization_Penalty_Neutral>
5.75735e-05

> <r_epik_State_Penalty>
2.3545

> <r_epik_Charging_Adjusted_Penalty>
4.56483

> <i_epik_Tot_Q>
1

> <i_epik_Tot_abs_Q>
1

> <r_epik_Metal_State_Penalty>
2.36861

> <b_epik_Metal_Only>
0

> <s_lp_Force_Field>
OPLS_2005

> <r_lp_Energy>
41.3462

> <b_lp_Chiralities_Consistent>
1

> <s_lp_Variant>
AV-unprocessed.smi:2539-2

> <Gold.Version>
5.8.1

> <Gold.Id.Protein>
6NUR|6NUR_protein|mol2

> <Gold.PLP.Fitness>
40.0888

> <Gold.PLP.PLP>
-31.4755

> <Gold.PLP.part.hbond>
-4.5336

> <Gold.PLP.part.metal>
0.0000

> <Gold.PLP.part.buried>
5.1129

> <Gold.PLP.part.nonpolar>
-31.7315

> <Gold.PLP.part.repulsive>
0.1513

> <Gold.PLP.ligand.clash>
1.0338

> <Gold.PLP.ligand.torsion>
0.6726

> <Gold.PLP.Chemscore.Hbond>
3.6340

> <Gold.PLP.Chemscore.CHOScore>
0.0000

> <Gold.PLP.Chemscore.Metal>
0.0000

> <Gold.Chemscore.Hbonds>
donor molecule, donor type, donor heavy atom, donor atom, acceptor molecule, acceptor atom, score
      L1  H     3    23       P1  7948  1.00
      L1  H    10    41       P1 10186  2.00
      P1  H  7989  7998       L1    16  0.05
      P1  H  8011  8017       L1    16  0.41

> <Gold.PLP.Chemscore.Internal.Correction>
0.0903

> <Gold.Rescore>
     Score         DG    S(hbond)    S(metal)    S(lipo)     H(rot)  DE(clash)    DE(int)     intcor
     13.96     -17.05       2.06        0.00      84.93       2.06       2.43       0.65       ----

> <Gold.Chemscore.Fitness>
13.9649

> <Gold.Chemscore.DG>
-17.0451

> <Gold.Chemscore.ZeroCoef>
-5.4800

> <Gold.Chemscore.Hbond>
2.0644

> <Gold.Chemscore.Metal>
0.0000

> <Gold.Chemscore.Lipo>
84.9276

> <Gold.Chemscore.Internal_Hbond>
0.0000

> <Gold.Chemscore.DEClash>
2.4313

> <Gold.Chemscore.DEInternal>
0.6489

> <Gold.Chemscore.Rot>
2.0572

> <Gold.Chemscore.Internal.Correction>
   9.000000E+99

> <Gold.Chemscore.Hbonds>
donor molecule, donor type, donor heavy atom, donor atom, acceptor molecule, acceptor atom, score
      L1  H     3    23       P1  7948  0.96
      L1  H    10    41       P1 10186  1.00
      P1  H  8011  8017       L1    16  0.03

> <Gold.Chemscore.Hbond.Weighted>
-6.8949

> <Gold.Chemscore.Metal.Weighted>
-0.0000

> <Gold.Chemscore.Lipo.Weighted>
-9.9365

> <Gold.Chemscore.Internal_Hbond.Weighted>
0.0000

> <Gold.Chemscore.DEClash.Weighted>
2.4313

> <Gold.Chemscore.DEInternal.Weighted>
0.6489

> <Gold.Chemscore.Rot.Weighted>
5.2663

> <Gold.Chemscore.Internal.Correction.Weighted>
   9.000000E+99

> <Gold.Protein.RotatedTorsions>
[ 6907 6896 6895 6894 ] final -139.63 input  -60.11 | X-H torsion
[ 7974 7965 7964 7962 ] final    4.20 input  175.53 | X-H torsion
[ 8008 7997 7996 7995 ] final  -48.70 input   59.86 | X-H torsion
[ 10167 10162 10161 10158 ] final  -85.31 input  -65.29 | X-H torsion
[ 10718 10713 10712 10709 ] final    1.74 input   66.30 | X-H torsion
[ 10763 10752 10751 10750 ] final  -48.54 input  -60.55 | X-H torsion
[ 11005 11000 10999 10996 ] final  -10.27 input  -57.11 | X-H torsion

> <Gold.Protein.ActiveResidues>
 VAL166  LYS551  ARG553  GLY616  TRP617  ASP618  TYR619  PRO620  LYS621  CYS622 
 ASP623  PHE694  ASN695  SER759  ASP760  ASP761  ALA762  ILE779  LEU786  VAL792 
 PHE793  MET794  SER795  GLU796  ALA797  LYS798  CYS799  TRP800  GLU811  SER814 

> <Gold.Protein.RotatedAtoms>
  151.0503  133.5630  159.2642 H   0  0  0  0  0  0  0  0  0  0  0  0  # atno 6907 bound_to 6896
  151.2643  135.0663  159.9120 H   0  0  0  0  0  0  0  0  0  0  0  0  # atno 6908 bound_to 6896
  152.5380  134.0243  159.8050 H   0  0  0  0  0  0  0  0  0  0  0  0  # atno 6909 bound_to 6896
  146.2444  140.0570  142.8371 H   0  0  0  0  0  0  0  0  0  0  0  0  # atno 7974 bound_to 7965
  154.4033  140.1315  156.4382 H   0  0  0  0  0  0  0  0  0  0  0  0  # atno 8008 bound_to 7997
  155.7485  140.3488  155.5118 H   0  0  0  0  0  0  0  0  0  0  0  0  # atno 8009 bound_to 7997
  155.8972  140.1013  157.1366 H   0  0  0  0  0  0  0  0  0  0  0  0  # atno 8010 bound_to 7997
  140.4049  143.2647  151.9094 H   0  0  0  0  0  0  0  0  0  0  0  0  # atno 10167 bound_to 10162
  156.8527  130.5559  149.5668 H   0  0  0  0  0  0  0  0  0  0  0  0  # atno 10718 bound_to 10713
  154.0794  135.6593  153.4835 H   0  0  0  0  0  0  0  0  0  0  0  0  # atno 10763 bound_to 10752
  153.0361  135.5176  154.7489 H   0  0  0  0  0  0  0  0  0  0  0  0  # atno 10764 bound_to 10752
  154.6579  135.3010  154.9872 H   0  0  0  0  0  0  0  0  0  0  0  0  # atno 10765 bound_to 10752
  140.7429  133.8655  155.8982 H   0  0  0  0  0  0  0  0  0  0  0  0  # atno 11005 bound_to 11000
  145.0934  140.9299  143.4755 LP  0  0  0  0  0  0  0  0  0  0  0  0  # atno 17320 bound_to 7965
  145.0747  139.3004  143.5814 LP  0  0  0  0  0  0  0  0  0  0  0  0  # atno 17321 bound_to 7965
  139.4783  144.5596  151.8260 LP  0  0  0  0  0  0  0  0  0  0  0  0  # atno 17342 bound_to 10162
  140.4700  144.1600  150.5917 LP  0  0  0  0  0  0  0  0  0  0  0  0  # atno 17343 bound_to 10162
  156.0819  130.5828  150.9579 LP  0  0  0  0  0  0  0  0  0  0  0  0  # atno 17370 bound_to 10713
  157.6294  131.0922  150.8470 LP  0  0  0  0  0  0  0  0  0  0  0  0  # atno 17371 bound_to 10713
  140.9820  134.1393  157.4486 LP  0  0  0  0  0  0  0  0  0  0  0  0  # atno 17394 bound_to 11000
  139.8802  135.0013  156.6062 LP  0  0  0  0  0  0  0  0  0  0  0  0  # atno 17395 bound_to 11000

$$$$
