AV-unprocessed.smi:114|AV-procd|sdf|1109|dock7
  -GOLD-   2262018223D 1   1.00000     0.00000
 Structure written by MMmdl.
 32 34  0  0  0  0  0  0  0  0  1 V2000
  154.6890  137.4786  155.9622 N   0  0  0  0  0  0  0  0  0  0  0  0
  153.5839  138.1709  156.2723 C   0  0  0  0  0  0  0  0  0  0  0  0
  153.6082  138.9655  157.3671 N   0  0  0  0  0  0  0  0  0  0  0  0
  152.5259  139.6737  157.7116 C   0  0  0  0  0  0  0  0  0  0  0  0
  152.6373  140.4408  158.8214 F   0  0  0  0  0  0  0  0  0  0  0  0
  151.3466  139.7076  157.0827 N   0  0  0  0  0  0  0  0  0  0  0  0
  151.3159  138.9079  155.9776 C   0  0  0  0  0  0  0  0  0  0  0  0
  152.3929  138.1086  155.5085 C   0  0  0  0  0  0  0  0  0  0  0  0
  152.0119  137.4229  154.3635 N   0  0  0  0  0  0  0  0  0  0  0  0
  150.7762  137.7986  154.1708 C   0  0  0  0  0  0  0  0  0  0  0  0
  150.2742  138.6875  155.0963 N   0  0  0  0  0  0  0  0  0  0  0  0
  148.8972  139.2816  155.1226 C   0  0  2  0  0  0  0  0  0  0  0  0
  147.9743  138.3399  154.6621 O   0  0  0  0  0  0  0  0  0  0  0  0
  147.3005  138.8204  153.5001 C   0  0  1  0  0  0  0  0  0  0  0  0
  145.8759  138.2451  153.4119 C   0  0  0  0  0  0  0  0  0  0  0  0
  145.2857  138.5968  152.1790 O   0  0  0  0  0  0  0  0  0  0  0  0
  147.3928  140.3485  153.6196 C   0  0  1  0  0  0  0  0  0  0  0  0
  146.3750  140.8635  154.4594 O   0  0  0  0  0  0  0  0  0  0  0  0
  148.7577  140.5511  154.2580 C   0  0  2  0  0  0  0  0  0  0  0  0
  149.7594  140.6881  153.2653 O   0  0  0  0  0  0  0  0  0  0  0  0
  148.7003  139.4713  156.1785 H   0  0  0  0  0  0  0  0  0  0  0  0
  147.8700  138.5253  152.6181 H   0  0  0  0  0  0  0  0  0  0  0  0
  147.3079  140.8389  152.6488 H   0  0  0  0  0  0  0  0  0  0  0  0
  148.7947  141.4352  154.8961 H   0  0  0  0  0  0  0  0  0  0  0  0
  154.6943  136.8784  155.1500 H   0  0  0  0  0  0  0  0  0  0  0  0
  155.5150  137.5637  156.5367 H   0  0  0  0  0  0  0  0  0  0  0  0
  150.1900  137.4320  153.3406 H   0  0  0  0  0  0  0  0  0  0  0  0
  145.8755  137.1615  153.5353 H   0  0  0  0  0  0  0  0  0  0  0  0
  145.2520  138.6646  154.2015 H   0  0  0  0  0  0  0  0  0  0  0  0
  144.9013  139.4560  152.2630 H   0  0  0  0  0  0  0  0  0  0  0  0
  145.5614  140.8654  153.9786 H   0  0  0  0  0  0  0  0  0  0  0  0
  149.6392  140.0048  152.6237 H   0  0  0  0  0  0  0  0  0  0  0  0
  1  2  1  0  0  0  0
  1 25  1  0  0  0  0
  1 26  1  0  0  0  0
  2  8  1  0  0  0  0
  2  3  2  0  0  0  0
  3  4  1  0  0  0  0
  4  5  1  0  0  0  0
  4  6  2  0  0  0  0
  6  7  1  0  0  0  0
  7 11  1  0  0  0  0
  7  8  2  0  0  0  0
  8  9  1  0  0  0  0
  9 10  2  0  0  0  0
 10 11  1  0  0  0  0
 10 27  1  0  0  0  0
 11 12  1  0  0  0  0
 12 21  1  0  0  0  0
 12 19  1  0  0  0  0
 12 13  1  0  0  0  0
 13 14  1  0  0  0  0
 14 22  1  0  0  0  0
 14 15  1  0  0  0  0
 14 17  1  0  0  0  0
 15 16  1  0  0  0  0
 15 28  1  0  0  0  0
 15 29  1  0  0  0  0
 16 30  1  0  0  0  0
 17 23  1  0  0  0  0
 17 18  1  0  0  0  0
 17 19  1  0  0  0  0
 18 31  1  0  0  0  0
 19 24  1  0  0  0  0
 19 20  1  0  0  0  0
 20 32  1  0  0  0  0
M  END
> <s_m_source_file>
AV-unprocessed.smi

> <i_m_source_file_index>
114

> <i_lp_mmshare_version>
43012

> <i_f3d_flags>
0

> <s_epik_input>
RmMobjEpbmMoW05IMl0pYyhjMTIpbltjSF1uMltDQEBIXTNPW0NASF0oW0NIMl1bT0hdKVtDQEBIXShbT0hdKVtDQEBIXTNbT0hd

> <s_epik_cmdline>
J2VwaWtfcHl0aG9uJywgJy1waCcsICc3LjAnLCAnLXRuJywgJzgnLCAnLW1hJywgJzIwMCcsICctbWV0YWxfYmluZGluZycsICctaW1hZScsICc8aW5maWxlLm1hZT4nLCAnLW9tYWUnLCAnPG91dGZpbGUubWFlPic=

> <r_lp_tautomer_probability>
1

> <r_epik_Ionization_Penalty>
1.13199e-05

> <r_epik_Ionization_Penalty_Charging>
0

> <r_epik_Ionization_Penalty_Neutral>
1.13199e-05

> <r_epik_State_Penalty>
-0

> <r_epik_Charging_Adjusted_Penalty>
0

> <i_epik_Tot_Q>
0

> <i_epik_Tot_abs_Q>
0

> <r_epik_Metal_State_Penalty>
-0

> <b_epik_Metal_Only>
0

> <s_epik_Chemistry_Notes>
This compound contains an acetal/aminal-like group ( X-CH(R)-Y where X, Y are N, S, or O) that may be acid/base labile, releasing an aldehyde.

> <s_lp_Force_Field>
OPLS_2005

> <r_lp_Energy>
40.543

> <b_lp_Chiralities_Consistent>
1

> <s_lp_Variant>
AV-unprocessed.smi:114-3

> <Gold.Version>
5.8.1

> <Gold.Id.Protein>
6NUR|6NUR_protein|mol2

> <Gold.PLP.Fitness>
42.2775

> <Gold.PLP.PLP>
-26.0116

> <Gold.PLP.part.hbond>
-6.5989

> <Gold.PLP.part.metal>
0.0000

> <Gold.PLP.part.buried>
-1.7539

> <Gold.PLP.part.nonpolar>
-19.3703

> <Gold.PLP.part.repulsive>
1.2547

> <Gold.PLP.ligand.clash>
0.0000

> <Gold.PLP.ligand.torsion>
0.7429

> <Gold.PLP.Chemscore.Hbond>
4.8167

> <Gold.PLP.Chemscore.CHOScore>
1.0999

> <Gold.PLP.Chemscore.Metal>
0.0000

> <Gold.Chemscore.Hbonds>
donor molecule, donor type, donor heavy atom, donor atom, acceptor molecule, acceptor atom, score
      L1  H    16    30       P1 10175  1.00
      L1  H    20    32       P1  7957  0.52
      P1  H  7989  7998       L1    20  0.29
      P1  H  7997  8009       L1     3  0.83
      P1  H  8011  8017       L1    20  1.00
      P1  H 10752 10764       L1     9  0.86
      L1  C    10    27       P1  7948  0.89
      L1  C    10    27       P1  7949  0.14

> <Gold.PLP.Chemscore.Internal.Correction>
0.0020

> <Gold.Rescore>
     Score         DG    S(hbond)    S(metal)    S(lipo)     H(rot)  DE(clash)    DE(int)     intcor
     10.67     -11.68       3.89        0.00      30.09       4.03       0.26       0.75       ----

> <Gold.Chemscore.Fitness>
10.6717

> <Gold.Chemscore.DG>
-11.6786

> <Gold.Chemscore.ZeroCoef>
-5.4800

> <Gold.Chemscore.Hbond>
3.8888

> <Gold.Chemscore.Metal>
0.0000

> <Gold.Chemscore.Lipo>
30.0942

> <Gold.Chemscore.Internal_Hbond>
0.0000

> <Gold.Chemscore.DEClash>
0.2617

> <Gold.Chemscore.DEInternal>
0.7452

> <Gold.Chemscore.Rot>
4.0277

> <Gold.Chemscore.Internal.Correction>
   9.000000E+99

> <Gold.Chemscore.Hbonds>
donor molecule, donor type, donor heavy atom, donor atom, acceptor molecule, acceptor atom, score
      L1  H    16    30       P1 10175  0.96
      L1  H    18    31       P1 10175  0.07
      L1  H    20    32       P1  7957  0.53
      P1  H  7989  7998       L1    20  0.17
      P1  H  7997  8009       L1     3  0.29
      P1  H  8011  8017       L1    20  0.59
      P1  H 10752 10764       L1     9  0.54

> <Gold.Chemscore.Hbond.Weighted>
-12.9886

> <Gold.Chemscore.Metal.Weighted>
-0.0000

> <Gold.Chemscore.Lipo.Weighted>
-3.5210

> <Gold.Chemscore.Internal_Hbond.Weighted>
0.0000

> <Gold.Chemscore.DEClash.Weighted>
0.2617

> <Gold.Chemscore.DEInternal.Weighted>
0.7452

> <Gold.Chemscore.Rot.Weighted>
10.3110

> <Gold.Chemscore.Internal.Correction.Weighted>
   9.000000E+99

> <Gold.Protein.RotatedTorsions>
[ 6907 6896 6895 6894 ] final  -84.26 input  -60.11 | X-H torsion
[ 7974 7965 7964 7962 ] final   92.82 input  175.53 | X-H torsion
[ 8008 7997 7996 7995 ] final  139.92 input   59.86 | X-H torsion
[ 10167 10162 10161 10158 ] final -167.53 input  -65.29 | X-H torsion
[ 10718 10713 10712 10709 ] final  143.23 input   66.30 | X-H torsion
[ 10763 10752 10751 10750 ] final  -71.93 input  -60.55 | X-H torsion
[ 11005 11000 10999 10996 ] final -163.19 input  -57.11 | X-H torsion

> <Gold.Protein.ActiveResidues>
 VAL166  LYS551  ARG553  GLY616  TRP617  ASP618  TYR619  PRO620  LYS621  CYS622 
 ASP623  PHE694  ASN695  SER759  ASP760  ASP761  ALA762  ILE779  LEU786  VAL792 
 PHE793  MET794  SER795  GLU796  ALA797  LYS798  CYS799  TRP800  GLU811  SER814 

> <Gold.Protein.RotatedAtoms>
  150.6878  134.3386  159.4857 H   0  0  0  0  0  0  0  0  0  0  0  0  # atno 6907 bound_to 6896
  152.1242  134.9181  160.0571 H   0  0  0  0  0  0  0  0  0  0  0  0  # atno 6908 bound_to 6896
  152.0375  133.3928  159.4360 H   0  0  0  0  0  0  0  0  0  0  0  0  # atno 6909 bound_to 6896
  145.4872  139.2277  143.2850 H   0  0  0  0  0  0  0  0  0  0  0  0  # atno 7974 bound_to 7965
  156.2985  140.2355  156.4317 H   0  0  0  0  0  0  0  0  0  0  0  0  # atno 8008 bound_to 7997
  154.8265  140.0435  157.1467 H   0  0  0  0  0  0  0  0  0  0  0  0  # atno 8009 bound_to 7997
  154.9256  140.3009  155.5197 H   0  0  0  0  0  0  0  0  0  0  0  0  # atno 8010 bound_to 7997
  139.6043  144.0945  152.1776 H   0  0  0  0  0  0  0  0  0  0  0  0  # atno 10167 bound_to 10162
  157.3713  131.0979  151.0825 H   0  0  0  0  0  0  0  0  0  0  0  0  # atno 10718 bound_to 10713
  154.4387  135.5946  153.6115 H   0  0  0  0  0  0  0  0  0  0  0  0  # atno 10763 bound_to 10752
  152.9804  135.5993  154.3749 H   0  0  0  0  0  0  0  0  0  0  0  0  # atno 10764 bound_to 10752
  154.3597  135.2841  155.2306 H   0  0  0  0  0  0  0  0  0  0  0  0  # atno 10765 bound_to 10752
  140.6008  134.4949  157.5205 H   0  0  0  0  0  0  0  0  0  0  0  0  # atno 11005 bound_to 11000
  146.2306  140.5663  142.8977 LP  0  0  0  0  0  0  0  0  0  0  0  0  # atno 17320 bound_to 7965
  144.7854  140.5927  143.6577 LP  0  0  0  0  0  0  0  0  0  0  0  0  # atno 17321 bound_to 7965
  140.0549  144.5903  150.7307 LP  0  0  0  0  0  0  0  0  0  0  0  0  # atno 17342 bound_to 10162
  140.7273  143.2650  151.4075 LP  0  0  0  0  0  0  0  0  0  0  0  0  # atno 17343 bound_to 10162
  157.1928  130.6359  149.5710 LP  0  0  0  0  0  0  0  0  0  0  0  0  # atno 17370 bound_to 10713
  155.9756  130.4716  150.6472 LP  0  0  0  0  0  0  0  0  0  0  0  0  # atno 17371 bound_to 10713
  139.9233  134.8105  156.1144 LP  0  0  0  0  0  0  0  0  0  0  0  0  # atno 17394 bound_to 11000
  141.0873  133.6729  156.2464 LP  0  0  0  0  0  0  0  0  0  0  0  0  # atno 17395 bound_to 11000

$$$$
