AV-unprocessed.smi:3202|AV-procd|sdf|12242|dock9
  -GOLD-   2272018 73D 1   1.00000     0.00000
 Structure written by MMmdl.
 43 44  0  0  0  0  0  0  0  0  2 V2000
  146.9505  137.7215  154.0604 C   0  0  0  0  0  0  0  0  0  0  0  0
  148.0310  138.7363  154.2212 C   0  0  0  0  0  0  0  0  0  0  0  0
  148.0755  139.9063  154.9260 C   0  0  0  0  0  0  0  0  0  0  0  0
  149.3806  140.4218  154.6730 C   0  0  0  0  0  0  0  0  0  0  0  0
  149.9867  141.6960  155.1973 C   0  0  0  0  0  0  0  0  0  0  0  0
  150.1335  141.7258  156.7349 C   0  0  1  0  0  0  0  0  0  0  0  0
  150.9711  140.5580  157.2819 C   0  0  0  0  0  0  0  0  0  0  0  0
  150.7535  143.0007  157.1621 N   0  3  0  0  0  0  0  0  0  0  0  0
  150.8021  143.2437  158.6231 C   0  0  2  0  0  0  0  0  0  0  0  0
  149.8356  144.3317  159.1069 C   0  0  0  0  0  0  0  0  0  0  0  0
  150.4297  144.8398  160.4264 C   0  0  0  0  0  0  0  0  0  0  0  0
  151.8495  144.2572  160.5168 C   0  0  0  0  0  0  0  0  0  0  0  0
  152.1900  143.7003  159.1216 C   0  0  0  0  0  0  0  0  0  0  0  0
  153.1782  142.5225  159.2165 C   0  0  0  0  0  0  0  0  0  0  0  0
  152.8032  144.8194  158.2474 C   0  0  0  0  0  0  0  0  0  0  0  0
  150.0890  139.6330  153.8770 N   0  0  0  0  0  0  0  0  0  0  0  0
  149.2564  138.6100  153.6087 N   0  0  0  0  0  0  0  0  0  0  0  0
  149.5330  137.8439  153.0108 H   0  0  0  0  0  0  0  0  0  0  0  0
  146.1633  137.8696  154.7999 H   0  0  0  0  0  0  0  0  0  0  0  0
  147.3424  136.7116  154.1847 H   0  0  0  0  0  0  0  0  0  0  0  0
  146.4997  137.7907  153.0703 H   0  0  0  0  0  0  0  0  0  0  0  0
  147.2903  140.3332  155.5322 H   0  0  0  0  0  0  0  0  0  0  0  0
  150.9632  141.8551  154.7373 H   0  0  0  0  0  0  0  0  0  0  0  0
  149.3721  142.5340  154.8705 H   0  0  0  0  0  0  0  0  0  0  0  0
  149.1406  141.6473  157.1810 H   0  0  0  0  0  0  0  0  0  0  0  0
  150.4911  139.5971  157.0962 H   0  0  0  0  0  0  0  0  0  0  0  0
  151.1036  140.6436  158.3612 H   0  0  0  0  0  0  0  0  0  0  0  0
  151.9616  140.5311  156.8265 H   0  0  0  0  0  0  0  0  0  0  0  0
  151.7111  142.9840  156.8409 H   0  0  0  0  0  0  0  0  0  0  0  0
  150.5484  142.3122  159.1331 H   0  0  0  0  0  0  0  0  0  0  0  0
  149.7962  145.1539  158.3913 H   0  0  0  0  0  0  0  0  0  0  0  0
  148.8192  143.9557  159.2304 H   0  0  0  0  0  0  0  0  0  0  0  0
  150.4514  145.9303  160.4368 H   0  0  0  0  0  0  0  0  0  0  0  0
  149.8305  144.5181  161.2791 H   0  0  0  0  0  0  0  0  0  0  0  0
  152.5752  144.9933  160.8655 H   0  0  0  0  0  0  0  0  0  0  0  0
  151.8463  143.4495  161.2506 H   0  0  0  0  0  0  0  0  0  0  0  0
  154.1291  142.8405  159.6456 H   0  0  0  0  0  0  0  0  0  0  0  0
  153.3856  142.0994  158.2332 H   0  0  0  0  0  0  0  0  0  0  0  0
  152.7892  141.7191  159.8431 H   0  0  0  0  0  0  0  0  0  0  0  0
  153.7352  145.1853  158.6795 H   0  0  0  0  0  0  0  0  0  0  0  0
  152.1369  145.6765  158.1488 H   0  0  0  0  0  0  0  0  0  0  0  0
  153.0361  144.4660  157.2427 H   0  0  0  0  0  0  0  0  0  0  0  0
  150.2828  143.7699  156.7073 H   0  0  0  0  0  0  0  0  0  0  0  0
  1  2  1  0  0  0  0
  1 19  1  0  0  0  0
  1 20  1  0  0  0  0
  1 21  1  0  0  0  0
  2 17  1  0  0  0  0
  2  3  2  0  0  0  0
  3  4  1  0  0  0  0
  3 22  1  0  0  0  0
  4  5  1  0  0  0  0
  4 16  2  0  0  0  0
  5  6  1  0  0  0  0
  5 23  1  0  0  0  0
  5 24  1  0  0  0  0
  6  7  1  0  0  0  0
  6  8  1  0  0  0  0
  6 25  1  0  0  0  0
  7 26  1  0  0  0  0
  7 27  1  0  0  0  0
  7 28  1  0  0  0  0
  8  9  1  0  0  0  0
  8 29  1  0  0  0  0
  8 43  1  0  0  0  0
  9 13  1  0  0  0  0
  9 10  1  0  0  0  0
  9 30  1  0  0  0  0
 10 11  1  0  0  0  0
 10 31  1  0  0  0  0
 10 32  1  0  0  0  0
 11 12  1  0  0  0  0
 11 33  1  0  0  0  0
 11 34  1  0  0  0  0
 12 13  1  0  0  0  0
 12 35  1  0  0  0  0
 12 36  1  0  0  0  0
 13 14  1  0  0  0  0
 13 15  1  0  0  0  0
 14 37  1  0  0  0  0
 14 38  1  0  0  0  0
 14 39  1  0  0  0  0
 15 40  1  0  0  0  0
 15 41  1  0  0  0  0
 15 42  1  0  0  0  0
 16 17  1  0  0  0  0
 17 18  1  0  0  0  0
M  CHG  1   8   1
M  END
> <s_m_source_file>
AV-unprocessed.smi

> <i_m_source_file_index>
3202

> <i_lp_mmshare_version>
43012

> <i_f3d_flags>
0

> <s_epik_input>
W0NIM11jMVtjSF1jKG5bbkhdMSlbQ0gyXVtDQEhdKFtDSDNdKVtOSF1bQ0BASF0oQzIoW0NIM10pW0NIM10pW0NIMl1bQ0gyXVtDSDJdMg==

> <s_epik_cmdline>
J2VwaWtfcHl0aG9uJywgJy1waCcsICc3LjAnLCAnLXRuJywgJzgnLCAnLW1hJywgJzIwMCcsICctbWV0YWxfYmluZGluZycsICctaW1hZScsICc8aW5maWxlLm1hZT4nLCAnLW9tYWUnLCAnPG91dGZpbGUubWFlPic=

> <r_lp_tautomer_probability>
0.5

> <r_epik_Ionization_Penalty>
0.000341671

> <r_epik_Ionization_Penalty_Charging>
0.000281809

> <r_epik_Ionization_Penalty_Neutral>
5.9862e-05

> <r_epik_State_Penalty>
0.41068

> <r_epik_Charging_Adjusted_Penalty>
0.410962

> <i_epik_Tot_Q>
1

> <i_epik_Tot_abs_Q>
1

> <r_epik_Metal_State_Penalty>
0.410672

> <b_epik_Metal_Only>
0

> <s_lp_Force_Field>
OPLS_2005

> <r_lp_Energy>
29.8366

> <b_lp_Chiralities_Consistent>
1

> <s_lp_Variant>
AV-unprocessed.smi:3202-2

> <Gold.Version>
5.8.1

> <Gold.Id.Protein>
6NUR|6NUR_protein|mol2

> <Gold.PLP.Fitness>
44.5990

> <Gold.PLP.PLP>
-34.1221

> <Gold.PLP.part.hbond>
-4.0000

> <Gold.PLP.part.metal>
0.0000

> <Gold.PLP.part.buried>
-4.2742

> <Gold.PLP.part.nonpolar>
-27.7354

> <Gold.PLP.part.repulsive>
2.4233

> <Gold.PLP.ligand.clash>
0.0000

> <Gold.PLP.ligand.torsion>
0.7103

> <Gold.PLP.Chemscore.Hbond>
3.9600

> <Gold.PLP.Chemscore.CHOScore>
0.0000

> <Gold.PLP.Chemscore.Metal>
0.0000

> <Gold.Chemscore.Hbonds>
donor molecule, donor type, donor heavy atom, donor atom, acceptor molecule, acceptor atom, score
      L1  H     8    43       P1  8028  2.00
      L1  H    17    18       P1  7948  0.99
      P1  H  7989  7998       L1    16  0.96

> <Gold.PLP.Chemscore.Internal.Correction>
0.0175

> <Gold.Rescore>
     Score         DG    S(hbond)    S(metal)    S(lipo)     H(rot)  DE(clash)    DE(int)     intcor
     19.58     -21.72       2.12        0.00     110.09       1.46       1.45       0.68       ----

> <Gold.Chemscore.Fitness>
19.5832

> <Gold.Chemscore.DG>
-21.7156

> <Gold.Chemscore.ZeroCoef>
-5.4800

> <Gold.Chemscore.Hbond>
2.1233

> <Gold.Chemscore.Metal>
0.0000

> <Gold.Chemscore.Lipo>
110.0874

> <Gold.Chemscore.Internal_Hbond>
0.0000

> <Gold.Chemscore.DEClash>
1.4539

> <Gold.Chemscore.DEInternal>
0.6785

> <Gold.Chemscore.Rot>
1.4596

> <Gold.Chemscore.Internal.Correction>
   9.000000E+99

> <Gold.Chemscore.Hbonds>
donor molecule, donor type, donor heavy atom, donor atom, acceptor molecule, acceptor atom, score
      L1  H     8    43       P1  8028  0.97
      L1  H    17    18       P1  7948  0.72
      P1  H  7989  7998       L1    16  0.23

> <Gold.Chemscore.Hbond.Weighted>
-7.0919

> <Gold.Chemscore.Metal.Weighted>
-0.0000

> <Gold.Chemscore.Lipo.Weighted>
-12.8802

> <Gold.Chemscore.Internal_Hbond.Weighted>
0.0000

> <Gold.Chemscore.DEClash.Weighted>
1.4539

> <Gold.Chemscore.DEInternal.Weighted>
0.6785

> <Gold.Chemscore.Rot.Weighted>
3.7365

> <Gold.Chemscore.Internal.Correction.Weighted>
   9.000000E+99

> <Gold.Protein.RotatedTorsions>
[ 6907 6896 6895 6894 ] final -128.07 input  -60.11 | X-H torsion
[ 7974 7965 7964 7962 ] final   33.14 input  175.53 | X-H torsion
[ 8008 7997 7996 7995 ] final -175.27 input   59.86 | X-H torsion
[ 10167 10162 10161 10158 ] final   21.97 input  -65.29 | X-H torsion
[ 10718 10713 10712 10709 ] final -179.89 input   66.30 | X-H torsion
[ 10763 10752 10751 10750 ] final -164.04 input  -60.55 | X-H torsion
[ 11005 11000 10999 10996 ] final  149.87 input  -57.11 | X-H torsion

> <Gold.Protein.ActiveResidues>
 VAL166  LYS551  ARG553  GLY616  TRP617  ASP618  TYR619  PRO620  LYS621  CYS622 
 ASP623  PHE694  ASN695  SER759  ASP760  ASP761  ALA762  ILE779  LEU786  VAL792 
 PHE793  MET794  SER795  GLU796  ALA797  LYS798  CYS799  TRP800  GLU811  SER814 

> <Gold.Protein.RotatedAtoms>
  150.9140  133.6962  159.2847 H   0  0  0  0  0  0  0  0  0  0  0  0  # atno 6907 bound_to 6896
  151.4439  135.1022  159.9688 H   0  0  0  0  0  0  0  0  0  0  0  0  # atno 6908 bound_to 6896
  152.4945  133.8542  159.7272 H   0  0  0  0  0  0  0  0  0  0  0  0  # atno 6909 bound_to 6896
  146.1440  139.6435  142.9144 H   0  0  0  0  0  0  0  0  0  0  0  0  # atno 7974 bound_to 7965
  155.9804  140.1180  157.0731 H   0  0  0  0  0  0  0  0  0  0  0  0  # atno 8008 bound_to 7997
  154.4181  140.1145  156.5496 H   0  0  0  0  0  0  0  0  0  0  0  0  # atno 8009 bound_to 7997
  155.6478  140.3473  155.4739 H   0  0  0  0  0  0  0  0  0  0  0  0  # atno 8010 bound_to 7997
  140.5385  143.9719  150.6505 H   0  0  0  0  0  0  0  0  0  0  0  0  # atno 10167 bound_to 10162
  156.8658  130.9767  151.3078 H   0  0  0  0  0  0  0  0  0  0  0  0  # atno 10718 bound_to 10713
  154.7066  135.2998  154.9261 H   0  0  0  0  0  0  0  0  0  0  0  0  # atno 10763 bound_to 10752
  154.0176  135.6686  153.4774 H   0  0  0  0  0  0  0  0  0  0  0  0  # atno 10764 bound_to 10752
  153.0722  135.5054  154.8240 H   0  0  0  0  0  0  0  0  0  0  0  0  # atno 10765 bound_to 10752
  140.1082  134.8940  157.1898 H   0  0  0  0  0  0  0  0  0  0  0  0  # atno 11005 bound_to 11000
  145.4981  141.0438  143.2556 LP  0  0  0  0  0  0  0  0  0  0  0  0  # atno 17320 bound_to 7965
  144.7825  139.6496  143.7148 LP  0  0  0  0  0  0  0  0  0  0  0  0  # atno 17321 bound_to 7965
  140.3113  143.3196  152.0876 LP  0  0  0  0  0  0  0  0  0  0  0  0  # atno 17342 bound_to 10162
  139.4980  144.6634  151.6411 LP  0  0  0  0  0  0  0  0  0  0  0  0  # atno 17343 bound_to 10162
  157.6224  130.8665  149.9131 LP  0  0  0  0  0  0  0  0  0  0  0  0  # atno 17370 bound_to 10713
  156.0752  130.3680  150.0692 LP  0  0  0  0  0  0  0  0  0  0  0  0  # atno 17371 bound_to 10713
  140.3126  134.3006  155.7263 LP  0  0  0  0  0  0  0  0  0  0  0  0  # atno 17394 bound_to 11000
  141.2123  133.7660  156.9799 LP  0  0  0  0  0  0  0  0  0  0  0  0  # atno 17395 bound_to 11000

$$$$
