AV-unprocessed.smi:3160|AV-procd|sdf|12053|dock4
  -GOLD-   2272017483D 1   1.00000     0.00000
 Structure written by MMmdl.
 40 41  0  0  0  0  0  0  0  0  2 V2000
  145.6563  143.1961  153.8943 C   0  0  0  0  0  0  0  0  0  0  0  0
  146.7955  142.2420  154.1107 C   0  0  0  0  0  0  0  0  0  0  0  0
  146.8470  140.8555  153.7928 C   0  0  0  0  0  0  0  0  0  0  0  0
  148.0020  140.2977  154.1155 N   0  0  0  0  0  0  0  0  0  0  0  0
  148.7298  141.3037  154.6495 N   0  0  0  0  0  0  0  0  0  0  0  0
  150.0817  141.0558  155.1392 C   0  0  2  0  0  0  0  0  0  0  0  0
  150.4835  139.5977  154.8461 C   0  0  0  0  0  0  0  0  0  0  0  0
  150.2204  141.4410  156.6369 C   0  0  1  0  0  0  0  0  0  0  0  0
  151.1152  140.4699  157.4252 C   0  0  0  0  0  0  0  0  0  0  0  0
  150.7769  142.8091  156.7623 N   0  3  0  0  0  0  0  0  0  0  0  0
  151.0348  143.2651  158.1450 C   0  0  0  0  0  0  0  0  0  0  0  0
  151.0367  144.7883  158.2595 C   0  0  0  0  0  0  0  0  0  0  0  0
  151.7796  145.0683  159.5696 C   0  0  0  0  0  0  0  0  0  0  0  0
  152.7037  143.8614  159.8035 C   0  0  0  0  0  0  0  0  0  0  0  0
  152.4197  142.8728  158.6656 C   0  0  0  0  0  0  0  0  0  0  0  0
  148.0248  142.4896  154.6528 C   0  0  0  0  0  0  0  0  0  0  0  0
  144.7928  142.7019  153.4482 H   0  0  0  0  0  0  0  0  0  0  0  0
  145.9368  144.0133  153.2297 H   0  0  0  0  0  0  0  0  0  0  0  0
  145.3218  143.6424  154.8310 H   0  0  0  0  0  0  0  0  0  0  0  0
  146.0821  140.2409  153.3413 H   0  0  0  0  0  0  0  0  0  0  0  0
  150.7483  141.6982  154.5614 H   0  0  0  0  0  0  0  0  0  0  0  0
  151.5418  139.4240  155.0390 H   0  0  0  0  0  0  0  0  0  0  0  0
  150.3075  139.3481  153.7992 H   0  0  0  0  0  0  0  0  0  0  0  0
  149.9130  138.8948  155.4541 H   0  0  0  0  0  0  0  0  0  0  0  0
  149.2289  141.4130  157.0922 H   0  0  0  0  0  0  0  0  0  0  0  0
  150.6932  139.4659  157.4565 H   0  0  0  0  0  0  0  0  0  0  0  0
  151.2294  140.7963  158.4595 H   0  0  0  0  0  0  0  0  0  0  0  0
  152.1116  140.4014  156.9873 H   0  0  0  0  0  0  0  0  0  0  0  0
  151.6349  142.8668  156.2325 H   0  0  0  0  0  0  0  0  0  0  0  0
  150.2659  142.8716  158.8118 H   0  0  0  0  0  0  0  0  0  0  0  0
  151.5904  145.2271  157.4279 H   0  0  0  0  0  0  0  0  0  0  0  0
  150.0315  145.2115  158.2500 H   0  0  0  0  0  0  0  0  0  0  0  0
  152.3320  146.0075  159.5263 H   0  0  0  0  0  0  0  0  0  0  0  0
  151.0663  145.1474  160.3911 H   0  0  0  0  0  0  0  0  0  0  0  0
  153.7547  144.1522  159.8182 H   0  0  0  0  0  0  0  0  0  0  0  0
  152.4792  143.4052  160.7684 H   0  0  0  0  0  0  0  0  0  0  0  0
  152.4670  141.8346  158.9955 H   0  0  0  0  0  0  0  0  0  0  0  0
  153.1657  143.0039  157.8801 H   0  0  0  0  0  0  0  0  0  0  0  0
  148.4495  143.4039  155.0407 H   0  0  0  0  0  0  0  0  0  0  0  0
  150.1061  143.4439  156.3537 H   0  0  0  0  0  0  0  0  0  0  0  0
  1  2  1  0  0  0  0
  1 17  1  0  0  0  0
  1 18  1  0  0  0  0
  1 19  1  0  0  0  0
  2 16  2  0  0  0  0
  2  3  1  0  0  0  0
  3  4  2  0  0  0  0
  3 20  1  0  0  0  0
  4  5  1  0  0  0  0
  5  6  1  0  0  0  0
  5 16  1  0  0  0  0
  6  7  1  0  0  0  0
  6  8  1  0  0  0  0
  6 21  1  0  0  0  0
  7 22  1  0  0  0  0
  7 23  1  0  0  0  0
  7 24  1  0  0  0  0
  8  9  1  0  0  0  0
  8 10  1  0  0  0  0
  8 25  1  0  0  0  0
  9 26  1  0  0  0  0
  9 27  1  0  0  0  0
  9 28  1  0  0  0  0
 10 11  1  0  0  0  0
 10 29  1  0  0  0  0
 10 40  1  0  0  0  0
 11 15  1  0  0  0  0
 11 12  1  0  0  0  0
 11 30  1  0  0  0  0
 12 13  1  0  0  0  0
 12 31  1  0  0  0  0
 12 32  1  0  0  0  0
 13 14  1  0  0  0  0
 13 33  1  0  0  0  0
 13 34  1  0  0  0  0
 14 15  1  0  0  0  0
 14 35  1  0  0  0  0
 14 36  1  0  0  0  0
 15 37  1  0  0  0  0
 15 38  1  0  0  0  0
 16 39  1  0  0  0  0
M  CHG  1  10   1
M  END
> <s_m_source_file>
AV-unprocessed.smi

> <i_m_source_file_index>
3160

> <i_lp_mmshare_version>
43012

> <i_f3d_flags>
0

> <s_epik_input>
W0NIM11jMVtjSF1ubihbY0hdMSlbQ0BIXShbQ0gzXSlbQ0BIXShbQ0gzXSlbTkhdW0NIXTJbQ0gyXVtDSDJdW0NIMl1bQ0gyXTI=

> <s_epik_cmdline>
J2VwaWtfcHl0aG9uJywgJy1waCcsICc3LjAnLCAnLXRuJywgJzgnLCAnLW1hJywgJzIwMCcsICctbWV0YWxfYmluZGluZycsICctaW1hZScsICc8aW5maWxlLm1hZT4nLCAnLW9tYWUnLCAnPG91dGZpbGUubWFlPic=

> <r_lp_tautomer_probability>
1

> <r_epik_Ionization_Penalty>
0.00117636

> <r_epik_Ionization_Penalty_Charging>
0.00115264

> <r_epik_Ionization_Penalty_Neutral>
2.37123e-05

> <r_epik_State_Penalty>
-0

> <r_epik_Charging_Adjusted_Penalty>
0.00115264

> <i_epik_Tot_Q>
1

> <i_epik_Tot_abs_Q>
1

> <r_epik_Metal_State_Penalty>
-0

> <b_epik_Metal_Only>
0

> <s_lp_Force_Field>
OPLS_2005

> <r_lp_Energy>
30.6135

> <b_lp_Chiralities_Consistent>
1

> <s_lp_Variant>
AV-unprocessed.smi:3160-3

> <Gold.Version>
5.8.1

> <Gold.Id.Protein>
6NUR|6NUR_protein|mol2

> <Gold.PLP.Fitness>
45.1433

> <Gold.PLP.PLP>
-38.8979

> <Gold.PLP.part.hbond>
-1.0000

> <Gold.PLP.part.metal>
0.0000

> <Gold.PLP.part.buried>
0.2176

> <Gold.PLP.part.nonpolar>
-38.4797

> <Gold.PLP.part.repulsive>
0.1738

> <Gold.PLP.ligand.clash>
0.0000

> <Gold.PLP.ligand.torsion>
1.4209

> <Gold.PLP.Chemscore.Hbond>
2.0000

> <Gold.PLP.Chemscore.CHOScore>
0.9987

> <Gold.PLP.Chemscore.Metal>
0.0000

> <Gold.Chemscore.Hbonds>
donor molecule, donor type, donor heavy atom, donor atom, acceptor molecule, acceptor atom, score
      L1  H    10    40       P1  8028  2.00
      L1  C     3    20       P1 10175  0.93

> <Gold.PLP.Chemscore.Internal.Correction>
0.0912

> <Gold.Rescore>
     Score         DG    S(hbond)    S(metal)    S(lipo)     H(rot)  DE(clash)    DE(int)     intcor
     15.13     -18.48       1.00        0.00     112.52       1.37       1.90       1.45       ----

> <Gold.Chemscore.Fitness>
15.1298

> <Gold.Chemscore.DG>
-18.4752

> <Gold.Chemscore.ZeroCoef>
-5.4800

> <Gold.Chemscore.Hbond>
0.9999

> <Gold.Chemscore.Metal>
0.0000

> <Gold.Chemscore.Lipo>
112.5235

> <Gold.Chemscore.Internal_Hbond>
0.0000

> <Gold.Chemscore.DEClash>
1.8988

> <Gold.Chemscore.DEInternal>
1.4467

> <Gold.Chemscore.Rot>
1.3709

> <Gold.Chemscore.Internal.Correction>
   9.000000E+99

> <Gold.Chemscore.Hbonds>
donor molecule, donor type, donor heavy atom, donor atom, acceptor molecule, acceptor atom, score
      L1  H    10    40       P1  8028  1.00

> <Gold.Chemscore.Hbond.Weighted>
-3.3395

> <Gold.Chemscore.Metal.Weighted>
-0.0000

> <Gold.Chemscore.Lipo.Weighted>
-13.1653

> <Gold.Chemscore.Internal_Hbond.Weighted>
0.0000

> <Gold.Chemscore.DEClash.Weighted>
1.8988

> <Gold.Chemscore.DEInternal.Weighted>
1.4467

> <Gold.Chemscore.Rot.Weighted>
3.5095

> <Gold.Chemscore.Internal.Correction.Weighted>
   9.000000E+99

> <Gold.Protein.RotatedTorsions>
[ 6907 6896 6895 6894 ] final -138.44 input  -60.11 | X-H torsion
[ 7974 7965 7964 7962 ] final -140.00 input  175.53 | X-H torsion
[ 8008 7997 7996 7995 ] final  160.74 input   59.86 | X-H torsion
[ 10167 10162 10161 10158 ] final  -48.69 input  -65.29 | X-H torsion
[ 10718 10713 10712 10709 ] final  -38.01 input   66.30 | X-H torsion
[ 10763 10752 10751 10750 ] final   33.34 input  -60.55 | X-H torsion
[ 11005 11000 10999 10996 ] final  -97.60 input  -57.11 | X-H torsion

> <Gold.Protein.ActiveResidues>
 VAL166  LYS551  ARG553  GLY616  TRP617  ASP618  TYR619  PRO620  LYS621  CYS622 
 ASP623  PHE694  ASN695  SER759  ASP760  ASP761  ALA762  ILE779  LEU786  VAL792 
 PHE793  MET794  SER795  GLU796  ALA797  LYS798  CYS799  TRP800  GLU811  SER814 

> <Gold.Protein.RotatedAtoms>
  151.0351  133.5756  159.2656 H   0  0  0  0  0  0  0  0  0  0  0  0  # atno 6907 bound_to 6896
  151.2823  135.0717  159.9184 H   0  0  0  0  0  0  0  0  0  0  0  0  # atno 6908 bound_to 6896
  152.5353  134.0063  159.7972 H   0  0  0  0  0  0  0  0  0  0  0  0  # atno 6909 bound_to 6896
  144.8632  140.6252  143.5315 H   0  0  0  0  0  0  0  0  0  0  0  0  # atno 7974 bound_to 7965
  156.2152  140.1796  156.7605 H   0  0  0  0  0  0  0  0  0  0  0  0  # atno 8008 bound_to 7997
  154.5781  140.0671  156.9092 H   0  0  0  0  0  0  0  0  0  0  0  0  # atno 8009 bound_to 7997
  155.2552  140.3332  155.4281 H   0  0  0  0  0  0  0  0  0  0  0  0  # atno 8010 bound_to 7997
  140.6719  143.2729  151.4108 H   0  0  0  0  0  0  0  0  0  0  0  0  # atno 10167 bound_to 10162
  156.3087  130.4249  149.8072 H   0  0  0  0  0  0  0  0  0  0  0  0  # atno 10718 bound_to 10713
  153.0217  135.6389  154.1496 H   0  0  0  0  0  0  0  0  0  0  0  0  # atno 10763 bound_to 10752
  154.1229  135.2845  155.3205 H   0  0  0  0  0  0  0  0  0  0  0  0  # atno 10764 bound_to 10752
  154.6250  135.5512  153.7679 H   0  0  0  0  0  0  0  0  0  0  0  0  # atno 10765 bound_to 10752
  141.1373  133.8183  157.0727 H   0  0  0  0  0  0  0  0  0  0  0  0  # atno 11005 bound_to 11000
  145.4272  139.1554  143.4042 LP  0  0  0  0  0  0  0  0  0  0  0  0  # atno 17320 bound_to 7965
  146.2876  140.4386  142.8752 LP  0  0  0  0  0  0  0  0  0  0  0  0  # atno 17321 bound_to 7965
  139.5992  144.1332  152.2179 LP  0  0  0  0  0  0  0  0  0  0  0  0  # atno 17342 bound_to 10162
  140.0711  144.5778  150.7191 LP  0  0  0  0  0  0  0  0  0  0  0  0  # atno 17343 bound_to 10162
  156.5423  130.8305  151.3273 LP  0  0  0  0  0  0  0  0  0  0  0  0  # atno 17370 bound_to 10713
  157.7386  130.9816  150.2260 LP  0  0  0  0  0  0  0  0  0  0  0  0  # atno 17371 bound_to 10713
  140.0501  134.9810  157.1120 LP  0  0  0  0  0  0  0  0  0  0  0  0  # atno 17394 bound_to 11000
  140.4003  134.2089  155.7163 LP  0  0  0  0  0  0  0  0  0  0  0  0  # atno 17395 bound_to 11000

$$$$
