AV-unprocessed.smi:3134|AV-procd|sdf|11944|dock1
  -GOLD-   2272017333D 1   1.00000     0.00000
 Structure written by MMmdl.
 36 36  0  0  0  0  0  0  0  0  1 V2000
  146.1864  142.8802  154.1279 C   0  0  0  0  0  0  0  0  0  0  0  0
  147.3904  141.9628  153.8610 C   0  0  0  0  0  0  0  0  0  0  0  0
  146.9650  140.4952  153.7220 C   0  0  0  0  0  0  0  0  0  0  0  0
  148.3703  142.0850  154.9358 N   0  0  0  0  0  0  0  0  0  0  0  0
  149.4524  141.3068  155.0951 C   0  0  0  0  0  0  0  0  0  0  0  0
  149.7377  140.3812  154.3343 O   0  0  0  0  0  0  0  0  0  0  0  0
  150.3765  141.6509  156.2757 C   0  0  1  0  0  0  0  0  0  0  0  0
  151.5944  140.7136  156.3065 C   0  0  0  0  0  0  0  0  0  0  0  0
  150.8295  143.0539  156.2736 N   0  0  0  0  0  0  0  0  0  0  0  0
  151.6426  143.4277  157.4256 C   0  0  0  0  0  0  0  0  0  0  0  0
  150.7287  143.6887  158.6307 C   0  0  0  0  0  0  0  0  0  0  0  0
  151.4618  143.6095  159.8789 N   0  0  0  0  0  0  0  0  0  0  0  0
  151.8220  144.6353  160.7269 C   0  0  0  0  0  0  0  0  0  0  0  0
  152.4932  144.0769  161.7768 C   0  0  0  0  0  0  0  0  0  0  0  0
  152.4915  142.6856  161.4773 C   0  0  0  0  0  0  0  0  0  0  0  0
  151.8717  142.4088  160.3415 N   0  0  0  0  0  0  0  0  0  0  0  0
  145.4497  142.8008  153.3282 H   0  0  0  0  0  0  0  0  0  0  0  0
  146.4901  143.9258  154.1897 H   0  0  0  0  0  0  0  0  0  0  0  0
  145.6906  142.6224  155.0644 H   0  0  0  0  0  0  0  0  0  0  0  0
  147.8556  142.2638  152.9206 H   0  0  0  0  0  0  0  0  0  0  0  0
  146.2520  140.3702  152.9067 H   0  0  0  0  0  0  0  0  0  0  0  0
  146.4939  140.1287  154.6348 H   0  0  0  0  0  0  0  0  0  0  0  0
  147.8224  139.8558  153.5091 H   0  0  0  0  0  0  0  0  0  0  0  0
  148.2221  142.8276  155.6040 H   0  0  0  0  0  0  0  0  0  0  0  0
  149.8185  141.4842  157.1991 H   0  0  0  0  0  0  0  0  0  0  0  0
  151.2883  139.6671  156.3342 H   0  0  0  0  0  0  0  0  0  0  0  0
  152.2046  140.8970  157.1915 H   0  0  0  0  0  0  0  0  0  0  0  0
  152.2327  140.8514  155.4325 H   0  0  0  0  0  0  0  0  0  0  0  0
  150.0544  143.6947  156.1780 H   0  0  0  0  0  0  0  0  0  0  0  0
  152.3477  142.6333  157.6731 H   0  0  0  0  0  0  0  0  0  0  0  0
  152.2217  144.3228  157.1935 H   0  0  0  0  0  0  0  0  0  0  0  0
  150.2659  144.6743  158.5584 H   0  0  0  0  0  0  0  0  0  0  0  0
  149.9182  142.9590  158.6612 H   0  0  0  0  0  0  0  0  0  0  0  0
  151.5722  145.6647  160.5155 H   0  0  0  0  0  0  0  0  0  0  0  0
  152.9202  144.5843  162.6290 H   0  0  0  0  0  0  0  0  0  0  0  0
  152.9184  141.8743  162.0480 H   0  0  0  0  0  0  0  0  0  0  0  0
  1  2  1  0  0  0  0
  1 17  1  0  0  0  0
  1 18  1  0  0  0  0
  1 19  1  0  0  0  0
  2  3  1  0  0  0  0
  2  4  1  0  0  0  0
  2 20  1  0  0  0  0
  3 21  1  0  0  0  0
  3 22  1  0  0  0  0
  3 23  1  0  0  0  0
  4  5  1  0  0  0  0
  4 24  1  0  0  0  0
  5  6  2  0  0  0  0
  5  7  1  0  0  0  0
  7  8  1  0  0  0  0
  7  9  1  0  0  0  0
  7 25  1  0  0  0  0
  8 26  1  0  0  0  0
  8 27  1  0  0  0  0
  8 28  1  0  0  0  0
  9 10  1  0  0  0  0
  9 29  1  0  0  0  0
 10 11  1  0  0  0  0
 10 30  1  0  0  0  0
 10 31  1  0  0  0  0
 11 12  1  0  0  0  0
 11 32  1  0  0  0  0
 11 33  1  0  0  0  0
 12 16  1  0  0  0  0
 12 13  1  0  0  0  0
 13 14  2  0  0  0  0
 13 34  1  0  0  0  0
 14 15  1  0  0  0  0
 14 35  1  0  0  0  0
 15 16  2  0  0  0  0
 15 36  1  0  0  0  0
M  END
> <s_m_source_file>
AV-unprocessed.smi

> <i_m_source_file_index>
3134

> <i_lp_mmshare_version>
43012

> <i_f3d_flags>
0

> <s_epik_input>
W0NIM11bQ0hdKFtDSDNdKVtOSF1DKD1PKVtDQEhdKFtDSDNdKVtOSF1bQ0gyXVtDSDJdbjFbY0hdW2NIXVtjSF1uMQ==

> <s_epik_cmdline>
J2VwaWtfcHl0aG9uJywgJy1waCcsICc3LjAnLCAnLXRuJywgJzgnLCAnLW1hJywgJzIwMCcsICctbWV0YWxfYmluZGluZycsICctaW1hZScsICc8aW5maWxlLm1hZT4nLCAnLW9tYWUnLCAnPG91dGZpbGUubWFlPic=

> <r_lp_tautomer_probability>
1

> <r_epik_Ionization_Penalty>
0.731872

> <r_epik_Ionization_Penalty_Charging>
0

> <r_epik_Ionization_Penalty_Neutral>
0.731872

> <r_epik_State_Penalty>
0.75611

> <r_epik_Charging_Adjusted_Penalty>
0.75611

> <i_epik_Tot_Q>
0

> <i_epik_Tot_abs_Q>
0

> <r_epik_Metal_State_Penalty>
0.755373

> <b_epik_Metal_Only>
0

> <s_lp_Force_Field>
OPLS_2005

> <r_lp_Energy>
3.64981

> <b_lp_Chiralities_Consistent>
1

> <s_lp_Variant>
AV-unprocessed.smi:3134-4

> <Gold.Version>
5.8.1

> <Gold.Id.Protein>
6NUR|6NUR_protein|mol2

> <Gold.PLP.Fitness>
47.0849

> <Gold.PLP.PLP>
-40.6106

> <Gold.PLP.part.hbond>
-3.3969

> <Gold.PLP.part.metal>
0.0000

> <Gold.PLP.part.buried>
-7.5844

> <Gold.PLP.part.nonpolar>
-28.8580

> <Gold.PLP.part.repulsive>
0.3242

> <Gold.PLP.ligand.clash>
0.0000

> <Gold.PLP.ligand.torsion>
0.4413

> <Gold.PLP.Chemscore.Hbond>
2.4080

> <Gold.PLP.Chemscore.CHOScore>
0.0000

> <Gold.PLP.Chemscore.Metal>
0.0000

> <Gold.Chemscore.Hbonds>
donor molecule, donor type, donor heavy atom, donor atom, acceptor molecule, acceptor atom, score
      L1  H     4    24       P1  8028  0.64
      L1  H     9    29       P1  8028  1.00
      P1  H  7989  7998       L1     6  0.65

> <Gold.PLP.Chemscore.Internal.Correction>
0.1330

> <Gold.Rescore>
     Score         DG    S(hbond)    S(metal)    S(lipo)     H(rot)  DE(clash)    DE(int)     intcor
     16.60     -18.83       2.36        0.00      91.59       2.05       0.72       1.51       ----

> <Gold.Chemscore.Fitness>
16.6011

> <Gold.Chemscore.DG>
-18.8296

> <Gold.Chemscore.ZeroCoef>
-5.4800

> <Gold.Chemscore.Hbond>
2.3619

> <Gold.Chemscore.Metal>
0.0000

> <Gold.Chemscore.Lipo>
91.5905

> <Gold.Chemscore.Internal_Hbond>
0.0000

> <Gold.Chemscore.DEClash>
0.7209

> <Gold.Chemscore.DEInternal>
1.5076

> <Gold.Chemscore.Rot>
2.0529

> <Gold.Chemscore.Internal.Correction>
   9.000000E+99

> <Gold.Chemscore.Hbonds>
donor molecule, donor type, donor heavy atom, donor atom, acceptor molecule, acceptor atom, score
      L1  H     4    24       P1  8028  0.59
      L1  H     9    29       P1  8028  0.99
      P1  H  7989  7998       L1     6  0.35

> <Gold.Chemscore.Hbond.Weighted>
-7.8889

> <Gold.Chemscore.Metal.Weighted>
-0.0000

> <Gold.Chemscore.Lipo.Weighted>
-10.7161

> <Gold.Chemscore.Internal_Hbond.Weighted>
0.0000

> <Gold.Chemscore.DEClash.Weighted>
0.7209

> <Gold.Chemscore.DEInternal.Weighted>
1.5076

> <Gold.Chemscore.Rot.Weighted>
5.2554

> <Gold.Chemscore.Internal.Correction.Weighted>
   9.000000E+99

> <Gold.Protein.RotatedTorsions>
[ 6907 6896 6895 6894 ] final   86.63 input  -60.11 | X-H torsion
[ 7974 7965 7964 7962 ] final   79.48 input  175.53 | X-H torsion
[ 8008 7997 7996 7995 ] final  109.15 input   59.86 | X-H torsion
[ 10167 10162 10161 10158 ] final   75.58 input  -65.29 | X-H torsion
[ 10718 10713 10712 10709 ] final   14.42 input   66.30 | X-H torsion
[ 10763 10752 10751 10750 ] final   19.38 input  -60.55 | X-H torsion
[ 11005 11000 10999 10996 ] final  101.33 input  -57.11 | X-H torsion

> <Gold.Protein.ActiveResidues>
 VAL166  LYS551  ARG553  GLY616  TRP617  ASP618  TYR619  PRO620  LYS621  CYS622 
 ASP623  PHE694  ASN695  SER759  ASP760  ASP761  ALA762  ILE779  LEU786  VAL792 
 PHE793  MET794  SER795  GLU796  ALA797  LYS798  CYS799  TRP800  GLU811  SER814 

> <Gold.Protein.RotatedAtoms>
  152.5397  134.2402  159.8858 H   0  0  0  0  0  0  0  0  0  0  0  0  # atno 6907 bound_to 6896
  151.2369  133.4413  159.2613 H   0  0  0  0  0  0  0  0  0  0  0  0  # atno 6908 bound_to 6896
  151.0663  134.9783  159.8342 H   0  0  0  0  0  0  0  0  0  0  0  0  # atno 6909 bound_to 6896
  145.6636  139.2478  143.1908 H   0  0  0  0  0  0  0  0  0  0  0  0  # atno 7974 bound_to 7965
  156.1957  140.3063  155.9423 H   0  0  0  0  0  0  0  0  0  0  0  0  # atno 8008 bound_to 7997
  155.3070  140.0449  157.3050 H   0  0  0  0  0  0  0  0  0  0  0  0  # atno 8009 bound_to 7997
  154.5507  140.2290  155.8499 H   0  0  0  0  0  0  0  0  0  0  0  0  # atno 8010 bound_to 7997
  140.0015  144.5683  150.7733 H   0  0  0  0  0  0  0  0  0  0  0  0  # atno 10167 bound_to 10162
  157.0388  130.6223  149.5747 H   0  0  0  0  0  0  0  0  0  0  0  0  # atno 10718 bound_to 10713
  153.1167  135.6709  153.9406 H   0  0  0  0  0  0  0  0  0  0  0  0  # atno 10763 bound_to 10752
  153.8934  135.3044  155.3449 H   0  0  0  0  0  0  0  0  0  0  0  0  # atno 10764 bound_to 10752
  154.7582  135.5001  153.9493 H   0  0  0  0  0  0  0  0  0  0  0  0  # atno 10765 bound_to 10752
  139.8773  134.9178  156.4890 H   0  0  0  0  0  0  0  0  0  0  0  0  # atno 11005 bound_to 11000
  146.1104  140.7435  142.9506 LP  0  0  0  0  0  0  0  0  0  0  0  0  # atno 17320 bound_to 7965
  144.7080  140.3930  143.7102 LP  0  0  0  0  0  0  0  0  0  0  0  0  # atno 17321 bound_to 7965
  140.7417  143.2822  151.3567 LP  0  0  0  0  0  0  0  0  0  0  0  0  # atno 17342 bound_to 10162
  139.6268  144.0798  152.2442 LP  0  0  0  0  0  0  0  0  0  0  0  0  # atno 17343 bound_to 10162
  156.0045  130.5129  150.7781 LP  0  0  0  0  0  0  0  0  0  0  0  0  # atno 17370 bound_to 10713
  157.5120  131.0926  151.0186 LP  0  0  0  0  0  0  0  0  0  0  0  0  # atno 17371 bound_to 10713
  140.8672  133.8015  155.9326 LP  0  0  0  0  0  0  0  0  0  0  0  0  # atno 17394 bound_to 11000
  140.8989  134.2402  157.5053 LP  0  0  0  0  0  0  0  0  0  0  0  0  # atno 17395 bound_to 11000

$$$$
