AV-unprocessed.smi:1444|AV-procd|sdf|5881|dock3
  -GOLD-   22720 5563D 1   1.00000     0.00000
 Structure written by MMmdl.
 43 44  0  0  0  0  0  0  0  0  1 V2000
  140.6000  138.0663  153.5409 C   0  0  0  0  0  0  0  0  0  0  0  0
  142.0139  138.1431  153.6872 O   0  0  0  0  0  0  0  0  0  0  0  0
  142.7408  136.9676  153.7062 C   0  0  0  0  0  0  0  0  0  0  0  0
  142.0630  135.7923  153.7133 N   0  0  0  0  0  0  0  0  0  0  0  0
  142.7687  134.6433  153.7249 C   0  0  0  0  0  0  0  0  0  0  0  0
  144.1745  134.6037  153.7234 C   0  0  0  0  0  0  0  0  0  0  0  0
  144.8803  135.8213  153.7164 C   0  0  0  0  0  0  0  0  0  0  0  0
  144.1540  137.0379  153.7174 C   0  0  0  0  0  0  0  0  0  0  0  0
  144.7543  138.3287  153.6984 N   0  0  0  0  0  0  0  0  0  0  0  0
  145.9090  138.7417  154.2490 C   0  0  0  0  0  0  0  0  0  0  0  0
  146.6828  138.0415  154.9007 O   0  0  0  0  0  0  0  0  0  0  0  0
  146.1190  140.0431  154.0025 N   0  0  0  0  0  0  0  0  0  0  0  0
  147.2766  140.8179  154.4443 C   0  0  2  0  0  0  0  0  0  0  0  0
  147.0988  142.2550  153.9290 C   0  0  0  0  0  0  0  0  0  0  0  0
  148.5656  140.1022  153.9689 C   0  0  0  0  0  0  0  0  0  0  0  0
  149.6356  139.9459  154.9590 N   0  0  0  0  0  0  0  0  0  0  0  0
  150.2438  141.2203  155.3427 C   0  0  0  0  0  0  0  0  0  0  0  0
  151.3848  141.0335  156.3582 C   0  0  0  0  0  0  0  0  0  0  0  0
  152.3691  140.1603  155.8156 O   0  0  0  0  0  0  0  0  0  0  0  0
  151.8346  138.8904  155.4592 C   0  0  0  0  0  0  0  0  0  0  0  0
  150.6927  139.0781  154.4452 C   0  0  0  0  0  0  0  0  0  0  0  0
  140.1828  139.0731  153.5343 H   0  0  0  0  0  0  0  0  0  0  0  0
  140.1411  137.5238  154.3685 H   0  0  0  0  0  0  0  0  0  0  0  0
  140.3221  137.5882  152.6005 H   0  0  0  0  0  0  0  0  0  0  0  0
  142.1954  133.7281  153.7297 H   0  0  0  0  0  0  0  0  0  0  0  0
  144.7002  133.6603  153.7237 H   0  0  0  0  0  0  0  0  0  0  0  0
  145.9575  135.7894  153.6986 H   0  0  0  0  0  0  0  0  0  0  0  0
  144.2079  139.0427  153.2391 H   0  0  0  0  0  0  0  0  0  0  0  0
  145.4255  140.5386  153.4615 H   0  0  0  0  0  0  0  0  0  0  0  0
  147.2744  140.8538  155.5354 H   0  0  0  0  0  0  0  0  0  0  0  0
  147.7605  142.9498  154.4431 H   0  0  0  0  0  0  0  0  0  0  0  0
  146.0850  142.6132  154.1127 H   0  0  0  0  0  0  0  0  0  0  0  0
  147.2858  142.3240  152.8570 H   0  0  0  0  0  0  0  0  0  0  0  0
  148.2581  139.1050  153.6497 H   0  0  0  0  0  0  0  0  0  0  0  0
  148.9538  140.5780  153.0670 H   0  0  0  0  0  0  0  0  0  0  0  0
  150.6337  141.7249  154.4573 H   0  0  0  0  0  0  0  0  0  0  0  0
  149.5086  141.8903  155.7764 H   0  0  0  0  0  0  0  0  0  0  0  0
  151.8487  141.9928  156.5884 H   0  0  0  0  0  0  0  0  0  0  0  0
  151.0045  140.6272  157.2968 H   0  0  0  0  0  0  0  0  0  0  0  0
  152.6274  138.2786  155.0289 H   0  0  0  0  0  0  0  0  0  0  0  0
  151.4780  138.3738  156.3515 H   0  0  0  0  0  0  0  0  0  0  0  0
  150.2798  138.1005  154.1941 H   0  0  0  0  0  0  0  0  0  0  0  0
  151.0962  139.4930  153.5200 H   0  0  0  0  0  0  0  0  0  0  0  0
  1  2  1  0  0  0  0
  1 22  1  0  0  0  0
  1 23  1  0  0  0  0
  1 24  1  0  0  0  0
  2  3  1  0  0  0  0
  3  8  1  0  0  0  0
  3  4  2  0  0  0  0
  4  5  1  0  0  0  0
  5  6  2  0  0  0  0
  5 25  1  0  0  0  0
  6  7  1  0  0  0  0
  6 26  1  0  0  0  0
  7  8  2  0  0  0  0
  7 27  1  0  0  0  0
  8  9  1  0  0  0  0
  9 10  1  0  0  0  0
  9 28  1  0  0  0  0
 10 11  2  0  0  0  0
 10 12  1  0  0  0  0
 12 13  1  0  0  0  0
 12 29  1  0  0  0  0
 13 14  1  0  0  0  0
 13 15  1  0  0  0  0
 13 30  1  0  0  0  0
 14 31  1  0  0  0  0
 14 32  1  0  0  0  0
 14 33  1  0  0  0  0
 15 16  1  0  0  0  0
 15 34  1  0  0  0  0
 15 35  1  0  0  0  0
 16 21  1  0  0  0  0
 16 17  1  0  0  0  0
 17 18  1  0  0  0  0
 17 36  1  0  0  0  0
 17 37  1  0  0  0  0
 18 19  1  0  0  0  0
 18 38  1  0  0  0  0
 18 39  1  0  0  0  0
 19 20  1  0  0  0  0
 20 21  1  0  0  0  0
 20 40  1  0  0  0  0
 20 41  1  0  0  0  0
 21 42  1  0  0  0  0
 21 43  1  0  0  0  0
M  END
> <s_m_source_file>
AV-unprocessed.smi

> <i_m_source_file_index>
1444

> <i_lp_mmshare_version>
43012

> <i_f3d_flags>
0

> <s_epik_input>
W0NIM11PYzFuW2NIXVtjSF1bY0hdYzFbTkhdQyg9TylbTkhdW0NASF0oW0NIM10pW0NIMl1OMltDSDJdW0NIMl1PW0NIMl1bQ0gyXTI=

> <s_epik_cmdline>
J2VwaWtfcHl0aG9uJywgJy1waCcsICc3LjAnLCAnLXRuJywgJzgnLCAnLW1hJywgJzIwMCcsICctbWV0YWxfYmluZGluZycsICctaW1hZScsICc8aW5maWxlLm1hZT4nLCAnLW9tYWUnLCAnPG91dGZpbGUubWFlPic=

> <r_lp_tautomer_probability>
1

> <r_epik_Ionization_Penalty>
0.266086

> <r_epik_Ionization_Penalty_Charging>
0

> <r_epik_Ionization_Penalty_Neutral>
0.266086

> <r_epik_State_Penalty>
0.257924

> <r_epik_Charging_Adjusted_Penalty>
0.257924

> <i_epik_Tot_Q>
0

> <i_epik_Tot_abs_Q>
0

> <r_epik_Metal_State_Penalty>
0.25792

> <b_epik_Metal_Only>
0

> <s_lp_Force_Field>
OPLS_2005

> <r_lp_Energy>
29.2367

> <b_lp_Chiralities_Consistent>
1

> <s_lp_Variant>
AV-unprocessed.smi:1444-1

> <Gold.Version>
5.8.1

> <Gold.Id.Protein>
6NUR|6NUR_protein|mol2

> <Gold.PLP.Fitness>
39.0007

> <Gold.PLP.PLP>
-29.5290

> <Gold.PLP.part.hbond>
-3.0000

> <Gold.PLP.part.metal>
0.0000

> <Gold.PLP.part.buried>
-2.8372

> <Gold.PLP.part.nonpolar>
-24.7272

> <Gold.PLP.part.repulsive>
1.3382

> <Gold.PLP.ligand.clash>
0.0000

> <Gold.PLP.ligand.torsion>
0.9615

> <Gold.PLP.Chemscore.Hbond>
2.9440

> <Gold.PLP.Chemscore.CHOScore>
0.8316

> <Gold.PLP.Chemscore.Metal>
0.0000

> <Gold.Chemscore.Hbonds>
donor molecule, donor type, donor heavy atom, donor atom, acceptor molecule, acceptor atom, score
      L1  H     9    28       P1 10175  1.00
      L1  H    12    29       P1 10175  0.98
      P1  H  7997  8009       L1    19  1.00
      L1  C     5    25       P1 10957  0.99

> <Gold.PLP.Chemscore.Internal.Correction>
0.0680

> <Gold.Rescore>
     Score         DG    S(hbond)    S(metal)    S(lipo)     H(rot)  DE(clash)    DE(int)     intcor
     15.47     -17.83       2.71        0.00      65.70       1.72       0.08       2.28       ----

> <Gold.Chemscore.Fitness>
15.4727

> <Gold.Chemscore.DG>
-17.8283

> <Gold.Chemscore.ZeroCoef>
-5.4800

> <Gold.Chemscore.Hbond>
2.7130

> <Gold.Chemscore.Metal>
0.0000

> <Gold.Chemscore.Lipo>
65.7026

> <Gold.Chemscore.Internal_Hbond>
0.0000

> <Gold.Chemscore.DEClash>
0.0765

> <Gold.Chemscore.DEInternal>
2.2790

> <Gold.Chemscore.Rot>
1.7189

> <Gold.Chemscore.Internal.Correction>
   9.000000E+99

> <Gold.Chemscore.Hbonds>
donor molecule, donor type, donor heavy atom, donor atom, acceptor molecule, acceptor atom, score
      L1  H     9    28       P1 10175  1.00
      L1  H    12    29       P1 10175  0.87
      P1  H  7997  8009       L1    19  0.86

> <Gold.Chemscore.Hbond.Weighted>
-9.0615

> <Gold.Chemscore.Metal.Weighted>
-0.0000

> <Gold.Chemscore.Lipo.Weighted>
-7.6872

> <Gold.Chemscore.Internal_Hbond.Weighted>
0.0000

> <Gold.Chemscore.DEClash.Weighted>
0.0765

> <Gold.Chemscore.DEInternal.Weighted>
2.2790

> <Gold.Chemscore.Rot.Weighted>
4.4004

> <Gold.Chemscore.Internal.Correction.Weighted>
   9.000000E+99

> <Gold.Protein.RotatedTorsions>
[ 6907 6896 6895 6894 ] final -145.39 input  -60.11 | X-H torsion
[ 7974 7965 7964 7962 ] final -113.78 input  175.53 | X-H torsion
[ 8008 7997 7996 7995 ] final -156.31 input   59.86 | X-H torsion
[ 10167 10162 10161 10158 ] final -127.45 input  -65.29 | X-H torsion
[ 10718 10713 10712 10709 ] final  -56.49 input   66.30 | X-H torsion
[ 10763 10752 10751 10750 ] final -115.82 input  -60.55 | X-H torsion
[ 11005 11000 10999 10996 ] final  -64.89 input  -57.11 | X-H torsion

> <Gold.Protein.ActiveResidues>
 VAL166  LYS551  ARG553  GLY616  TRP617  ASP618  TYR619  PRO620  LYS621  CYS622 
 ASP623  PHE694  ASN695  SER759  ASP760  ASP761  ALA762  ILE779  LEU786  VAL792 
 PHE793  MET794  SER795  GLU796  ALA797  LYS798  CYS799  TRP800  GLU811  SER814 

> <Gold.Protein.RotatedAtoms>
  151.1271  133.5063  159.2600 H   0  0  0  0  0  0  0  0  0  0  0  0  # atno 6907 bound_to 6896
  151.1798  135.0355  159.8797 H   0  0  0  0  0  0  0  0  0  0  0  0  # atno 6908 bound_to 6896
  152.5458  134.1125  159.8418 H   0  0  0  0  0  0  0  0  0  0  0  0  # atno 6909 bound_to 6896
  145.1279  140.8707  143.3775 H   0  0  0  0  0  0  0  0  0  0  0  0  # atno 7974 bound_to 7965
  155.7152  140.0783  157.2354 H   0  0  0  0  0  0  0  0  0  0  0  0  # atno 8008 bound_to 7997
  154.4053  140.1623  156.2394 H   0  0  0  0  0  0  0  0  0  0  0  0  # atno 8009 bound_to 7997
  155.9247  140.3395  155.6203 H   0  0  0  0  0  0  0  0  0  0  0  0  # atno 8010 bound_to 7997
  139.9607  143.5953  152.2446 H   0  0  0  0  0  0  0  0  0  0  0  0  # atno 10167 bound_to 10162
  156.1284  130.4161  150.0313 H   0  0  0  0  0  0  0  0  0  0  0  0  # atno 10718 bound_to 10713
  154.8496  135.4368  154.1724 H   0  0  0  0  0  0  0  0  0  0  0  0  # atno 10763 bound_to 10752
  153.2834  135.6955  153.7369 H   0  0  0  0  0  0  0  0  0  0  0  0  # atno 10764 bound_to 10752
  153.6564  135.3442  155.3089 H   0  0  0  0  0  0  0  0  0  0  0  0  # atno 10765 bound_to 10752
  141.1438  133.6673  156.5903 H   0  0  0  0  0  0  0  0  0  0  0  0  # atno 11005 bound_to 11000
  145.0668  139.3062  143.5852 LP  0  0  0  0  0  0  0  0  0  0  0  0  # atno 17320 bound_to 7965
  146.3516  140.0128  142.8665 LP  0  0  0  0  0  0  0  0  0  0  0  0  # atno 17321 bound_to 7965
  139.6556  144.7662  151.2062 LP  0  0  0  0  0  0  0  0  0  0  0  0  # atno 17342 bound_to 10162
  140.7554  143.6091  150.8623 LP  0  0  0  0  0  0  0  0  0  0  0  0  # atno 17343 bound_to 10162
  156.8232  130.9366  151.3640 LP  0  0  0  0  0  0  0  0  0  0  0  0  # atno 17370 bound_to 10713
  157.6464  130.8848  149.9547 LP  0  0  0  0  0  0  0  0  0  0  0  0  # atno 17371 bound_to 10713
  140.3769  134.7557  157.4635 LP  0  0  0  0  0  0  0  0  0  0  0  0  # atno 17394 bound_to 11000
  140.0668  134.5919  155.8686 LP  0  0  0  0  0  0  0  0  0  0  0  0  # atno 17395 bound_to 11000

$$$$
