AV-unprocessed.smi:1686|AV-procd|sdf|6761|dock9
  -GOLD-   22720 7523D 1   1.00000     0.00000
 Structure written by MMmdl.
 41 43  0  0  0  0  0  0  0  0  1 V2000
  154.0405  137.2176  163.0017 C   0  0  0  0  0  0  0  0  0  0  0  0
  154.4283  136.7815  161.6182 C   0  0  0  0  0  0  0  0  0  0  0  0
  155.4975  136.0123  161.4599 N   0  0  0  0  0  0  0  0  0  0  0  0
  155.6043  135.7632  160.0868 O   0  0  0  0  0  0  0  0  0  0  0  0
  154.5784  136.4088  159.4864 C   0  0  0  0  0  0  0  0  0  0  0  0
  154.3309  136.3603  157.7859 Cl  0  0  0  0  0  0  0  0  0  0  0  0
  153.7905  137.0785  160.3778 C   0  0  0  0  0  0  0  0  0  0  0  0
  152.5574  137.9137  160.1283 C   0  0  0  0  0  0  0  0  0  0  0  0
  152.8523  139.1011  159.2036 C   0  0  0  0  0  0  0  0  0  0  0  0
  153.9582  139.2449  158.6796 O   0  0  0  0  0  0  0  0  0  0  0  0
  151.8344  139.9551  159.0162 N   0  0  0  0  0  0  0  0  0  0  0  0
  151.8775  141.1693  158.2023 C   0  0  1  0  0  0  0  0  0  0  0  0
  150.9879  140.9706  156.9612 C   0  0  0  0  0  0  0  0  0  0  0  0
  151.4454  142.3828  159.0632 C   0  0  1  0  0  0  0  0  0  0  0  0
  152.6242  143.0882  159.7817 C   0  0  0  0  0  0  0  0  0  0  0  0
  152.4671  144.5604  159.3646 C   0  0  2  0  0  0  0  0  0  0  0  0
  151.2117  145.1543  160.0281 C   0  0  0  0  0  0  0  0  0  0  0  0
  150.0678  144.4811  159.2473 C   0  0  0  0  0  0  0  0  0  0  0  0
  150.8199  143.5580  158.2686 C   0  0  1  0  0  0  0  0  0  0  0  0
  152.0285  144.4187  157.9138 C   0  0  0  0  0  0  0  0  0  0  0  0
  153.0840  137.7398  163.0026 H   0  0  0  0  0  0  0  0  0  0  0  0
  154.7867  137.8913  163.4232 H   0  0  0  0  0  0  0  0  0  0  0  0
  153.9470  136.3621  163.6709 H   0  0  0  0  0  0  0  0  0  0  0  0
  151.7652  137.3116  159.6818 H   0  0  0  0  0  0  0  0  0  0  0  0
  152.1495  138.3018  161.0621 H   0  0  0  0  0  0  0  0  0  0  0  0
  150.9632  139.7587  159.4874 H   0  0  0  0  0  0  0  0  0  0  0  0
  152.9030  141.3340  157.8676 H   0  0  0  0  0  0  0  0  0  0  0  0
  151.0413  141.8206  156.2825 H   0  0  0  0  0  0  0  0  0  0  0  0
  149.9428  140.8327  157.2402 H   0  0  0  0  0  0  0  0  0  0  0  0
  151.2966  140.0926  156.3929 H   0  0  0  0  0  0  0  0  0  0  0  0
  150.7302  142.0271  159.8066 H   0  0  0  0  0  0  0  0  0  0  0  0
  152.5890  142.9560  160.8637 H   0  0  0  0  0  0  0  0  0  0  0  0
  153.5883  142.7126  159.4360 H   0  0  0  0  0  0  0  0  0  0  0  0
  153.3672  145.1562  159.5181 H   0  0  0  0  0  0  0  0  0  0  0  0
  151.1698  144.9396  161.0965 H   0  0  0  0  0  0  0  0  0  0  0  0
  151.1777  146.2371  159.9016 H   0  0  0  0  0  0  0  0  0  0  0  0
  149.3826  143.9357  159.8970 H   0  0  0  0  0  0  0  0  0  0  0  0
  149.4868  145.2274  158.7041 H   0  0  0  0  0  0  0  0  0  0  0  0
  150.2083  143.2624  157.4170 H   0  0  0  0  0  0  0  0  0  0  0  0
  151.7622  145.3693  157.4480 H   0  0  0  0  0  0  0  0  0  0  0  0
  152.7612  143.9081  157.2870 H   0  0  0  0  0  0  0  0  0  0  0  0
  1  2  1  0  0  0  0
  1 21  1  0  0  0  0
  1 22  1  0  0  0  0
  1 23  1  0  0  0  0
  2  7  1  0  0  0  0
  2  3  2  0  0  0  0
  3  4  1  0  0  0  0
  4  5  1  0  0  0  0
  5  6  1  0  0  0  0
  5  7  2  0  0  0  0
  7  8  1  0  0  0  0
  8  9  1  0  0  0  0
  8 24  1  0  0  0  0
  8 25  1  0  0  0  0
  9 10  2  0  0  0  0
  9 11  1  0  0  0  0
 11 12  1  0  0  0  0
 11 26  1  0  0  0  0
 12 13  1  0  0  0  0
 12 14  1  0  0  0  0
 12 27  1  0  0  0  0
 13 28  1  0  0  0  0
 13 29  1  0  0  0  0
 13 30  1  0  0  0  0
 14 19  1  0  0  0  0
 14 15  1  0  0  0  0
 14 31  1  0  0  0  0
 15 16  1  0  0  0  0
 15 32  1  0  0  0  0
 15 33  1  0  0  0  0
 16 20  1  0  0  0  0
 16 17  1  0  0  0  0
 16 34  1  0  0  0  0
 17 18  1  0  0  0  0
 17 35  1  0  0  0  0
 17 36  1  0  0  0  0
 18 19  1  0  0  0  0
 18 37  1  0  0  0  0
 18 38  1  0  0  0  0
 19 20  1  0  0  0  0
 19 39  1  0  0  0  0
 20 40  1  0  0  0  0
 20 41  1  0  0  0  0
M  END
> <s_m_source_file>
AV-unprocessed.smi

> <i_m_source_file_index>
1686

> <i_lp_mmshare_version>
43012

> <i_f3d_flags>
0

> <s_epik_input>
W0NIM11jMW5vYyhDbCljMVtDSDJdQyg9TylbTkhdW0NASF0oW0NIM10pW0NASF0oW0NIMl1bQ0BIXTIzKVtDQEhdKFtDSDJdMylbQ0gyXVtDSDJdMg==

> <s_epik_cmdline>
J2VwaWtfcHl0aG9uJywgJy1waCcsICc3LjAnLCAnLXRuJywgJzgnLCAnLW1hJywgJzIwMCcsICctbWV0YWxfYmluZGluZycsICctaW1hZScsICc8aW5maWxlLm1hZT4nLCAnLW9tYWUnLCAnPG91dGZpbGUubWFlPic=

> <r_lp_tautomer_probability>
1

> <r_epik_Ionization_Penalty>
2.01576e-08

> <r_epik_Ionization_Penalty_Charging>
0

> <r_epik_Ionization_Penalty_Neutral>
2.01576e-08

> <r_epik_State_Penalty>
-0

> <r_epik_Charging_Adjusted_Penalty>
0

> <i_epik_Tot_Q>
0

> <i_epik_Tot_abs_Q>
0

> <r_epik_Metal_State_Penalty>
-0

> <b_epik_Metal_Only>
0

> <s_lp_Force_Field>
OPLS_2005

> <r_lp_Energy>
46.9137

> <b_lp_Chiralities_Consistent>
1

> <s_lp_Variant>
AV-unprocessed.smi:1686-4

> <Gold.Version>
5.8.1

> <Gold.Id.Protein>
6NUR|6NUR_protein|mol2

> <Gold.PLP.Fitness>
41.3795

> <Gold.PLP.PLP>
-39.9511

> <Gold.PLP.part.hbond>
-1.0000

> <Gold.PLP.part.metal>
0.0000

> <Gold.PLP.part.buried>
-5.6768

> <Gold.PLP.part.nonpolar>
-33.6841

> <Gold.PLP.part.repulsive>
0.1445

> <Gold.PLP.ligand.clash>
0.0000

> <Gold.PLP.ligand.torsion>
0.8023

> <Gold.PLP.Chemscore.Hbond>
1.0000

> <Gold.PLP.Chemscore.CHOScore>
0.0000

> <Gold.PLP.Chemscore.Metal>
0.0000

> <Gold.Chemscore.Hbonds>
donor molecule, donor type, donor heavy atom, donor atom, acceptor molecule, acceptor atom, score
      P1  H  7997  8008       L1    10  0.96

> <Gold.PLP.Chemscore.Internal.Correction>
0.0330

> <Gold.Rescore>
     Score         DG    S(hbond)    S(metal)    S(lipo)     H(rot)  DE(clash)    DE(int)     intcor
     19.17     -20.07       0.96        0.00     129.30       1.46       0.01       0.89       ----

> <Gold.Chemscore.Fitness>
19.1706

> <Gold.Chemscore.DG>
-20.0722

> <Gold.Chemscore.ZeroCoef>
-5.4800

> <Gold.Chemscore.Hbond>
0.9623

> <Gold.Chemscore.Metal>
0.0000

> <Gold.Chemscore.Lipo>
129.3002

> <Gold.Chemscore.Internal_Hbond>
0.0000

> <Gold.Chemscore.DEClash>
0.0128

> <Gold.Chemscore.DEInternal>
0.8888

> <Gold.Chemscore.Rot>
1.4648

> <Gold.Chemscore.Internal.Correction>
   9.000000E+99

> <Gold.Chemscore.Hbonds>
donor molecule, donor type, donor heavy atom, donor atom, acceptor molecule, acceptor atom, score
      P1  H  7997  8008       L1    10  0.91

> <Gold.Chemscore.Hbond.Weighted>
-3.2140

> <Gold.Chemscore.Metal.Weighted>
-0.0000

> <Gold.Chemscore.Lipo.Weighted>
-15.1281

> <Gold.Chemscore.Internal_Hbond.Weighted>
0.0000

> <Gold.Chemscore.DEClash.Weighted>
0.0128

> <Gold.Chemscore.DEInternal.Weighted>
0.8888

> <Gold.Chemscore.Rot.Weighted>
3.7500

> <Gold.Chemscore.Internal.Correction.Weighted>
   9.000000E+99

> <Gold.Protein.RotatedTorsions>
[ 6907 6896 6895 6894 ] final  171.79 input  -60.11 | X-H torsion
[ 7974 7965 7964 7962 ] final   45.11 input  175.53 | X-H torsion
[ 8008 7997 7996 7995 ] final -125.69 input   59.86 | X-H torsion
[ 10167 10162 10161 10158 ] final   93.41 input  -65.29 | X-H torsion
[ 10718 10713 10712 10709 ] final  106.56 input   66.30 | X-H torsion
[ 10763 10752 10751 10750 ] final   36.50 input  -60.55 | X-H torsion
[ 11005 11000 10999 10996 ] final -140.41 input  -57.11 | X-H torsion

> <Gold.Protein.ActiveResidues>
 VAL166  LYS551  ARG553  GLY616  TRP617  ASP618  TYR619  PRO620  LYS621  CYS622 
 ASP623  PHE694  ASN695  SER759  ASP760  ASP761  ALA762  ILE779  LEU786  VAL792 
 PHE793  MET794  SER795  GLU796  ALA797  LYS798  CYS799  TRP800  GLU811  SER814 

> <Gold.Protein.RotatedAtoms>
  151.7946  133.3363  159.3508 H   0  0  0  0  0  0  0  0  0  0  0  0  # atno 6907 bound_to 6896
  150.7379  134.5810  159.5948 H   0  0  0  0  0  0  0  0  0  0  0  0  # atno 6908 bound_to 6896
  152.3186  134.7410  160.0370 H   0  0  0  0  0  0  0  0  0  0  0  0  # atno 6909 bound_to 6896
  146.0509  139.5000  142.9719 H   0  0  0  0  0  0  0  0  0  0  0  0  # atno 7974 bound_to 7965
  155.2174  140.0421  157.2943 H   0  0  0  0  0  0  0  0  0  0  0  0  # atno 8008 bound_to 7997
  154.5972  140.2442  155.7812 H   0  0  0  0  0  0  0  0  0  0  0  0  # atno 8009 bound_to 7997
  156.2298  140.2942  156.0167 H   0  0  0  0  0  0  0  0  0  0  0  0  # atno 8010 bound_to 7997
  139.8182  144.6743  150.9552 H   0  0  0  0  0  0  0  0  0  0  0  0  # atno 10167 bound_to 10162
  157.6663  131.0853  150.6025 H   0  0  0  0  0  0  0  0  0  0  0  0  # atno 10718 bound_to 10713
  153.0074  135.6304  154.1996 H   0  0  0  0  0  0  0  0  0  0  0  0  # atno 10763 bound_to 10752
  154.1739  135.2817  155.3074 H   0  0  0  0  0  0  0  0  0  0  0  0  # atno 10764 bound_to 10752
  154.5887  135.5624  153.7317 H   0  0  0  0  0  0  0  0  0  0  0  0  # atno 10765 bound_to 10752
  140.8425  134.2384  157.4802 H   0  0  0  0  0  0  0  0  0  0  0  0  # atno 11005 bound_to 11000
  145.6726  141.0212  143.1649 LP  0  0  0  0  0  0  0  0  0  0  0  0  # atno 17320 bound_to 7965
  144.7122  139.8328  143.7411 LP  0  0  0  0  0  0  0  0  0  0  0  0  # atno 17321 bound_to 7965
  140.7814  143.4117  151.0982 LP  0  0  0  0  0  0  0  0  0  0  0  0  # atno 17342 bound_to 10162
  139.7779  143.8398  152.3132 LP  0  0  0  0  0  0  0  0  0  0  0  0  # atno 17343 bound_to 10162
  156.6326  130.4436  149.5781 LP  0  0  0  0  0  0  0  0  0  0  0  0  # atno 17370 bound_to 10713
  156.2270  130.6772  151.1426 LP  0  0  0  0  0  0  0  0  0  0  0  0  # atno 17371 bound_to 10713
  139.8703  134.9643  156.4490 LP  0  0  0  0  0  0  0  0  0  0  0  0  # atno 17394 bound_to 11000
  140.8879  133.7870  155.9539 LP  0  0  0  0  0  0  0  0  0  0  0  0  # atno 17395 bound_to 11000

$$$$
