#       Name:                AV-unprocessed.smi:3223
#       Creating user name   scv26
#       Creation time:       Fri Mar 27 18:15:14 2020


#       File generated by GOLD software.
#

@<TRIPOS>MOLECULE
AV-unprocessed.smi:3223
    46    46     1
SMALL
NO_CHARGES


@<TRIPOS>ATOM
      1 ****        -4.6836  -0.8737   3.5359 C.3            1 S1                 0.0000
      2 ****        -3.9935   0.2213   2.7748 C.2            1 S1                 0.0000
      3 ****        -3.1293   1.2308   3.2859 C.2            1 S1                 0.0000
      4 ****        -2.6870   2.0510   2.3470 N.2            1 S1                 0.0000
      5 ****        -3.2435   1.5922   1.2058 N.pl3          1 S1                 0.0000
      6 ****        -2.9857   2.2734  -0.0519 C.3            1 S1                 0.0000
      7 ****        -1.4876   2.3150  -0.4170 C.3            1 S1                 0.0000
      8 ****        -1.2651   3.1181  -1.7090 C.3            1 S1                 0.0000
      9 ****        -0.9563   0.9392  -0.5524 N.4            1 S1                 1.0000
     10 ****         0.5070   0.8134  -0.3924 C.3            1 S1                 0.0000
     11 ****         0.9521  -0.6508  -0.5441 C.3            1 S1                 0.0000
     12 ****         2.4639  -0.8239  -0.3725 C.2            1 S1                 0.0000
     13 ****         3.0580  -0.2254   0.5243 O.2            1 S1                 0.0000
     14 ****         3.0729  -1.6512  -1.2366 N.am           1 S1                 0.0000
     15 ****         4.5011  -1.9553  -1.2536 C.3            1 S1                 0.0000
     16 ****         4.9332  -2.3001  -2.6850 C.3            1 S1                 0.0000
     17 ****         4.8171  -3.0959  -0.2740 C.3            1 S1                 0.0000
     18 ****        -4.0448   0.4939   1.4370 C.2            1 S1                 0.0000
     19 ****        -4.5089  -0.7941   4.6091 H              1 S1                 0.0000
     20 ****        -4.3360  -1.8594   3.2264 H              1 S1                 0.0000
     21 ****        -5.7630  -0.8504   3.3847 H              1 S1                 0.0000
     22 ****        -2.8140   1.3920   4.3062 H              1 S1                 0.0000
     23 ****        -3.5558   1.7786  -0.8397 H              1 S1                 0.0000
     24 ****        -3.3820   3.2866   0.0299 H              1 S1                 0.0000
     25 ****        -0.9531   2.8160   0.3917 H              1 S1                 0.0000
     26 ****        -1.6695   4.1263  -1.6147 H              1 S1                 0.0000
     27 ****        -1.7549   2.6445  -2.5604 H              1 S1                 0.0000
     28 ****        -0.2061   3.2184  -1.9464 H              1 S1                 0.0000
     29 ****        -1.3819   0.3774   0.1713 H              1 S1                 0.0000
     30 ****         1.0144   1.4320  -1.1332 H              1 S1                 0.0000
     31 ****         0.7839   1.1944   0.5920 H              1 S1                 0.0000
     32 ****         0.4523  -1.2724   0.1998 H              1 S1                 0.0000
     33 ****         0.6490  -1.0282  -1.5222 H              1 S1                 0.0000
     34 ****         2.5060  -2.1064  -1.9374 H              1 S1                 0.0000
     35 ****         5.0592  -1.0695  -0.9451 H              1 S1                 0.0000
     36 ****         6.0025  -2.5083  -2.7310 H              1 S1                 0.0000
     37 ****         4.7304  -1.4735  -3.3670 H              1 S1                 0.0000
     38 ****         4.4074  -3.1791  -3.0598 H              1 S1                 0.0000
     39 ****         5.8832  -3.3243  -0.2709 H              1 S1                 0.0000
     40 ****         4.2826  -4.0083  -0.5407 H              1 S1                 0.0000
     41 ****         4.5367  -2.8312   0.7460 H              1 S1                 0.0000
     42 ****        -4.5799  -0.0000   0.6392 H              1 S1                 0.0000
     43 ****        -1.2314   0.5684  -1.4506 H              1 S1                 0.0000
     44 ****        -2.0768   2.8355   2.4578 LP             1 S1                 0.0000
     45 ****         2.5533   0.3761   1.1436 LP             1 S1                 0.0000
     46 ****         4.0453  -0.3407   0.6336 LP             1 S1                 0.0000
@<TRIPOS>BOND
    1    1    2 1     
    2    1   19 1     
    3    1   20 1     
    4    1   21 1     
    5    2   18 2     
    6    2    3 1     
    7    3    4 2     
    8    3   22 1     
    9    4    5 1     
   10    5    6 1     
   11    5   18 1     
   12    6    7 1     
   13    6   23 1     
   14    6   24 1     
   15    7    8 1     
   16    7    9 1     
   17    7   25 1     
   18    8   26 1     
   19    8   27 1     
   20    8   28 1     
   21    9   10 1     
   22    9   29 1     
   23    9   43 1     
   24   10   11 1     
   25   10   30 1     
   26   10   31 1     
   27   11   12 1     
   28   11   32 1     
   29   11   33 1     
   30   12   13 2     
   31   12   14 am    
   32   14   15 1     
   33   14   34 1     
   34   15   16 1     
   35   15   17 1     
   36   15   35 1     
   37   16   36 1     
   38   16   37 1     
   39   16   38 1     
   40   17   39 1     
   41   17   40 1     
   42   17   41 1     
   43   18   42 1     
   44    4   44 1     
   45   13   45 1     
   46   13   46 1     
@<TRIPOS>SUBSTRUCTURE
      1 S1             1
@<TRIPOS>SET
LONE_PAIRS      STATIC     ATOMS    <user>   **** ""
3 44 45 46
DONOR_HYDROGENS      STATIC     ATOMS    <user>   **** ""
3 29 43 34
ATOM$BLUE        STATIC     ATOMS    COLORGROUP SYSTEM
3 44 45 46
ATOM$RED        STATIC     ATOMS    COLORGROUP SYSTEM
3 29 43 34
