#       Name:                AV-unprocessed.smi:1492
#       Creating user name   scv26
#       Creation time:       Fri Mar 27 06:15:08 2020


#       File generated by GOLD software.
#

@<TRIPOS>MOLECULE
AV-unprocessed.smi:1492
    60    61     1
SMALL
NO_CHARGES


@<TRIPOS>ATOM
      1 ****        -0.5701  -2.6851  -3.8514 C.3            1 S1                 0.0000
      2 ****        -1.1848  -2.2839  -2.4981 C.3            1 S1                 0.0000
      3 ****        -0.3429  -1.3165  -1.6067 C.3            1 S1                 0.0000
      4 ****        -0.0449  -0.0300  -2.4219 C.3            1 S1                 0.0000
      5 ****         1.0372  -1.9846  -1.3048 C.3            1 S1                 0.0000
      6 ****         1.7949  -1.2589  -0.2883 N.am           1 S1                 0.0000
      7 ****         2.7822  -0.3789  -0.5084 C.2            1 S1                 0.0000
      8 ****         3.2900  -0.1802  -1.6115 O.2            1 S1                 0.0000
      9 ****         3.2332   0.4321   0.7067 C.3            1 S1                 0.0000
     10 ****         2.1099   1.1819   1.4238 C.2            1 S1                 0.0000
     11 ****         1.6234   2.3705   0.9851 C.2            1 S1                 0.0000
     12 ****         2.1374   3.1056  -0.2404 C.3            1 S1                 0.0000
     13 ****         0.5865   3.0072   1.6438 N.pl3          1 S1                 0.0000
     14 ****         0.0570   2.3923   2.7660 C.2            1 S1                 0.0000
     15 ****        -1.0766   3.1639   3.4052 C.3            1 S1                 0.0000
     16 ****         0.4532   1.2604   3.2627 N.2            1 S1                 0.0000
     17 ****         1.4998   0.5720   2.6291 C.2            1 S1                 0.0000
     18 ****         1.8817  -0.5131   3.0651 O.2            1 S1                 0.0000
     19 ****        -1.0463  -0.9611  -0.3381 N.3            1 S1                 0.0000
     20 ****        -2.2796  -0.1817  -0.4950 C.3            1 S1                 0.0000
     21 ****        -2.8482   0.2708   0.8606 C.3            1 S1                 0.0000
     22 ****        -3.0746  -0.8624   1.6899 O.3            1 S1                 0.0000
     23 ****        -1.8909  -1.6194   1.9119 C.3            1 S1                 0.0000
     24 ****        -1.3150  -2.0868   0.5647 C.3            1 S1                 0.0000
     25 ****         0.2522   3.8883   1.2811 H              1 S1                 0.0000
     26 ****        -1.2450  -3.3524  -4.3877 H              1 S1                 0.0000
     27 ****         0.3738  -3.2159  -3.7324 H              1 S1                 0.0000
     28 ****        -0.3978  -1.8225  -4.4946 H              1 S1                 0.0000
     29 ****        -2.1584  -1.8421  -2.7076 H              1 S1                 0.0000
     30 ****        -1.3901  -3.2050  -1.9532 H              1 S1                 0.0000
     31 ****         0.6883  -0.2037  -3.2094 H              1 S1                 0.0000
     32 ****         0.3544   0.7618  -1.7875 H              1 S1                 0.0000
     33 ****        -0.9372   0.3621  -2.9101 H              1 S1                 0.0000
     34 ****         0.9002  -3.0050  -0.9468 H              1 S1                 0.0000
     35 ****         1.6362  -2.0842  -2.2108 H              1 S1                 0.0000
     36 ****         1.4597  -1.3482   0.6601 H              1 S1                 0.0000
     37 ****         3.7614  -0.2303   1.3931 H              1 S1                 0.0000
     38 ****         3.9842   1.1530   0.3822 H              1 S1                 0.0000
     39 ****         2.0449   2.4814  -1.1290 H              1 S1                 0.0000
     40 ****         3.1875   3.3690  -0.1130 H              1 S1                 0.0000
     41 ****         1.5807   4.0262  -0.4203 H              1 S1                 0.0000
     42 ****        -1.5131   2.6017   4.2318 H              1 S1                 0.0000
     43 ****        -1.8633   3.3593   2.6759 H              1 S1                 0.0000
     44 ****        -0.7160   4.1171   3.7926 H              1 S1                 0.0000
     45 ****        -2.1048   0.7107  -1.0933 H              1 S1                 0.0000
     46 ****        -3.0365  -0.7695  -1.0140 H              1 S1                 0.0000
     47 ****        -2.1626   0.9605   1.3537 H              1 S1                 0.0000
     48 ****        -3.7893   0.8021   0.7189 H              1 S1                 0.0000
     49 ****        -1.1621  -1.0190   2.4568 H              1 S1                 0.0000
     50 ****        -2.1298  -2.4777   2.5398 H              1 S1                 0.0000
     51 ****        -2.0219  -2.7777   0.1057 H              1 S1                 0.0000
     52 ****        -0.4072  -2.6521   0.7669 H              1 S1                 0.0000
     53 ****         2.9681  -0.6901  -2.4092 LP             1 S1                 0.0000
     54 ****         4.0245   0.4911  -1.7102 LP             1 S1                 0.0000
     55 ****         0.0204   0.8852   4.0825 LP             1 S1                 0.0000
     56 ****         2.6204  -1.0051   2.6044 LP             1 S1                 0.0000
     57 ****         1.4534  -0.9032   3.8803 LP             1 S1                 0.0000
     58 ****        -0.3589  -0.3718   0.0865 LP             1 S1                 0.0000
     59 ****        -3.7540  -1.4506   1.2510 LP             1 S1                 0.0000
     60 ****        -3.4253  -0.5492   2.5725 LP             1 S1                 0.0000
@<TRIPOS>BOND
    1    1    2 1     
    2    1   26 1     
    3    1   27 1     
    4    1   28 1     
    5    2    3 1     
    6    2   29 1     
    7    2   30 1     
    8    3    4 1     
    9    3    5 1     
   10    3   19 1     
   11    4   31 1     
   12    4   32 1     
   13    4   33 1     
   14    5    6 1     
   15    5   34 1     
   16    5   35 1     
   17    6    7 am    
   18    6   36 1     
   19    7    8 2     
   20    7    9 1     
   21    9   37 1     
   22    9   38 1     
   23    9   10 1     
   24   10   17 1     
   25   10   11 2     
   26   11   12 1     
   27   11   13 1     
   28   12   39 1     
   29   12   40 1     
   30   12   41 1     
   31   13   25 1     
   32   13   14 1     
   33   14   15 1     
   34   14   16 2     
   35   15   42 1     
   36   15   43 1     
   37   15   44 1     
   38   16   17 1     
   39   17   18 2     
   40   19   24 1     
   41   19   20 1     
   42   20   21 1     
   43   20   45 1     
   44   20   46 1     
   45   21   22 1     
   46   21   47 1     
   47   21   48 1     
   48   22   23 1     
   49   23   24 1     
   50   23   49 1     
   51   23   50 1     
   52   24   51 1     
   53   24   52 1     
   54    8   53 1     
   55    8   54 1     
   56   16   55 1     
   57   18   56 1     
   58   18   57 1     
   59   19   58 1     
   60   22   59 1     
   61   22   60 1     
@<TRIPOS>SUBSTRUCTURE
      1 S1             1
@<TRIPOS>SET
LONE_PAIRS      STATIC     ATOMS    <user>   **** ""
8 53 54 55 56 57 58 59 60
DONOR_HYDROGENS      STATIC     ATOMS    <user>   **** ""
2 36 25
ATOM$BLUE        STATIC     ATOMS    COLORGROUP SYSTEM
8 53 54 55 56 57 58 59 60
ATOM$RED        STATIC     ATOMS    COLORGROUP SYSTEM
2 36 25
