AV-unprocessed.smi:1047|AV-procd|sdf|4583|dock1
  -GOLD-   22720 3 53D 1   1.00000     0.00000
 Structure written by MMmdl.
 58 60  0  0  0  0  0  0  0  0  4 V2000
  144.3580  134.5186  150.4629 C   0  0  0  0  0  0  0  0  0  0  0  0
  145.1296  135.8459  150.4381 C   0  0  0  0  0  0  0  0  0  0  0  0
  145.3492  136.4056  151.7957 N   0  3  2  0  0  0  0  0  0  0  0  0
  144.1061  136.8910  152.4439 C   0  0  0  0  0  0  0  0  0  0  0  0
  144.4099  137.4318  153.8499 C   0  0  0  0  0  0  0  0  0  0  0  0
  145.3872  138.4607  153.7614 O   0  0  0  0  0  0  0  0  0  0  0  0
  146.6247  137.9925  153.2381 C   0  0  2  0  0  0  0  0  0  0  0  0
  147.6142  139.1690  153.2873 C   0  0  0  0  0  0  0  0  0  0  0  0
  149.0193  138.7179  153.2087 N   0  3  0  0  0  0  0  0  0  0  0  0
  149.6302  138.4421  154.5249 C   0  0  0  0  0  0  0  0  0  0  0  0
  151.1677  138.4586  154.4566 C   0  0  2  0  0  0  0  0  0  0  0  0
  151.5963  137.1514  154.1345 O   0  0  0  0  0  0  0  0  0  0  0  0
  151.8226  138.9121  155.7786 C   0  0  0  0  0  0  0  0  0  0  0  0
  151.3265  140.2143  156.2496 N   0  0  0  0  0  0  0  0  0  0  0  0
  150.4821  141.0943  155.6446 C   0  0  0  0  0  0  0  0  0  0  0  0
  150.3169  142.1517  156.4862 N   0  3  0  0  0  0  0  0  0  0  0  0
  151.0655  141.9456  157.6468 C   0  0  0  0  0  0  0  0  0  0  0  0
  151.2167  142.7318  158.7829 C   0  0  0  0  0  0  0  0  0  0  0  0
  152.0623  142.2375  159.8014 C   0  0  0  0  0  0  0  0  0  0  0  0
  152.2501  143.0722  161.0571 C   0  0  0  0  0  0  0  0  0  0  0  0
  152.7250  140.9910  159.6588 C   0  0  0  0  0  0  0  0  0  0  0  0
  153.6354  140.4709  160.7583 C   0  0  0  0  0  0  0  0  0  0  0  0
  152.5573  140.2060  158.4957 C   0  0  0  0  0  0  0  0  0  0  0  0
  151.7180  140.7057  157.5021 C   0  0  0  0  0  0  0  0  0  0  0  0
  146.3862  137.4668  151.8056 C   0  0  0  0  0  0  0  0  0  0  0  0
  144.2988  134.0922  149.4613 H   0  0  0  0  0  0  0  0  0  0  0  0
  143.3353  134.6459  150.8173 H   0  0  0  0  0  0  0  0  0  0  0  0
  144.8499  133.7860  151.1038 H   0  0  0  0  0  0  0  0  0  0  0  0
  146.0972  135.6603  149.9697 H   0  0  0  0  0  0  0  0  0  0  0  0
  144.6167  136.5756  149.8097 H   0  0  0  0  0  0  0  0  0  0  0  0
  143.6550  137.6749  151.8333 H   0  0  0  0  0  0  0  0  0  0  0  0
  143.3756  136.0864  152.5218 H   0  0  0  0  0  0  0  0  0  0  0  0
  143.5047  137.8424  154.2978 H   0  0  0  0  0  0  0  0  0  0  0  0
  144.7581  136.6351  154.5093 H   0  0  0  0  0  0  0  0  0  0  0  0
  146.9949  137.1883  153.8772 H   0  0  0  0  0  0  0  0  0  0  0  0
  147.4051  139.8753  152.4826 H   0  0  0  0  0  0  0  0  0  0  0  0
  147.4836  139.7107  154.2253 H   0  0  0  0  0  0  0  0  0  0  0  0
  149.0579  137.8726  152.6571 H   0  0  0  0  0  0  0  0  0  0  0  0
  149.2744  139.1690  155.2568 H   0  0  0  0  0  0  0  0  0  0  0  0
  149.2874  137.4614  154.8591 H   0  0  0  0  0  0  0  0  0  0  0  0
  151.4889  139.1134  153.6454 H   0  0  0  0  0  0  0  0  0  0  0  0
  151.2101  136.9012  153.3086 H   0  0  0  0  0  0  0  0  0  0  0  0
  151.6118  138.1888  156.5672 H   0  0  0  0  0  0  0  0  0  0  0  0
  152.9083  138.9523  155.6889 H   0  0  0  0  0  0  0  0  0  0  0  0
  150.0225  140.9766  154.6737 H   0  0  0  0  0  0  0  0  0  0  0  0
  150.7100  143.6807  158.8840 H   0  0  0  0  0  0  0  0  0  0  0  0
  151.9134  142.5225  161.9363 H   0  0  0  0  0  0  0  0  0  0  0  0
  151.6816  144.0014  161.0077 H   0  0  0  0  0  0  0  0  0  0  0  0
  153.3005  143.3319  161.1911 H   0  0  0  0  0  0  0  0  0  0  0  0
  154.0538  139.4968  160.5031 H   0  0  0  0  0  0  0  0  0  0  0  0
  153.0847  140.3612  161.6928 H   0  0  0  0  0  0  0  0  0  0  0  0
  154.4665  141.1570  160.9239 H   0  0  0  0  0  0  0  0  0  0  0  0
  153.0674  139.2602  158.3893 H   0  0  0  0  0  0  0  0  0  0  0  0
  147.3165  137.0694  151.3976 H   0  0  0  0  0  0  0  0  0  0  0  0
  146.0731  138.2826  151.1518 H   0  0  0  0  0  0  0  0  0  0  0  0
  149.5642  139.4332  152.7490 H   0  0  0  0  0  0  0  0  0  0  0  0
  145.7036  135.6503  152.3652 H   0  0  0  0  0  0  0  0  0  0  0  0
  149.7334  142.9533  156.2826 H   0  0  0  0  0  0  0  0  0  0  0  0
  1  2  1  0  0  0  0
  1 26  1  0  0  0  0
  1 27  1  0  0  0  0
  1 28  1  0  0  0  0
  2  3  1  0  0  0  0
  2 29  1  0  0  0  0
  2 30  1  0  0  0  0
  3 25  1  0  0  0  0
  3  4  1  0  0  0  0
  3 57  1  0  0  0  0
  4  5  1  0  0  0  0
  4 31  1  0  0  0  0
  4 32  1  0  0  0  0
  5  6  1  0  0  0  0
  5 33  1  0  0  0  0
  5 34  1  0  0  0  0
  6  7  1  0  0  0  0
  7  8  1  0  0  0  0
  7 25  1  0  0  0  0
  7 35  1  0  0  0  0
  8  9  1  0  0  0  0
  8 36  1  0  0  0  0
  8 37  1  0  0  0  0
  9 10  1  0  0  0  0
  9 38  1  0  0  0  0
  9 56  1  0  0  0  0
 10 11  1  0  0  0  0
 10 39  1  0  0  0  0
 10 40  1  0  0  0  0
 11 12  1  0  0  0  0
 11 13  1  0  0  0  0
 11 41  1  0  0  0  0
 12 42  1  0  0  0  0
 13 14  1  0  0  0  0
 13 43  1  0  0  0  0
 13 44  1  0  0  0  0
 14 24  1  0  0  0  0
 14 15  1  0  0  0  0
 15 16  2  0  0  0  0
 15 45  1  0  0  0  0
 16 17  1  0  0  0  0
 16 58  1  0  0  0  0
 17 24  2  0  0  0  0
 17 18  1  0  0  0  0
 18 19  2  0  0  0  0
 18 46  1  0  0  0  0
 19 20  1  0  0  0  0
 19 21  1  0  0  0  0
 20 47  1  0  0  0  0
 20 48  1  0  0  0  0
 20 49  1  0  0  0  0
 21 22  1  0  0  0  0
 21 23  2  0  0  0  0
 22 50  1  0  0  0  0
 22 51  1  0  0  0  0
 22 52  1  0  0  0  0
 23 24  1  0  0  0  0
 23 53  1  0  0  0  0
 25 54  1  0  0  0  0
 25 55  1  0  0  0  0
M  CHG  1   3   1
M  CHG  1   9   1
M  CHG  1  16   1
M  END
> <s_m_source_file>
AV-unprocessed.smi

> <i_m_source_file_index>
1047

> <i_lp_mmshare_version>
43012

> <i_f3d_flags>
0

> <s_epik_input>
W0NIM11bQ0gyXU4xW0NIMl1bQ0gyXU9bQ0BIXShbQ0gyXTEpW0NIMl1bTkhdW0NIMl1bQ0BIXShbT0hdKVtDSDJdbihbY0hdbjIpYyhjMjMpW2NIXWMoW0NIM10pYyhbY0hdMylbQ0gzXQ==

> <s_epik_cmdline>
J2VwaWtfcHl0aG9uJywgJy1waCcsICc3LjAnLCAnLXRuJywgJzgnLCAnLW1hJywgJzIwMCcsICctbWV0YWxfYmluZGluZycsICctaW1hZScsICc8aW5maWxlLm1hZT4nLCAnLW9tYWUnLCAnPG91dGZpbGUubWFlPic=

> <r_epik_Ionization_Penalty>
1.6114

> <r_epik_Ionization_Penalty_Charging>
1.61139

> <r_epik_Ionization_Penalty_Neutral>
5.04732e-06

> <r_epik_State_Penalty>
1.63724

> <r_epik_Charging_Adjusted_Penalty>
3.24864

> <i_epik_Tot_Q>
3

> <i_epik_Tot_abs_Q>
3

> <r_epik_Metal_State_Penalty>
5.64594

> <b_epik_Metal_Only>
0

> <s_lp_Force_Field>
OPLS_2005

> <r_lp_Energy>
40.251

> <b_lp_Chiralities_Consistent>
1

> <s_lp_Variant>
AV-unprocessed.smi:1047-24

> <Gold.Version>
5.8.1

> <Gold.Id.Protein>
6NUR|6NUR_protein|mol2

> <Gold.PLP.Fitness>
68.6476

> <Gold.PLP.PLP>
-50.0115

> <Gold.PLP.part.hbond>
-5.0000

> <Gold.PLP.part.metal>
0.0000

> <Gold.PLP.part.buried>
-4.0693

> <Gold.PLP.part.nonpolar>
-41.5356

> <Gold.PLP.part.repulsive>
0.5009

> <Gold.PLP.ligand.clash>
0.0000

> <Gold.PLP.ligand.torsion>
0.9563

> <Gold.PLP.Chemscore.Hbond>
6.7265

> <Gold.PLP.Chemscore.CHOScore>
0.0000

> <Gold.PLP.Chemscore.Metal>
0.0000

> <Gold.Chemscore.Hbonds>
donor molecule, donor type, donor heavy atom, donor atom, acceptor molecule, acceptor atom, score
      L1  H     9    38       P1  7948  2.00
      L1  H     9    56       P1  7957  0.67
      L1  H    12    42       P1  7949  0.99
      L1  H    16    58       P1  8028  1.89
      P1  H 10752 10763       L1    12  0.95

> <Gold.PLP.Chemscore.Internal.Correction>
0.3693

> <Gold.Rescore>
     Score         DG    S(hbond)    S(metal)    S(lipo)     H(rot)  DE(clash)    DE(int)     intcor
     22.67     -24.87       3.73        0.00     120.25       2.78       0.19       2.01       ----

> <Gold.Chemscore.Fitness>
22.6663

> <Gold.Chemscore.DG>
-24.8700

> <Gold.Chemscore.ZeroCoef>
-5.4800

> <Gold.Chemscore.Hbond>
3.7274

> <Gold.Chemscore.Metal>
0.0000

> <Gold.Chemscore.Lipo>
120.2534

> <Gold.Chemscore.Internal_Hbond>
0.0000

> <Gold.Chemscore.DEClash>
0.1938

> <Gold.Chemscore.DEInternal>
2.0099

> <Gold.Chemscore.Rot>
2.7848

> <Gold.Chemscore.Internal.Correction>
   9.000000E+99

> <Gold.Chemscore.Hbonds>
donor molecule, donor type, donor heavy atom, donor atom, acceptor molecule, acceptor atom, score
      L1  H     9    38       P1  7948  0.99
      L1  H     9    56       P1  7957  0.68
      L1  H    12    42       P1  7949  0.50
      L1  H    16    58       P1  8028  0.90
      P1  H 10752 10763       L1    12  0.20

> <Gold.Chemscore.Hbond.Weighted>
-12.4495

> <Gold.Chemscore.Metal.Weighted>
-0.0000

> <Gold.Chemscore.Lipo.Weighted>
-14.0696

> <Gold.Chemscore.Internal_Hbond.Weighted>
0.0000

> <Gold.Chemscore.DEClash.Weighted>
0.1938

> <Gold.Chemscore.DEInternal.Weighted>
2.0099

> <Gold.Chemscore.Rot.Weighted>
7.1291

> <Gold.Chemscore.Internal.Correction.Weighted>
   9.000000E+99

> <Gold.Protein.RotatedTorsions>
[ 6907 6896 6895 6894 ] final  -59.85 input  -60.11 | X-H torsion
[ 7974 7965 7964 7962 ] final  -75.23 input  175.53 | X-H torsion
[ 8008 7997 7996 7995 ] final -102.95 input   59.86 | X-H torsion
[ 10167 10162 10161 10158 ] final    6.56 input  -65.29 | X-H torsion
[ 10718 10713 10712 10709 ] final   72.09 input   66.30 | X-H torsion
[ 10763 10752 10751 10750 ] final   45.77 input  -60.55 | X-H torsion
[ 11005 11000 10999 10996 ] final   21.09 input  -57.11 | X-H torsion

> <Gold.Protein.ActiveResidues>
 VAL166  LYS551  ARG553  GLY616  TRP617  ASP618  TYR619  PRO620  LYS621  CYS622 
 ASP623  PHE694  ASN695  SER759  ASP760  ASP761  ALA762  ILE779  LEU786  VAL792 
 PHE793  MET794  SER795  GLU796  ALA797  LYS798  CYS799  TRP800  GLU811  SER814 

> <Gold.Protein.RotatedAtoms>
  150.7899  134.6914  159.6498 H   0  0  0  0  0  0  0  0  0  0  0  0  # atno 6907 bound_to 6896
  152.4003  134.6295  160.0081 H   0  0  0  0  0  0  0  0  0  0  0  0  # atno 6908 bound_to 6896
  151.6568  133.3282  159.3201 H   0  0  0  0  0  0  0  0  0  0  0  0  # atno 6909 bound_to 6896
  145.6287  140.9343  143.1098 H   0  0  0  0  0  0  0  0  0  0  0  0  # atno 7974 bound_to 7965
  154.8640  140.0425  157.1683 H   0  0  0  0  0  0  0  0  0  0  0  0  # atno 8008 bound_to 7997
  154.8809  140.2972  155.5405 H   0  0  0  0  0  0  0  0  0  0  0  0  # atno 8009 bound_to 7997
  156.2999  140.2411  156.3812 H   0  0  0  0  0  0  0  0  0  0  0  0  # atno 8010 bound_to 7997
  140.6421  143.7750  150.7443 H   0  0  0  0  0  0  0  0  0  0  0  0  # atno 10167 bound_to 10162
  157.6484  130.9561  150.0880 H   0  0  0  0  0  0  0  0  0  0  0  0  # atno 10718 bound_to 10713
  152.9820  135.6029  154.3490 H   0  0  0  0  0  0  0  0  0  0  0  0  # atno 10763 bound_to 10752
  154.3181  135.2770  155.2535 H   0  0  0  0  0  0  0  0  0  0  0  0  # atno 10764 bound_to 10752
  154.4714  135.5941  153.6380 H   0  0  0  0  0  0  0  0  0  0  0  0  # atno 10765 bound_to 10752
  140.3954  134.1774  155.7663 H   0  0  0  0  0  0  0  0  0  0  0  0  # atno 11005 bound_to 11000
  144.7202  139.8057  143.7384 LP  0  0  0  0  0  0  0  0  0  0  0  0  # atno 17320 bound_to 7965
  146.1374  139.4422  143.0131 LP  0  0  0  0  0  0  0  0  0  0  0  0  # atno 17321 bound_to 7965
  140.1383  143.4464  152.2210 LP  0  0  0  0  0  0  0  0  0  0  0  0  # atno 17342 bound_to 10162
  139.5630  144.7418  151.4101 LP  0  0  0  0  0  0  0  0  0  0  0  0  # atno 17343 bound_to 10162
  156.1837  130.3651  149.9001 LP  0  0  0  0  0  0  0  0  0  0  0  0  # atno 17370 bound_to 10713
  156.6947  130.8909  151.3592 LP  0  0  0  0  0  0  0  0  0  0  0  0  # atno 17371 bound_to 10713
  141.1876  133.8278  157.1026 LP  0  0  0  0  0  0  0  0  0  0  0  0  # atno 17394 bound_to 11000
  140.0375  134.9871  157.0899 LP  0  0  0  0  0  0  0  0  0  0  0  0  # atno 17395 bound_to 11000

$$$$
