AV-unprocessed.smi:1427|AV-procd|sdf|5811|dock9
  -GOLD-   22720 5463D 1   1.00000     0.00000
 Structure written by MMmdl.
 33 34  0  0  0  0  0  0  0  0  1 V2000
  146.8037  138.7033  152.0000 C   0  0  0  0  0  0  0  0  0  0  0  0
  145.6911  137.6517  152.1049 C   0  0  2  0  0  0  0  0  0  0  0  0
  145.1341  137.5636  153.5410 C   0  0  0  0  0  0  0  0  0  0  0  0
  143.7988  136.9935  153.5879 N   0  0  0  0  0  0  0  0  0  0  0  0
  142.7003  137.3243  152.8227 C   0  0  0  0  0  0  0  0  0  0  0  0
  141.6736  136.5141  153.2145 C   0  0  0  0  0  0  0  0  0  0  0  0
  142.2482  135.7126  154.2402 C   0  0  0  0  0  0  0  0  0  0  0  0
  143.5196  136.0034  154.4636 N   0  0  0  0  0  0  0  0  0  0  0  0
  146.2193  136.3583  151.6741 N   0  0  0  0  0  0  0  0  0  0  0  0
  145.5106  135.2256  151.5198 C   0  0  0  0  0  0  0  0  0  0  0  0
  144.2985  135.1630  151.7241 O   0  0  0  0  0  0  0  0  0  0  0  0
  146.2625  133.9524  151.0908 C   0  0  1  0  0  0  0  0  0  0  0  0
  145.9338  132.7557  152.0125 C   0  0  0  0  0  0  0  0  0  0  0  0
  145.6008  131.5734  151.0919 C   0  0  0  0  0  0  0  0  0  0  0  0
  145.5350  132.2050  149.7137 C   0  0  0  0  0  0  0  0  0  0  0  0
  145.1892  131.5953  148.7046 O   0  0  0  0  0  0  0  0  0  0  0  0
  145.9012  133.4842  149.7601 N   0  0  0  0  0  0  0  0  0  0  0  0
  146.4414  139.6881  152.2964 H   0  0  0  0  0  0  0  0  0  0  0  0
  147.1729  138.7839  150.9770 H   0  0  0  0  0  0  0  0  0  0  0  0
  147.6497  138.4531  152.6414 H   0  0  0  0  0  0  0  0  0  0  0  0
  144.8870  137.9678  151.4378 H   0  0  0  0  0  0  0  0  0  0  0  0
  145.7999  136.9767  154.1764 H   0  0  0  0  0  0  0  0  0  0  0  0
  145.0831  138.5592  153.9829 H   0  0  0  0  0  0  0  0  0  0  0  0
  142.7428  138.0961  152.0683 H   0  0  0  0  0  0  0  0  0  0  0  0
  140.6659  136.4958  152.8263 H   0  0  0  0  0  0  0  0  0  0  0  0
  141.7821  134.9339  154.8258 H   0  0  0  0  0  0  0  0  0  0  0  0
  147.2106  136.3163  151.4858 H   0  0  0  0  0  0  0  0  0  0  0  0
  147.3346  134.1537  151.0995 H   0  0  0  0  0  0  0  0  0  0  0  0
  146.7780  132.5217  152.6620 H   0  0  0  0  0  0  0  0  0  0  0  0
  145.0811  132.9609  152.6627 H   0  0  0  0  0  0  0  0  0  0  0  0
  146.3853  130.8161  151.1123 H   0  0  0  0  0  0  0  0  0  0  0  0
  144.6520  131.1040  151.3541 H   0  0  0  0  0  0  0  0  0  0  0  0
  145.9367  134.0870  148.9506 H   0  0  0  0  0  0  0  0  0  0  0  0
  1  2  1  0  0  0  0
  1 18  1  0  0  0  0
  1 19  1  0  0  0  0
  1 20  1  0  0  0  0
  2  3  1  0  0  0  0
  2  9  1  0  0  0  0
  2 21  1  0  0  0  0
  3  4  1  0  0  0  0
  3 22  1  0  0  0  0
  3 23  1  0  0  0  0
  4  8  1  0  0  0  0
  4  5  1  0  0  0  0
  5  6  2  0  0  0  0
  5 24  1  0  0  0  0
  6  7  1  0  0  0  0
  6 25  1  0  0  0  0
  7  8  2  0  0  0  0
  7 26  1  0  0  0  0
  9 10  1  0  0  0  0
  9 27  1  0  0  0  0
 10 11  2  0  0  0  0
 10 12  1  0  0  0  0
 12 17  1  0  0  0  0
 12 13  1  0  0  0  0
 12 28  1  0  0  0  0
 13 14  1  0  0  0  0
 13 29  1  0  0  0  0
 13 30  1  0  0  0  0
 14 15  1  0  0  0  0
 14 31  1  0  0  0  0
 14 32  1  0  0  0  0
 15 16  2  0  0  0  0
 15 17  1  0  0  0  0
 17 33  1  0  0  0  0
M  END
> <s_m_source_file>
AV-unprocessed.smi

> <i_m_source_file_index>
1427

> <i_lp_mmshare_version>
43012

> <i_f3d_flags>
0

> <s_epik_input>
bjFbY0hdW2NIXVtjSF1uMVtDSDJdW0NAQEhdKFtDSDNdKVtOSF1DKD1PKVtDQEBIXTJbQ0gyXVtDSDJdQyg9TylbTkhdMg==

> <s_epik_cmdline>
J2VwaWtfcHl0aG9uJywgJy1waCcsICc3LjAnLCAnLXRuJywgJzgnLCAnLW1hJywgJzIwMCcsICctbWV0YWxfYmluZGluZycsICctaW1hZScsICc8aW5maWxlLm1hZT4nLCAnLW9tYWUnLCAnPG91dGZpbGUubWFlPic=

> <r_lp_tautomer_probability>
1

> <r_epik_Ionization_Penalty>
0.000310707

> <r_epik_Ionization_Penalty_Charging>
0

> <r_epik_Ionization_Penalty_Neutral>
0.000310707

> <r_epik_State_Penalty>
-0

> <r_epik_Charging_Adjusted_Penalty>
0

> <i_epik_Tot_Q>
0

> <i_epik_Tot_abs_Q>
0

> <r_epik_Metal_State_Penalty>
-0

> <b_epik_Metal_Only>
0

> <s_lp_Force_Field>
OPLS_2005

> <r_lp_Energy>
14.9883

> <b_lp_Chiralities_Consistent>
1

> <s_lp_Variant>
AV-unprocessed.smi:1427-3

> <Gold.Version>
5.8.1

> <Gold.Id.Protein>
6NUR|6NUR_protein|mol2

> <Gold.PLP.Fitness>
37.9476

> <Gold.PLP.PLP>
-24.7290

> <Gold.PLP.part.hbond>
-3.3841

> <Gold.PLP.part.metal>
0.0000

> <Gold.PLP.part.buried>
0.5831

> <Gold.PLP.part.nonpolar>
-23.0947

> <Gold.PLP.part.repulsive>
0.5761

> <Gold.PLP.ligand.clash>
0.0000

> <Gold.PLP.ligand.torsion>
0.4980

> <Gold.PLP.Chemscore.Hbond>
2.0052

> <Gold.PLP.Chemscore.CHOScore>
2.7271

> <Gold.PLP.Chemscore.Metal>
0.0000

> <Gold.Chemscore.Hbonds>
donor molecule, donor type, donor heavy atom, donor atom, acceptor molecule, acceptor atom, score
      L1  H     9    27       P1  7948  1.00
      L1  H    17    33       P1  7921  0.90
      L1  C     5    24       P1 10171  0.90
      L1  C     5    24       P1 10175  0.90
      L1  C     7    26       P1 11000  1.00

> <Gold.PLP.Chemscore.Internal.Correction>
0.0178

> <Gold.Rescore>
     Score         DG    S(hbond)    S(metal)    S(lipo)     H(rot)  DE(clash)    DE(int)     intcor
     11.78     -13.87       2.31        0.00      47.06       1.88       0.09       2.00       ----

> <Gold.Chemscore.Fitness>
11.7818

> <Gold.Chemscore.DG>
-13.8703

> <Gold.Chemscore.ZeroCoef>
-5.4800

> <Gold.Chemscore.Hbond>
2.3062

> <Gold.Chemscore.Metal>
0.0000

> <Gold.Chemscore.Lipo>
47.0557

> <Gold.Chemscore.Internal_Hbond>
0.0000

> <Gold.Chemscore.DEClash>
0.0890

> <Gold.Chemscore.DEInternal>
1.9995

> <Gold.Chemscore.Rot>
1.8821

> <Gold.Chemscore.Internal.Correction>
   9.000000E+99

> <Gold.Chemscore.Hbonds>
donor molecule, donor type, donor heavy atom, donor atom, acceptor molecule, acceptor atom, score
      L1  H     9    27       P1  7948  0.99
      L1  H    17    33       P1  7921  0.19
      P1  H 10785 10796       L1    16  0.01

> <Gold.Chemscore.Hbond.Weighted>
-7.7029

> <Gold.Chemscore.Metal.Weighted>
-0.0000

> <Gold.Chemscore.Lipo.Weighted>
-5.5055

> <Gold.Chemscore.Internal_Hbond.Weighted>
0.0000

> <Gold.Chemscore.DEClash.Weighted>
0.0890

> <Gold.Chemscore.DEInternal.Weighted>
1.9995

> <Gold.Chemscore.Rot.Weighted>
4.8181

> <Gold.Chemscore.Internal.Correction.Weighted>
   9.000000E+99

> <Gold.Protein.RotatedTorsions>
[ 6907 6896 6895 6894 ] final   19.95 input  -60.11 | X-H torsion
[ 7974 7965 7964 7962 ] final  -71.67 input  175.53 | X-H torsion
[ 8008 7997 7996 7995 ] final -137.17 input   59.86 | X-H torsion
[ 10167 10162 10161 10158 ] final   45.83 input  -65.29 | X-H torsion
[ 10718 10713 10712 10709 ] final   -5.88 input   66.30 | X-H torsion
[ 10763 10752 10751 10750 ] final    9.89 input  -60.55 | X-H torsion
[ 11005 11000 10999 10996 ] final -162.58 input  -57.11 | X-H torsion

> <Gold.Protein.ActiveResidues>
 VAL166  LYS551  ARG553  GLY616  TRP617  ASP618  TYR619  PRO620  LYS621  CYS622 
 ASP623  PHE694  ASN695  SER759  ASP760  ASP761  ALA762  ILE779  LEU786  VAL792 
 PHE793  MET794  SER795  GLU796  ALA797  LYS798  CYS799  TRP800  GLU811  SER814 

> <Gold.Protein.RotatedAtoms>
  151.8888  135.0425  160.0495 H   0  0  0  0  0  0  0  0  0  0  0  0  # atno 6907 bound_to 6896
  152.2453  133.5165  159.5302 H   0  0  0  0  0  0  0  0  0  0  0  0  # atno 6908 bound_to 6896
  150.7066  134.0950  159.3988 H   0  0  0  0  0  0  0  0  0  0  0  0  # atno 6909 bound_to 6896
  145.6751  140.9207  143.0862 H   0  0  0  0  0  0  0  0  0  0  0  0  # atno 7974 bound_to 7965
  155.4074  140.0510  157.3033 H   0  0  0  0  0  0  0  0  0  0  0  0  # atno 8008 bound_to 7997
  154.4962  140.2139  155.9402 H   0  0  0  0  0  0  0  0  0  0  0  0  # atno 8009 bound_to 7997
  156.1408  140.3154  155.8498 H   0  0  0  0  0  0  0  0  0  0  0  0  # atno 8010 bound_to 7997
  140.3201  144.2716  150.6184 H   0  0  0  0  0  0  0  0  0  0  0  0  # atno 10167 bound_to 10162
  156.7400  130.5207  149.5826 H   0  0  0  0  0  0  0  0  0  0  0  0  # atno 10718 bound_to 10713
  153.2091  135.6866  153.8136 H   0  0  0  0  0  0  0  0  0  0  0  0  # atno 10763 bound_to 10752
  153.7375  135.3243  155.3299 H   0  0  0  0  0  0  0  0  0  0  0  0  # atno 10764 bound_to 10752
  154.8212  135.4650  154.0890 H   0  0  0  0  0  0  0  0  0  0  0  0  # atno 10765 bound_to 10752
  140.6077  134.4881  157.5212 H   0  0  0  0  0  0  0  0  0  0  0  0  # atno 11005 bound_to 11000
  144.7044  139.8623  143.7434 LP  0  0  0  0  0  0  0  0  0  0  0  0  # atno 17320 bound_to 7965
  146.1012  139.4008  143.0346 LP  0  0  0  0  0  0  0  0  0  0  0  0  # atno 17321 bound_to 7965
  140.5491  143.2209  151.7957 LP  0  0  0  0  0  0  0  0  0  0  0  0  # atno 17342 bound_to 10162
  139.4876  144.4500  151.9665 LP  0  0  0  0  0  0  0  0  0  0  0  0  # atno 17343 bound_to 10162
  156.1471  130.6284  151.0546 LP  0  0  0  0  0  0  0  0  0  0  0  0  # atno 17370 bound_to 10713
  157.6822  131.0835  150.7338 LP  0  0  0  0  0  0  0  0  0  0  0  0  # atno 17371 bound_to 10713
  139.9205  134.8158  156.1226 LP  0  0  0  0  0  0  0  0  0  0  0  0  # atno 17394 bound_to 11000
  141.0829  133.6746  156.2375 LP  0  0  0  0  0  0  0  0  0  0  0  0  # atno 17395 bound_to 11000

$$$$
