AV-unprocessed.smi:2456|AV-procd|sdf|9701|dock3
  -GOLD-   2272013343D 1   1.00000     0.00000
 Structure written by MMmdl.
 34 35  0  0  0  0  0  0  0  0  1 V2000
  151.8188  145.9892  159.6158 C   0  0  0  0  0  0  0  0  0  0  0  0
  150.9473  144.7690  159.9861 C   0  0  1  0  0  0  0  0  0  0  0  0
  149.5387  144.9567  159.6220 N   0  0  0  0  0  0  0  0  0  0  0  0
  148.4513  144.7053  160.3699 C   0  0  0  0  0  0  0  0  0  0  0  0
  148.4946  144.3211  161.5383 O   0  0  0  0  0  0  0  0  0  0  0  0
  147.3251  144.9412  159.6744 N   0  0  0  0  0  0  0  0  0  0  0  0
  145.9801  144.7911  160.1033 C   0  0  0  0  0  0  0  0  0  0  0  0
  145.6006  144.0611  161.1586 N   0  0  0  0  0  0  0  0  0  0  0  0
  144.2168  144.0920  161.3475 C   0  0  0  0  0  0  0  0  0  0  0  0
  143.5532  144.8553  160.4194 C   0  0  0  0  0  0  0  0  0  0  0  0
  144.6465  145.5707  159.2654 S   0  0  0  0  0  0  0  0  0  0  0  0
  151.4958  143.4181  159.4810 C   0  0  0  0  0  0  0  0  0  0  0  0
  151.1257  142.9954  158.3849 O   0  0  0  0  0  0  0  0  0  0  0  0
  152.3557  142.7215  160.2568 N   0  0  0  0  0  0  0  0  0  0  0  0
  152.9464  141.4187  159.9470 C   0  0  0  0  0  0  0  0  0  0  0  0
  154.0011  141.1719  161.0260 C   0  0  0  0  0  0  0  0  0  0  0  0
  153.5281  142.0044  162.2087 C   0  0  0  0  0  0  0  0  0  0  0  0
  152.8095  143.1901  161.5654 C   0  0  0  0  0  0  0  0  0  0  0  0
  152.8228  145.8867  160.0290 H   0  0  0  0  0  0  0  0  0  0  0  0
  151.3950  146.9093  160.0187 H   0  0  0  0  0  0  0  0  0  0  0  0
  151.9268  146.1179  158.5388 H   0  0  0  0  0  0  0  0  0  0  0  0
  150.9603  144.7283  161.0753 H   0  0  0  0  0  0  0  0  0  0  0  0
  149.3758  145.2870  158.6823 H   0  0  0  0  0  0  0  0  0  0  0  0
  147.4424  145.2600  158.7243 H   0  0  0  0  0  0  0  0  0  0  0  0
  143.7871  143.5401  162.1704 H   0  0  0  0  0  0  0  0  0  0  0  0
  142.4917  145.0394  160.3456 H   0  0  0  0  0  0  0  0  0  0  0  0
  152.1691  140.6549  159.9954 H   0  0  0  0  0  0  0  0  0  0  0  0
  153.3966  141.3862  158.9549 H   0  0  0  0  0  0  0  0  0  0  0  0
  154.1166  140.1157  161.2710 H   0  0  0  0  0  0  0  0  0  0  0  0
  154.9678  141.5431  160.6831 H   0  0  0  0  0  0  0  0  0  0  0  0
  152.8198  141.4257  162.8028 H   0  0  0  0  0  0  0  0  0  0  0  0
  154.3437  142.3096  162.8649 H   0  0  0  0  0  0  0  0  0  0  0  0
  153.4989  144.0233  161.4219 H   0  0  0  0  0  0  0  0  0  0  0  0
  151.9837  143.5369  162.1888 H   0  0  0  0  0  0  0  0  0  0  0  0
  1  2  1  0  0  0  0
  1 19  1  0  0  0  0
  1 20  1  0  0  0  0
  1 21  1  0  0  0  0
  2  3  1  0  0  0  0
  2 12  1  0  0  0  0
  2 22  1  0  0  0  0
  3  4  1  0  0  0  0
  3 23  1  0  0  0  0
  4  5  2  0  0  0  0
  4  6  1  0  0  0  0
  6  7  1  0  0  0  0
  6 24  1  0  0  0  0
  7 11  1  0  0  0  0
  7  8  2  0  0  0  0
  8  9  1  0  0  0  0
  9 10  2  0  0  0  0
  9 25  1  0  0  0  0
 10 11  1  0  0  0  0
 10 26  1  0  0  0  0
 12 13  2  0  0  0  0
 12 14  1  0  0  0  0
 14 18  1  0  0  0  0
 14 15  1  0  0  0  0
 15 16  1  0  0  0  0
 15 27  1  0  0  0  0
 15 28  1  0  0  0  0
 16 17  1  0  0  0  0
 16 29  1  0  0  0  0
 16 30  1  0  0  0  0
 17 18  1  0  0  0  0
 17 31  1  0  0  0  0
 17 32  1  0  0  0  0
 18 33  1  0  0  0  0
 18 34  1  0  0  0  0
M  END
> <s_m_source_file>
AV-unprocessed.smi

> <i_m_source_file_index>
2456

> <i_lp_mmshare_version>
43012

> <i_f3d_flags>
0

> <s_epik_input>
W0NIMl0xW0NIMl1bQ0gyXVtDSDJdTjFDKD1PKVtDQEhdKFtDSDNdKVtOSF1DKD1PKVtOSF1jMm5bY0hdW2NIXXMy

> <s_epik_cmdline>
J2VwaWtfcHl0aG9uJywgJy1waCcsICc3LjAnLCAnLXRuJywgJzgnLCAnLW1hJywgJzIwMCcsICctbWV0YWxfYmluZGluZycsICctaW1hZScsICc8aW5maWxlLm1hZT4nLCAnLW9tYWUnLCAnPG91dGZpbGUubWFlPic=

> <r_lp_tautomer_probability>
1

> <r_epik_Ionization_Penalty>
0.000150201

> <r_epik_Ionization_Penalty_Charging>
0

> <r_epik_Ionization_Penalty_Neutral>
0.000150201

> <r_epik_State_Penalty>
-0

> <r_epik_Charging_Adjusted_Penalty>
0

> <i_epik_Tot_Q>
0

> <i_epik_Tot_abs_Q>
0

> <r_epik_Metal_State_Penalty>
0.0705602

> <b_epik_Metal_Only>
0

> <s_lp_Force_Field>
OPLS_2005

> <r_lp_Energy>
30.7

> <b_lp_Chiralities_Consistent>
1

> <s_lp_Variant>
AV-unprocessed.smi:2456-2

> <Gold.Version>
5.8.1

> <Gold.Id.Protein>
6NUR|6NUR_protein|mol2

> <Gold.PLP.Fitness>
43.6694

> <Gold.PLP.PLP>
-38.1260

> <Gold.PLP.part.hbond>
-3.0000

> <Gold.PLP.part.metal>
0.0000

> <Gold.PLP.part.buried>
-5.1748

> <Gold.PLP.part.nonpolar>
-31.2140

> <Gold.PLP.part.repulsive>
0.6754

> <Gold.PLP.ligand.clash>
0.0000

> <Gold.PLP.ligand.torsion>
1.0169

> <Gold.PLP.Chemscore.Hbond>
2.4786

> <Gold.PLP.Chemscore.CHOScore>
0.0000

> <Gold.PLP.Chemscore.Metal>
0.0000

> <Gold.Chemscore.Hbonds>
donor molecule, donor type, donor heavy atom, donor atom, acceptor molecule, acceptor atom, score
      L1  H     3    23       P1  8029  0.67
      L1  H     6    24       P1  8029  1.00
      P1  H  6933  6944       L1     5  0.80

> <Gold.PLP.Chemscore.Internal.Correction>
0.1413

> <Gold.Rescore>
     Score         DG    S(hbond)    S(metal)    S(lipo)     H(rot)  DE(clash)    DE(int)     intcor
     16.97     -20.48       2.66        0.00      81.61       1.34       1.24       2.27       ----

> <Gold.Chemscore.Fitness>
16.9707

> <Gold.Chemscore.DG>
-20.4779

> <Gold.Chemscore.ZeroCoef>
-5.4800

> <Gold.Chemscore.Hbond>
2.6624

> <Gold.Chemscore.Metal>
0.0000

> <Gold.Chemscore.Lipo>
81.6097

> <Gold.Chemscore.Internal_Hbond>
0.0000

> <Gold.Chemscore.DEClash>
1.2399

> <Gold.Chemscore.DEInternal>
2.2673

> <Gold.Chemscore.Rot>
1.3448

> <Gold.Chemscore.Internal.Correction>
   9.000000E+99

> <Gold.Chemscore.Hbonds>
donor molecule, donor type, donor heavy atom, donor atom, acceptor molecule, acceptor atom, score
      L1  H     3    23       P1  8029  0.62
      L1  H     6    24       P1  8029  1.00
      P1  H  6933  6944       L1     5  0.44

> <Gold.Chemscore.Hbond.Weighted>
-8.8923

> <Gold.Chemscore.Metal.Weighted>
-0.0000

> <Gold.Chemscore.Lipo.Weighted>
-9.5483

> <Gold.Chemscore.Internal_Hbond.Weighted>
0.0000

> <Gold.Chemscore.DEClash.Weighted>
1.2399

> <Gold.Chemscore.DEInternal.Weighted>
2.2673

> <Gold.Chemscore.Rot.Weighted>
3.4427

> <Gold.Chemscore.Internal.Correction.Weighted>
   9.000000E+99

> <Gold.Protein.RotatedTorsions>
[ 6907 6896 6895 6894 ] final -140.84 input  -60.11 | X-H torsion
[ 7974 7965 7964 7962 ] final   -4.09 input  175.53 | X-H torsion
[ 8008 7997 7996 7995 ] final  145.49 input   59.86 | X-H torsion
[ 10167 10162 10161 10158 ] final  103.81 input  -65.29 | X-H torsion
[ 10718 10713 10712 10709 ] final  145.51 input   66.30 | X-H torsion
[ 10763 10752 10751 10750 ] final    8.14 input  -60.55 | X-H torsion
[ 11005 11000 10999 10996 ] final   91.13 input  -57.11 | X-H torsion

> <Gold.Protein.ActiveResidues>
 VAL166  LYS551  ARG553  GLY616  TRP617  ASP618  TYR619  PRO620  LYS621  CYS622 
 ASP623  PHE694  ASN695  SER759  ASP760  ASP761  ALA762  ILE779  LEU786  VAL792 
 PHE793  MET794  SER795  GLU796  ALA797  LYS798  CYS799  TRP800  GLU811  SER814 

> <Gold.Protein.RotatedAtoms>
  151.0660  133.5505  159.2630 H   0  0  0  0  0  0  0  0  0  0  0  0  # atno 6907 bound_to 6896
  151.2462  135.0605  159.9054 H   0  0  0  0  0  0  0  0  0  0  0  0  # atno 6908 bound_to 6896
  152.5404  134.0427  159.8128 H   0  0  0  0  0  0  0  0  0  0  0  0  # atno 6909 bound_to 6896
  146.2378  140.1819  142.8332 H   0  0  0  0  0  0  0  0  0  0  0  0  # atno 7974 bound_to 7965
  156.2882  140.2208  156.5223 H   0  0  0  0  0  0  0  0  0  0  0  0  # atno 8008 bound_to 7997
  154.7518  140.0480  157.0922 H   0  0  0  0  0  0  0  0  0  0  0  0  # atno 8009 bound_to 7997
  155.0100  140.3112  155.4836 H   0  0  0  0  0  0  0  0  0  0  0  0  # atno 8010 bound_to 7997
  139.7231  144.7053  151.0840 H   0  0  0  0  0  0  0  0  0  0  0  0  # atno 10167 bound_to 10162
  157.3444  131.0941  151.1054 H   0  0  0  0  0  0  0  0  0  0  0  0  # atno 10718 bound_to 10713
  153.2284  135.6889  153.7918 H   0  0  0  0  0  0  0  0  0  0  0  0  # atno 10763 bound_to 10752
  153.7092  135.3285  155.3243 H   0  0  0  0  0  0  0  0  0  0  0  0  # atno 10764 bound_to 10752
  154.8302  135.4586  154.1160 H   0  0  0  0  0  0  0  0  0  0  0  0  # atno 10765 bound_to 10752
  139.8844  134.8655  156.3384 H   0  0  0  0  0  0  0  0  0  0  0  0  # atno 11005 bound_to 11000
  144.9927  140.8562  143.5329 LP  0  0  0  0  0  0  0  0  0  0  0  0  # atno 17320 bound_to 7965
  145.1827  139.2343  143.5284 LP  0  0  0  0  0  0  0  0  0  0  0  0  # atno 17321 bound_to 7965
  140.7757  143.5140  150.9618 LP  0  0  0  0  0  0  0  0  0  0  0  0  # atno 17342 bound_to 10162
  139.8827  143.7052  152.3155 LP  0  0  0  0  0  0  0  0  0  0  0  0  # atno 17343 bound_to 10162
  157.2254  130.6500  149.5828 LP  0  0  0  0  0  0  0  0  0  0  0  0  # atno 17370 bound_to 10713
  155.9712  130.4616  150.6114 LP  0  0  0  0  0  0  0  0  0  0  0  0  # atno 17371 bound_to 10713
  140.9676  133.7348  156.0488 LP  0  0  0  0  0  0  0  0  0  0  0  0  # atno 17394 bound_to 11000
  140.7912  134.3615  157.5464 LP  0  0  0  0  0  0  0  0  0  0  0  0  # atno 17395 bound_to 11000

$$$$
