AV-unprocessed.smi:2752|AV-procd|sdf|10605|dock3
  -GOLD-   2272015 53D 1   1.00000     0.00000
 Structure written by MMmdl.
 34 35  0  0  0  0  0  0  0  0  1 V2000
  151.5079  138.5295  155.3023 C   0  0  0  0  0  0  0  0  0  0  0  0
  150.1499  138.6263  154.9003 O   0  0  0  0  0  0  0  0  0  0  0  0
  149.4375  139.6692  155.5532 C   0  0  2  0  0  0  0  0  0  0  0  0
  147.9591  139.5434  155.1693 C   0  0  0  0  0  0  0  0  0  0  0  0
  147.8039  140.4062  153.9215 C   0  0  0  0  0  0  0  0  0  0  0  0
  148.7177  141.6008  154.1859 C   0  0  0  0  0  0  0  0  0  0  0  0
  149.8887  141.0503  155.0198 C   0  0  1  0  0  0  0  0  0  0  0  0
  150.2085  141.9484  156.1272 N   0  0  0  0  0  0  0  0  0  0  0  0
  150.8249  141.5985  157.2654 C   0  0  0  0  0  0  0  0  0  0  0  0
  151.1987  140.4521  157.5149 O   0  0  0  0  0  0  0  0  0  0  0  0
  150.9698  142.6572  158.0818 N   0  0  0  0  0  0  0  0  0  0  0  0
  151.5996  142.7063  159.3542 C   0  0  0  0  0  0  0  0  0  0  0  0
  152.5083  141.6546  159.6129 C   0  0  0  0  0  0  0  0  0  0  0  0
  153.1820  141.6081  160.8491 C   0  0  0  0  0  0  0  0  0  0  0  0
  152.9274  142.6167  161.7951 C   0  0  0  0  0  0  0  0  0  0  0  0
  153.5500  142.6138  162.9977 F   0  0  0  0  0  0  0  0  0  0  0  0
  152.0084  143.6283  161.4602 C   0  0  0  0  0  0  0  0  0  0  0  0
  151.3624  143.6740  160.2754 N   0  0  0  0  0  0  0  0  0  0  0  0
  151.9931  137.7220  154.7542 H   0  0  0  0  0  0  0  0  0  0  0  0
  151.5868  138.3049  156.3667 H   0  0  0  0  0  0  0  0  0  0  0  0
  152.0584  139.4487  155.1002 H   0  0  0  0  0  0  0  0  0  0  0  0
  149.5441  139.5724  156.6359 H   0  0  0  0  0  0  0  0  0  0  0  0
  147.6463  138.5106  155.0120 H   0  0  0  0  0  0  0  0  0  0  0  0
  147.3408  139.9553  155.9680 H   0  0  0  0  0  0  0  0  0  0  0  0
  148.1572  139.8568  153.0476 H   0  0  0  0  0  0  0  0  0  0  0  0
  146.7703  140.6999  153.7379 H   0  0  0  0  0  0  0  0  0  0  0  0
  149.0540  142.0745  153.2630 H   0  0  0  0  0  0  0  0  0  0  0  0
  148.1627  142.3516  154.7510 H   0  0  0  0  0  0  0  0  0  0  0  0
  150.7469  140.9221  154.3582 H   0  0  0  0  0  0  0  0  0  0  0  0
  149.9367  142.9141  156.0144 H   0  0  0  0  0  0  0  0  0  0  0  0
  150.5954  143.5333  157.7492 H   0  0  0  0  0  0  0  0  0  0  0  0
  152.6906  140.8878  158.8737 H   0  0  0  0  0  0  0  0  0  0  0  0
  153.8801  140.8131  161.0659 H   0  0  0  0  0  0  0  0  0  0  0  0
  151.7852  144.4203  162.1596 H   0  0  0  0  0  0  0  0  0  0  0  0
  1  2  1  0  0  0  0
  1 19  1  0  0  0  0
  1 20  1  0  0  0  0
  1 21  1  0  0  0  0
  2  3  1  0  0  0  0
  3  7  1  0  0  0  0
  3  4  1  0  0  0  0
  3 22  1  0  0  0  0
  4  5  1  0  0  0  0
  4 23  1  0  0  0  0
  4 24  1  0  0  0  0
  5  6  1  0  0  0  0
  5 25  1  0  0  0  0
  5 26  1  0  0  0  0
  6  7  1  0  0  0  0
  6 27  1  0  0  0  0
  6 28  1  0  0  0  0
  7  8  1  0  0  0  0
  7 29  1  0  0  0  0
  8  9  1  0  0  0  0
  8 30  1  0  0  0  0
  9 10  2  0  0  0  0
  9 11  1  0  0  0  0
 11 12  1  0  0  0  0
 11 31  1  0  0  0  0
 12 18  1  0  0  0  0
 12 13  2  0  0  0  0
 13 14  1  0  0  0  0
 13 32  1  0  0  0  0
 14 15  2  0  0  0  0
 14 33  1  0  0  0  0
 15 16  1  0  0  0  0
 15 17  1  0  0  0  0
 17 18  2  0  0  0  0
 17 34  1  0  0  0  0
M  END
> <s_m_source_file>
AV-unprocessed.smi

> <i_m_source_file_index>
2752

> <i_lp_mmshare_version>
43012

> <i_f3d_flags>
0

> <s_epik_input>
W0NIM11PW0NAQEhdMVtDSDJdW0NIMl1bQ0gyXVtDQEhdMVtOSF1DKD1PKVtOSF1jMltjSF1bY0hdYyhGKVtjSF1uMg==

> <s_epik_cmdline>
J2VwaWtfcHl0aG9uJywgJy1waCcsICc3LjAnLCAnLXRuJywgJzgnLCAnLW1hJywgJzIwMCcsICctbWV0YWxfYmluZGluZycsICctaW1hZScsICc8aW5maWxlLm1hZT4nLCAnLW9tYWUnLCAnPG91dGZpbGUubWFlPic=

> <r_lp_tautomer_probability>
1

> <r_epik_Ionization_Penalty>
3.49853e-05

> <r_epik_Ionization_Penalty_Charging>
0

> <r_epik_Ionization_Penalty_Neutral>
3.49853e-05

> <r_epik_State_Penalty>
-0

> <r_epik_Charging_Adjusted_Penalty>
0

> <i_epik_Tot_Q>
0

> <i_epik_Tot_abs_Q>
0

> <r_epik_Metal_State_Penalty>
-0

> <b_epik_Metal_Only>
0

> <s_lp_Force_Field>
OPLS_2005

> <r_lp_Energy>
22.4566

> <b_lp_Chiralities_Consistent>
1

> <s_lp_Variant>
AV-unprocessed.smi:2752-1

> <Gold.Version>
5.8.1

> <Gold.Id.Protein>
6NUR|6NUR_protein|mol2

> <Gold.PLP.Fitness>
40.3524

> <Gold.PLP.PLP>
-38.2755

> <Gold.PLP.part.hbond>
-1.5957

> <Gold.PLP.part.metal>
0.0000

> <Gold.PLP.part.buried>
-3.7398

> <Gold.PLP.part.nonpolar>
-32.8771

> <Gold.PLP.part.repulsive>
0.3753

> <Gold.PLP.ligand.clash>
0.0001

> <Gold.PLP.ligand.torsion>
0.4662

> <Gold.PLP.Chemscore.Hbond>
1.0000

> <Gold.PLP.Chemscore.CHOScore>
0.0000

> <Gold.PLP.Chemscore.Metal>
0.0000

> <Gold.Chemscore.Hbonds>
donor molecule, donor type, donor heavy atom, donor atom, acceptor molecule, acceptor atom, score
      L1  H     8    30       P1  8028  0.78

> <Gold.PLP.Chemscore.Internal.Correction>
0.0095

> <Gold.Rescore>
     Score         DG    S(hbond)    S(metal)    S(lipo)     H(rot)  DE(clash)    DE(int)     intcor
     10.50     -15.01       1.00        0.00      81.01       1.28       0.03       4.49       ----

> <Gold.Chemscore.Fitness>
10.4956

> <Gold.Chemscore.DG>
-15.0118

> <Gold.Chemscore.ZeroCoef>
-5.4800

> <Gold.Chemscore.Hbond>
0.9987

> <Gold.Chemscore.Metal>
0.0000

> <Gold.Chemscore.Lipo>
81.0120

> <Gold.Chemscore.Internal_Hbond>
0.0000

> <Gold.Chemscore.DEClash>
0.0281

> <Gold.Chemscore.DEInternal>
4.4881

> <Gold.Chemscore.Rot>
1.2821

> <Gold.Chemscore.Internal.Correction>
   9.000000E+99

> <Gold.Chemscore.Hbonds>
donor molecule, donor type, donor heavy atom, donor atom, acceptor molecule, acceptor atom, score
      L1  H     8    30       P1  8028  0.77

> <Gold.Chemscore.Hbond.Weighted>
-3.3356

> <Gold.Chemscore.Metal.Weighted>
-0.0000

> <Gold.Chemscore.Lipo.Weighted>
-9.4784

> <Gold.Chemscore.Internal_Hbond.Weighted>
0.0000

> <Gold.Chemscore.DEClash.Weighted>
0.0281

> <Gold.Chemscore.DEInternal.Weighted>
4.4881

> <Gold.Chemscore.Rot.Weighted>
3.2822

> <Gold.Chemscore.Internal.Correction.Weighted>
   9.000000E+99

> <Gold.Protein.RotatedTorsions>
[ 6907 6896 6895 6894 ] final  -28.09 input  -60.11 | X-H torsion
[ 7974 7965 7964 7962 ] final   -2.63 input  175.53 | X-H torsion
[ 8008 7997 7996 7995 ] final  114.41 input   59.86 | X-H torsion
[ 10167 10162 10161 10158 ] final  145.83 input  -65.29 | X-H torsion
[ 10718 10713 10712 10709 ] final  -62.56 input   66.30 | X-H torsion
[ 10763 10752 10751 10750 ] final  -50.95 input  -60.55 | X-H torsion
[ 11005 11000 10999 10996 ] final -109.99 input  -57.11 | X-H torsion

> <Gold.Protein.ActiveResidues>
 VAL166  LYS551  ARG553  GLY616  TRP617  ASP618  TYR619  PRO620  LYS621  CYS622 
 ASP623  PHE694  ASN695  SER759  ASP760  ASP761  ALA762  ILE779  LEU786  VAL792 
 PHE793  MET794  SER795  GLU796  ALA797  LYS798  CYS799  TRP800  GLU811  SER814 

> <Gold.Protein.RotatedAtoms>
  151.1377  135.0163  159.8611 H   0  0  0  0  0  0  0  0  0  0  0  0  # atno 6907 bound_to 6896
  152.5452  134.1535  159.8538 H   0  0  0  0  0  0  0  0  0  0  0  0  # atno 6908 bound_to 6896
  151.1608  133.4801  159.2627 H   0  0  0  0  0  0  0  0  0  0  0  0  # atno 6909 bound_to 6896
  146.2402  140.1599  142.8333 H   0  0  0  0  0  0  0  0  0  0  0  0  # atno 7974 bound_to 7965
  156.2319  140.2960  156.0211 H   0  0  0  0  0  0  0  0  0  0  0  0  # atno 8008 bound_to 7997
  155.2201  140.0415  157.2964 H   0  0  0  0  0  0  0  0  0  0  0  0  # atno 8009 bound_to 7997
  154.6011  140.2427  155.7799 H   0  0  0  0  0  0  0  0  0  0  0  0  # atno 8010 bound_to 7997
  139.4918  144.5874  151.6751 H   0  0  0  0  0  0  0  0  0  0  0  0  # atno 10167 bound_to 10162
  156.0847  130.4210  150.1152 H   0  0  0  0  0  0  0  0  0  0  0  0  # atno 10718 bound_to 10713
  154.1187  135.6538  153.4899 H   0  0  0  0  0  0  0  0  0  0  0  0  # atno 10763 bound_to 10752
  153.0232  135.5265  154.7119 H   0  0  0  0  0  0  0  0  0  0  0  0  # atno 10764 bound_to 10752
  154.6320  135.2977  155.0175 H   0  0  0  0  0  0  0  0  0  0  0  0  # atno 10765 bound_to 10752
  141.0817  133.9209  157.2275 H   0  0  0  0  0  0  0  0  0  0  0  0  # atno 11005 bound_to 11000
  145.0098  140.8704  143.5231 LP  0  0  0  0  0  0  0  0  0  0  0  0  # atno 17320 bound_to 7965
  145.1631  139.2447  143.5381 LP  0  0  0  0  0  0  0  0  0  0  0  0  # atno 17321 bound_to 7965
  140.5493  144.0452  150.6120 LP  0  0  0  0  0  0  0  0  0  0  0  0  # atno 17342 bound_to 10162
  140.3501  143.2968  152.0496 LP  0  0  0  0  0  0  0  0  0  0  0  0  # atno 17343 bound_to 10162
  156.9175  130.9672  151.3553 LP  0  0  0  0  0  0  0  0  0  0  0  0  # atno 17370 bound_to 10713
  157.5978  130.8490  149.8755 LP  0  0  0  0  0  0  0  0  0  0  0  0  # atno 17371 bound_to 10713
  139.9631  135.0149  156.9314 LP  0  0  0  0  0  0  0  0  0  0  0  0  # atno 17394 bound_to 11000
  140.5454  134.0679  155.7353 LP  0  0  0  0  0  0  0  0  0  0  0  0  # atno 17395 bound_to 11000

$$$$
