AV-unprocessed.smi:3145|AV-procd|sdf|11984|dock10
  -GOLD-   2272017393D 1   1.00000     0.00000
 Structure written by MMmdl.
 34 34  0  0  0  0  0  0  0  0  3 V2000
  146.0624  134.7145  152.0029 C   0  0  0  0  0  0  0  0  0  0  0  0
  146.6066  133.5916  152.8958 C   0  0  1  0  0  0  0  0  0  0  0  0
  146.6010  132.2425  152.1465 C   0  0  0  0  0  0  0  0  0  0  0  0
  145.6932  132.2329  151.0136 N   0  0  0  0  0  0  0  0  0  0  0  0
  145.9703  131.9388  149.6952 C   0  0  0  0  0  0  0  0  0  0  0  0
  144.8086  132.0890  148.9937 C   0  0  0  0  0  0  0  0  0  0  0  0
  143.8628  132.4776  149.9835 C   0  0  0  0  0  0  0  0  0  0  0  0
  144.3949  132.5596  151.1924 N   0  0  0  0  0  0  0  0  0  0  0  0
  147.9700  133.9423  153.3525 N   0  3  0  0  0  0  0  0  0  0  0  0
  148.0776  134.2886  154.7855 C   0  0  0  0  0  0  0  0  0  0  0  0
  149.5037  134.7341  155.1273 C   0  0  0  0  0  0  0  0  0  0  0  0
  150.3440  133.8870  155.4524 O   0  0  0  0  0  0  0  0  0  0  0  0
  149.6105  136.0857  155.0251 N   0  5  0  0  0  0  0  0  0  0  0  0
  150.8590  136.8246  155.2074 C   0  0  0  0  0  0  0  0  0  0  0  0
  150.6296  138.3357  155.0323 C   0  0  0  0  0  0  0  0  0  0  0  0
  151.8608  139.1149  154.8131 C   0  0  0  0  0  0  0  0  0  0  0  0
  152.8265  139.7319  154.6417 N   0  0  0  0  0  0  0  0  0  0  0  0
  145.0449  134.4981  151.6762 H   0  0  0  0  0  0  0  0  0  0  0  0
  146.6769  134.8485  151.1118 H   0  0  0  0  0  0  0  0  0  0  0  0
  146.0391  135.6646  152.5381 H   0  0  0  0  0  0  0  0  0  0  0  0
  145.9462  133.5186  153.7617 H   0  0  0  0  0  0  0  0  0  0  0  0
  147.6012  132.0182  151.7735 H   0  0  0  0  0  0  0  0  0  0  0  0
  146.3344  131.4283  152.8226 H   0  0  0  0  0  0  0  0  0  0  0  0
  146.9608  131.6573  149.3691 H   0  0  0  0  0  0  0  0  0  0  0  0
  144.6571  131.9455  147.9342 H   0  0  0  0  0  0  0  0  0  0  0  0
  142.8136  132.7023  149.8599 H   0  0  0  0  0  0  0  0  0  0  0  0
  148.5853  133.1631  153.1661 H   0  0  0  0  0  0  0  0  0  0  0  0
  147.3585  135.0783  155.0110 H   0  0  0  0  0  0  0  0  0  0  0  0
  147.8260  133.4285  155.4060 H   0  0  0  0  0  0  0  0  0  0  0  0
  151.2934  136.6462  156.1919 H   0  0  0  0  0  0  0  0  0  0  0  0
  151.6171  136.4980  154.4956 H   0  0  0  0  0  0  0  0  0  0  0  0
  149.9519  138.5323  154.2013 H   0  0  0  0  0  0  0  0  0  0  0  0
  150.1537  138.7378  155.9267 H   0  0  0  0  0  0  0  0  0  0  0  0
  148.2959  134.7396  152.8258 H   0  0  0  0  0  0  0  0  0  0  0  0
  1  2  1  0  0  0  0
  1 18  1  0  0  0  0
  1 19  1  0  0  0  0
  1 20  1  0  0  0  0
  2  3  1  0  0  0  0
  2  9  1  0  0  0  0
  2 21  1  0  0  0  0
  3  4  1  0  0  0  0
  3 22  1  0  0  0  0
  3 23  1  0  0  0  0
  4  8  1  0  0  0  0
  4  5  1  0  0  0  0
  5  6  2  0  0  0  0
  5 24  1  0  0  0  0
  6  7  1  0  0  0  0
  6 25  1  0  0  0  0
  7  8  2  0  0  0  0
  7 26  1  0  0  0  0
  9 10  1  0  0  0  0
  9 27  1  0  0  0  0
  9 34  1  0  0  0  0
 10 11  1  0  0  0  0
 10 28  1  0  0  0  0
 10 29  1  0  0  0  0
 11 12  2  0  0  0  0
 11 13  1  0  0  0  0
 13 14  1  0  0  0  0
 14 15  1  0  0  0  0
 14 30  1  0  0  0  0
 14 31  1  0  0  0  0
 15 16  1  0  0  0  0
 15 32  1  0  0  0  0
 15 33  1  0  0  0  0
 16 17  3  0  0  0  0
M  CHG  1   9   1
M  CHG  1  13  -1
M  END
> <s_m_source_file>
AV-unprocessed.smi

> <i_m_source_file_index>
3145

> <i_lp_mmshare_version>
43012

> <i_f3d_flags>
0

> <s_epik_input>
bjFbY0hdW2NIXVtjSF1uMVtDSDJdW0NAQEhdKFtDSDNdKVtOSF1bQ0gyXUMoPU8pW05IXVtDSDJdW0NIMl1DI04=

> <s_epik_cmdline>
J2VwaWtfcHl0aG9uJywgJy1waCcsICc3LjAnLCAnLXRuJywgJzgnLCAnLW1hJywgJzIwMCcsICctbWV0YWxfYmluZGluZycsICctaW1hZScsICc8aW5maWxlLm1hZT4nLCAnLW9tYWUnLCAnPG91dGZpbGUubWFlPic=

> <r_lp_tautomer_probability>
1

> <r_epik_Ionization_Penalty>
6.20835

> <r_epik_Ionization_Penalty_Charging>
6.20835

> <r_epik_Ionization_Penalty_Neutral>
3.57231e-06

> <r_epik_State_Penalty>
6.38139

> <r_epik_Charging_Adjusted_Penalty>
12.5897

> <i_epik_Tot_Q>
0

> <i_epik_Tot_abs_Q>
2

> <r_epik_Metal_State_Penalty>
2.31725

> <b_epik_Metal_Only>
1

> <s_lp_Force_Field>
OPLS_2005

> <r_lp_Energy>
1.97057

> <b_lp_Chiralities_Consistent>
1

> <s_lp_Variant>
AV-unprocessed.smi:3145-6

> <Gold.Version>
5.8.1

> <Gold.Id.Protein>
6NUR|6NUR_protein|mol2

> <Gold.PLP.Fitness>
43.8994

> <Gold.PLP.PLP>
-31.9121

> <Gold.PLP.part.hbond>
-3.0000

> <Gold.PLP.part.metal>
0.0000

> <Gold.PLP.part.buried>
-3.2786

> <Gold.PLP.part.nonpolar>
-25.7219

> <Gold.PLP.part.repulsive>
0.3850

> <Gold.PLP.ligand.clash>
0.0000

> <Gold.PLP.ligand.torsion>
1.7134

> <Gold.PLP.Chemscore.Hbond>
3.0666

> <Gold.PLP.Chemscore.CHOScore>
2.0000

> <Gold.PLP.Chemscore.Metal>
0.0000

> <Gold.Chemscore.Hbonds>
donor molecule, donor type, donor heavy atom, donor atom, acceptor molecule, acceptor atom, score
      L1  H     9    34       P1  7948  2.00
      P1  H  7989  7998       L1    17  0.10
      P1  H  7997  8010       L1    17  0.80
      L1  C     5    24       P1 10747  1.00
      L1  C     7    26       P1 10186  1.00

> <Gold.PLP.Chemscore.Internal.Correction>
0.2143

> <Gold.Rescore>
     Score         DG    S(hbond)    S(metal)    S(lipo)     H(rot)  DE(clash)    DE(int)     intcor
      8.79     -11.75       1.84        0.00      62.26       2.79       0.02       2.94       ----

> <Gold.Chemscore.Fitness>
8.7920

> <Gold.Chemscore.DG>
-11.7478

> <Gold.Chemscore.ZeroCoef>
-5.4800

> <Gold.Chemscore.Hbond>
1.8378

> <Gold.Chemscore.Metal>
0.0000

> <Gold.Chemscore.Lipo>
62.2626

> <Gold.Chemscore.Internal_Hbond>
0.0000

> <Gold.Chemscore.DEClash>
0.0186

> <Gold.Chemscore.DEInternal>
2.9372

> <Gold.Chemscore.Rot>
2.7949

> <Gold.Chemscore.Internal.Correction>
   9.000000E+99

> <Gold.Chemscore.Hbonds>
donor molecule, donor type, donor heavy atom, donor atom, acceptor molecule, acceptor atom, score
      L1  H     9    34       P1  7948  0.55
      P1  H  7997  8010       L1    17  0.79

> <Gold.Chemscore.Hbond.Weighted>
-6.1381

> <Gold.Chemscore.Metal.Weighted>
-0.0000

> <Gold.Chemscore.Lipo.Weighted>
-7.2847

> <Gold.Chemscore.Internal_Hbond.Weighted>
0.0000

> <Gold.Chemscore.DEClash.Weighted>
0.0186

> <Gold.Chemscore.DEInternal.Weighted>
2.9372

> <Gold.Chemscore.Rot.Weighted>
7.1551

> <Gold.Chemscore.Internal.Correction.Weighted>
   9.000000E+99

> <Gold.Protein.RotatedTorsions>
[ 6907 6896 6895 6894 ] final  175.50 input  -60.11 | X-H torsion
[ 7974 7965 7964 7962 ] final  112.56 input  175.53 | X-H torsion
[ 8008 7997 7996 7995 ] final   99.48 input   59.86 | X-H torsion
[ 10167 10162 10161 10158 ] final  156.81 input  -65.29 | X-H torsion
[ 10718 10713 10712 10709 ] final -112.79 input   66.30 | X-H torsion
[ 10763 10752 10751 10750 ] final -171.04 input  -60.55 | X-H torsion
[ 11005 11000 10999 10996 ] final  -91.37 input  -57.11 | X-H torsion

> <Gold.Protein.ActiveResidues>
 VAL166  LYS551  ARG553  GLY616  TRP617  ASP618  TYR619  PRO620  LYS621  CYS622 
 ASP623  PHE694  ASN695  SER759  ASP760  ASP761  ALA762  ILE779  LEU786  VAL792 
 PHE793  MET794  SER795  GLU796  ALA797  LYS798  CYS799  TRP800  GLU811  SER814 

> <Gold.Protein.RotatedAtoms>
  151.7352  133.3319  159.3350 H   0  0  0  0  0  0  0  0  0  0  0  0  # atno 6907 bound_to 6896
  150.7596  134.6328  159.6204 H   0  0  0  0  0  0  0  0  0  0  0  0  # atno 6908 bound_to 6896
  152.3566  134.6933  160.0272 H   0  0  0  0  0  0  0  0  0  0  0  0  # atno 6909 bound_to 6896
  145.2280  139.2832  143.4183 H   0  0  0  0  0  0  0  0  0  0  0  0  # atno 7974 bound_to 7965
  156.1109  140.3228  155.8071 H   0  0  0  0  0  0  0  0  0  0  0  0  # atno 8008 bound_to 7997
  155.4674  140.0544  157.3001 H   0  0  0  0  0  0  0  0  0  0  0  0  # atno 8009 bound_to 7997
  154.4759  140.2032  155.9893 H   0  0  0  0  0  0  0  0  0  0  0  0  # atno 8010 bound_to 7997
  139.4822  144.4975  151.8218 H   0  0  0  0  0  0  0  0  0  0  0  0  # atno 10167 bound_to 10162
  156.0727  130.5938  150.8555 H   0  0  0  0  0  0  0  0  0  0  0  0  # atno 10718 bound_to 10713
  154.6349  135.2891  155.0173 H   0  0  0  0  0  0  0  0  0  0  0  0  # atno 10763 bound_to 10752
  154.1320  135.6532  153.4928 H   0  0  0  0  0  0  0  0  0  0  0  0  # atno 10764 bound_to 10752
  153.0297  135.5312  154.7192 H   0  0  0  0  0  0  0  0  0  0  0  0  # atno 10765 bound_to 10752
  141.1546  133.7751  156.9870 H   0  0  0  0  0  0  0  0  0  0  0  0  # atno 11005 bound_to 11000
  146.3360  140.2607  142.8602 LP  0  0  0  0  0  0  0  0  0  0  0  0  # atno 17320 bound_to 7965
  144.9703  140.8362  143.5459 LP  0  0  0  0  0  0  0  0  0  0  0  0  # atno 17321 bound_to 7965
  140.4465  144.1915  150.5894 LP  0  0  0  0  0  0  0  0  0  0  0  0  # atno 17342 bound_to 10162
  140.4629  143.2442  151.9195 LP  0  0  0  0  0  0  0  0  0  0  0  0  # atno 17343 bound_to 10162
  157.5806  131.0946  150.9277 LP  0  0  0  0  0  0  0  0  0  0  0  0  # atno 17370 bound_to 10713
  156.9473  130.5407  149.5281 LP  0  0  0  0  0  0  0  0  0  0  0  0  # atno 17371 bound_to 10713
  140.1028  134.9525  157.1948 LP  0  0  0  0  0  0  0  0  0  0  0  0  # atno 17394 bound_to 11000
  140.3296  134.2825  155.7230 LP  0  0  0  0  0  0  0  0  0  0  0  0  # atno 17395 bound_to 11000

$$$$
