AV-unprocessed.smi:2151|AV-procd|sdf|8759|dock10
  -GOLD-   2272011533D 1   1.00000     0.00000
 Structure written by MMmdl.
 39 40  0  0  0  0  0  0  0  0  1 V2000
  149.8010  142.4598  155.2373 C   0  0  0  0  0  0  0  0  0  0  0  0
  150.0303  140.9719  154.9349 C   0  0  1  0  0  0  0  0  0  0  0  0
  150.6355  140.3386  156.1055 N   0  0  0  0  0  0  0  0  0  0  0  0
  151.8871  139.8608  156.1869 C   0  0  0  0  0  0  0  0  0  0  0  0
  152.6868  139.8878  155.2505 O   0  0  0  0  0  0  0  0  0  0  0  0
  152.2769  139.2360  157.5340 C   0  0  0  0  0  0  0  0  0  0  0  0
  152.6611  140.2313  158.5490 N   0  0  0  0  0  0  0  0  0  0  0  0
  152.2322  141.5572  158.3422 C   0  0  0  0  0  0  0  0  0  0  0  0
  152.5253  142.5631  159.1885 C   0  0  0  0  0  0  0  0  0  0  0  0
  151.9961  143.9716  158.9669 C   0  0  0  0  0  0  0  0  0  0  0  0
  152.5648  144.5388  157.9026 F   0  0  0  0  0  0  0  0  0  0  0  0
  150.6798  143.9339  158.7643 F   0  0  0  0  0  0  0  0  0  0  0  0
  152.2299  144.7442  160.0286 F   0  0  0  0  0  0  0  0  0  0  0  0
  153.2923  142.2111  160.3675 C   0  0  0  0  0  0  0  0  0  0  0  0
  153.6978  140.9451  160.5875 C   0  0  0  0  0  0  0  0  0  0  0  0
  153.3867  139.8656  159.6479 C   0  0  0  0  0  0  0  0  0  0  0  0
  153.7552  138.7060  159.8362 O   0  0  0  0  0  0  0  0  0  0  0  0
  148.7210  140.2510  154.5567 C   0  0  2  0  0  0  0  0  0  0  0  0
  148.9076  138.8678  153.9287 C   0  0  0  0  0  0  0  0  0  0  0  0
  147.6173  138.7055  153.1596 C   0  0  0  0  0  0  0  0  0  0  0  0
  147.3919  140.1184  152.6308 C   0  0  0  0  0  0  0  0  0  0  0  0
  148.0031  140.9953  153.5744 O   0  0  0  0  0  0  0  0  0  0  0  0
  149.3740  142.9761  154.3770 H   0  0  0  0  0  0  0  0  0  0  0  0
  150.7387  142.9582  155.4853 H   0  0  0  0  0  0  0  0  0  0  0  0
  149.1192  142.5943  156.0779 H   0  0  0  0  0  0  0  0  0  0  0  0
  150.7077  140.9097  154.0816 H   0  0  0  0  0  0  0  0  0  0  0  0
  150.0520  140.2618  156.9259 H   0  0  0  0  0  0  0  0  0  0  0  0
  151.4515  138.6239  157.9029 H   0  0  0  0  0  0  0  0  0  0  0  0
  153.0939  138.5350  157.3578 H   0  0  0  0  0  0  0  0  0  0  0  0
  151.6377  141.7038  157.4520 H   0  0  0  0  0  0  0  0  0  0  0  0
  153.5486  142.9751  161.0866 H   0  0  0  0  0  0  0  0  0  0  0  0
  154.2678  140.7192  161.4769 H   0  0  0  0  0  0  0  0  0  0  0  0
  148.0779  140.1554  155.4334 H   0  0  0  0  0  0  0  0  0  0  0  0
  149.7549  138.8673  153.2410 H   0  0  0  0  0  0  0  0  0  0  0  0
  149.0655  138.0814  154.6676 H   0  0  0  0  0  0  0  0  0  0  0  0
  147.6781  137.9578  152.3685 H   0  0  0  0  0  0  0  0  0  0  0  0
  146.8109  138.4234  153.8379 H   0  0  0  0  0  0  0  0  0  0  0  0
  147.8871  140.2484  151.6678 H   0  0  0  0  0  0  0  0  0  0  0  0
  146.3341  140.3481  152.5009 H   0  0  0  0  0  0  0  0  0  0  0  0
  1  2  1  0  0  0  0
  1 23  1  0  0  0  0
  1 24  1  0  0  0  0
  1 25  1  0  0  0  0
  2  3  1  0  0  0  0
  2 18  1  0  0  0  0
  2 26  1  0  0  0  0
  3  4  1  0  0  0  0
  3 27  1  0  0  0  0
  4  5  2  0  0  0  0
  4  6  1  0  0  0  0
  6  7  1  0  0  0  0
  6 28  1  0  0  0  0
  6 29  1  0  0  0  0
  7 16  1  0  0  0  0
  7  8  1  0  0  0  0
  8  9  2  0  0  0  0
  8 30  1  0  0  0  0
  9 10  1  0  0  0  0
  9 14  1  0  0  0  0
 10 11  1  0  0  0  0
 10 12  1  0  0  0  0
 10 13  1  0  0  0  0
 14 15  2  0  0  0  0
 14 31  1  0  0  0  0
 15 16  1  0  0  0  0
 15 32  1  0  0  0  0
 16 17  2  0  0  0  0
 18 22  1  0  0  0  0
 18 19  1  0  0  0  0
 18 33  1  0  0  0  0
 19 20  1  0  0  0  0
 19 34  1  0  0  0  0
 19 35  1  0  0  0  0
 20 21  1  0  0  0  0
 20 36  1  0  0  0  0
 20 37  1  0  0  0  0
 21 22  1  0  0  0  0
 21 38  1  0  0  0  0
 21 39  1  0  0  0  0
M  END
> <s_m_source_file>
AV-unprocessed.smi

> <i_m_source_file_index>
2151

> <i_lp_mmshare_version>
43012

> <i_f3d_flags>
0

> <s_epik_input>
TzFbQ0gyXVtDSDJdW0NIMl1bQ0BIXTFbQ0BIXShbQ0gzXSlbTkhdQyg9TylbQ0gyXW4yW2NIXWMoQyhGKShGKUYpW2NIXVtjSF1jMj1P

> <s_epik_cmdline>
J2VwaWtfcHl0aG9uJywgJy1waCcsICc3LjAnLCAnLXRuJywgJzgnLCAnLW1hJywgJzIwMCcsICctbWV0YWxfYmluZGluZycsICctaW1hZScsICc8aW5maWxlLm1hZT4nLCAnLW9tYWUnLCAnPG91dGZpbGUubWFlPic=

> <r_lp_tautomer_probability>
1

> <r_epik_Ionization_Penalty>
4.20109e-08

> <r_epik_Ionization_Penalty_Charging>
1.89977e-08

> <r_epik_Ionization_Penalty_Neutral>
2.30132e-08

> <r_epik_State_Penalty>
-0

> <r_epik_Charging_Adjusted_Penalty>
1.89977e-08

> <i_epik_Tot_Q>
0

> <i_epik_Tot_abs_Q>
0

> <r_epik_Metal_State_Penalty>
-0

> <b_epik_Metal_Only>
0

> <s_lp_Force_Field>
OPLS_2005

> <r_lp_Energy>
30.2794

> <b_lp_Chiralities_Consistent>
1

> <s_lp_Variant>
AV-unprocessed.smi:2151-2

> <Gold.Version>
5.8.1

> <Gold.Id.Protein>
6NUR|6NUR_protein|mol2

> <Gold.PLP.Fitness>
47.3918

> <Gold.PLP.PLP>
-45.1600

> <Gold.PLP.part.hbond>
-2.0000

> <Gold.PLP.part.metal>
0.0000

> <Gold.PLP.part.buried>
2.9226

> <Gold.PLP.part.nonpolar>
-45.0094

> <Gold.PLP.part.repulsive>
0.2342

> <Gold.PLP.ligand.clash>
0.0000

> <Gold.PLP.ligand.torsion>
0.9258

> <Gold.PLP.Chemscore.Hbond>
1.3363

> <Gold.PLP.Chemscore.CHOScore>
0.0000

> <Gold.PLP.Chemscore.Metal>
0.0000

> <Gold.Chemscore.Hbonds>
donor molecule, donor type, donor heavy atom, donor atom, acceptor molecule, acceptor atom, score
      P1  H  7989  7998       L1     5  0.26
      P1  H  7997  8010       L1     5  1.00

> <Gold.PLP.Chemscore.Internal.Correction>
0.0746

> <Gold.Rescore>
     Score         DG    S(hbond)    S(metal)    S(lipo)     H(rot)  DE(clash)    DE(int)     intcor
     11.86     -14.09       0.93        0.00      87.04       1.82       0.39       1.85       ----

> <Gold.Chemscore.Fitness>
11.8563

> <Gold.Chemscore.DG>
-14.0932

> <Gold.Chemscore.ZeroCoef>
-5.4800

> <Gold.Chemscore.Hbond>
0.9268

> <Gold.Chemscore.Metal>
0.0000

> <Gold.Chemscore.Lipo>
87.0446

> <Gold.Chemscore.Internal_Hbond>
0.0000

> <Gold.Chemscore.DEClash>
0.3884

> <Gold.Chemscore.DEInternal>
1.8486

> <Gold.Chemscore.Rot>
1.8228

> <Gold.Chemscore.Internal.Correction>
   9.000000E+99

> <Gold.Chemscore.Hbonds>
donor molecule, donor type, donor heavy atom, donor atom, acceptor molecule, acceptor atom, score
      P1  H  7989  7998       L1     5  0.17
      P1  H  7997  8010       L1     5  0.25

> <Gold.Chemscore.Hbond.Weighted>
-3.0955

> <Gold.Chemscore.Metal.Weighted>
-0.0000

> <Gold.Chemscore.Lipo.Weighted>
-10.1842

> <Gold.Chemscore.Internal_Hbond.Weighted>
0.0000

> <Gold.Chemscore.DEClash.Weighted>
0.3884

> <Gold.Chemscore.DEInternal.Weighted>
1.8486

> <Gold.Chemscore.Rot.Weighted>
4.6665

> <Gold.Chemscore.Internal.Correction.Weighted>
   9.000000E+99

> <Gold.Protein.RotatedTorsions>
[ 6907 6896 6895 6894 ] final  -51.62 input  -60.11 | X-H torsion
[ 7974 7965 7964 7962 ] final   40.92 input  175.53 | X-H torsion
[ 8008 7997 7996 7995 ] final   81.44 input   59.86 | X-H torsion
[ 10167 10162 10161 10158 ] final  122.87 input  -65.29 | X-H torsion
[ 10718 10713 10712 10709 ] final   71.12 input   66.30 | X-H torsion
[ 10763 10752 10751 10750 ] final  -56.29 input  -60.55 | X-H torsion
[ 11005 11000 10999 10996 ] final  -80.82 input  -57.11 | X-H torsion

> <Gold.Protein.ActiveResidues>
 VAL166  LYS551  ARG553  GLY616  TRP617  ASP618  TYR619  PRO620  LYS621  CYS622 
 ASP623  PHE694  ASN695  SER759  ASP760  ASP761  ALA762  ILE779  LEU786  VAL792 
 PHE793  MET794  SER795  GLU796  ALA797  LYS798  CYS799  TRP800  GLU811  SER814 

> <Gold.Protein.RotatedAtoms>
  150.8594  134.7942  159.7070 H   0  0  0  0  0  0  0  0  0  0  0  0  # atno 6907 bound_to 6896
  152.4636  134.5124  159.9768 H   0  0  0  0  0  0  0  0  0  0  0  0  # atno 6908 bound_to 6896
  151.5231  133.3424  159.2940 H   0  0  0  0  0  0  0  0  0  0  0  0  # atno 6909 bound_to 6896
  146.0866  139.5477  142.9503 H   0  0  0  0  0  0  0  0  0  0  0  0  # atno 7974 bound_to 7965
  155.8971  140.3435  155.5999 H   0  0  0  0  0  0  0  0  0  0  0  0  # atno 8008 bound_to 7997
  155.7543  140.0824  157.2205 H   0  0  0  0  0  0  0  0  0  0  0  0  # atno 8009 bound_to 7997
  154.4039  140.1547  156.2747 H   0  0  0  0  0  0  0  0  0  0  0  0  # atno 8010 bound_to 7997
  139.5833  144.6995  151.3474 H   0  0  0  0  0  0  0  0  0  0  0  0  # atno 10167 bound_to 10162
  157.6435  130.9512  150.0746 H   0  0  0  0  0  0  0  0  0  0  0  0  # atno 10718 bound_to 10713
  154.2043  135.6405  153.5096 H   0  0  0  0  0  0  0  0  0  0  0  0  # atno 10763 bound_to 10752
  153.0004  135.5459  154.6282 H   0  0  0  0  0  0  0  0  0  0  0  0  # atno 10764 bound_to 10752
  154.5703  135.2916  155.0807 H   0  0  0  0  0  0  0  0  0  0  0  0  # atno 10765 bound_to 10752
  141.1667  133.7168  156.8330 H   0  0  0  0  0  0  0  0  0  0  0  0  # atno 11005 bound_to 11000
  145.6118  141.0338  143.1962 LP  0  0  0  0  0  0  0  0  0  0  0  0  # atno 17320 bound_to 7965
  144.7330  139.7669  143.7340 LP  0  0  0  0  0  0  0  0  0  0  0  0  # atno 17321 bound_to 7965
  140.7108  143.7395  150.7564 LP  0  0  0  0  0  0  0  0  0  0  0  0  # atno 17342 bound_to 10162
  140.0933  143.4857  152.2466 LP  0  0  0  0  0  0  0  0  0  0  0  0  # atno 17343 bound_to 10162
  156.1740  130.3647  149.9126 LP  0  0  0  0  0  0  0  0  0  0  0  0  # atno 17370 bound_to 10713
  156.7095  130.8964  151.3608 LP  0  0  0  0  0  0  0  0  0  0  0  0  # atno 17371 bound_to 10713
  140.2038  134.8878  157.3198 LP  0  0  0  0  0  0  0  0  0  0  0  0  # atno 17394 bound_to 11000
  140.2159  134.4081  155.7589 LP  0  0  0  0  0  0  0  0  0  0  0  0  # atno 17395 bound_to 11000

$$$$
