AV-unprocessed.smi:798|AV-procd|sdf|3779|dock10
  -GOLD-   22720 1213D 1   1.00000     0.00000
 Structure written by MMmdl.
 33 35  0  0  0  0  0  0  0  0  2 V2000
  151.0924  140.4921  157.0833 O   0  0  0  0  0  0  0  0  0  0  0  0
  150.6809  141.4666  156.4498 C   0  0  0  0  0  0  0  0  0  0  0  0
  150.3220  141.4821  155.1458 N   0  5  0  0  0  0  0  0  0  0  0  0
  149.1354  140.9790  154.7677 C   0  0  0  0  0  0  0  0  0  0  0  0
  148.8361  139.6761  154.8913 N   0  0  0  0  0  0  0  0  0  0  0  0
  147.5557  139.3656  154.4533 N   0  0  0  0  0  0  0  0  0  0  0  0
  146.9162  140.4498  154.0151 C   0  0  0  0  0  0  0  0  0  0  0  0
  147.8189  141.9478  154.0991 S   0  0  0  0  0  0  0  0  0  0  0  0
  150.5588  142.6560  157.0552 N   0  0  0  0  0  0  0  0  0  0  0  0
  150.8860  142.9481  158.4493 C   0  0  2  0  0  0  0  0  0  0  0  0
  150.6814  144.4498  158.7469 C   0  0  1  0  0  0  0  0  0  0  0  0
  150.6454  144.6538  160.2723 C   0  0  0  0  0  0  0  0  0  0  0  0
  152.1189  144.4479  160.6703 C   0  0  0  0  0  0  0  0  0  0  0  0
  152.8011  144.1315  159.3219 C   0  0  2  0  0  0  0  0  0  0  0  0
  152.0342  145.0567  158.3856 C   0  0  0  0  0  0  0  0  0  0  0  0
  152.3895  142.7431  158.7704 C   0  0  1  0  0  0  0  0  0  0  0  0
  152.6786  141.5362  159.6843 C   0  0  0  0  0  0  0  0  0  0  0  0
  154.0518  141.4777  160.0089 O   0  0  0  0  0  0  0  0  0  0  0  0
  145.9057  140.3676  153.6432 H   0  0  0  0  0  0  0  0  0  0  0  0
  150.2160  143.4246  156.4980 H   0  0  0  0  0  0  0  0  0  0  0  0
  150.2453  142.3480  159.0987 H   0  0  0  0  0  0  0  0  0  0  0  0
  149.8250  144.8911  158.2352 H   0  0  0  0  0  0  0  0  0  0  0  0
  150.3188  145.6640  160.5221 H   0  0  0  0  0  0  0  0  0  0  0  0
  149.9754  143.9532  160.7720 H   0  0  0  0  0  0  0  0  0  0  0  0
  152.5253  145.3677  161.0926 H   0  0  0  0  0  0  0  0  0  0  0  0
  152.2511  143.6674  161.4181 H   0  0  0  0  0  0  0  0  0  0  0  0
  153.8796  144.2923  159.3315 H   0  0  0  0  0  0  0  0  0  0  0  0
  152.3005  144.9306  157.3345 H   0  0  0  0  0  0  0  0  0  0  0  0
  152.1202  146.1121  158.6503 H   0  0  0  0  0  0  0  0  0  0  0  0
  152.9371  142.5863  157.8384 H   0  0  0  0  0  0  0  0  0  0  0  0
  152.0879  141.5662  160.5990 H   0  0  0  0  0  0  0  0  0  0  0  0
  152.4100  140.6119  159.1728 H   0  0  0  0  0  0  0  0  0  0  0  0
  154.4979  140.9883  159.3347 H   0  0  0  0  0  0  0  0  0  0  0  0
  1  2  2  0  0  0  0
  2  3  1  0  0  0  0
  2  9  1  0  0  0  0
  3  4  1  0  0  0  0
  4  8  1  0  0  0  0
  4  5  2  0  0  0  0
  5  6  1  0  0  0  0
  6  7  2  0  0  0  0
  7  8  1  0  0  0  0
  7 19  1  0  0  0  0
  9 10  1  0  0  0  0
  9 20  1  0  0  0  0
 10 16  1  0  0  0  0
 10 11  1  0  0  0  0
 10 21  1  0  0  0  0
 11 15  1  0  0  0  0
 11 12  1  0  0  0  0
 11 22  1  0  0  0  0
 12 13  1  0  0  0  0
 12 23  1  0  0  0  0
 12 24  1  0  0  0  0
 13 14  1  0  0  0  0
 13 25  1  0  0  0  0
 13 26  1  0  0  0  0
 14 15  1  0  0  0  0
 14 16  1  0  0  0  0
 14 27  1  0  0  0  0
 15 28  1  0  0  0  0
 15 29  1  0  0  0  0
 16 17  1  0  0  0  0
 16 30  1  0  0  0  0
 17 18  1  0  0  0  0
 17 31  1  0  0  0  0
 17 32  1  0  0  0  0
 18 33  1  0  0  0  0
M  CHG  1   3  -1
M  END
> <s_m_source_file>
AV-unprocessed.smi

> <i_m_source_file_index>
798

> <i_lp_mmshare_version>
43012

> <i_f3d_flags>
0

> <s_epik_input>
W0NIMl0xW0NIMl1bQ0BASF0oW0NIMl0yKVtDQEBIXShbQ0gyXVtPSF0pW0NAQEhdKFtDQEhdMTIpW05IXUMoPU8pW05IXWMzbm5bY0hdczM=

> <s_epik_cmdline>
J2VwaWtfcHl0aG9uJywgJy1waCcsICc3LjAnLCAnLXRuJywgJzgnLCAnLW1hJywgJzIwMCcsICctbWV0YWxfYmluZGluZycsICctaW1hZScsICc8aW5maWxlLm1hZT4nLCAnLW9tYWUnLCAnPG91dGZpbGUubWFlPic=

> <r_lp_tautomer_probability>
1

> <r_epik_Ionization_Penalty>
4.53732

> <r_epik_Ionization_Penalty_Charging>
4.48632

> <r_epik_Ionization_Penalty_Neutral>
0.0510007

> <r_epik_State_Penalty>
4.48602

> <r_epik_Charging_Adjusted_Penalty>
8.97234

> <i_epik_Tot_Q>
-1

> <i_epik_Tot_abs_Q>
1

> <r_epik_Metal_State_Penalty>
0.812492

> <b_epik_Metal_Only>
1

> <s_lp_Force_Field>
OPLS_2005

> <r_lp_Energy>
47.3134

> <b_lp_Chiralities_Consistent>
1

> <s_lp_Variant>
AV-unprocessed.smi:798-11

> <Gold.Version>
5.8.1

> <Gold.Id.Protein>
6NUR|6NUR_protein|mol2

> <Gold.PLP.Fitness>
41.7790

> <Gold.PLP.PLP>
-37.5228

> <Gold.PLP.part.hbond>
-2.0000

> <Gold.PLP.part.metal>
0.0000

> <Gold.PLP.part.buried>
-5.5270

> <Gold.PLP.part.nonpolar>
-30.3930

> <Gold.PLP.part.repulsive>
0.3410

> <Gold.PLP.ligand.clash>
0.0000

> <Gold.PLP.ligand.torsion>
1.3519

> <Gold.PLP.Chemscore.Hbond>
1.3120

> <Gold.PLP.Chemscore.CHOScore>
1.0000

> <Gold.PLP.Chemscore.Metal>
0.0000

> <Gold.Chemscore.Hbonds>
donor molecule, donor type, donor heavy atom, donor atom, acceptor molecule, acceptor atom, score
      L1  H     9    20       P1  8028  1.00
      P1  H  7989  7998       L1     3  0.31
      L1  C     7    19       P1 10175  1.00

> <Gold.PLP.Chemscore.Internal.Correction>
0.0241

> <Gold.Rescore>
     Score         DG    S(hbond)    S(metal)    S(lipo)     H(rot)  DE(clash)    DE(int)     intcor
     14.65     -16.24       1.15        0.00     101.26       1.92       0.26       1.33       ----

> <Gold.Chemscore.Fitness>
14.6493

> <Gold.Chemscore.DG>
-16.2378

> <Gold.Chemscore.ZeroCoef>
-5.4800

> <Gold.Chemscore.Hbond>
1.1460

> <Gold.Chemscore.Metal>
0.0000

> <Gold.Chemscore.Lipo>
101.2578

> <Gold.Chemscore.Internal_Hbond>
0.0000

> <Gold.Chemscore.DEClash>
0.2607

> <Gold.Chemscore.DEInternal>
1.3278

> <Gold.Chemscore.Rot>
1.9207

> <Gold.Chemscore.Internal.Correction>
   9.000000E+99

> <Gold.Chemscore.Hbonds>
donor molecule, donor type, donor heavy atom, donor atom, acceptor molecule, acceptor atom, score
      L1  H     9    20       P1  8028  0.93
      P1  H  7989  7998       L1     3  0.12

> <Gold.Chemscore.Hbond.Weighted>
-3.8275

> <Gold.Chemscore.Metal.Weighted>
-0.0000

> <Gold.Chemscore.Lipo.Weighted>
-11.8472

> <Gold.Chemscore.Internal_Hbond.Weighted>
0.0000

> <Gold.Chemscore.DEClash.Weighted>
0.2607

> <Gold.Chemscore.DEInternal.Weighted>
1.3278

> <Gold.Chemscore.Rot.Weighted>
4.9169

> <Gold.Chemscore.Internal.Correction.Weighted>
   9.000000E+99

> <Gold.Protein.RotatedTorsions>
[ 6907 6896 6895 6894 ] final   70.82 input  -60.11 | X-H torsion
[ 7974 7965 7964 7962 ] final    5.36 input  175.53 | X-H torsion
[ 8008 7997 7996 7995 ] final  -92.47 input   59.86 | X-H torsion
[ 10167 10162 10161 10158 ] final  -33.21 input  -65.29 | X-H torsion
[ 10718 10713 10712 10709 ] final  -12.05 input   66.30 | X-H torsion
[ 10763 10752 10751 10750 ] final   25.68 input  -60.55 | X-H torsion
[ 11005 11000 10999 10996 ] final -138.95 input  -57.11 | X-H torsion

> <Gold.Protein.ActiveResidues>
 VAL166  LYS551  ARG553  GLY616  TRP617  ASP618  TYR619  PRO620  LYS621  CYS622 
 ASP623  PHE694  ASN695  SER759  ASP760  ASP761  ALA762  ILE779  LEU786  VAL792 
 PHE793  MET794  SER795  GLU796  ALA797  LYS798  CYS799  TRP800  GLU811  SER814 

> <Gold.Protein.RotatedAtoms>
  152.4773  134.4811  159.9665 H   0  0  0  0  0  0  0  0  0  0  0  0  # atno 6907 bound_to 6896
  151.4824  133.3537  159.2848 H   0  0  0  0  0  0  0  0  0  0  0  0  # atno 6908 bound_to 6896
  150.8820  134.8239  159.7293 H   0  0  0  0  0  0  0  0  0  0  0  0  # atno 6909 bound_to 6896
  146.2441  140.0395  142.8383 H   0  0  0  0  0  0  0  0  0  0  0  0  # atno 7974 bound_to 7965
  154.7235  140.0508  157.0662 H   0  0  0  0  0  0  0  0  0  0  0  0  # atno 8008 bound_to 7997
  155.0395  140.3167  155.4710 H   0  0  0  0  0  0  0  0  0  0  0  0  # atno 8009 bound_to 7997
  156.2823  140.2135  156.5519 H   0  0  0  0  0  0  0  0  0  0  0  0  # atno 8010 bound_to 7997
  140.7208  143.3637  151.1912 H   0  0  0  0  0  0  0  0  0  0  0  0  # atno 10167 bound_to 10162
  156.6501  130.4952  149.6065 H   0  0  0  0  0  0  0  0  0  0  0  0  # atno 10718 bound_to 10713
  153.0675  135.6577  154.0321 H   0  0  0  0  0  0  0  0  0  0  0  0  # atno 10763 bound_to 10752
  153.9975  135.2940  155.3407 H   0  0  0  0  0  0  0  0  0  0  0  0  # atno 10764 bound_to 10752
  154.7038  135.5233  153.8635 H   0  0  0  0  0  0  0  0  0  0  0  0  # atno 10765 bound_to 10752
  140.8567  134.2219  157.4730 H   0  0  0  0  0  0  0  0  0  0  0  0  # atno 11005 bound_to 11000
  145.1082  140.9388  143.4672 LP  0  0  0  0  0  0  0  0  0  0  0  0  # atno 17320 bound_to 7965
  145.0603  139.3111  143.5884 LP  0  0  0  0  0  0  0  0  0  0  0  0  # atno 17321 bound_to 7965
  139.7195  143.9247  152.2979 LP  0  0  0  0  0  0  0  0  0  0  0  0  # atno 17342 bound_to 10162
  139.8999  144.6918  150.8677 LP  0  0  0  0  0  0  0  0  0  0  0  0  # atno 17343 bound_to 10162
  156.2091  130.6667  151.1250 LP  0  0  0  0  0  0  0  0  0  0  0  0  # atno 17370 bound_to 10713
  157.7143  131.0718  150.6384 LP  0  0  0  0  0  0  0  0  0  0  0  0  # atno 17371 bound_to 10713
  139.8705  134.9709  156.4720 LP  0  0  0  0  0  0  0  0  0  0  0  0  # atno 17394 bound_to 11000
  140.8729  133.7974  155.9384 LP  0  0  0  0  0  0  0  0  0  0  0  0  # atno 17395 bound_to 11000

$$$$
