AV-unprocessed.smi:1823|AV-procd|sdf|7392|dock1
  -GOLD-   22720 9 63D 1   1.00000     0.00000
 Structure written by MMmdl.
 43 44  0  0  0  0  0  0  0  0  1 V2000
  147.3320  134.9068  163.0082 C   0  0  0  0  0  0  0  0  0  0  0  0
  147.3357  135.7894  161.8076 C   0  0  0  0  0  0  0  0  0  0  0  0
  146.7425  136.9765  161.8295 N   0  0  0  0  0  0  0  0  0  0  0  0
  146.9804  137.4802  160.5428 O   0  0  0  0  0  0  0  0  0  0  0  0
  147.6830  136.5200  159.8937 C   0  0  0  0  0  0  0  0  0  0  0  0
  148.1547  136.7875  158.5002 C   0  0  0  0  0  0  0  0  0  0  0  0
  149.6879  136.8585  158.3557 C   0  0  0  0  0  0  0  0  0  0  0  0
  150.1371  138.0949  157.7188 N   0  0  0  0  0  0  0  0  0  0  0  0
  150.9271  138.1674  156.6355 C   0  0  0  0  0  0  0  0  0  0  0  0
  151.3369  137.1760  156.0302 O   0  0  0  0  0  0  0  0  0  0  0  0
  151.3347  139.5755  156.1748 C   0  0  1  0  0  0  0  0  0  0  0  0
  150.1005  140.4001  155.7589 C   0  0  0  0  0  0  0  0  0  0  0  0
  149.9527  141.4208  156.8751 C   0  0  0  0  0  0  0  0  0  0  0  0
  148.9942  142.1875  156.9547 O   0  0  0  0  0  0  0  0  0  0  0  0
  150.9766  141.3421  157.7334 N   0  0  0  0  0  0  0  0  0  0  0  0
  151.1784  142.1515  158.9339 C   0  0  0  0  0  0  0  0  0  0  0  0
  152.5026  142.9478  158.9050 C   0  0  0  0  0  0  0  0  0  0  0  0
  153.1322  143.1373  160.2963 C   0  0  0  0  0  0  0  0  0  0  0  0
  152.2977  144.3065  158.2182 C   0  0  0  0  0  0  0  0  0  0  0  0
  151.9936  140.3971  157.3025 C   0  0  0  0  0  0  0  0  0  0  0  0
  147.9374  135.4451  160.6356 N   0  0  0  0  0  0  0  0  0  0  0  0
  146.3091  134.6528  163.2870 H   0  0  0  0  0  0  0  0  0  0  0  0
  147.8069  135.4120  163.8495 H   0  0  0  0  0  0  0  0  0  0  0  0
  147.8754  133.9823  162.8104 H   0  0  0  0  0  0  0  0  0  0  0  0
  147.7609  136.0086  157.8467 H   0  0  0  0  0  0  0  0  0  0  0  0
  147.7105  137.7242  158.1614 H   0  0  0  0  0  0  0  0  0  0  0  0
  150.1586  136.7389  159.3329 H   0  0  0  0  0  0  0  0  0  0  0  0
  150.0344  136.0207  157.7508 H   0  0  0  0  0  0  0  0  0  0  0  0
  149.8472  138.9605  158.1507 H   0  0  0  0  0  0  0  0  0  0  0  0
  152.0262  139.4883  155.3349 H   0  0  0  0  0  0  0  0  0  0  0  0
  150.2727  140.9169  154.8145 H   0  0  0  0  0  0  0  0  0  0  0  0
  149.1896  139.8077  155.6581 H   0  0  0  0  0  0  0  0  0  0  0  0
  150.3372  142.8396  159.0283 H   0  0  0  0  0  0  0  0  0  0  0  0
  151.1439  141.5158  159.8206 H   0  0  0  0  0  0  0  0  0  0  0  0
  153.2156  142.3865  158.2995 H   0  0  0  0  0  0  0  0  0  0  0  0
  152.4415  143.6318  160.9800 H   0  0  0  0  0  0  0  0  0  0  0  0
  154.0352  143.7455  160.2381 H   0  0  0  0  0  0  0  0  0  0  0  0
  153.4196  142.1843  160.7405 H   0  0  0  0  0  0  0  0  0  0  0  0
  151.6005  144.9318  158.7772 H   0  0  0  0  0  0  0  0  0  0  0  0
  151.9001  144.1826  157.2105 H   0  0  0  0  0  0  0  0  0  0  0  0
  153.2388  144.8509  158.1336 H   0  0  0  0  0  0  0  0  0  0  0  0
  152.3336  139.7825  158.1379 H   0  0  0  0  0  0  0  0  0  0  0  0
  152.8578  140.9459  156.9255 H   0  0  0  0  0  0  0  0  0  0  0  0
  1  2  1  0  0  0  0
  1 22  1  0  0  0  0
  1 23  1  0  0  0  0
  1 24  1  0  0  0  0
  2 21  1  0  0  0  0
  2  3  2  0  0  0  0
  3  4  1  0  0  0  0
  4  5  1  0  0  0  0
  5  6  1  0  0  0  0
  5 21  2  0  0  0  0
  6  7  1  0  0  0  0
  6 25  1  0  0  0  0
  6 26  1  0  0  0  0
  7  8  1  0  0  0  0
  7 27  1  0  0  0  0
  7 28  1  0  0  0  0
  8  9  1  0  0  0  0
  8 29  1  0  0  0  0
  9 10  2  0  0  0  0
  9 11  1  0  0  0  0
 11 20  1  0  0  0  0
 11 12  1  0  0  0  0
 11 30  1  0  0  0  0
 12 13  1  0  0  0  0
 12 31  1  0  0  0  0
 12 32  1  0  0  0  0
 13 14  2  0  0  0  0
 13 15  1  0  0  0  0
 15 16  1  0  0  0  0
 15 20  1  0  0  0  0
 16 17  1  0  0  0  0
 16 33  1  0  0  0  0
 16 34  1  0  0  0  0
 17 18  1  0  0  0  0
 17 19  1  0  0  0  0
 17 35  1  0  0  0  0
 18 36  1  0  0  0  0
 18 37  1  0  0  0  0
 18 38  1  0  0  0  0
 19 39  1  0  0  0  0
 19 40  1  0  0  0  0
 19 41  1  0  0  0  0
 20 42  1  0  0  0  0
 20 43  1  0  0  0  0
M  END
> <s_m_source_file>
AV-unprocessed.smi

> <i_m_source_file_index>
1823

> <i_lp_mmshare_version>
43012

> <i_f3d_flags>
0

> <s_epik_input>
W0NIM11jMW5vYyhuMSlbQ0gyXVtDSDJdW05IXUMoPU8pW0NAQEhdMltDSDJdQyg9TylOKFtDSDJdMilbQ0gyXVtDSF0oW0NIM10pW0NIM10=

> <s_epik_cmdline>
J2VwaWtfcHl0aG9uJywgJy1waCcsICc3LjAnLCAnLXRuJywgJzgnLCAnLW1hJywgJzIwMCcsICctbWV0YWxfYmluZGluZycsICctaW1hZScsICc8aW5maWxlLm1hZT4nLCAnLW9tYWUnLCAnPG91dGZpbGUubWFlPic=

> <r_lp_tautomer_probability>
1

> <r_epik_Ionization_Penalty>
3.64678e-08

> <r_epik_Ionization_Penalty_Charging>
0

> <r_epik_Ionization_Penalty_Neutral>
3.64678e-08

> <r_epik_State_Penalty>
-0

> <r_epik_Charging_Adjusted_Penalty>
0

> <i_epik_Tot_Q>
0

> <i_epik_Tot_abs_Q>
0

> <r_epik_Metal_State_Penalty>
-0

> <b_epik_Metal_Only>
0

> <s_lp_Force_Field>
OPLS_2005

> <r_lp_Energy>
11.154

> <b_lp_Chiralities_Consistent>
1

> <s_lp_Variant>
AV-unprocessed.smi:1823-2

> <Gold.Version>
5.8.1

> <Gold.Id.Protein>
6NUR|6NUR_protein|mol2

> <Gold.PLP.Fitness>
37.3184

> <Gold.PLP.PLP>
-35.8896

> <Gold.PLP.part.hbond>
-2.0035

> <Gold.PLP.part.metal>
0.0000

> <Gold.PLP.part.buried>
-6.2291

> <Gold.PLP.part.nonpolar>
-31.1983

> <Gold.PLP.part.repulsive>
2.1431

> <Gold.PLP.ligand.clash>
0.0000

> <Gold.PLP.ligand.torsion>
0.8255

> <Gold.PLP.Chemscore.Hbond>
0.9500

> <Gold.PLP.Chemscore.CHOScore>
0.0000

> <Gold.PLP.Chemscore.Metal>
0.0000

> <Gold.Chemscore.Hbonds>
donor molecule, donor type, donor heavy atom, donor atom, acceptor molecule, acceptor atom, score
      P1  H  6934  6947       L1     4  0.95

> <Gold.PLP.Chemscore.Internal.Correction>
0.2298

> <Gold.Rescore>
     Score         DG    S(hbond)    S(metal)    S(lipo)     H(rot)  DE(clash)    DE(int)     intcor
     10.63     -11.79       0.99        0.00      78.06       2.40       0.34       0.82       ----

> <Gold.Chemscore.Fitness>
10.6340

> <Gold.Chemscore.DG>
-11.7896

> <Gold.Chemscore.ZeroCoef>
-5.4800

> <Gold.Chemscore.Hbond>
0.9908

> <Gold.Chemscore.Metal>
0.0000

> <Gold.Chemscore.Lipo>
78.0606

> <Gold.Chemscore.Internal_Hbond>
0.0000

> <Gold.Chemscore.DEClash>
0.3379

> <Gold.Chemscore.DEInternal>
0.8177

> <Gold.Chemscore.Rot>
2.3957

> <Gold.Chemscore.Internal.Correction>
   9.000000E+99

> <Gold.Chemscore.Hbonds>
donor molecule, donor type, donor heavy atom, donor atom, acceptor molecule, acceptor atom, score
      P1  H  6934  6947       L1     4  0.21

> <Gold.Chemscore.Hbond.Weighted>
-3.3093

> <Gold.Chemscore.Metal.Weighted>
-0.0000

> <Gold.Chemscore.Lipo.Weighted>
-9.1331

> <Gold.Chemscore.Internal_Hbond.Weighted>
0.0000

> <Gold.Chemscore.DEClash.Weighted>
0.3379

> <Gold.Chemscore.DEInternal.Weighted>
0.8177

> <Gold.Chemscore.Rot.Weighted>
6.1329

> <Gold.Chemscore.Internal.Correction.Weighted>
   9.000000E+99

> <Gold.Protein.RotatedTorsions>
[ 6907 6896 6895 6894 ] final  144.32 input  -60.11 | X-H torsion
[ 7974 7965 7964 7962 ] final  -62.86 input  175.53 | X-H torsion
[ 8008 7997 7996 7995 ] final  105.02 input   59.86 | X-H torsion
[ 10167 10162 10161 10158 ] final -129.48 input  -65.29 | X-H torsion
[ 10718 10713 10712 10709 ] final  -55.19 input   66.30 | X-H torsion
[ 10763 10752 10751 10750 ] final -165.69 input  -60.55 | X-H torsion
[ 11005 11000 10999 10996 ] final  -32.74 input  -57.11 | X-H torsion

> <Gold.Protein.ActiveResidues>
 VAL166  LYS551  ARG553  GLY616  TRP617  ASP618  TYR619  PRO620  LYS621  CYS622 
 ASP623  PHE694  ASN695  SER759  ASP760  ASP761  ALA762  ILE779  LEU786  VAL792 
 PHE793  MET794  SER795  GLU796  ALA797  LYS798  CYS799  TRP800  GLU811  SER814 

> <Gold.Protein.RotatedAtoms>
  152.1952  133.4801  159.5028 H   0  0  0  0  0  0  0  0  0  0  0  0  # atno 6907 bound_to 6896
  150.6959  134.1661  159.4204 H   0  0  0  0  0  0  0  0  0  0  0  0  # atno 6908 bound_to 6896
  151.9577  135.0138  160.0596 H   0  0  0  0  0  0  0  0  0  0  0  0  # atno 6909 bound_to 6896
  145.7862  140.8735  143.0305 H   0  0  0  0  0  0  0  0  0  0  0  0  # atno 7974 bound_to 7965
  156.1623  140.3138  155.8829 H   0  0  0  0  0  0  0  0  0  0  0  0  # atno 8008 bound_to 7997
  155.3757  140.0484  157.3062 H   0  0  0  0  0  0  0  0  0  0  0  0  # atno 8009 bound_to 7997
  154.5158  140.2181  155.9079 H   0  0  0  0  0  0  0  0  0  0  0  0  # atno 8010 bound_to 7997
  139.9393  143.6181  152.2508 H   0  0  0  0  0  0  0  0  0  0  0  0  # atno 10167 bound_to 10162
  156.1389  130.4155  150.0138 H   0  0  0  0  0  0  0  0  0  0  0  0  # atno 10718 bound_to 10713
  154.6907  135.2970  154.9484 H   0  0  0  0  0  0  0  0  0  0  0  0  # atno 10763 bound_to 10752
  154.0448  135.6652  153.4798 H   0  0  0  0  0  0  0  0  0  0  0  0  # atno 10764 bound_to 10752
  153.0610  135.5116  154.7997 H   0  0  0  0  0  0  0  0  0  0  0  0  # atno 10765 bound_to 10752
  140.9577  133.7183  156.1319 H   0  0  0  0  0  0  0  0  0  0  0  0  # atno 11005 bound_to 11000
  144.6789  140.0058  143.7484 LP  0  0  0  0  0  0  0  0  0  0  0  0  # atno 17320 bound_to 7965
  146.0024  139.3102  143.0920 LP  0  0  0  0  0  0  0  0  0  0  0  0  # atno 17321 bound_to 7965
  139.6717  144.7660  151.1770 LP  0  0  0  0  0  0  0  0  0  0  0  0  # atno 17342 bound_to 10162
  140.7615  143.5855  150.8851 LP  0  0  0  0  0  0  0  0  0  0  0  0  # atno 17343 bound_to 10162
  156.8029  130.9297  151.3645 LP  0  0  0  0  0  0  0  0  0  0  0  0  # atno 17370 bound_to 10713
  157.6557  130.8922  149.9724 LP  0  0  0  0  0  0  0  0  0  0  0  0  # atno 17371 bound_to 10713
  140.7512  134.4042  157.5541 LP  0  0  0  0  0  0  0  0  0  0  0  0  # atno 17394 bound_to 11000
  139.8867  134.8901  156.2567 LP  0  0  0  0  0  0  0  0  0  0  0  0  # atno 17395 bound_to 11000

$$$$
