AV-unprocessed.smi:158|AV-procd|sdf|1323|dock2
  -GOLD-   2262019 13D 1   1.00000     0.00000
 Structure written by MMmdl.
 31 33  0  0  0  0  0  0  0  0  1 V2000
  145.1762  138.5660  153.2310 N   0  0  0  0  0  0  0  0  0  0  0  0
  146.3898  138.6261  153.7974 C   0  0  0  0  0  0  0  0  0  0  0  0
  146.9835  137.4697  154.1740 N   0  0  0  0  0  0  0  0  0  0  0  0
  148.1953  137.4868  154.7425 C   0  0  0  0  0  0  0  0  0  0  0  0
  148.8605  135.9586  155.1838 Cl  0  0  0  0  0  0  0  0  0  0  0  0
  148.9506  138.5572  155.0081 N   0  0  0  0  0  0  0  0  0  0  0  0
  148.3565  139.7259  154.6306 C   0  0  0  0  0  0  0  0  0  0  0  0
  147.0796  139.8430  154.0193 C   0  0  0  0  0  0  0  0  0  0  0  0
  146.7936  141.1784  153.7709 N   0  0  0  0  0  0  0  0  0  0  0  0
  147.8473  141.8116  154.2124 C   0  0  0  0  0  0  0  0  0  0  0  0
  148.8360  141.0154  154.7487 N   0  0  0  0  0  0  0  0  0  0  0  0
  150.1442  141.4562  155.3306 C   0  0  2  0  0  0  0  0  0  0  0  0
  151.1296  140.5731  154.8870 O   0  0  0  0  0  0  0  0  0  0  0  0
  151.9295  140.1404  155.9823 C   0  0  2  0  0  0  0  0  0  0  0  0
  152.5051  138.7477  155.6785 C   0  0  0  0  0  0  0  0  0  0  0  0
  153.6551  138.8528  154.8656 O   0  0  0  0  0  0  0  0  0  0  0  0
  150.9828  140.1960  157.1853 C   0  0  1  0  0  0  0  0  0  0  0  0
  151.6888  140.3802  158.3958 O   0  0  0  0  0  0  0  0  0  0  0  0
  150.1358  141.4157  156.8690 C   0  0  2  0  0  0  0  0  0  0  0  0
  148.8987  141.3194  157.3624 F   0  0  0  0  0  0  0  0  0  0  0  0
  150.3029  142.4573  154.9282 H   0  0  0  0  0  0  0  0  0  0  0  0
  152.7334  140.8702  156.0984 H   0  0  0  0  0  0  0  0  0  0  0  0
  150.3645  139.2997  157.2396 H   0  0  0  0  0  0  0  0  0  0  0  0
  150.5891  142.3351  157.2424 H   0  0  0  0  0  0  0  0  0  0  0  0
  144.7152  139.4168  152.9420 H   0  0  0  0  0  0  0  0  0  0  0  0
  144.7253  137.6728  153.0949 H   0  0  0  0  0  0  0  0  0  0  0  0
  147.9317  142.8876  154.1617 H   0  0  0  0  0  0  0  0  0  0  0  0
  152.7520  138.2141  156.5965 H   0  0  0  0  0  0  0  0  0  0  0  0
  151.7667  138.1476  155.1464 H   0  0  0  0  0  0  0  0  0  0  0  0
  153.4654  138.4624  154.0260 H   0  0  0  0  0  0  0  0  0  0  0  0
  151.5910  141.2822  158.6621 H   0  0  0  0  0  0  0  0  0  0  0  0
  1  2  1  0  0  0  0
  1 25  1  0  0  0  0
  1 26  1  0  0  0  0
  2  8  1  0  0  0  0
  2  3  2  0  0  0  0
  3  4  1  0  0  0  0
  4  5  1  0  0  0  0
  4  6  2  0  0  0  0
  6  7  1  0  0  0  0
  7 11  1  0  0  0  0
  7  8  2  0  0  0  0
  8  9  1  0  0  0  0
  9 10  2  0  0  0  0
 10 11  1  0  0  0  0
 10 27  1  0  0  0  0
 11 12  1  0  0  0  0
 12 21  1  0  0  0  0
 12 19  1  0  0  0  0
 12 13  1  0  0  0  0
 13 14  1  0  0  0  0
 14 22  1  0  0  0  0
 14 15  1  0  0  0  0
 14 17  1  0  0  0  0
 15 16  1  0  0  0  0
 15 28  1  0  0  0  0
 15 29  1  0  0  0  0
 16 30  1  0  0  0  0
 17 23  1  0  0  0  0
 17 18  1  0  0  0  0
 17 19  1  0  0  0  0
 18 31  1  0  0  0  0
 19 24  1  0  0  0  0
 19 20  1  0  0  0  0
M  END
> <s_m_source_file>
AV-unprocessed.smi

> <i_m_source_file_index>
158

> <i_lp_mmshare_version>
43012

> <i_f3d_flags>
0

> <s_epik_input>
Q2xjKG4xKW5jKFtOSDJdKWMoYzEyKW5bY0hdbjJbQ0BASF0zT1tDQEhdKFtDSDJdW09IXSlbQ0BASF0oW09IXSlbQ0BASF0zRg==

> <s_epik_cmdline>
J2VwaWtfcHl0aG9uJywgJy1waCcsICc3LjAnLCAnLXRuJywgJzgnLCAnLW1hJywgJzIwMCcsICctbWV0YWxfYmluZGluZycsICctaW1hZScsICc8aW5maWxlLm1hZT4nLCAnLW9tYWUnLCAnPG91dGZpbGUubWFlPic=

> <r_lp_tautomer_probability>
1

> <r_epik_Ionization_Penalty>
6.51543e-05

> <r_epik_Ionization_Penalty_Charging>
0

> <r_epik_Ionization_Penalty_Neutral>
6.51543e-05

> <r_epik_State_Penalty>
-0

> <r_epik_Charging_Adjusted_Penalty>
0

> <i_epik_Tot_Q>
0

> <i_epik_Tot_abs_Q>
0

> <r_epik_Metal_State_Penalty>
-0

> <b_epik_Metal_Only>
0

> <s_epik_Chemistry_Notes>
This compound contains an acetal/aminal-like group ( X-CH(R)-Y where X, Y are N, S, or O) that may be acid/base labile, releasing an aldehyde.

> <s_lp_Force_Field>
OPLS_2005

> <r_lp_Energy>
34.2201

> <b_lp_Chiralities_Consistent>
1

> <s_lp_Variant>
AV-unprocessed.smi:158-1

> <Gold.Version>
5.8.1

> <Gold.Id.Protein>
6NUR|6NUR_protein|mol2

> <Gold.PLP.Fitness>
36.5550

> <Gold.PLP.PLP>
-25.9229

> <Gold.PLP.part.hbond>
-2.7365

> <Gold.PLP.part.metal>
0.0000

> <Gold.PLP.part.buried>
-4.2527

> <Gold.PLP.part.nonpolar>
-19.2879

> <Gold.PLP.part.repulsive>
0.4472

> <Gold.PLP.ligand.clash>
0.0000

> <Gold.PLP.ligand.torsion>
0.6513

> <Gold.PLP.Chemscore.Hbond>
2.9680

> <Gold.PLP.Chemscore.CHOScore>
1.0000

> <Gold.PLP.Chemscore.Metal>
0.0000

> <Gold.Chemscore.Hbonds>
donor molecule, donor type, donor heavy atom, donor atom, acceptor molecule, acceptor atom, score
      L1  H     1    25       P1 10175  1.00
      P1  H  7989  7998       L1    13  0.90
      P1  H  7997  8009       L1    16  0.94
      L1  C    10    27       P1  8028  1.00

> <Gold.PLP.Chemscore.Internal.Correction>
0.0306

> <Gold.Rescore>
     Score         DG    S(hbond)    S(metal)    S(lipo)     H(rot)  DE(clash)    DE(int)     intcor
      8.96     -10.01       2.76        0.00      28.26       3.12       0.03       1.03       ----

> <Gold.Chemscore.Fitness>
8.9588

> <Gold.Chemscore.DG>
-10.0123

> <Gold.Chemscore.ZeroCoef>
-5.4800

> <Gold.Chemscore.Hbond>
2.7609

> <Gold.Chemscore.Metal>
0.0000

> <Gold.Chemscore.Lipo>
28.2565

> <Gold.Chemscore.Internal_Hbond>
0.0000

> <Gold.Chemscore.DEClash>
0.0270

> <Gold.Chemscore.DEInternal>
1.0265

> <Gold.Chemscore.Rot>
3.1230

> <Gold.Chemscore.Internal.Correction>
   9.000000E+99

> <Gold.Chemscore.Hbonds>
donor molecule, donor type, donor heavy atom, donor atom, acceptor molecule, acceptor atom, score
      L1  H     1    25       P1 10175  0.95
      P1  H  7989  7998       L1    13  0.70
      P1  H  7997  8009       L1    16  0.20

> <Gold.Chemscore.Hbond.Weighted>
-9.2213

> <Gold.Chemscore.Metal.Weighted>
-0.0000

> <Gold.Chemscore.Lipo.Weighted>
-3.3060

> <Gold.Chemscore.Internal_Hbond.Weighted>
0.0000

> <Gold.Chemscore.DEClash.Weighted>
0.0270

> <Gold.Chemscore.DEInternal.Weighted>
1.0265

> <Gold.Chemscore.Rot.Weighted>
7.9950

> <Gold.Chemscore.Internal.Correction.Weighted>
   9.000000E+99

> <Gold.Protein.RotatedTorsions>
[ 6907 6896 6895 6894 ] final  -45.82 input  -60.11 | X-H torsion
[ 7974 7965 7964 7962 ] final  -18.73 input  175.53 | X-H torsion
[ 8008 7997 7996 7995 ] final -128.53 input   59.86 | X-H torsion
[ 10167 10162 10161 10158 ] final -162.46 input  -65.29 | X-H torsion
[ 10718 10713 10712 10709 ] final   63.35 input   66.30 | X-H torsion
[ 10763 10752 10751 10750 ] final  109.65 input  -60.55 | X-H torsion
[ 11005 11000 10999 10996 ] final  102.81 input  -57.11 | X-H torsion

> <Gold.Protein.ActiveResidues>
 VAL166  LYS551  ARG553  GLY616  TRP617  ASP618  TYR619  PRO620  LYS621  CYS622 
 ASP623  PHE694  ASN695  SER759  ASP760  ASP761  ALA762  ILE779  LEU786  VAL792 
 PHE793  MET794  SER795  GLU796  ALA797  LYS798  CYS799  TRP800  GLU811  SER814 

> <Gold.Protein.RotatedAtoms>
  150.9179  134.8596  159.7468 H   0  0  0  0  0  0  0  0  0  0  0  0  # atno 6907 bound_to 6896
  152.4978  134.4262  159.9507 H   0  0  0  0  0  0  0  0  0  0  0  0  # atno 6908 bound_to 6896
  151.4298  133.3634  159.2802 H   0  0  0  0  0  0  0  0  0  0  0  0  # atno 6909 bound_to 6896
  146.1877  140.3962  142.8470 H   0  0  0  0  0  0  0  0  0  0  0  0  # atno 7974 bound_to 7965
  155.2642  140.0437  157.3000 H   0  0  0  0  0  0  0  0  0  0  0  0  # atno 8008 bound_to 7997
  154.5692  140.2369  155.8186 H   0  0  0  0  0  0  0  0  0  0  0  0  # atno 8009 bound_to 7997
  156.2109  140.2999  155.9738 H   0  0  0  0  0  0  0  0  0  0  0  0  # atno 8010 bound_to 7997
  139.6391  144.0294  152.2077 H   0  0  0  0  0  0  0  0  0  0  0  0  # atno 10167 bound_to 10162
  157.5965  130.9100  149.9705 H   0  0  0  0  0  0  0  0  0  0  0  0  # atno 10718 bound_to 10713
  153.4378  135.3773  155.2209 H   0  0  0  0  0  0  0  0  0  0  0  0  # atno 10763 bound_to 10752
  154.8753  135.3855  154.4190 H   0  0  0  0  0  0  0  0  0  0  0  0  # atno 10764 bound_to 10752
  153.4731  135.7087  153.6045 H   0  0  0  0  0  0  0  0  0  0  0  0  # atno 10765 bound_to 10752
  139.8780  134.9239  156.5115 H   0  0  0  0  0  0  0  0  0  0  0  0  # atno 11005 bound_to 11000
  144.8428  140.6884  143.6218 LP  0  0  0  0  0  0  0  0  0  0  0  0  # atno 17320 bound_to 7965
  145.3887  139.1621  143.4241 LP  0  0  0  0  0  0  0  0  0  0  0  0  # atno 17321 bound_to 7965
  139.9979  144.6314  150.7756 LP  0  0  0  0  0  0  0  0  0  0  0  0  # atno 17342 bound_to 10162
  140.7481  143.2917  151.3313 LP  0  0  0  0  0  0  0  0  0  0  0  0  # atno 17343 bound_to 10162
  156.1029  130.3654  150.0186 LP  0  0  0  0  0  0  0  0  0  0  0  0  # atno 17370 bound_to 10713
  156.8298  130.9388  151.3637 LP  0  0  0  0  0  0  0  0  0  0  0  0  # atno 17371 bound_to 10713
  140.8517  133.8127  155.9175 LP  0  0  0  0  0  0  0  0  0  0  0  0  # atno 17394 bound_to 11000
  140.9138  134.2228  157.4969 LP  0  0  0  0  0  0  0  0  0  0  0  0  # atno 17395 bound_to 11000

$$$$
