AV-unprocessed.smi:47|AV-procd|sdf|443|dock9
  -GOLD-   2262016313D 1   1.00000     0.00000
 Structure written by MMmdl.
 30 32  0  0  0  0  0  0  0  0  2 V2000
  148.1629  138.9341  152.8515 O   0  0  0  0  0  0  0  0  0  0  0  0
  148.7269  139.0133  154.1434 C   0  0  1  0  0  0  0  0  0  0  0  0
  148.1585  137.9663  155.0921 C   0  0  0  0  0  0  0  0  0  0  0  0
  149.1436  137.8715  156.1599 N   0  0  0  0  0  0  0  0  0  0  0  0
  150.4642  138.1343  155.5759 C   0  0  2  0  0  0  0  0  0  0  0  0
  151.2981  139.0837  156.4173 C   0  0  0  0  0  0  0  0  0  0  0  0
  152.4507  138.7621  157.0398 N   0  0  0  0  0  0  0  0  0  0  0  0
  152.8313  139.8444  157.6918 N   0  5  0  0  0  0  0  0  0  0  0  0
  151.9125  140.7969  157.4715 C   0  0  0  0  0  0  0  0  0  0  0  0
  152.0203  142.1480  158.0599 C   0  0  0  0  0  0  0  0  0  0  0  0
  151.3278  143.2376  157.4825 C   0  0  0  0  0  0  0  0  0  0  0  0
  151.4208  144.5315  158.0314 C   0  0  0  0  0  0  0  0  0  0  0  0
  152.2111  144.7566  159.1729 C   0  0  0  0  0  0  0  0  0  0  0  0
  152.9064  143.6847  159.7613 C   0  0  0  0  0  0  0  0  0  0  0  0
  152.8111  142.3930  159.2077 C   0  0  0  0  0  0  0  0  0  0  0  0
  150.9422  140.3495  156.6867 N   0  0  0  0  0  0  0  0  0  0  0  0
  150.2178  138.6914  154.1617 C   0  0  0  0  0  0  0  0  0  0  0  0
  148.5590  140.0107  154.5526 H   0  0  0  0  0  0  0  0  0  0  0  0
  151.0155  137.1971  155.4911 H   0  0  0  0  0  0  0  0  0  0  0  0
  148.4014  138.1017  152.4731 H   0  0  0  0  0  0  0  0  0  0  0  0
  147.1706  138.2306  155.4695 H   0  0  0  0  0  0  0  0  0  0  0  0
  148.0779  137.0055  154.5816 H   0  0  0  0  0  0  0  0  0  0  0  0
  149.1195  136.9360  156.5518 H   0  0  0  0  0  0  0  0  0  0  0  0
  150.7149  143.0847  156.6063 H   0  0  0  0  0  0  0  0  0  0  0  0
  150.8845  145.3501  157.5752 H   0  0  0  0  0  0  0  0  0  0  0  0
  152.2839  145.7476  159.5959 H   0  0  0  0  0  0  0  0  0  0  0  0
  153.5138  143.8517  160.6384 H   0  0  0  0  0  0  0  0  0  0  0  0
  153.3544  141.5856  159.6763 H   0  0  0  0  0  0  0  0  0  0  0  0
  150.4375  137.9103  153.4323 H   0  0  0  0  0  0  0  0  0  0  0  0
  150.8397  139.5530  153.9152 H   0  0  0  0  0  0  0  0  0  0  0  0
  1  2  1  0  0  0  0
  1 20  1  0  0  0  0
  2 18  1  0  0  0  0
  2 17  1  0  0  0  0
  2  3  1  0  0  0  0
  3  4  1  0  0  0  0
  3 21  1  0  0  0  0
  3 22  1  0  0  0  0
  4  5  1  0  0  0  0
  4 23  1  0  0  0  0
  5 19  1  0  0  0  0
  5  6  1  0  0  0  0
  5 17  1  0  0  0  0
  6 16  1  0  0  0  0
  6  7  2  0  0  0  0
  7  8  1  0  0  0  0
  8  9  1  0  0  0  0
  9 10  1  0  0  0  0
  9 16  2  0  0  0  0
 10 15  1  0  0  0  0
 10 11  2  0  0  0  0
 11 12  1  0  0  0  0
 11 24  1  0  0  0  0
 12 13  2  0  0  0  0
 12 25  1  0  0  0  0
 13 14  1  0  0  0  0
 13 26  1  0  0  0  0
 14 15  2  0  0  0  0
 14 27  1  0  0  0  0
 15 28  1  0  0  0  0
 17 29  1  0  0  0  0
 17 30  1  0  0  0  0
M  CHG  1   8  -1
M  END
> <s_m_source_file>
AV-unprocessed.smi

> <i_m_source_file_index>
47

> <i_lp_mmshare_version>
43012

> <i_f3d_flags>
0

> <s_epik_input>
W09IXVtDQEhdMVtDSDJdW05IXVtDQEBIXShbQ0gyXTEpYzJuW25IXWMobjIpLWMzW2NIXVtjSF1bY0hdW2NIXVtjSF0z

> <s_epik_cmdline>
J2VwaWtfcHl0aG9uJywgJy1waCcsICc3LjAnLCAnLXRuJywgJzgnLCAnLW1hJywgJzIwMCcsICctbWV0YWxfYmluZGluZycsICctaW1hZScsICc8aW5maWxlLm1hZT4nLCAnLW9tYWUnLCAnPG91dGZpbGUubWFlPic=

> <r_epik_Ionization_Penalty>
16.1968

> <r_epik_Ionization_Penalty_Charging>
13.1522

> <r_epik_Ionization_Penalty_Neutral>
3.04463

> <r_epik_State_Penalty>
6.32428

> <r_epik_Charging_Adjusted_Penalty>
19.4764

> <i_epik_Tot_Q>
-1

> <i_epik_Tot_abs_Q>
1

> <r_epik_Metal_State_Penalty>
2.82187

> <b_epik_Metal_Only>
1

> <s_lp_Force_Field>
OPLS_2005

> <r_lp_Energy>
30.4725

> <b_lp_Chiralities_Consistent>
1

> <s_lp_Variant>
AV-unprocessed.smi:47-21

> <Gold.Version>
5.8.1

> <Gold.Id.Protein>
6NUR|6NUR_protein|mol2

> <Gold.PLP.Fitness>
41.9979

> <Gold.PLP.PLP>
-33.4424

> <Gold.PLP.part.hbond>
-2.5890

> <Gold.PLP.part.metal>
0.0000

> <Gold.PLP.part.buried>
-4.5889

> <Gold.PLP.part.nonpolar>
-26.1351

> <Gold.PLP.part.repulsive>
0.0000

> <Gold.PLP.ligand.clash>
0.0000

> <Gold.PLP.ligand.torsion>
0.2274

> <Gold.PLP.Chemscore.Hbond>
3.0000

> <Gold.PLP.Chemscore.CHOScore>
0.0000

> <Gold.PLP.Chemscore.Metal>
0.0000

> <Gold.Chemscore.Hbonds>
donor molecule, donor type, donor heavy atom, donor atom, acceptor molecule, acceptor atom, score
      L1  H     1    20       P1  7948  1.00
      P1  H  7997  8010       L1     8  2.00

> <Gold.PLP.Chemscore.Internal.Correction>
0.0103

> <Gold.Rescore>
     Score         DG    S(hbond)    S(metal)    S(lipo)     H(rot)  DE(clash)    DE(int)     intcor
     17.36     -17.54       1.58        0.00      89.94       1.46       0.07       0.11       ----

> <Gold.Chemscore.Fitness>
17.3575

> <Gold.Chemscore.DG>
-17.5379

> <Gold.Chemscore.ZeroCoef>
-5.4800

> <Gold.Chemscore.Hbond>
1.5800

> <Gold.Chemscore.Metal>
0.0000

> <Gold.Chemscore.Lipo>
89.9437

> <Gold.Chemscore.Internal_Hbond>
0.0000

> <Gold.Chemscore.DEClash>
0.0704

> <Gold.Chemscore.DEInternal>
0.1100

> <Gold.Chemscore.Rot>
1.4621

> <Gold.Chemscore.Internal.Correction>
   9.000000E+99

> <Gold.Chemscore.Hbonds>
donor molecule, donor type, donor heavy atom, donor atom, acceptor molecule, acceptor atom, score
      L1  H     1    20       P1  7948  0.94
      P1  H  7997  8010       L1     8  0.28

> <Gold.Chemscore.Hbond.Weighted>
-5.2773

> <Gold.Chemscore.Metal.Weighted>
-0.0000

> <Gold.Chemscore.Lipo.Weighted>
-10.5234

> <Gold.Chemscore.Internal_Hbond.Weighted>
0.0000

> <Gold.Chemscore.DEClash.Weighted>
0.0704

> <Gold.Chemscore.DEInternal.Weighted>
0.1100

> <Gold.Chemscore.Rot.Weighted>
3.7429

> <Gold.Chemscore.Internal.Correction.Weighted>
   9.000000E+99

> <Gold.Protein.RotatedTorsions>
[ 6907 6896 6895 6894 ] final  -39.91 input  -60.11 | X-H torsion
[ 7974 7965 7964 7962 ] final -127.17 input  175.53 | X-H torsion
[ 8008 7997 7996 7995 ] final   33.18 input   59.86 | X-H torsion
[ 10167 10162 10161 10158 ] final   19.25 input  -65.29 | X-H torsion
[ 10718 10713 10712 10709 ] final  -57.82 input   66.30 | X-H torsion
[ 10763 10752 10751 10750 ] final -123.76 input  -60.55 | X-H torsion
[ 11005 11000 10999 10996 ] final  -19.86 input  -57.11 | X-H torsion

> <Gold.Protein.ActiveResidues>
 VAL166  LYS551  ARG553  GLY616  TRP617  ASP618  TYR619  PRO620  LYS621  CYS622 
 ASP623  PHE694  ASN695  SER759  ASP760  ASP761  ALA762  ILE779  LEU786  VAL792 
 PHE793  MET794  SER795  GLU796  ALA797  LYS798  CYS799  TRP800  GLU811  SER814 

> <Gold.Protein.RotatedAtoms>
  150.9847  134.9195  159.7864 H   0  0  0  0  0  0  0  0  0  0  0  0  # atno 6907 bound_to 6896
  152.5233  134.3363  159.9211 H   0  0  0  0  0  0  0  0  0  0  0  0  # atno 6908 bound_to 6896
  151.3369  133.3937  159.2702 H   0  0  0  0  0  0  0  0  0  0  0  0  # atno 6909 bound_to 6896
  144.9798  140.7629  143.4619 H   0  0  0  0  0  0  0  0  0  0  0  0  # atno 7974 bound_to 7965
  155.1344  140.3260  155.4466 H   0  0  0  0  0  0  0  0  0  0  0  0  # atno 8008 bound_to 7997
  156.2624  140.2004  156.6411 H   0  0  0  0  0  0  0  0  0  0  0  0  # atno 8009 bound_to 7997
  154.6588  140.0549  157.0026 H   0  0  0  0  0  0  0  0  0  0  0  0  # atno 8010 bound_to 7997
  140.5593  143.9367  150.6631 H   0  0  0  0  0  0  0  0  0  0  0  0  # atno 10167 bound_to 10162
  156.1181  130.4168  150.0493 H   0  0  0  0  0  0  0  0  0  0  0  0  # atno 10718 bound_to 10713
  154.8713  135.4087  154.2996 H   0  0  0  0  0  0  0  0  0  0  0  0  # atno 10763 bound_to 10752
  153.3858  135.7013  153.6537 H   0  0  0  0  0  0  0  0  0  0  0  0  # atno 10764 bound_to 10752
  153.5340  135.3661  155.2660 H   0  0  0  0  0  0  0  0  0  0  0  0  # atno 10765 bound_to 10752
  140.8408  133.7928  155.9858 H   0  0  0  0  0  0  0  0  0  0  0  0  # atno 11005 bound_to 11000
  145.2437  139.2061  143.4979 LP  0  0  0  0  0  0  0  0  0  0  0  0  # atno 17320 bound_to 7965
  146.3405  140.2337  142.8594 LP  0  0  0  0  0  0  0  0  0  0  0  0  # atno 17321 bound_to 7965
  140.2814  143.3387  152.1148 LP  0  0  0  0  0  0  0  0  0  0  0  0  # atno 17342 bound_to 10162
  139.5062  144.6810  151.6009 LP  0  0  0  0  0  0  0  0  0  0  0  0  # atno 17343 bound_to 10162
  156.8438  130.9435  151.3630 LP  0  0  0  0  0  0  0  0  0  0  0  0  # atno 17370 bound_to 10713
  157.6365  130.8771  149.9368 LP  0  0  0  0  0  0  0  0  0  0  0  0  # atno 17371 bound_to 10713
  140.8897  134.2510  157.5101 LP  0  0  0  0  0  0  0  0  0  0  0  0  # atno 17394 bound_to 11000
  139.8703  134.9655  156.4533 LP  0  0  0  0  0  0  0  0  0  0  0  0  # atno 17395 bound_to 11000

$$$$
