AV-unprocessed.smi:415|AV-procd|sdf|2523|dock5
  -GOLD-   2262022473D 1   1.00000     0.00000
 Structure written by MMmdl.
 53 54  0  0  0  0  0  0  0  0  1 V2000
  145.6152  143.3677  155.0695 C   0  0  0  0  0  0  0  0  0  0  0  0
  146.3397  142.3245  155.6960 O   0  0  0  0  0  0  0  0  0  0  0  0
  147.5755  142.0603  155.0530 C   0  0  0  0  0  0  0  0  0  0  0  0
  147.3775  140.9673  153.9897 C   0  0  0  0  0  0  0  0  0  0  0  0
  147.8531  139.6638  154.4146 N   0  0  0  0  0  0  0  0  0  0  0  0
  147.0093  138.5992  154.7213 C   0  0  0  0  0  0  0  0  0  0  0  0
  145.6384  138.7673  154.6478 N   0  0  0  0  0  0  0  0  0  0  0  0
  147.5004  137.3997  155.1043 C   0  0  0  0  0  0  0  0  0  0  0  0
  148.9311  137.1557  155.2245 C   0  0  0  0  0  0  0  0  0  0  0  0
  149.3973  136.0639  155.5511 O   0  0  0  0  0  0  0  0  0  0  0  0
  149.7677  138.2581  154.9362 N   0  0  0  0  0  0  0  0  0  0  0  0
  151.2348  138.0881  155.0238 C   0  0  0  0  0  0  0  0  0  0  0  0
  151.8860  139.0463  156.0316 C   0  0  0  0  0  0  0  0  0  0  0  0
  152.8832  139.7007  155.7242 O   0  0  0  0  0  0  0  0  0  0  0  0
  151.3096  139.1084  157.2415 N   0  0  0  0  0  0  0  0  0  0  0  0
  151.7489  139.9580  158.3471 C   0  0  1  0  0  0  0  0  0  0  0  0
  153.1237  139.4719  158.8475 C   0  0  0  0  0  0  0  0  0  0  0  0
  153.6482  140.3552  159.9827 C   0  0  0  0  0  0  0  0  0  0  0  0
  153.7249  141.8185  159.5351 C   0  0  0  0  0  0  0  0  0  0  0  0
  152.3588  142.3429  159.0495 C   0  0  1  0  0  0  0  0  0  0  0  0
  152.4906  143.8241  158.6496 C   0  0  0  0  0  0  0  0  0  0  0  0
  151.7881  141.4485  157.9116 C   0  0  2  0  0  0  0  0  0  0  0  0
  150.3962  141.9260  157.4424 C   0  0  0  0  0  0  0  0  0  0  0  0
  149.2583  139.5141  154.5349 C   0  0  0  0  0  0  0  0  0  0  0  0
  150.0274  140.4495  154.2946 O   0  0  0  0  0  0  0  0  0  0  0  0
  144.6725  143.5249  155.5933 H   0  0  0  0  0  0  0  0  0  0  0  0
  145.3874  143.1229  154.0313 H   0  0  0  0  0  0  0  0  0  0  0  0
  146.1738  144.3042  155.0942 H   0  0  0  0  0  0  0  0  0  0  0  0
  147.9364  142.9713  154.5735 H   0  0  0  0  0  0  0  0  0  0  0  0
  148.3295  141.7597  155.7821 H   0  0  0  0  0  0  0  0  0  0  0  0
  146.3282  140.8634  153.7164 H   0  0  0  0  0  0  0  0  0  0  0  0
  147.8875  141.2136  153.0567 H   0  0  0  0  0  0  0  0  0  0  0  0
  145.2264  139.6483  154.3755 H   0  0  0  0  0  0  0  0  0  0  0  0
  145.0078  137.9802  154.7036 H   0  0  0  0  0  0  0  0  0  0  0  0
  146.8195  136.5915  155.3313 H   0  0  0  0  0  0  0  0  0  0  0  0
  151.4814  137.0580  155.2882 H   0  0  0  0  0  0  0  0  0  0  0  0
  151.7191  138.2347  154.0576 H   0  0  0  0  0  0  0  0  0  0  0  0
  150.4975  138.5318  157.4075 H   0  0  0  0  0  0  0  0  0  0  0  0
  151.0321  139.8679  159.1658 H   0  0  0  0  0  0  0  0  0  0  0  0
  153.0571  138.4400  159.1947 H   0  0  0  0  0  0  0  0  0  0  0  0
  153.8403  139.4741  158.0248 H   0  0  0  0  0  0  0  0  0  0  0  0
  152.9952  140.2672  160.8520 H   0  0  0  0  0  0  0  0  0  0  0  0
  154.6334  140.0101  160.2973 H   0  0  0  0  0  0  0  0  0  0  0  0
  154.0859  142.4281  160.3642 H   0  0  0  0  0  0  0  0  0  0  0  0
  154.4632  141.9164  158.7377 H   0  0  0  0  0  0  0  0  0  0  0  0
  151.6697  142.2936  159.8941 H   0  0  0  0  0  0  0  0  0  0  0  0
  153.0955  143.9401  157.7498 H   0  0  0  0  0  0  0  0  0  0  0  0
  152.9651  144.4020  159.4431 H   0  0  0  0  0  0  0  0  0  0  0  0
  151.5207  144.2850  158.4663 H   0  0  0  0  0  0  0  0  0  0  0  0
  152.4645  141.5268  157.0587 H   0  0  0  0  0  0  0  0  0  0  0  0
  149.6779  141.9126  158.2625 H   0  0  0  0  0  0  0  0  0  0  0  0
  149.9976  141.2981  156.6458 H   0  0  0  0  0  0  0  0  0  0  0  0
  150.4278  142.9379  157.0410 H   0  0  0  0  0  0  0  0  0  0  0  0
  1  2  1  0  0  0  0
  1 26  1  0  0  0  0
  1 27  1  0  0  0  0
  1 28  1  0  0  0  0
  2  3  1  0  0  0  0
  3  4  1  0  0  0  0
  3 29  1  0  0  0  0
  3 30  1  0  0  0  0
  4  5  1  0  0  0  0
  4 31  1  0  0  0  0
  4 32  1  0  0  0  0
  5 24  1  0  0  0  0
  5  6  1  0  0  0  0
  6  7  1  0  0  0  0
  6  8  2  0  0  0  0
  7 33  1  0  0  0  0
  7 34  1  0  0  0  0
  8  9  1  0  0  0  0
  8 35  1  0  0  0  0
  9 10  2  0  0  0  0
  9 11  1  0  0  0  0
 11 12  1  0  0  0  0
 11 24  1  0  0  0  0
 12 13  1  0  0  0  0
 12 36  1  0  0  0  0
 12 37  1  0  0  0  0
 13 14  2  0  0  0  0
 13 15  1  0  0  0  0
 15 16  1  0  0  0  0
 15 38  1  0  0  0  0
 16 22  1  0  0  0  0
 16 17  1  0  0  0  0
 16 39  1  0  0  0  0
 17 18  1  0  0  0  0
 17 40  1  0  0  0  0
 17 41  1  0  0  0  0
 18 19  1  0  0  0  0
 18 42  1  0  0  0  0
 18 43  1  0  0  0  0
 19 20  1  0  0  0  0
 19 44  1  0  0  0  0
 19 45  1  0  0  0  0
 20 21  1  0  0  0  0
 20 22  1  0  0  0  0
 20 46  1  0  0  0  0
 21 47  1  0  0  0  0
 21 48  1  0  0  0  0
 21 49  1  0  0  0  0
 22 23  1  0  0  0  0
 22 50  1  0  0  0  0
 23 51  1  0  0  0  0
 23 52  1  0  0  0  0
 23 53  1  0  0  0  0
 24 25  2  0  0  0  0
M  END
> <s_m_source_file>
AV-unprocessed.smi

> <i_m_source_file_index>
415

> <i_lp_mmshare_version>
43012

> <i_f3d_flags>
0

> <s_epik_input>
W0NIM11PW0NIMl1bQ0gyXW4xYyhbTkgyXSlbY0hdYyg9TyluKGMxPU8pW0NIMl1DKD1PKVtOSF1bQ0BASF0yW0NIMl1bQ0gyXVtDSDJdW0NAQEhdKFtDSDNdKVtDQEhdMltDSDNd

> <s_epik_cmdline>
J2VwaWtfcHl0aG9uJywgJy1waCcsICc3LjAnLCAnLXRuJywgJzgnLCAnLW1hJywgJzIwMCcsICctbWV0YWxfYmluZGluZycsICctaW1hZScsICc8aW5maWxlLm1hZT4nLCAnLW9tYWUnLCAnPG91dGZpbGUubWFlPic=

> <r_lp_tautomer_probability>
1

> <r_epik_Ionization_Penalty>
8.6647e-06

> <r_epik_Ionization_Penalty_Charging>
1.81162e-08

> <r_epik_Ionization_Penalty_Neutral>
8.64658e-06

> <r_epik_State_Penalty>
-0

> <r_epik_Charging_Adjusted_Penalty>
1.81162e-08

> <i_epik_Tot_Q>
0

> <i_epik_Tot_abs_Q>
0

> <r_epik_Metal_State_Penalty>
-0

> <b_epik_Metal_Only>
0

> <s_lp_Force_Field>
OPLS_2005

> <r_lp_Energy>
22.0049

> <b_lp_Chiralities_Consistent>
1

> <s_lp_Variant>
AV-unprocessed.smi:415-6

> <Gold.Version>
5.8.1

> <Gold.Id.Protein>
6NUR|6NUR_protein|mol2

> <Gold.PLP.Fitness>
48.3950

> <Gold.PLP.PLP>
-43.9088

> <Gold.PLP.part.hbond>
-1.9026

> <Gold.PLP.part.metal>
0.0000

> <Gold.PLP.part.buried>
-5.7572

> <Gold.PLP.part.nonpolar>
-37.1588

> <Gold.PLP.part.repulsive>
1.1235

> <Gold.PLP.ligand.clash>
0.0000

> <Gold.PLP.ligand.torsion>
0.7582

> <Gold.PLP.Chemscore.Hbond>
1.9673

> <Gold.PLP.Chemscore.CHOScore>
0.0000

> <Gold.PLP.Chemscore.Metal>
0.0000

> <Gold.Chemscore.Hbonds>
donor molecule, donor type, donor heavy atom, donor atom, acceptor molecule, acceptor atom, score
      P1  H  7989  7998       L1    25  0.85
      P1  H  7997  8008       L1    14  1.00

> <Gold.PLP.Chemscore.Internal.Correction>
0.1009

> <Gold.Rescore>
     Score         DG    S(hbond)    S(metal)    S(lipo)     H(rot)  DE(clash)    DE(int)     intcor
     14.31     -17.37       1.96        0.00      95.32       2.26       0.01       3.05       ----

> <Gold.Chemscore.Fitness>
14.3107

> <Gold.Chemscore.DG>
-17.3657

> <Gold.Chemscore.ZeroCoef>
-5.4800

> <Gold.Chemscore.Hbond>
1.9553

> <Gold.Chemscore.Metal>
0.0000

> <Gold.Chemscore.Lipo>
95.3188

> <Gold.Chemscore.Internal_Hbond>
0.0000

> <Gold.Chemscore.DEClash>
0.0059

> <Gold.Chemscore.DEInternal>
3.0492

> <Gold.Chemscore.Rot>
2.2645

> <Gold.Chemscore.Internal.Correction>
   9.000000E+99

> <Gold.Chemscore.Hbonds>
donor molecule, donor type, donor heavy atom, donor atom, acceptor molecule, acceptor atom, score
      P1  H  7989  7998       L1    25  0.83
      P1  H  7997  8008       L1    14  0.99

> <Gold.Chemscore.Hbond.Weighted>
-6.5306

> <Gold.Chemscore.Metal.Weighted>
-0.0000

> <Gold.Chemscore.Lipo.Weighted>
-11.1523

> <Gold.Chemscore.Internal_Hbond.Weighted>
0.0000

> <Gold.Chemscore.DEClash.Weighted>
0.0059

> <Gold.Chemscore.DEInternal.Weighted>
3.0492

> <Gold.Chemscore.Rot.Weighted>
5.7972

> <Gold.Chemscore.Internal.Correction.Weighted>
   9.000000E+99

> <Gold.Protein.RotatedTorsions>
[ 6907 6896 6895 6894 ] final  156.31 input  -60.11 | X-H torsion
[ 7974 7965 7964 7962 ] final  149.68 input  175.53 | X-H torsion
[ 8008 7997 7996 7995 ] final  -23.96 input   59.86 | X-H torsion
[ 10167 10162 10161 10158 ] final  130.62 input  -65.29 | X-H torsion
[ 10718 10713 10712 10709 ] final  -85.33 input   66.30 | X-H torsion
[ 10763 10752 10751 10750 ] final -122.75 input  -60.55 | X-H torsion
[ 11005 11000 10999 10996 ] final   48.22 input  -57.11 | X-H torsion

> <Gold.Protein.ActiveResidues>
 VAL166  LYS551  ARG553  GLY616  TRP617  ASP618  TYR619  PRO620  LYS621  CYS622 
 ASP623  PHE694  ASN695  SER759  ASP760  ASP761  ALA762  ILE779  LEU786  VAL792 
 PHE793  MET794  SER795  GLU796  ALA797  LYS798  CYS799  TRP800  GLU811  SER814 

> <Gold.Protein.RotatedAtoms>
  152.0316  133.3939  159.4299 H   0  0  0  0  0  0  0  0  0  0  0  0  # atno 6907 bound_to 6896
  150.6882  134.3515  159.4920 H   0  0  0  0  0  0  0  0  0  0  0  0  # atno 6908 bound_to 6896
  152.1302  134.9140  160.0610 H   0  0  0  0  0  0  0  0  0  0  0  0  # atno 6909 bound_to 6896
  144.8420  139.6312  143.6012 H   0  0  0  0  0  0  0  0  0  0  0  0  # atno 7974 bound_to 7965
  154.4555  140.1966  156.0391 H   0  0  0  0  0  0  0  0  0  0  0  0  # atno 8008 bound_to 7997
  156.0738  140.3281  155.7580 H   0  0  0  0  0  0  0  0  0  0  0  0  # atno 8009 bound_to 7997
  155.5221  140.0570  157.2895 H   0  0  0  0  0  0  0  0  0  0  0  0  # atno 8010 bound_to 7997
  139.5421  144.6740  151.4590 H   0  0  0  0  0  0  0  0  0  0  0  0  # atno 10167 bound_to 10162
  155.9998  130.4727  150.4546 H   0  0  0  0  0  0  0  0  0  0  0  0  # atno 10718 bound_to 10713
  154.8695  135.4122  154.2831 H   0  0  0  0  0  0  0  0  0  0  0  0  # atno 10763 bound_to 10752
  153.3720  135.7008  153.6636 H   0  0  0  0  0  0  0  0  0  0  0  0  # atno 10764 bound_to 10752
  153.5493  135.3632  155.2724 H   0  0  0  0  0  0  0  0  0  0  0  0  # atno 10765 bound_to 10752
  140.1210  134.4830  155.8598 H   0  0  0  0  0  0  0  0  0  0  0  0  # atno 11005 bound_to 11000
  146.2711  139.6637  142.9295 LP  0  0  0  0  0  0  0  0  0  0  0  0  # atno 17320 bound_to 7965
  145.4675  141.0435  143.2717 LP  0  0  0  0  0  0  0  0  0  0  0  0  # atno 17321 bound_to 7965
  140.6655  143.8406  150.6937 LP  0  0  0  0  0  0  0  0  0  0  0  0  # atno 17342 bound_to 10162
  140.1814  143.4111  152.1930 LP  0  0  0  0  0  0  0  0  0  0  0  0  # atno 17343 bound_to 10162
  157.2576  131.0560  151.2340 LP  0  0  0  0  0  0  0  0  0  0  0  0  # atno 17370 bound_to 10713
  157.3467  130.7061  149.6415 LP  0  0  0  0  0  0  0  0  0  0  0  0  # atno 17371 bound_to 10713
  141.2151  133.6760  156.6888 LP  0  0  0  0  0  0  0  0  0  0  0  0  # atno 17394 bound_to 11000
  140.2966  134.8198  157.4062 LP  0  0  0  0  0  0  0  0  0  0  0  0  # atno 17395 bound_to 11000

$$$$
