AV-unprocessed.smi:1914|AV-procd|sdf|7759|dock3
  -GOLD-   22720 9503D 1   1.00000     0.00000
 Structure written by MMmdl.
 44 45  0  0  0  0  0  0  0  0  2 V2000
  143.5581  135.5499  153.6038 C   0  0  0  0  0  0  0  0  0  0  0  0
  144.7226  135.7823  152.6308 C   0  0  1  0  0  0  0  0  0  0  0  0
  144.3705  135.3092  151.2105 C   0  0  0  0  0  0  0  0  0  0  0  0
  145.5377  135.5818  150.2537 C   0  0  0  0  0  0  0  0  0  0  0  0
  145.9461  137.0628  150.2917 C   0  0  0  0  0  0  0  0  0  0  0  0
  146.2871  137.4887  151.6737 N   0  3  1  0  0  0  0  0  0  0  0  0
  146.8156  138.8756  151.7188 C   0  0  0  0  0  0  0  0  0  0  0  0
  146.7127  139.4951  153.1219 C   0  0  0  0  0  0  0  0  0  0  0  0
  147.8829  140.3133  153.4079 N   0  0  0  0  0  0  0  0  0  0  0  0
  148.1982  140.7791  154.6250 C   0  0  0  0  0  0  0  0  0  0  0  0
  147.5302  140.5355  155.6306 O   0  0  0  0  0  0  0  0  0  0  0  0
  149.4721  141.6319  154.7130 C   0  0  0  0  0  0  0  0  0  0  0  0
  150.3130  141.3029  155.8764 N   0  0  0  0  0  0  0  0  0  0  0  0
  150.0872  142.0326  157.0608 C   0  0  0  0  0  0  0  0  0  0  0  0
  150.7981  141.8105  158.1776 C   0  0  0  0  0  0  0  0  0  0  0  0
  151.8195  140.7905  158.1457 C   0  0  0  0  0  0  0  0  0  0  0  0
  152.0451  140.0883  157.0176 C   0  0  0  0  0  0  0  0  0  0  0  0
  151.2712  140.3284  155.7939 C   0  0  0  0  0  0  0  0  0  0  0  0
  151.4714  139.6929  154.7581 O   0  0  0  0  0  0  0  0  0  0  0  0
  145.1525  137.2632  152.6099 C   0  0  0  0  0  0  0  0  0  0  0  0
  142.6734  136.1139  153.3060 H   0  0  0  0  0  0  0  0  0  0  0  0
  143.8236  135.8576  154.6155 H   0  0  0  0  0  0  0  0  0  0  0  0
  143.2826  134.4955  153.6424 H   0  0  0  0  0  0  0  0  0  0  0  0
  145.5685  135.1908  152.9846 H   0  0  0  0  0  0  0  0  0  0  0  0
  144.1341  134.2446  151.2131 H   0  0  0  0  0  0  0  0  0  0  0  0
  143.4778  135.8263  150.8550 H   0  0  0  0  0  0  0  0  0  0  0  0
  146.3904  134.9588  150.5271 H   0  0  0  0  0  0  0  0  0  0  0  0
  145.2603  135.2978  149.2380 H   0  0  0  0  0  0  0  0  0  0  0  0
  146.8051  137.2108  149.6360 H   0  0  0  0  0  0  0  0  0  0  0  0
  145.1394  137.6876  149.9045 H   0  0  0  0  0  0  0  0  0  0  0  0
  147.8686  138.8687  151.4329 H   0  0  0  0  0  0  0  0  0  0  0  0
  146.3006  139.4923  150.9802 H   0  0  0  0  0  0  0  0  0  0  0  0
  145.8252  140.1219  153.2110 H   0  0  0  0  0  0  0  0  0  0  0  0
  146.6285  138.7069  153.8720 H   0  0  0  0  0  0  0  0  0  0  0  0
  148.4853  140.5520  152.6333 H   0  0  0  0  0  0  0  0  0  0  0  0
  150.0303  141.5021  153.7849 H   0  0  0  0  0  0  0  0  0  0  0  0
  149.2028  142.6898  154.7385 H   0  0  0  0  0  0  0  0  0  0  0  0
  149.3103  142.7811  157.0013 H   0  0  0  0  0  0  0  0  0  0  0  0
  150.6131  142.3816  159.0756 H   0  0  0  0  0  0  0  0  0  0  0  0
  152.4061  140.5907  159.0303 H   0  0  0  0  0  0  0  0  0  0  0  0
  152.8141  139.3296  157.0120 H   0  0  0  0  0  0  0  0  0  0  0  0
  144.3118  137.8957  152.3198 H   0  0  0  0  0  0  0  0  0  0  0  0
  145.4351  137.5622  153.6187 H   0  0  0  0  0  0  0  0  0  0  0  0
  147.0407  136.8863  151.9730 H   0  0  0  0  0  0  0  0  0  0  0  0
  1  2  1  0  0  0  0
  1 21  1  0  0  0  0
  1 22  1  0  0  0  0
  1 23  1  0  0  0  0
  2 20  1  0  0  0  0
  2  3  1  0  0  0  0
  2 24  1  0  0  0  0
  3  4  1  0  0  0  0
  3 25  1  0  0  0  0
  3 26  1  0  0  0  0
  4  5  1  0  0  0  0
  4 27  1  0  0  0  0
  4 28  1  0  0  0  0
  5  6  1  0  0  0  0
  5 29  1  0  0  0  0
  5 30  1  0  0  0  0
  6  7  1  0  0  0  0
  6 20  1  0  0  0  0
  6 44  1  0  0  0  0
  7  8  1  0  0  0  0
  7 31  1  0  0  0  0
  7 32  1  0  0  0  0
  8  9  1  0  0  0  0
  8 33  1  0  0  0  0
  8 34  1  0  0  0  0
  9 10  1  0  0  0  0
  9 35  1  0  0  0  0
 10 11  2  0  0  0  0
 10 12  1  0  0  0  0
 12 13  1  0  0  0  0
 12 36  1  0  0  0  0
 12 37  1  0  0  0  0
 13 18  1  0  0  0  0
 13 14  1  0  0  0  0
 14 15  2  0  0  0  0
 14 38  1  0  0  0  0
 15 16  1  0  0  0  0
 15 39  1  0  0  0  0
 16 17  2  0  0  0  0
 16 40  1  0  0  0  0
 17 18  1  0  0  0  0
 17 41  1  0  0  0  0
 18 19  2  0  0  0  0
 20 42  1  0  0  0  0
 20 43  1  0  0  0  0
M  CHG  1   6   1
M  END
> <s_m_source_file>
AV-unprocessed.smi

> <i_m_source_file_index>
1914

> <i_lp_mmshare_version>
43012

> <i_f3d_flags>
0

> <s_epik_input>
W0NIM11bQ0BASF0xW0NIMl1bQ0gyXVtDSDJdTihbQ0gyXTEpW0NIMl1bQ0gyXVtOSF1DKD1PKVtDSDJdbjJbY0hdW2NIXVtjSF1bY0hdYzI9Tw==

> <s_epik_cmdline>
J2VwaWtfcHl0aG9uJywgJy1waCcsICc3LjAnLCAnLXRuJywgJzgnLCAnLW1hJywgJzIwMCcsICctbWV0YWxfYmluZGluZycsICctaW1hZScsICc8aW5maWxlLm1hZT4nLCAnLW9tYWUnLCAnPG91dGZpbGUubWFlPic=

> <r_lp_tautomer_probability>
1

> <r_epik_Ionization_Penalty>
0.00192477

> <r_epik_Ionization_Penalty_Charging>
0.00192469

> <r_epik_Ionization_Penalty_Neutral>
8.16761e-08

> <r_epik_State_Penalty>
0.00131115

> <r_epik_Charging_Adjusted_Penalty>
0.00323584

> <i_epik_Tot_Q>
1

> <i_epik_Tot_abs_Q>
1

> <r_epik_Metal_State_Penalty>
-0

> <b_epik_Metal_Only>
0

> <s_lp_Force_Field>
OPLS_2005

> <r_lp_Energy>
25.5857

> <b_lp_Chiralities_Consistent>
1

> <s_lp_Variant>
AV-unprocessed.smi:1914-4

> <Gold.Version>
5.8.1

> <Gold.Id.Protein>
6NUR|6NUR_protein|mol2

> <Gold.PLP.Fitness>
48.3688

> <Gold.PLP.PLP>
-35.7528

> <Gold.PLP.part.hbond>
-3.4067

> <Gold.PLP.part.metal>
0.0000

> <Gold.PLP.part.buried>
5.3981

> <Gold.PLP.part.nonpolar>
-36.7257

> <Gold.PLP.part.repulsive>
0.2581

> <Gold.PLP.ligand.clash>
0.0000

> <Gold.PLP.ligand.torsion>
1.1848

> <Gold.PLP.Chemscore.Hbond>
3.9825

> <Gold.PLP.Chemscore.CHOScore>
1.0000

> <Gold.PLP.Chemscore.Metal>
0.0000

> <Gold.Chemscore.Hbonds>
donor molecule, donor type, donor heavy atom, donor atom, acceptor molecule, acceptor atom, score
      L1  H     6    44       P1  7948  2.00
      L1  H     9    35       P1  7957  1.00
      P1  H  7989  7998       L1    19  1.00
      L1  C    14    38       P1  8028  1.00

> <Gold.PLP.Chemscore.Internal.Correction>
0.0380

> <Gold.Rescore>
     Score         DG    S(hbond)    S(metal)    S(lipo)     H(rot)  DE(clash)    DE(int)     intcor
     17.02     -18.64       2.69        0.00      76.35       1.86       0.48       1.14       ----

> <Gold.Chemscore.Fitness>
17.0233

> <Gold.Chemscore.DG>
-18.6428

> <Gold.Chemscore.ZeroCoef>
-5.4800

> <Gold.Chemscore.Hbond>
2.6910

> <Gold.Chemscore.Metal>
0.0000

> <Gold.Chemscore.Lipo>
76.3513

> <Gold.Chemscore.Internal_Hbond>
0.0000

> <Gold.Chemscore.DEClash>
0.4829

> <Gold.Chemscore.DEInternal>
1.1366

> <Gold.Chemscore.Rot>
1.8586

> <Gold.Chemscore.Internal.Correction>
   9.000000E+99

> <Gold.Chemscore.Hbonds>
donor molecule, donor type, donor heavy atom, donor atom, acceptor molecule, acceptor atom, score
      L1  H     6    44       P1  7948  0.92
      L1  H     9    35       P1  7957  0.95
      P1  H  7989  7998       L1    19  0.55

> <Gold.Chemscore.Hbond.Weighted>
-8.9878

> <Gold.Chemscore.Metal.Weighted>
-0.0000

> <Gold.Chemscore.Lipo.Weighted>
-8.9331

> <Gold.Chemscore.Internal_Hbond.Weighted>
0.0000

> <Gold.Chemscore.DEClash.Weighted>
0.4829

> <Gold.Chemscore.DEInternal.Weighted>
1.1366

> <Gold.Chemscore.Rot.Weighted>
4.7581

> <Gold.Chemscore.Internal.Correction.Weighted>
   9.000000E+99

> <Gold.Protein.RotatedTorsions>
[ 6907 6896 6895 6894 ] final   46.38 input  -60.11 | X-H torsion
[ 7974 7965 7964 7962 ] final   58.83 input  175.53 | X-H torsion
[ 8008 7997 7996 7995 ] final   65.10 input   59.86 | X-H torsion
[ 10167 10162 10161 10158 ] final   92.85 input  -65.29 | X-H torsion
[ 10718 10713 10712 10709 ] final -146.42 input   66.30 | X-H torsion
[ 10763 10752 10751 10750 ] final  -87.32 input  -60.55 | X-H torsion
[ 11005 11000 10999 10996 ] final   47.04 input  -57.11 | X-H torsion

> <Gold.Protein.ActiveResidues>
 VAL166  LYS551  ARG553  GLY616  TRP617  ASP618  TYR619  PRO620  LYS621  CYS622 
 ASP623  PHE694  ASN695  SER759  ASP760  ASP761  ALA762  ILE779  LEU786  VAL792 
 PHE793  MET794  SER795  GLU796  ALA797  LYS798  CYS799  TRP800  GLU811  SER814 

> <Gold.Protein.RotatedAtoms>
  152.2557  134.8086  160.0438 H   0  0  0  0  0  0  0  0  0  0  0  0  # atno 6907 bound_to 6896
  151.8751  133.3478  159.3756 H   0  0  0  0  0  0  0  0  0  0  0  0  # atno 6908 bound_to 6896
  150.7099  134.5001  159.5601 H   0  0  0  0  0  0  0  0  0  0  0  0  # atno 6909 bound_to 6896
  145.9139  139.3675  143.0519 H   0  0  0  0  0  0  0  0  0  0  0  0  # atno 7974 bound_to 7965
  155.6564  140.3497  155.4767 H   0  0  0  0  0  0  0  0  0  0  0  0  # atno 8008 bound_to 7997
  155.9805  140.1173  157.0754 H   0  0  0  0  0  0  0  0  0  0  0  0  # atno 8009 bound_to 7997
  154.4190  140.1139  156.5414 H   0  0  0  0  0  0  0  0  0  0  0  0  # atno 8010 bound_to 7997
  139.8237  144.6719  150.9487 H   0  0  0  0  0  0  0  0  0  0  0  0  # atno 10167 bound_to 10162
  156.3947  130.7903  151.2109 H   0  0  0  0  0  0  0  0  0  0  0  0  # atno 10718 bound_to 10713
  154.6323  135.5417  153.7695 H   0  0  0  0  0  0  0  0  0  0  0  0  # atno 10763 bound_to 10752
  153.0291  135.6439  154.1283 H   0  0  0  0  0  0  0  0  0  0  0  0  # atno 10764 bound_to 10752
  154.1212  135.2920  155.3188 H   0  0  0  0  0  0  0  0  0  0  0  0  # atno 10765 bound_to 10752
  140.1315  134.4700  155.8518 H   0  0  0  0  0  0  0  0  0  0  0  0  # atno 11005 bound_to 11000
  145.8637  140.9461  143.0687 LP  0  0  0  0  0  0  0  0  0  0  0  0  # atno 17320 bound_to 7965
  144.6746  140.0563  143.7477 LP  0  0  0  0  0  0  0  0  0  0  0  0  # atno 17321 bound_to 7965
  140.7811  143.4067  151.1059 LP  0  0  0  0  0  0  0  0  0  0  0  0  # atno 17342 bound_to 10162
  139.7726  143.8472  152.3123 LP  0  0  0  0  0  0  0  0  0  0  0  0  # atno 17343 bound_to 10162
  157.7501  131.0305  150.4139 LP  0  0  0  0  0  0  0  0  0  0  0  0  # atno 17370 bound_to 10713
  156.4407  130.3991  149.6699 LP  0  0  0  0  0  0  0  0  0  0  0  0  # atno 17371 bound_to 10713
  141.2171  133.6797  156.7077 LP  0  0  0  0  0  0  0  0  0  0  0  0  # atno 17394 bound_to 11000
  140.2837  134.8296  157.3955 LP  0  0  0  0  0  0  0  0  0  0  0  0  # atno 17395 bound_to 11000

$$$$
