AV-unprocessed.smi:189|AV-procd|sdf|1490|dock2
  -GOLD-   2262019313D 1   1.00000     0.00000
 Structure written by MMmdl.
 53 57  0  0  0  0  0  0  0  0  1 V2000
  152.6610  138.6190  154.3043 C   0  0  0  0  0  0  0  0  0  0  0  0
  151.3017  138.8207  154.9949 C   0  0  1  0  0  0  0  0  0  0  0  0
  151.3475  138.4620  156.4874 C   0  0  0  0  0  0  0  0  0  0  0  0
  151.7213  139.7758  157.1884 C   0  0  2  0  0  0  0  0  0  0  0  0
  150.9279  140.0554  158.4772 C   0  0  0  0  0  0  0  0  0  0  0  0
  151.2580  141.4405  159.0726 C   0  0  0  0  0  0  0  0  0  0  0  0
  151.4712  142.5407  158.0084 C   0  0  0  0  0  0  0  0  0  0  0  0
  150.8606  142.1652  156.6506 C   0  0  0  0  0  0  0  0  0  0  0  0
  151.5192  140.8674  156.1146 C   0  0  2  0  0  0  0  0  0  0  0  0
  150.8889  140.2220  154.9579 N   0  0  0  0  0  0  0  0  0  0  0  0
  149.5732  140.4682  154.7372 C   0  0  0  0  0  0  0  0  0  0  0  0
  149.1423  141.7176  154.4172 N   0  0  0  0  0  0  0  0  0  0  0  0
  147.8467  141.9380  154.1750 C   0  0  0  0  0  0  0  0  0  0  0  0
  146.8337  141.0689  154.1959 N   0  0  0  0  0  0  0  0  0  0  0  0
  147.2634  139.8149  154.5178 C   0  0  0  0  0  0  0  0  0  0  0  0
  148.6044  139.4318  154.7985 C   0  0  0  0  0  0  0  0  0  0  0  0
  148.6651  138.0721  155.0758 N   0  0  0  0  0  0  0  0  0  0  0  0
  147.4276  137.6728  154.9654 C   0  0  0  0  0  0  0  0  0  0  0  0
  146.5183  138.6554  154.6417 N   0  0  0  0  0  0  0  0  0  0  0  0
  145.0844  138.4917  154.4617 C   0  0  0  0  0  0  0  0  0  0  0  0
  144.7141  137.5920  153.2597 C   0  0  2  0  0  0  0  0  0  0  0  0
  145.2870  138.1322  152.0816 O   0  0  0  0  0  0  0  0  0  0  0  0
  143.2118  137.4338  153.0372 C   0  0  0  0  0  0  0  0  0  0  0  0
  143.0964  136.0206  152.4833 C   0  0  0  0  0  0  0  0  0  0  0  0
  144.0524  135.3111  153.2521 O   0  0  0  0  0  0  0  0  0  0  0  0
  145.2004  136.1373  153.4169 C   0  0  0  0  0  0  0  0  0  0  0  0
  152.9563  137.5699  154.3273 H   0  0  0  0  0  0  0  0  0  0  0  0
  153.4534  139.1947  154.7835 H   0  0  0  0  0  0  0  0  0  0  0  0
  152.6142  138.9239  153.2584 H   0  0  0  0  0  0  0  0  0  0  0  0
  150.5750  138.1856  154.4856 H   0  0  0  0  0  0  0  0  0  0  0  0
  150.3604  138.1300  156.8113 H   0  0  0  0  0  0  0  0  0  0  0  0
  152.0451  137.6539  156.7101 H   0  0  0  0  0  0  0  0  0  0  0  0
  152.7823  139.7468  157.4406 H   0  0  0  0  0  0  0  0  0  0  0  0
  149.8609  140.0118  158.2533 H   0  0  0  0  0  0  0  0  0  0  0  0
  151.1140  139.2765  159.2171 H   0  0  0  0  0  0  0  0  0  0  0  0
  150.4510  141.7309  159.7463 H   0  0  0  0  0  0  0  0  0  0  0  0
  152.1532  141.3712  159.6914 H   0  0  0  0  0  0  0  0  0  0  0  0
  151.0589  143.4859  158.3627 H   0  0  0  0  0  0  0  0  0  0  0  0
  152.5406  142.7092  157.8750 H   0  0  0  0  0  0  0  0  0  0  0  0
  149.7857  142.0446  156.7897 H   0  0  0  0  0  0  0  0  0  0  0  0
  150.9940  142.9774  155.9355 H   0  0  0  0  0  0  0  0  0  0  0  0
  152.5127  141.1567  155.7690 H   0  0  0  0  0  0  0  0  0  0  0  0
  147.5849  142.9559  153.9271 H   0  0  0  0  0  0  0  0  0  0  0  0
  147.1421  136.6428  155.1222 H   0  0  0  0  0  0  0  0  0  0  0  0
  144.6639  138.0853  155.3827 H   0  0  0  0  0  0  0  0  0  0  0  0
  144.6452  139.4823  154.3373 H   0  0  0  0  0  0  0  0  0  0  0  0
  144.8610  138.9534  151.8894 H   0  0  0  0  0  0  0  0  0  0  0  0
  142.6820  137.4781  153.9895 H   0  0  0  0  0  0  0  0  0  0  0  0
  142.7796  138.1908  152.3813 H   0  0  0  0  0  0  0  0  0  0  0  0
  142.0963  135.6022  152.5968 H   0  0  0  0  0  0  0  0  0  0  0  0
  143.3708  135.9866  151.4279 H   0  0  0  0  0  0  0  0  0  0  0  0
  145.9509  135.8721  152.6706 H   0  0  0  0  0  0  0  0  0  0  0  0
  145.6377  135.9484  154.3977 H   0  0  0  0  0  0  0  0  0  0  0  0
  1  2  1  0  0  0  0
  1 27  1  0  0  0  0
  1 28  1  0  0  0  0
  1 29  1  0  0  0  0
  2 10  1  0  0  0  0
  2  3  1  0  0  0  0
  2 30  1  0  0  0  0
  3  4  1  0  0  0  0
  3 31  1  0  0  0  0
  3 32  1  0  0  0  0
  4  9  1  0  0  0  0
  4  5  1  0  0  0  0
  4 33  1  0  0  0  0
  5  6  1  0  0  0  0
  5 34  1  0  0  0  0
  5 35  1  0  0  0  0
  6  7  1  0  0  0  0
  6 36  1  0  0  0  0
  6 37  1  0  0  0  0
  7  8  1  0  0  0  0
  7 38  1  0  0  0  0
  7 39  1  0  0  0  0
  8  9  1  0  0  0  0
  8 40  1  0  0  0  0
  8 41  1  0  0  0  0
  9 10  1  0  0  0  0
  9 42  1  0  0  0  0
 10 11  1  0  0  0  0
 11 16  1  0  0  0  0
 11 12  2  0  0  0  0
 12 13  1  0  0  0  0
 13 14  2  0  0  0  0
 13 43  1  0  0  0  0
 14 15  1  0  0  0  0
 15 19  1  0  0  0  0
 15 16  2  0  0  0  0
 16 17  1  0  0  0  0
 17 18  2  0  0  0  0
 18 19  1  0  0  0  0
 18 44  1  0  0  0  0
 19 20  1  0  0  0  0
 20 21  1  0  0  0  0
 20 45  1  0  0  0  0
 20 46  1  0  0  0  0
 21 26  1  0  0  0  0
 21 22  1  0  0  0  0
 21 23  1  0  0  0  0
 22 47  1  0  0  0  0
 23 24  1  0  0  0  0
 23 48  1  0  0  0  0
 23 49  1  0  0  0  0
 24 25  1  0  0  0  0
 24 50  1  0  0  0  0
 24 51  1  0  0  0  0
 25 26  1  0  0  0  0
 26 52  1  0  0  0  0
 26 53  1  0  0  0  0
M  END
> <s_m_source_file>
AV-unprocessed.smi

> <i_m_source_file_index>
189

> <i_lp_mmshare_version>
43012

> <i_f3d_flags>
0

> <s_epik_input>
W0NIMl0xW0NIMl1bQ0gyXVtDSDJdW0NASF0oW0NASF0xMilOKFtDQEhdKFtDSDNdKVtDSDJdMiljKG5bY0hdbjMpYyhjMzQpbltjSF1uNFtDSDJdW0NAQF01KFtPSF0pW0NIMl1bQ0gyXU9bQ0gyXTU=

> <s_epik_cmdline>
J2VwaWtfcHl0aG9uJywgJy1waCcsICc3LjAnLCAnLXRuJywgJzgnLCAnLW1hJywgJzIwMCcsICctbWV0YWxfYmluZGluZycsICctaW1hZScsICc8aW5maWxlLm1hZT4nLCAnLW9tYWUnLCAnPG91dGZpbGUubWFlPic=

> <r_lp_tautomer_probability>
1

> <r_epik_Ionization_Penalty>
0.00594261

> <r_epik_Ionization_Penalty_Charging>
0

> <r_epik_Ionization_Penalty_Neutral>
0.00594261

> <r_epik_State_Penalty>
0.00429776

> <r_epik_Charging_Adjusted_Penalty>
0.00429776

> <i_epik_Tot_Q>
0

> <i_epik_Tot_abs_Q>
0

> <r_epik_Metal_State_Penalty>
-0

> <b_epik_Metal_Only>
0

> <s_lp_Force_Field>
OPLS_2005

> <r_lp_Energy>
66.7565

> <b_lp_Chiralities_Consistent>
1

> <s_lp_Variant>
AV-unprocessed.smi:189-16

> <Gold.Version>
5.8.1

> <Gold.Id.Protein>
6NUR|6NUR_protein|mol2

> <Gold.PLP.Fitness>
42.3150

> <Gold.PLP.PLP>
-35.9816

> <Gold.PLP.part.hbond>
-4.3558

> <Gold.PLP.part.metal>
0.0000

> <Gold.PLP.part.buried>
-5.9208

> <Gold.PLP.part.nonpolar>
-25.6902

> <Gold.PLP.part.repulsive>
0.5161

> <Gold.PLP.ligand.clash>
0.2892

> <Gold.PLP.ligand.torsion>
0.1949

> <Gold.PLP.Chemscore.Hbond>
2.1922

> <Gold.PLP.Chemscore.CHOScore>
0.1166

> <Gold.PLP.Chemscore.Metal>
0.0000

> <Gold.Chemscore.Hbonds>
donor molecule, donor type, donor heavy atom, donor atom, acceptor molecule, acceptor atom, score
      L1  H    22    47       P1 10175  1.00
      P1  H  7989  7998       L1    10  1.00
      P1  H  8011  8017       L1    12  0.12
      L1  C    13    43       P1  8028  0.29

> <Gold.PLP.Chemscore.Internal.Correction>
0.0862

> <Gold.Rescore>
     Score         DG    S(hbond)    S(metal)    S(lipo)     H(rot)  DE(clash)    DE(int)     intcor
      7.96     -12.99       1.11        0.00      76.79       2.03       0.18       4.85       ----

> <Gold.Chemscore.Fitness>
7.9583

> <Gold.Chemscore.DG>
-12.9866

> <Gold.Chemscore.ZeroCoef>
-5.4800

> <Gold.Chemscore.Hbond>
1.1131

> <Gold.Chemscore.Metal>
0.0000

> <Gold.Chemscore.Lipo>
76.7935

> <Gold.Chemscore.Internal_Hbond>
0.0000

> <Gold.Chemscore.DEClash>
0.1781

> <Gold.Chemscore.DEInternal>
4.8501

> <Gold.Chemscore.Rot>
2.0297

> <Gold.Chemscore.Internal.Correction>
   9.000000E+99

> <Gold.Chemscore.Hbonds>
donor molecule, donor type, donor heavy atom, donor atom, acceptor molecule, acceptor atom, score
      L1  H    22    47       P1 10175  0.93
      P1  H  7989  7998       L1    10  0.11
      P1  H  8011  8017       L1    12  0.01

> <Gold.Chemscore.Hbond.Weighted>
-3.7177

> <Gold.Chemscore.Metal.Weighted>
-0.0000

> <Gold.Chemscore.Lipo.Weighted>
-8.9848

> <Gold.Chemscore.Internal_Hbond.Weighted>
0.0000

> <Gold.Chemscore.DEClash.Weighted>
0.1781

> <Gold.Chemscore.DEInternal.Weighted>
4.8501

> <Gold.Chemscore.Rot.Weighted>
5.1960

> <Gold.Chemscore.Internal.Correction.Weighted>
   9.000000E+99

> <Gold.Protein.RotatedTorsions>
[ 6907 6896 6895 6894 ] final  160.38 input  -60.11 | X-H torsion
[ 7974 7965 7964 7962 ] final  158.27 input  175.53 | X-H torsion
[ 8008 7997 7996 7995 ] final -173.19 input   59.86 | X-H torsion
[ 10167 10162 10161 10158 ] final  107.94 input  -65.29 | X-H torsion
[ 10718 10713 10712 10709 ] final  -78.45 input   66.30 | X-H torsion
[ 10763 10752 10751 10750 ] final  134.65 input  -60.55 | X-H torsion
[ 11005 11000 10999 10996 ] final   49.37 input  -57.11 | X-H torsion

> <Gold.Protein.ActiveResidues>
 VAL166  LYS551  ARG553  GLY616  TRP617  ASP618  TYR619  PRO620  LYS621  CYS622 
 ASP623  PHE694  ASN695  SER759  ASP760  ASP761  ALA762  ILE779  LEU786  VAL792 
 PHE793  MET794  SER795  GLU796  ALA797  LYS798  CYS799  TRP800  GLU811  SER814 

> <Gold.Protein.RotatedAtoms>
  151.9715  133.3727  159.4072 H   0  0  0  0  0  0  0  0  0  0  0  0  # atno 6907 bound_to 6896
  150.6948  134.4135  159.5181 H   0  0  0  0  0  0  0  0  0  0  0  0  # atno 6908 bound_to 6896
  152.1839  134.8730  160.0574 H   0  0  0  0  0  0  0  0  0  0  0  0  # atno 6909 bound_to 6896
  144.7855  139.7456  143.6242 H   0  0  0  0  0  0  0  0  0  0  0  0  # atno 7974 bound_to 7965
  155.9542  140.1132  157.0951 H   0  0  0  0  0  0  0  0  0  0  0  0  # atno 8008 bound_to 7997
  154.4117  140.1194  156.5160 H   0  0  0  0  0  0  0  0  0  0  0  0  # atno 8009 bound_to 7997
  155.6803  140.3473  155.4855 H   0  0  0  0  0  0  0  0  0  0  0  0  # atno 8010 bound_to 7997
  139.6886  144.7110  151.1388 H   0  0  0  0  0  0  0  0  0  0  0  0  # atno 10167 bound_to 10162
  156.0117  130.4518  150.3498 H   0  0  0  0  0  0  0  0  0  0  0  0  # atno 10718 bound_to 10713
  153.8270  135.3108  155.3415 H   0  0  0  0  0  0  0  0  0  0  0  0  # atno 10763 bound_to 10752
  154.7989  135.4739  154.0230 H   0  0  0  0  0  0  0  0  0  0  0  0  # atno 10764 bound_to 10752
  153.1658  135.6869  153.8768 H   0  0  0  0  0  0  0  0  0  0  0  0  # atno 10765 bound_to 10752
  140.1109  134.4956  155.8679 H   0  0  0  0  0  0  0  0  0  0  0  0  # atno 11005 bound_to 11000
  146.2085  139.5425  142.9697 LP  0  0  0  0  0  0  0  0  0  0  0  0  # atno 17320 bound_to 7965
  145.5933  141.0366  143.2058 LP  0  0  0  0  0  0  0  0  0  0  0  0  # atno 17321 bound_to 7965
  140.7675  143.5592  150.9117 LP  0  0  0  0  0  0  0  0  0  0  0  0  # atno 17342 bound_to 10162
  139.9268  143.6540  152.3085 LP  0  0  0  0  0  0  0  0  0  0  0  0  # atno 17343 bound_to 10162
  157.1591  131.0340  151.2849 LP  0  0  0  0  0  0  0  0  0  0  0  0  # atno 17370 bound_to 10713
  157.4327  130.7499  149.7003 LP  0  0  0  0  0  0  0  0  0  0  0  0  # atno 17371 bound_to 10713
  141.2130  133.6727  156.6703 LP  0  0  0  0  0  0  0  0  0  0  0  0  # atno 17394 bound_to 11000
  140.3092  134.8100  157.4162 LP  0  0  0  0  0  0  0  0  0  0  0  0  # atno 17395 bound_to 11000

$$$$
