AV-unprocessed.smi:433|AV-procd|sdf|2551|dock4
  -GOLD-   2262022513D 1   1.00000     0.00000
 Structure written by MMmdl.
 36 37  0  0  0  0  0  0  0  0  1 V2000
  148.6945  140.9217  154.1143 C   0  0  0  0  0  0  0  0  0  0  0  0
  149.6541  139.9301  154.5064 N   0  0  0  0  0  0  0  0  0  0  0  0
  149.5591  138.6098  154.1128 C   0  0  0  0  0  0  0  0  0  0  0  0
  150.4500  137.6672  154.4905 C   0  0  0  0  0  0  0  0  0  0  0  0
  151.5815  138.0048  155.3473 C   0  0  0  0  0  0  0  0  0  0  0  0
  152.4012  137.1722  155.7366 O   0  0  0  0  0  0  0  0  0  0  0  0
  151.6594  139.3705  155.7157 N   0  0  0  0  0  0  0  0  0  0  0  0
  152.7478  139.7767  156.5872 C   0  0  0  0  0  0  0  0  0  0  0  0
  152.5448  139.3281  158.0525 C   0  0  1  0  0  0  0  0  0  0  0  0
  153.8018  138.9965  158.6065 O   0  0  0  0  0  0  0  0  0  0  0  0
  151.9397  140.4392  158.9230 C   0  0  0  0  0  0  0  0  0  0  0  0
  152.1661  141.6858  158.2791 O   0  0  0  0  0  0  0  0  0  0  0  0
  152.2034  142.8260  159.0510 C   0  0  0  0  0  0  0  0  0  0  0  0
  152.1141  144.0586  158.3720 C   0  0  0  0  0  0  0  0  0  0  0  0
  152.1419  145.2754  159.0802 C   0  0  0  0  0  0  0  0  0  0  0  0
  152.2591  145.2703  160.4822 C   0  0  0  0  0  0  0  0  0  0  0  0
  152.3493  144.0473  161.1727 C   0  0  0  0  0  0  0  0  0  0  0  0
  152.3221  142.8300  160.4640 C   0  0  0  0  0  0  0  0  0  0  0  0
  150.7146  140.3540  155.3362 C   0  0  0  0  0  0  0  0  0  0  0  0
  150.8006  141.5253  155.7163 O   0  0  0  0  0  0  0  0  0  0  0  0
  147.9654  140.4443  153.4588 H   0  0  0  0  0  0  0  0  0  0  0  0
  149.2312  141.7096  153.5827 H   0  0  0  0  0  0  0  0  0  0  0  0
  148.2145  141.2901  155.0227 H   0  0  0  0  0  0  0  0  0  0  0  0
  148.7360  138.3121  153.4794 H   0  0  0  0  0  0  0  0  0  0  0  0
  150.3222  136.6479  154.1573 H   0  0  0  0  0  0  0  0  0  0  0  0
  153.6878  139.4219  156.1605 H   0  0  0  0  0  0  0  0  0  0  0  0
  152.8208  140.8626  156.5061 H   0  0  0  0  0  0  0  0  0  0  0  0
  151.9024  138.4480  158.1084 H   0  0  0  0  0  0  0  0  0  0  0  0
  153.7468  138.1283  158.9762 H   0  0  0  0  0  0  0  0  0  0  0  0
  150.8655  140.2789  159.0326 H   0  0  0  0  0  0  0  0  0  0  0  0
  152.3892  140.4270  159.9175 H   0  0  0  0  0  0  0  0  0  0  0  0
  152.0238  144.0702  157.2955 H   0  0  0  0  0  0  0  0  0  0  0  0
  152.0727  146.2120  158.5468 H   0  0  0  0  0  0  0  0  0  0  0  0
  152.2797  146.2027  161.0271 H   0  0  0  0  0  0  0  0  0  0  0  0
  152.4392  144.0420  162.2489 H   0  0  0  0  0  0  0  0  0  0  0  0
  152.3924  141.9124  161.0278 H   0  0  0  0  0  0  0  0  0  0  0  0
  1  2  1  0  0  0  0
  1 21  1  0  0  0  0
  1 22  1  0  0  0  0
  1 23  1  0  0  0  0
  2 19  1  0  0  0  0
  2  3  1  0  0  0  0
  3  4  2  0  0  0  0
  3 24  1  0  0  0  0
  4  5  1  0  0  0  0
  4 25  1  0  0  0  0
  5  6  2  0  0  0  0
  5  7  1  0  0  0  0
  7  8  1  0  0  0  0
  7 19  1  0  0  0  0
  8  9  1  0  0  0  0
  8 26  1  0  0  0  0
  8 27  1  0  0  0  0
  9 10  1  0  0  0  0
  9 11  1  0  0  0  0
  9 28  1  0  0  0  0
 10 29  1  0  0  0  0
 11 12  1  0  0  0  0
 11 30  1  0  0  0  0
 11 31  1  0  0  0  0
 12 13  1  0  0  0  0
 13 18  1  0  0  0  0
 13 14  2  0  0  0  0
 14 15  1  0  0  0  0
 14 32  1  0  0  0  0
 15 16  2  0  0  0  0
 15 33  1  0  0  0  0
 16 17  1  0  0  0  0
 16 34  1  0  0  0  0
 17 18  2  0  0  0  0
 17 35  1  0  0  0  0
 18 36  1  0  0  0  0
 19 20  2  0  0  0  0
M  END
> <s_m_source_file>
AV-unprocessed.smi

> <i_m_source_file_index>
433

> <i_lp_mmshare_version>
43012

> <i_f3d_flags>
0

> <s_epik_input>
W0NIM11uMVtjSF1bY0hdYyg9TyluKGMxPU8pW0NIMl1bQ0BIXShbT0hdKVtDSDJdT2MyW2NIXVtjSF1bY0hdW2NIXVtjSF0y

> <s_epik_cmdline>
J2VwaWtfcHl0aG9uJywgJy1waCcsICc3LjAnLCAnLXRuJywgJzgnLCAnLW1hJywgJzIwMCcsICctbWV0YWxfYmluZGluZycsICctaW1hZScsICc8aW5maWxlLm1hZT4nLCAnLW9tYWUnLCAnPG91dGZpbGUubWFlPic=

> <r_lp_tautomer_probability>
1

> <r_epik_Ionization_Penalty>
2.21742e-07

> <r_epik_Ionization_Penalty_Charging>
1.04568e-07

> <r_epik_Ionization_Penalty_Neutral>
1.17174e-07

> <r_epik_State_Penalty>
-0

> <r_epik_Charging_Adjusted_Penalty>
1.04568e-07

> <i_epik_Tot_Q>
0

> <i_epik_Tot_abs_Q>
0

> <r_epik_Metal_State_Penalty>
-0

> <b_epik_Metal_Only>
0

> <s_lp_Force_Field>
OPLS_2005

> <r_lp_Energy>
22.7461

> <b_lp_Chiralities_Consistent>
1

> <s_lp_Variant>
AV-unprocessed.smi:433-2

> <Gold.Version>
5.8.1

> <Gold.Id.Protein>
6NUR|6NUR_protein|mol2

> <Gold.PLP.Fitness>
48.4037

> <Gold.PLP.PLP>
-43.6844

> <Gold.PLP.part.hbond>
-2.6762

> <Gold.PLP.part.metal>
0.0000

> <Gold.PLP.part.buried>
1.4649

> <Gold.PLP.part.nonpolar>
-41.6507

> <Gold.PLP.part.repulsive>
0.0967

> <Gold.PLP.ligand.clash>
0.0000

> <Gold.PLP.ligand.torsion>
1.5550

> <Gold.PLP.Chemscore.Hbond>
1.7840

> <Gold.PLP.Chemscore.CHOScore>
0.8095

> <Gold.PLP.Chemscore.Metal>
0.0000

> <Gold.Chemscore.Hbonds>
donor molecule, donor type, donor heavy atom, donor atom, acceptor molecule, acceptor atom, score
      P1  H  7997  8010       L1    10  0.75
      P1  H 10752 10765       L1     6  0.80
      L1  C     3    24       P1  7948  0.62

> <Gold.PLP.Chemscore.Internal.Correction>
0.0489

> <Gold.Rescore>
     Score         DG    S(hbond)    S(metal)    S(lipo)     H(rot)  DE(clash)    DE(int)     intcor
     15.08     -17.67       1.90        0.00     103.79       2.46       0.06       2.54       ----

> <Gold.Chemscore.Fitness>
15.0762

> <Gold.Chemscore.DG>
-17.6707

> <Gold.Chemscore.ZeroCoef>
-5.4800

> <Gold.Chemscore.Hbond>
1.9003

> <Gold.Chemscore.Metal>
0.0000

> <Gold.Chemscore.Lipo>
103.7905

> <Gold.Chemscore.Internal_Hbond>
0.0000

> <Gold.Chemscore.DEClash>
0.0564

> <Gold.Chemscore.DEInternal>
2.5381

> <Gold.Chemscore.Rot>
2.4608

> <Gold.Chemscore.Internal.Correction>
   9.000000E+99

> <Gold.Chemscore.Hbonds>
donor molecule, donor type, donor heavy atom, donor atom, acceptor molecule, acceptor atom, score
      P1  H  7997  8010       L1    10  0.09
      P1  H 10752 10765       L1     6  0.79

> <Gold.Chemscore.Hbond.Weighted>
-6.3469

> <Gold.Chemscore.Metal.Weighted>
-0.0000

> <Gold.Chemscore.Lipo.Weighted>
-12.1435

> <Gold.Chemscore.Internal_Hbond.Weighted>
0.0000

> <Gold.Chemscore.DEClash.Weighted>
0.0564

> <Gold.Chemscore.DEInternal.Weighted>
2.5381

> <Gold.Chemscore.Rot.Weighted>
6.2997

> <Gold.Chemscore.Internal.Correction.Weighted>
   9.000000E+99

> <Gold.Protein.RotatedTorsions>
[ 6907 6896 6895 6894 ] final   40.15 input  -60.11 | X-H torsion
[ 7974 7965 7964 7962 ] final  -93.55 input  175.53 | X-H torsion
[ 8008 7997 7996 7995 ] final   13.41 input   59.86 | X-H torsion
[ 10167 10162 10161 10158 ] final   -9.16 input  -65.29 | X-H torsion
[ 10718 10713 10712 10709 ] final    5.39 input   66.30 | X-H torsion
[ 10763 10752 10751 10750 ] final -161.66 input  -60.55 | X-H torsion
[ 11005 11000 10999 10996 ] final  -22.89 input  -57.11 | X-H torsion

> <Gold.Protein.ActiveResidues>
 VAL166  LYS551  ARG553  GLY616  TRP617  ASP618  TYR619  PRO620  LYS621  CYS622 
 ASP623  PHE694  ASN695  SER759  ASP760  ASP761  ALA762  ILE779  LEU786  VAL792 
 PHE793  MET794  SER795  GLU796  ALA797  LYS798  CYS799  TRP800  GLU811  SER814 

> <Gold.Protein.RotatedAtoms>
  152.1787  134.8772  160.0528 H   0  0  0  0  0  0  0  0  0  0  0  0  # atno 6907 bound_to 6896
  151.9705  133.3719  159.4077 H   0  0  0  0  0  0  0  0  0  0  0  0  # atno 6908 bound_to 6896
  150.6914  134.4068  159.5188 H   0  0  0  0  0  0  0  0  0  0  0  0  # atno 6909 bound_to 6896
  145.3851  140.9522  143.2372 H   0  0  0  0  0  0  0  0  0  0  0  0  # atno 7974 bound_to 7965
  154.8341  140.2904  155.5702 H   0  0  0  0  0  0  0  0  0  0  0  0  # atno 8008 bound_to 7997
  156.3007  140.2526  156.3203 H   0  0  0  0  0  0  0  0  0  0  0  0  # atno 8009 bound_to 7997
  154.9198  140.0386  157.1981 H   0  0  0  0  0  0  0  0  0  0  0  0  # atno 8010 bound_to 7997
  140.7079  143.5889  150.8914 H   0  0  0  0  0  0  0  0  0  0  0  0  # atno 10167 bound_to 10162
  156.9067  130.5741  149.5647 H   0  0  0  0  0  0  0  0  0  0  0  0  # atno 10718 bound_to 10713
  154.7283  135.3041  154.8933 H   0  0  0  0  0  0  0  0  0  0  0  0  # atno 10763 bound_to 10752
  153.9784  135.6733  153.4753 H   0  0  0  0  0  0  0  0  0  0  0  0  # atno 10764 bound_to 10752
  153.0895  135.4966  154.8583 H   0  0  0  0  0  0  0  0  0  0  0  0  # atno 10765 bound_to 10752
  140.8699  133.7727  156.0175 H   0  0  0  0  0  0  0  0  0  0  0  0  # atno 11005 bound_to 11000
  144.8480  139.5366  143.6869 LP  0  0  0  0  0  0  0  0  0  0  0  0  # atno 17320 bound_to 7965
  146.2824  139.6913  142.9219 LP  0  0  0  0  0  0  0  0  0  0  0  0  # atno 17321 bound_to 7965
  139.9614  143.6159  152.3001 LP  0  0  0  0  0  0  0  0  0  0  0  0  # atno 17342 bound_to 10162
  139.6713  144.7660  151.1778 LP  0  0  0  0  0  0  0  0  0  0  0  0  # atno 17343 bound_to 10162
  156.0556  130.5618  150.9084 LP  0  0  0  0  0  0  0  0  0  0  0  0  # atno 17370 bound_to 10713
  157.5993  131.0942  150.8987 LP  0  0  0  0  0  0  0  0  0  0  0  0  # atno 17371 bound_to 10713
  140.8585  134.2869  157.5245 LP  0  0  0  0  0  0  0  0  0  0  0  0  # atno 17394 bound_to 11000
  139.8711  134.9505  156.4058 LP  0  0  0  0  0  0  0  0  0  0  0  0  # atno 17395 bound_to 11000

$$$$
