AV-unprocessed.smi:1047|AV-procd|sdf|4598|dock3
  -GOLD-   22720 3 83D 1   1.00000     0.00000
 Structure written by MMmdl.
 57 59  0  0  0  0  0  0  0  0  3 V2000
  146.8701  133.7944  151.3825 C   0  0  0  0  0  0  0  0  0  0  0  0
  147.9557  132.9070  152.0080 C   0  0  0  0  0  0  0  0  0  0  0  0
  147.8488  132.8330  153.4896 N   0  3  1  0  0  0  0  0  0  0  0  0
  148.6247  131.7166  154.0826 C   0  0  0  0  0  0  0  0  0  0  0  0
  150.1239  132.0576  154.1540 C   0  0  0  0  0  0  0  0  0  0  0  0
  150.3004  133.2625  154.8893 O   0  0  0  0  0  0  0  0  0  0  0  0
  149.6650  134.3780  154.2736 C   0  0  2  0  0  0  0  0  0  0  0  0
  150.0001  135.6226  155.1106 C   0  0  0  0  0  0  0  0  0  0  0  0
  150.3152  136.7683  154.2617 N   0  0  0  0  0  0  0  0  0  0  0  0
  150.3134  138.0399  154.9799 C   0  0  0  0  0  0  0  0  0  0  0  0
  151.6930  138.7172  154.9203 C   0  0  2  0  0  0  0  0  0  0  0  0
  152.6553  137.7303  154.6049 O   0  0  0  0  0  0  0  0  0  0  0  0
  152.0612  139.3788  156.2636 C   0  0  0  0  0  0  0  0  0  0  0  0
  151.3300  140.6311  156.5080 N   0  0  0  0  0  0  0  0  0  0  0  0
  150.3676  141.2343  155.7588 C   0  0  0  0  0  0  0  0  0  0  0  0
  149.9965  142.3735  156.4057 N   0  3  0  0  0  0  0  0  0  0  0  0
  150.7333  142.5012  157.5850 C   0  0  0  0  0  0  0  0  0  0  0  0
  150.7144  143.4841  158.5676 C   0  0  0  0  0  0  0  0  0  0  0  0
  151.6008  143.3250  159.6564 C   0  0  0  0  0  0  0  0  0  0  0  0
  151.6075  144.3829  160.7469 C   0  0  0  0  0  0  0  0  0  0  0  0
  152.4689  142.2052  159.7331 C   0  0  0  0  0  0  0  0  0  0  0  0
  153.4221  142.0467  160.9055 C   0  0  0  0  0  0  0  0  0  0  0  0
  152.4712  141.2153  158.7245 C   0  0  0  0  0  0  0  0  0  0  0  0
  151.5914  141.3866  157.6579 C   0  0  0  0  0  0  0  0  0  0  0  0
  148.1448  134.1028  154.2021 C   0  0  0  0  0  0  0  0  0  0  0  0
  146.9159  133.7428  150.2943 H   0  0  0  0  0  0  0  0  0  0  0  0
  146.9860  134.8419  151.6587 H   0  0  0  0  0  0  0  0  0  0  0  0
  145.8731  133.4722  151.6849 H   0  0  0  0  0  0  0  0  0  0  0  0
  147.8378  131.9040  151.5958 H   0  0  0  0  0  0  0  0  0  0  0  0
  148.9450  133.2467  151.7027 H   0  0  0  0  0  0  0  0  0  0  0  0
  148.2491  131.5354  155.0907 H   0  0  0  0  0  0  0  0  0  0  0  0
  148.4617  130.7932  153.5258 H   0  0  0  0  0  0  0  0  0  0  0  0
  150.6656  131.2569  154.6576 H   0  0  0  0  0  0  0  0  0  0  0  0
  150.5582  132.1542  153.1579 H   0  0  0  0  0  0  0  0  0  0  0  0
  150.0828  134.5086  153.2742 H   0  0  0  0  0  0  0  0  0  0  0  0
  149.1710  135.8574  155.7793 H   0  0  0  0  0  0  0  0  0  0  0  0
  150.8578  135.4020  155.7472 H   0  0  0  0  0  0  0  0  0  0  0  0
  149.6592  136.8138  153.4886 H   0  0  0  0  0  0  0  0  0  0  0  0
  149.5749  138.6997  154.5227 H   0  0  0  0  0  0  0  0  0  0  0  0
  150.0013  137.9007  156.0162 H   0  0  0  0  0  0  0  0  0  0  0  0
  151.7019  139.4785  154.1386 H   0  0  0  0  0  0  0  0  0  0  0  0
  153.5115  138.0702  154.8164 H   0  0  0  0  0  0  0  0  0  0  0  0
  151.8177  138.7044  157.0856 H   0  0  0  0  0  0  0  0  0  0  0  0
  153.1327  139.5677  156.3335 H   0  0  0  0  0  0  0  0  0  0  0  0
  149.9690  140.8737  154.8215 H   0  0  0  0  0  0  0  0  0  0  0  0
  150.0519  144.3348  158.5012 H   0  0  0  0  0  0  0  0  0  0  0  0
  152.5901  144.8492  160.8210 H   0  0  0  0  0  0  0  0  0  0  0  0
  151.3595  143.9408  161.7121 H   0  0  0  0  0  0  0  0  0  0  0  0
  150.8796  145.1694  160.5448 H   0  0  0  0  0  0  0  0  0  0  0  0
  154.0187  141.1383  160.8148 H   0  0  0  0  0  0  0  0  0  0  0  0
  152.8699  141.9898  161.8439 H   0  0  0  0  0  0  0  0  0  0  0  0
  154.1087  142.8918  160.9574 H   0  0  0  0  0  0  0  0  0  0  0  0
  153.1373  140.3670  158.7802 H   0  0  0  0  0  0  0  0  0  0  0  0
  147.6187  134.9384  153.7427 H   0  0  0  0  0  0  0  0  0  0  0  0
  147.7467  134.0192  155.2142 H   0  0  0  0  0  0  0  0  0  0  0  0
  146.8782  132.6198  153.6715 H   0  0  0  0  0  0  0  0  0  0  0  0
  149.2919  143.0150  156.0648 H   0  0  0  0  0  0  0  0  0  0  0  0
  1  2  1  0  0  0  0
  1 26  1  0  0  0  0
  1 27  1  0  0  0  0
  1 28  1  0  0  0  0
  2  3  1  0  0  0  0
  2 29  1  0  0  0  0
  2 30  1  0  0  0  0
  3 25  1  0  0  0  0
  3  4  1  0  0  0  0
  3 56  1  0  0  0  0
  4  5  1  0  0  0  0
  4 31  1  0  0  0  0
  4 32  1  0  0  0  0
  5  6  1  0  0  0  0
  5 33  1  0  0  0  0
  5 34  1  0  0  0  0
  6  7  1  0  0  0  0
  7  8  1  0  0  0  0
  7 25  1  0  0  0  0
  7 35  1  0  0  0  0
  8  9  1  0  0  0  0
  8 36  1  0  0  0  0
  8 37  1  0  0  0  0
  9 10  1  0  0  0  0
  9 38  1  0  0  0  0
 10 11  1  0  0  0  0
 10 39  1  0  0  0  0
 10 40  1  0  0  0  0
 11 12  1  0  0  0  0
 11 13  1  0  0  0  0
 11 41  1  0  0  0  0
 12 42  1  0  0  0  0
 13 14  1  0  0  0  0
 13 43  1  0  0  0  0
 13 44  1  0  0  0  0
 14 24  1  0  0  0  0
 14 15  1  0  0  0  0
 15 16  2  0  0  0  0
 15 45  1  0  0  0  0
 16 17  1  0  0  0  0
 16 57  1  0  0  0  0
 17 24  2  0  0  0  0
 17 18  1  0  0  0  0
 18 19  2  0  0  0  0
 18 46  1  0  0  0  0
 19 20  1  0  0  0  0
 19 21  1  0  0  0  0
 20 47  1  0  0  0  0
 20 48  1  0  0  0  0
 20 49  1  0  0  0  0
 21 22  1  0  0  0  0
 21 23  2  0  0  0  0
 22 50  1  0  0  0  0
 22 51  1  0  0  0  0
 22 52  1  0  0  0  0
 23 24  1  0  0  0  0
 23 53  1  0  0  0  0
 25 54  1  0  0  0  0
 25 55  1  0  0  0  0
M  CHG  1   3   1
M  CHG  1  16   1
M  END
> <s_m_source_file>
AV-unprocessed.smi

> <i_m_source_file_index>
1047

> <i_lp_mmshare_version>
43012

> <i_f3d_flags>
0

> <s_epik_input>
W0NIM11bQ0gyXU4xW0NIMl1bQ0gyXU9bQ0BIXShbQ0gyXTEpW0NIMl1bTkhdW0NIMl1bQ0BIXShbT0hdKVtDSDJdbihbY0hdbjIpYyhjMjMpW2NIXWMoW0NIM10pYyhbY0hdMylbQ0gzXQ==

> <s_epik_cmdline>
J2VwaWtfcHl0aG9uJywgJy1waCcsICc3LjAnLCAnLXRuJywgJzgnLCAnLW1hJywgJzIwMCcsICctbWV0YWxfYmluZGluZycsICctaW1hZScsICc8aW5maWxlLm1hZT4nLCAnLW9tYWUnLCAnPG91dGZpbGUubWFlPic=

> <r_epik_Ionization_Penalty>
2.03028

> <r_epik_Ionization_Penalty_Charging>
1.21256

> <r_epik_Ionization_Penalty_Neutral>
0.817715

> <r_epik_State_Penalty>
2.54959

> <r_epik_Charging_Adjusted_Penalty>
3.76215

> <i_epik_Tot_Q>
2

> <i_epik_Tot_abs_Q>
2

> <r_epik_Metal_State_Penalty>
6.52811

> <b_epik_Metal_Only>
0

> <s_lp_Force_Field>
OPLS_2005

> <r_lp_Energy>
38.5552

> <b_lp_Chiralities_Consistent>
1

> <s_lp_Variant>
AV-unprocessed.smi:1047-39

> <Gold.Version>
5.8.1

> <Gold.Id.Protein>
6NUR|6NUR_protein|mol2

> <Gold.PLP.Fitness>
59.6969

> <Gold.PLP.PLP>
-52.5827

> <Gold.PLP.part.hbond>
-3.7307

> <Gold.PLP.part.metal>
0.0000

> <Gold.PLP.part.buried>
-5.4952

> <Gold.PLP.part.nonpolar>
-43.6861

> <Gold.PLP.part.repulsive>
0.1456

> <Gold.PLP.ligand.clash>
0.0000

> <Gold.PLP.ligand.torsion>
1.7700

> <Gold.PLP.Chemscore.Hbond>
3.5280

> <Gold.PLP.Chemscore.CHOScore>
0.0000

> <Gold.PLP.Chemscore.Metal>
0.0000

> <Gold.Chemscore.Hbonds>
donor molecule, donor type, donor heavy atom, donor atom, acceptor molecule, acceptor atom, score
      L1  H     9    38       P1  7948  1.00
      L1  H    16    57       P1  8028  1.86
      P1  H 10752 10765       L1    12  0.43

> <Gold.PLP.Chemscore.Internal.Correction>
0.0704

> <Gold.Rescore>
     Score         DG    S(hbond)    S(metal)    S(lipo)     H(rot)  DE(clash)    DE(int)     intcor
     18.64     -20.55       1.85        0.00     135.39       2.71       0.12       1.79       ----

> <Gold.Chemscore.Fitness>
18.6382

> <Gold.Chemscore.DG>
-20.5536

> <Gold.Chemscore.ZeroCoef>
-5.4800

> <Gold.Chemscore.Hbond>
1.8466

> <Gold.Chemscore.Metal>
0.0000

> <Gold.Chemscore.Lipo>
135.3891

> <Gold.Chemscore.Internal_Hbond>
0.0000

> <Gold.Chemscore.DEClash>
0.1239

> <Gold.Chemscore.DEInternal>
1.7915

> <Gold.Chemscore.Rot>
2.7088

> <Gold.Chemscore.Internal.Correction>
   9.000000E+99

> <Gold.Chemscore.Hbonds>
donor molecule, donor type, donor heavy atom, donor atom, acceptor molecule, acceptor atom, score
      L1  H     9    38       P1  7948  0.63
      L1  H    16    57       P1  8028  0.91
      P1  H 10752 10765       L1    12  0.19

> <Gold.Chemscore.Hbond.Weighted>
-6.1677

> <Gold.Chemscore.Metal.Weighted>
-0.0000

> <Gold.Chemscore.Lipo.Weighted>
-15.8405

> <Gold.Chemscore.Internal_Hbond.Weighted>
0.0000

> <Gold.Chemscore.DEClash.Weighted>
0.1239

> <Gold.Chemscore.DEInternal.Weighted>
1.7915

> <Gold.Chemscore.Rot.Weighted>
6.9346

> <Gold.Chemscore.Internal.Correction.Weighted>
   9.000000E+99

> <Gold.Protein.RotatedTorsions>
[ 6907 6896 6895 6894 ] final    4.00 input  -60.11 | X-H torsion
[ 7974 7965 7964 7962 ] final  115.63 input  175.53 | X-H torsion
[ 8008 7997 7996 7995 ] final   61.72 input   59.86 | X-H torsion
[ 10167 10162 10161 10158 ] final  -98.34 input  -65.29 | X-H torsion
[ 10718 10713 10712 10709 ] final  -17.19 input   66.30 | X-H torsion
[ 10763 10752 10751 10750 ] final  162.35 input  -60.55 | X-H torsion
[ 11005 11000 10999 10996 ] final  107.43 input  -57.11 | X-H torsion

> <Gold.Protein.ActiveResidues>
 VAL166  LYS551  ARG553  GLY616  TRP617  ASP618  TYR619  PRO620  LYS621  CYS622 
 ASP623  PHE694  ASN695  SER759  ASP760  ASP761  ALA762  ILE779  LEU786  VAL792 
 PHE793  MET794  SER795  GLU796  ALA797  LYS798  CYS799  TRP800  GLU811  SER814 

> <Gold.Protein.RotatedAtoms>
  151.6341  135.1020  160.0127 H   0  0  0  0  0  0  0  0  0  0  0  0  # atno 6907 bound_to 6896
  152.4090  133.6929  159.6390 H   0  0  0  0  0  0  0  0  0  0  0  0  # atno 6908 bound_to 6896
  150.7982  133.8575  159.3263 H   0  0  0  0  0  0  0  0  0  0  0  0  # atno 6909 bound_to 6896
  145.1896  139.3007  143.4375 H   0  0  0  0  0  0  0  0  0  0  0  0  # atno 7974 bound_to 7965
  155.6029  140.3494  155.4599 H   0  0  0  0  0  0  0  0  0  0  0  0  # atno 8008 bound_to 7997
  156.0214  140.1254  157.0378 H   0  0  0  0  0  0  0  0  0  0  0  0  # atno 8009 bound_to 7997
  154.4317  140.1061  156.5955 H   0  0  0  0  0  0  0  0  0  0  0  0  # atno 8010 bound_to 7997
  140.2740  143.3325  152.0507 H   0  0  0  0  0  0  0  0  0  0  0  0  # atno 10167 bound_to 10162
  156.5770  130.4764  149.6337 H   0  0  0  0  0  0  0  0  0  0  0  0  # atno 10718 bound_to 10713
  154.2771  135.2764  155.2713 H   0  0  0  0  0  0  0  0  0  0  0  0  # atno 10763 bound_to 10752
  154.5251  135.5745  153.6716 H   0  0  0  0  0  0  0  0  0  0  0  0  # atno 10764 bound_to 10752
  152.9935  135.6214  154.2928 H   0  0  0  0  0  0  0  0  0  0  0  0  # atno 10765 bound_to 10752
  139.8828  134.9400  156.5818 H   0  0  0  0  0  0  0  0  0  0  0  0  # atno 11005 bound_to 11000
  146.3438  140.2104  142.8590 LP  0  0  0  0  0  0  0  0  0  0  0  0  # atno 17320 bound_to 7965
  145.0054  140.8668  143.5256 LP  0  0  0  0  0  0  0  0  0  0  0  0  # atno 17321 bound_to 7965
  139.4981  144.6637  151.6405 LP  0  0  0  0  0  0  0  0  0  0  0  0  # atno 17342 bound_to 10162
  140.5866  143.9852  150.6299 LP  0  0  0  0  0  0  0  0  0  0  0  0  # atno 17343 bound_to 10162
  156.2665  130.6992  151.1776 LP  0  0  0  0  0  0  0  0  0  0  0  0  # atno 17370 bound_to 10713
  157.7335  131.0590  150.5572 LP  0  0  0  0  0  0  0  0  0  0  0  0  # atno 17371 bound_to 10713
  140.8021  133.8497  155.8736 LP  0  0  0  0  0  0  0  0  0  0  0  0  # atno 17394 bound_to 11000
  140.9583  134.1689  157.4674 LP  0  0  0  0  0  0  0  0  0  0  0  0  # atno 17395 bound_to 11000

$$$$
