AV-unprocessed.smi:2762|AV-procd|sdf|10637|dock4
  -GOLD-   2272015 83D 1   1.00000     0.00000
 Structure written by MMmdl.
 40 41  0  0  0  0  0  0  0  0  2 V2000
  153.1273  138.8407  156.3115 O   0  0  0  0  0  0  0  0  0  0  0  0
  152.0571  139.4211  156.1269 C   0  0  0  0  0  0  0  0  0  0  0  0
  151.2162  139.1121  155.1289 N   0  0  0  0  0  0  0  0  0  0  0  0
  151.4466  138.0659  154.1391 C   0  0  0  0  0  0  0  0  0  0  0  0
  151.0375  136.6809  154.6769 C   0  0  0  0  0  0  0  0  0  0  0  0
  149.5994  136.3862  154.4582 N   0  3  0  0  0  0  0  0  0  0  0  0
  149.1834  135.0494  154.9512 C   0  0  0  0  0  0  0  0  0  0  0  0
  147.6910  134.8096  154.6662 C   0  0  0  0  0  0  0  0  0  0  0  0
  146.9173  135.8438  155.2612 O   0  0  0  0  0  0  0  0  0  0  0  0
  147.2425  137.1221  154.7305 C   0  0  0  0  0  0  0  0  0  0  0  0
  148.7192  137.4396  155.0191 C   0  0  0  0  0  0  0  0  0  0  0  0
  151.5797  140.4327  156.8731 N   0  0  0  0  0  0  0  0  0  0  0  0
  152.1819  141.0514  158.0010 C   0  0  0  0  0  0  0  0  0  0  0  0
  151.6767  142.3310  158.3208 C   0  0  0  0  0  0  0  0  0  0  0  0
  152.2059  143.0381  159.4213 C   0  0  0  0  0  0  0  0  0  0  0  0
  151.6662  144.4151  159.7744 C   0  0  0  0  0  0  0  0  0  0  0  0
  152.1505  144.8519  160.9374 F   0  0  0  0  0  0  0  0  0  0  0  0
  152.0000  145.2884  158.8242 F   0  0  0  0  0  0  0  0  0  0  0  0
  150.3375  144.3594  159.8592 F   0  0  0  0  0  0  0  0  0  0  0  0
  153.2298  142.4300  160.1766 C   0  0  0  0  0  0  0  0  0  0  0  0
  153.6747  141.1527  159.7905 C   0  0  0  0  0  0  0  0  0  0  0  0
  153.1694  140.4815  158.7347 N   0  0  0  0  0  0  0  0  0  0  0  0
  150.3570  139.6365  155.0488 H   0  0  0  0  0  0  0  0  0  0  0  0
  150.9043  138.2960  153.2204 H   0  0  0  0  0  0  0  0  0  0  0  0
  152.5063  138.0879  153.8882 H   0  0  0  0  0  0  0  0  0  0  0  0
  151.6488  135.8957  154.2298 H   0  0  0  0  0  0  0  0  0  0  0  0
  151.2382  136.6538  155.7490 H   0  0  0  0  0  0  0  0  0  0  0  0
  149.7681  134.2649  154.4722 H   0  0  0  0  0  0  0  0  0  0  0  0
  149.3718  134.9793  156.0237 H   0  0  0  0  0  0  0  0  0  0  0  0
  147.5004  134.7673  153.5924 H   0  0  0  0  0  0  0  0  0  0  0  0
  147.3786  133.8519  155.0827 H   0  0  0  0  0  0  0  0  0  0  0  0
  147.0394  137.1483  153.6586 H   0  0  0  0  0  0  0  0  0  0  0  0
  146.6002  137.8706  155.1947 H   0  0  0  0  0  0  0  0  0  0  0  0
  148.8812  137.5170  156.0955 H   0  0  0  0  0  0  0  0  0  0  0  0
  148.9752  138.4073  154.5860 H   0  0  0  0  0  0  0  0  0  0  0  0
  150.6846  140.8100  156.5997 H   0  0  0  0  0  0  0  0  0  0  0  0
  150.8884  142.7725  157.7284 H   0  0  0  0  0  0  0  0  0  0  0  0
  153.6684  142.9221  161.0319 H   0  0  0  0  0  0  0  0  0  0  0  0
  154.4573  140.6556  160.3445 H   0  0  0  0  0  0  0  0  0  0  0  0
  149.4500  136.3957  153.4591 H   0  0  0  0  0  0  0  0  0  0  0  0
  1  2  2  0  0  0  0
  2  3  1  0  0  0  0
  2 12  1  0  0  0  0
  3  4  1  0  0  0  0
  3 23  1  0  0  0  0
  4  5  1  0  0  0  0
  4 24  1  0  0  0  0
  4 25  1  0  0  0  0
  5  6  1  0  0  0  0
  5 26  1  0  0  0  0
  5 27  1  0  0  0  0
  6 11  1  0  0  0  0
  6  7  1  0  0  0  0
  6 40  1  0  0  0  0
  7  8  1  0  0  0  0
  7 28  1  0  0  0  0
  7 29  1  0  0  0  0
  8  9  1  0  0  0  0
  8 30  1  0  0  0  0
  8 31  1  0  0  0  0
  9 10  1  0  0  0  0
 10 11  1  0  0  0  0
 10 32  1  0  0  0  0
 10 33  1  0  0  0  0
 11 34  1  0  0  0  0
 11 35  1  0  0  0  0
 12 13  1  0  0  0  0
 12 36  1  0  0  0  0
 13 22  1  0  0  0  0
 13 14  2  0  0  0  0
 14 15  1  0  0  0  0
 14 37  1  0  0  0  0
 15 16  1  0  0  0  0
 15 20  2  0  0  0  0
 16 17  1  0  0  0  0
 16 18  1  0  0  0  0
 16 19  1  0  0  0  0
 20 21  1  0  0  0  0
 20 38  1  0  0  0  0
 21 22  2  0  0  0  0
 21 39  1  0  0  0  0
M  CHG  1   6   1
M  END
> <s_m_source_file>
AV-unprocessed.smi

> <i_m_source_file_index>
2762

> <i_lp_mmshare_version>
43012

> <i_f3d_flags>
0

> <s_epik_input>
bjFbY0hdW2NIXWMoQyhGKShGKUYpW2NIXWMxW05IXUMoPU8pW05IXVtDSDJdW0NIMl1OMltDSDJdW0NIMl1PW0NIMl1bQ0gyXTI=

> <s_epik_cmdline>
J2VwaWtfcHl0aG9uJywgJy1waCcsICc3LjAnLCAnLXRuJywgJzgnLCAnLW1hJywgJzIwMCcsICctbWV0YWxfYmluZGluZycsICctaW1hZScsICc8aW5maWxlLm1hZT4nLCAnLW9tYWUnLCAnPG91dGZpbGUubWFlPic=

> <r_epik_Ionization_Penalty>
0.602556

> <r_epik_Ionization_Penalty_Charging>
0.602531

> <r_epik_Ionization_Penalty_Neutral>
2.56546e-05

> <r_epik_State_Penalty>
0.617039

> <r_epik_Charging_Adjusted_Penalty>
1.21957

> <i_epik_Tot_Q>
1

> <i_epik_Tot_abs_Q>
1

> <r_epik_Metal_State_Penalty>
0.617039

> <b_epik_Metal_Only>
0

> <s_lp_Force_Field>
OPLS_2005

> <r_lp_Energy>
17.0947

> <b_lp_Chiralities_Consistent>
1

> <s_lp_Variant>
AV-unprocessed.smi:2762-2

> <Gold.Version>
5.8.1

> <Gold.Id.Protein>
6NUR|6NUR_protein|mol2

> <Gold.PLP.Fitness>
49.3989

> <Gold.PLP.PLP>
-41.5653

> <Gold.PLP.part.hbond>
-2.6283

> <Gold.PLP.part.metal>
0.0000

> <Gold.PLP.part.buried>
-5.7847

> <Gold.PLP.part.nonpolar>
-32.8827

> <Gold.PLP.part.repulsive>
0.3073

> <Gold.PLP.ligand.clash>
0.0000

> <Gold.PLP.ligand.torsion>
0.5998

> <Gold.PLP.Chemscore.Hbond>
3.0000

> <Gold.PLP.Chemscore.CHOScore>
0.0000

> <Gold.PLP.Chemscore.Metal>
0.0000

> <Gold.Chemscore.Hbonds>
donor molecule, donor type, donor heavy atom, donor atom, acceptor molecule, acceptor atom, score
      L1  H     6    40       P1  7948  2.00
      P1  H  7997  8008       L1     1  0.99

> <Gold.PLP.Chemscore.Internal.Correction>
0.0333

> <Gold.Rescore>
     Score         DG    S(hbond)    S(metal)    S(lipo)     H(rot)  DE(clash)    DE(int)     intcor
     14.43     -16.38       1.90        0.00      75.70       1.68       0.08       1.87       ----

> <Gold.Chemscore.Fitness>
14.4328

> <Gold.Chemscore.DG>
-16.3829

> <Gold.Chemscore.ZeroCoef>
-5.4800

> <Gold.Chemscore.Hbond>
1.8974

> <Gold.Chemscore.Metal>
0.0000

> <Gold.Chemscore.Lipo>
75.6973

> <Gold.Chemscore.Internal_Hbond>
0.0000

> <Gold.Chemscore.DEClash>
0.0790

> <Gold.Chemscore.DEInternal>
1.8710

> <Gold.Chemscore.Rot>
1.6762

> <Gold.Chemscore.Internal.Correction>
   9.000000E+99

> <Gold.Chemscore.Hbonds>
donor molecule, donor type, donor heavy atom, donor atom, acceptor molecule, acceptor atom, score
      L1  H     6    40       P1  7948  0.70
      P1  H  7997  8008       L1     1  0.65

> <Gold.Chemscore.Hbond.Weighted>
-6.3372

> <Gold.Chemscore.Metal.Weighted>
-0.0000

> <Gold.Chemscore.Lipo.Weighted>
-8.8566

> <Gold.Chemscore.Internal_Hbond.Weighted>
0.0000

> <Gold.Chemscore.DEClash.Weighted>
0.0790

> <Gold.Chemscore.DEInternal.Weighted>
1.8710

> <Gold.Chemscore.Rot.Weighted>
4.2910

> <Gold.Chemscore.Internal.Correction.Weighted>
   9.000000E+99

> <Gold.Protein.RotatedTorsions>
[ 6907 6896 6895 6894 ] final  -31.84 input  -60.11 | X-H torsion
[ 7974 7965 7964 7962 ] final -152.45 input  175.53 | X-H torsion
[ 8008 7997 7996 7995 ] final  -62.88 input   59.86 | X-H torsion
[ 10167 10162 10161 10158 ] final -151.82 input  -65.29 | X-H torsion
[ 10718 10713 10712 10709 ] final  150.64 input   66.30 | X-H torsion
[ 10763 10752 10751 10750 ] final   86.85 input  -60.55 | X-H torsion
[ 11005 11000 10999 10996 ] final  156.82 input  -57.11 | X-H torsion

> <Gold.Protein.ActiveResidues>
 VAL166  LYS551  ARG553  GLY616  TRP617  ASP618  TYR619  PRO620  LYS621  CYS622 
 ASP623  PHE694  ASN695  SER759  ASP760  ASP761  ALA762  ILE779  LEU786  VAL792 
 PHE793  MET794  SER795  GLU796  ALA797  LYS798  CYS799  TRP800  GLU811  SER814 

> <Gold.Protein.RotatedAtoms>
  151.0866  134.9891  159.8382 H   0  0  0  0  0  0  0  0  0  0  0  0  # atno 6907 bound_to 6896
  152.5425  134.2116  159.8762 H   0  0  0  0  0  0  0  0  0  0  0  0  # atno 6908 bound_to 6896
  151.2149  133.4491  159.2632 H   0  0  0  0  0  0  0  0  0  0  0  0  # atno 6909 bound_to 6896
  144.7793  140.4660  143.5850 H   0  0  0  0  0  0  0  0  0  0  0  0  # atno 7974 bound_to 7965
  154.4524  140.0986  156.6656 H   0  0  0  0  0  0  0  0  0  0  0  0  # atno 8008 bound_to 7997
  155.5245  140.3480  155.4395 H   0  0  0  0  0  0  0  0  0  0  0  0  # atno 8009 bound_to 7997
  156.0708  140.1349  156.9820 H   0  0  0  0  0  0  0  0  0  0  0  0  # atno 8010 bound_to 7997
  139.7234  143.8921  152.2511 H   0  0  0  0  0  0  0  0  0  0  0  0  # atno 10167 bound_to 10162
  157.2809  131.0835  151.1532 H   0  0  0  0  0  0  0  0  0  0  0  0  # atno 10718 bound_to 10713
  153.1610  135.4565  154.9772 H   0  0  0  0  0  0  0  0  0  0  0  0  # atno 10763 bound_to 10752
  154.7897  135.3216  154.7807 H   0  0  0  0  0  0  0  0  0  0  0  0  # atno 10764 bound_to 10752
  153.8297  135.6939  153.4870 H   0  0  0  0  0  0  0  0  0  0  0  0  # atno 10765 bound_to 10752
  140.1711  134.8542  157.2691 H   0  0  0  0  0  0  0  0  0  0  0  0  # atno 11005 bound_to 11000
  145.6094  139.1512  143.3084 LP  0  0  0  0  0  0  0  0  0  0  0  0  # atno 17320 bound_to 7965
  146.1992  140.6211  142.9110 LP  0  0  0  0  0  0  0  0  0  0  0  0  # atno 17321 bound_to 7965
  139.8824  144.7010  150.8863 LP  0  0  0  0  0  0  0  0  0  0  0  0  # atno 17342 bound_to 10162
  140.7758  143.3651  151.1754 LP  0  0  0  0  0  0  0  0  0  0  0  0  # atno 17343 bound_to 10162
  157.2967  130.6822  149.6142 LP  0  0  0  0  0  0  0  0  0  0  0  0  # atno 17370 bound_to 10713
  155.9664  130.4404  150.5299 LP  0  0  0  0  0  0  0  0  0  0  0  0  # atno 17371 bound_to 10713
  140.2377  134.3833  155.7494 LP  0  0  0  0  0  0  0  0  0  0  0  0  # atno 17394 bound_to 11000
  141.2217  133.7248  156.8739 LP  0  0  0  0  0  0  0  0  0  0  0  0  # atno 17395 bound_to 11000

$$$$
