AV-unprocessed.smi:1601|AV-procd|sdf|6438|dock2
  -GOLD-   22720 7 83D 1   1.00000     0.00000
 Structure written by MMmdl.
 42 43  0  0  0  0  0  0  0  0  2 V2000
  146.3413  137.3836  155.6288 C   0  0  0  0  0  0  0  0  0  0  0  0
  147.7362  136.7233  155.4968 C   0  0  1  0  0  0  0  0  0  0  0  0
  147.6212  135.3200  154.8444 C   0  0  0  0  0  0  0  0  0  0  0  0
  146.8970  135.3365  153.5754 N   0  0  0  0  0  0  0  0  0  0  0  0
  145.7338  134.7114  153.3302 C   0  0  0  0  0  0  0  0  0  0  0  0
  145.1448  134.0313  154.1713 O   0  0  0  0  0  0  0  0  0  0  0  0
  145.1601  134.8796  151.9144 C   0  0  1  0  0  0  0  0  0  0  0  0
  145.8691  135.9847  151.1103 C   0  0  0  0  0  0  0  0  0  0  0  0
  145.1906  133.6123  151.1962 N   0  0  0  0  0  0  0  0  0  0  0  0
  144.1488  132.9228  150.6057 C   0  0  0  0  0  0  0  0  0  0  0  0
  144.6670  131.7801  150.0678 C   0  0  0  0  0  0  0  0  0  0  0  0
  146.0510  131.8541  150.3878 C   0  0  0  0  0  0  0  0  0  0  0  0
  146.3605  132.9491  151.0628 N   0  0  0  0  0  0  0  0  0  0  0  0
  148.7213  137.5661  154.7401 N   0  3  0  0  0  0  0  0  0  0  0  0
  148.4235  139.0253  154.7001 C   0  0  0  0  0  0  0  0  0  0  0  0
  149.4768  139.7874  153.8773 C   0  0  0  0  0  0  0  0  0  0  0  0
  150.7711  139.5488  154.4090 O   0  0  0  0  0  0  0  0  0  0  0  0
  151.1119  138.1724  154.3436 C   0  0  0  0  0  0  0  0  0  0  0  0
  150.1239  137.3587  155.1951 C   0  0  0  0  0  0  0  0  0  0  0  0
  145.6434  136.7530  156.1782 H   0  0  0  0  0  0  0  0  0  0  0  0
  145.9013  137.5836  154.6513 H   0  0  0  0  0  0  0  0  0  0  0  0
  146.3795  138.3190  156.1868 H   0  0  0  0  0  0  0  0  0  0  0  0
  148.1183  136.5999  156.5114 H   0  0  0  0  0  0  0  0  0  0  0  0
  148.6146  134.8847  154.7234 H   0  0  0  0  0  0  0  0  0  0  0  0
  147.0724  134.6322  155.4844 H   0  0  0  0  0  0  0  0  0  0  0  0
  147.3057  135.8752  152.8249 H   0  0  0  0  0  0  0  0  0  0  0  0
  144.1164  135.1805  152.0262 H   0  0  0  0  0  0  0  0  0  0  0  0
  145.8319  136.9404  151.6342 H   0  0  0  0  0  0  0  0  0  0  0  0
  145.3906  136.1255  150.1408 H   0  0  0  0  0  0  0  0  0  0  0  0
  146.9172  135.7444  150.9277 H   0  0  0  0  0  0  0  0  0  0  0  0
  143.1365  133.2998  150.6180 H   0  0  0  0  0  0  0  0  0  0  0  0
  144.1375  131.0074  149.5310 H   0  0  0  0  0  0  0  0  0  0  0  0
  146.8346  131.1489  150.1525 H   0  0  0  0  0  0  0  0  0  0  0  0
  147.4554  139.2128  154.2365 H   0  0  0  0  0  0  0  0  0  0  0  0
  148.3845  139.4200  155.7168 H   0  0  0  0  0  0  0  0  0  0  0  0
  149.4406  139.4907  152.8277 H   0  0  0  0  0  0  0  0  0  0  0  0
  149.2746  140.8582  153.9103 H   0  0  0  0  0  0  0  0  0  0  0  0
  151.1121  137.8295  153.3076 H   0  0  0  0  0  0  0  0  0  0  0  0
  152.1263  138.0438  154.7213 H   0  0  0  0  0  0  0  0  0  0  0  0
  150.2141  137.6515  156.2426 H   0  0  0  0  0  0  0  0  0  0  0  0
  150.4082  136.3100  155.1359 H   0  0  0  0  0  0  0  0  0  0  0  0
  148.6764  137.2541  153.7803 H   0  0  0  0  0  0  0  0  0  0  0  0
  1  2  1  0  0  0  0
  1 20  1  0  0  0  0
  1 21  1  0  0  0  0
  1 22  1  0  0  0  0
  2  3  1  0  0  0  0
  2 14  1  0  0  0  0
  2 23  1  0  0  0  0
  3  4  1  0  0  0  0
  3 24  1  0  0  0  0
  3 25  1  0  0  0  0
  4  5  1  0  0  0  0
  4 26  1  0  0  0  0
  5  6  2  0  0  0  0
  5  7  1  0  0  0  0
  7  8  1  0  0  0  0
  7  9  1  0  0  0  0
  7 27  1  0  0  0  0
  8 28  1  0  0  0  0
  8 29  1  0  0  0  0
  8 30  1  0  0  0  0
  9 13  1  0  0  0  0
  9 10  1  0  0  0  0
 10 11  2  0  0  0  0
 10 31  1  0  0  0  0
 11 12  1  0  0  0  0
 11 32  1  0  0  0  0
 12 13  2  0  0  0  0
 12 33  1  0  0  0  0
 14 19  1  0  0  0  0
 14 15  1  0  0  0  0
 14 42  1  0  0  0  0
 15 16  1  0  0  0  0
 15 34  1  0  0  0  0
 15 35  1  0  0  0  0
 16 17  1  0  0  0  0
 16 36  1  0  0  0  0
 16 37  1  0  0  0  0
 17 18  1  0  0  0  0
 18 19  1  0  0  0  0
 18 38  1  0  0  0  0
 18 39  1  0  0  0  0
 19 40  1  0  0  0  0
 19 41  1  0  0  0  0
M  CHG  1  14   1
M  END
> <s_m_source_file>
AV-unprocessed.smi

> <i_m_source_file_index>
1601

> <i_lp_mmshare_version>
43012

> <i_f3d_flags>
0

> <s_epik_input>
W0NIMl0xW0NIMl1PW0NIMl1bQ0gyXU4xW0NASF0oW0NIM10pW0NIMl1bTkhdQyg9TylbQ0BIXShbQ0gzXSluMltjSF1bY0hdW2NIXW4y

> <s_epik_cmdline>
J2VwaWtfcHl0aG9uJywgJy1waCcsICc3LjAnLCAnLXRuJywgJzgnLCAnLW1hJywgJzIwMCcsICctbWV0YWxfYmluZGluZycsICctaW1hZScsICc8aW5maWxlLm1hZT4nLCAnLW9tYWUnLCAnPG91dGZpbGUubWFlPic=

> <r_lp_tautomer_probability>
1

> <r_epik_Ionization_Penalty>
0.732551

> <r_epik_Ionization_Penalty_Charging>
0.732531

> <r_epik_Ionization_Penalty_Neutral>
2.04647e-05

> <r_epik_State_Penalty>
0.757939

> <r_epik_Charging_Adjusted_Penalty>
1.49047

> <i_epik_Tot_Q>
1

> <i_epik_Tot_abs_Q>
1

> <r_epik_Metal_State_Penalty>
0.757952

> <b_epik_Metal_Only>
0

> <s_lp_Force_Field>
OPLS_2005

> <r_lp_Energy>
25.2472

> <b_lp_Chiralities_Consistent>
1

> <s_lp_Variant>
AV-unprocessed.smi:1601-8

> <Gold.Version>
5.8.1

> <Gold.Id.Protein>
6NUR|6NUR_protein|mol2

> <Gold.PLP.Fitness>
42.9591

> <Gold.PLP.PLP>
-28.1592

> <Gold.PLP.part.hbond>
-3.0000

> <Gold.PLP.part.metal>
0.0000

> <Gold.PLP.part.buried>
-2.5161

> <Gold.PLP.part.nonpolar>
-23.5322

> <Gold.PLP.part.repulsive>
0.4389

> <Gold.PLP.ligand.clash>
0.0596

> <Gold.PLP.ligand.torsion>
1.1708

> <Gold.PLP.Chemscore.Hbond>
3.6705

> <Gold.PLP.Chemscore.CHOScore>
2.0000

> <Gold.PLP.Chemscore.Metal>
0.0000

> <Gold.Chemscore.Hbonds>
donor molecule, donor type, donor heavy atom, donor atom, acceptor molecule, acceptor atom, score
      L1  H     4    26       P1  7948  0.88
      L1  H    14    42       P1  7948  1.24
      P1  H  7989  7998       L1    17  0.85
      L1  C    10    31       P1 10186  0.75
      L1  C    12    33       P1 10747  1.00

> <Gold.PLP.Chemscore.Internal.Correction>
0.1896

> <Gold.Rescore>
     Score         DG    S(hbond)    S(metal)    S(lipo)     H(rot)  DE(clash)    DE(int)     intcor
     14.86     -17.95       2.70        0.00      70.16       1.86       1.72       1.37       ----

> <Gold.Chemscore.Fitness>
14.8614

> <Gold.Chemscore.DG>
-17.9516

> <Gold.Chemscore.ZeroCoef>
-5.4800

> <Gold.Chemscore.Hbond>
2.7044

> <Gold.Chemscore.Metal>
0.0000

> <Gold.Chemscore.Lipo>
70.1587

> <Gold.Chemscore.Internal_Hbond>
0.0000

> <Gold.Chemscore.DEClash>
1.7209

> <Gold.Chemscore.DEInternal>
1.3693

> <Gold.Chemscore.Rot>
1.8631

> <Gold.Chemscore.Internal.Correction>
   9.000000E+99

> <Gold.Chemscore.Hbonds>
donor molecule, donor type, donor heavy atom, donor atom, acceptor molecule, acceptor atom, score
      L1  H     4    26       P1  7948  0.86
      L1  H    14    42       P1  7948  0.63
      P1  H  7989  7998       L1    17  0.15

> <Gold.Chemscore.Hbond.Weighted>
-9.0327

> <Gold.Chemscore.Metal.Weighted>
-0.0000

> <Gold.Chemscore.Lipo.Weighted>
-8.2086

> <Gold.Chemscore.Internal_Hbond.Weighted>
0.0000

> <Gold.Chemscore.DEClash.Weighted>
1.7209

> <Gold.Chemscore.DEInternal.Weighted>
1.3693

> <Gold.Chemscore.Rot.Weighted>
4.7697

> <Gold.Chemscore.Internal.Correction.Weighted>
   9.000000E+99

> <Gold.Protein.RotatedTorsions>
[ 6907 6896 6895 6894 ] final   82.89 input  -60.11 | X-H torsion
[ 7974 7965 7964 7962 ] final    7.49 input  175.53 | X-H torsion
[ 8008 7997 7996 7995 ] final  179.79 input   59.86 | X-H torsion
[ 10167 10162 10161 10158 ] final  143.17 input  -65.29 | X-H torsion
[ 10718 10713 10712 10709 ] final   11.66 input   66.30 | X-H torsion
[ 10763 10752 10751 10750 ] final   57.31 input  -60.55 | X-H torsion
[ 11005 11000 10999 10996 ] final  -26.78 input  -57.11 | X-H torsion

> <Gold.Protein.ActiveResidues>
 VAL166  LYS551  ARG553  GLY616  TRP617  ASP618  TYR619  PRO620  LYS621  CYS622 
 ASP623  PHE694  ASN695  SER759  ASP760  ASP761  ALA762  ILE779  LEU786  VAL792 
 PHE793  MET794  SER795  GLU796  ALA797  LYS798  CYS799  TRP800  GLU811  SER814 

> <Gold.Protein.RotatedAtoms>
  152.5312  134.2980  159.9067 H   0  0  0  0  0  0  0  0  0  0  0  0  # atno 6907 bound_to 6896
  151.2931  133.4150  159.2642 H   0  0  0  0  0  0  0  0  0  0  0  0  # atno 6908 bound_to 6896
  151.0184  134.9466  159.8103 H   0  0  0  0  0  0  0  0  0  0  0  0  # atno 6909 bound_to 6896
  146.2426  140.0075  142.8410 H   0  0  0  0  0  0  0  0  0  0  0  0  # atno 7974 bound_to 7965
  156.0394  140.1300  157.0172 H   0  0  0  0  0  0  0  0  0  0  0  0  # atno 8008 bound_to 7997
  154.4384  140.1033  156.6286 H   0  0  0  0  0  0  0  0  0  0  0  0  # atno 8009 bound_to 7997
  155.5689  140.3466  155.4512 H   0  0  0  0  0  0  0  0  0  0  0  0  # atno 8010 bound_to 7997
  139.4976  144.6058  151.6381 H   0  0  0  0  0  0  0  0  0  0  0  0  # atno 10167 bound_to 10162
  156.9988  130.6071  149.5694 H   0  0  0  0  0  0  0  0  0  0  0  0  # atno 10718 bound_to 10713
  152.9847  135.5646  154.5370 H   0  0  0  0  0  0  0  0  0  0  0  0  # atno 10763 bound_to 10752
  154.4832  135.2789  155.1557 H   0  0  0  0  0  0  0  0  0  0  0  0  # atno 10764 bound_to 10752
  154.3057  135.6298  153.5497 H   0  0  0  0  0  0  0  0  0  0  0  0  # atno 10765 bound_to 10752
  140.9060  133.7492  156.0607 H   0  0  0  0  0  0  0  0  0  0  0  0  # atno 11005 bound_to 11000
  145.1358  140.9544  143.4517 LP  0  0  0  0  0  0  0  0  0  0  0  0  # atno 17320 bound_to 7965
  145.0343  139.3314  143.6008 LP  0  0  0  0  0  0  0  0  0  0  0  0  # atno 17321 bound_to 7965
  140.5720  144.0093  150.6221 LP  0  0  0  0  0  0  0  0  0  0  0  0  # atno 17342 bound_to 10162
  140.3214  143.3135  152.0780 LP  0  0  0  0  0  0  0  0  0  0  0  0  # atno 17343 bound_to 10162
  156.0179  130.5273  150.8189 LP  0  0  0  0  0  0  0  0  0  0  0  0  # atno 17370 bound_to 10713
  157.5405  131.0940  150.9833 LP  0  0  0  0  0  0  0  0  0  0  0  0  # atno 17371 bound_to 10713
  140.8170  134.3334  157.5394 LP  0  0  0  0  0  0  0  0  0  0  0  0  # atno 17394 bound_to 11000
  139.8749  134.9287  156.3457 LP  0  0  0  0  0  0  0  0  0  0  0  0  # atno 17395 bound_to 11000

$$$$
