AV-unprocessed.smi:713|AV-procd|sdf|3479|dock10
  -GOLD-   22720 0473D 1   1.00000     0.00000
 Structure written by MMmdl.
 41 42  0  0  0  0  0  0  0  0  1 V2000
  153.2618  141.5852  161.2298 C   0  0  0  0  0  0  0  0  0  0  0  0
  153.0612  142.0749  159.7807 C   0  0  1  0  0  0  0  0  0  0  0  0
  152.2427  141.0855  158.9380 C   0  0  0  0  0  0  0  0  0  0  0  0
  151.1727  141.4274  158.4329 O   0  0  0  0  0  0  0  0  0  0  0  0
  152.7658  139.8582  158.7877 N   0  0  0  0  0  0  0  0  0  0  0  0
  152.1660  138.7756  158.0148 C   0  0  2  0  0  0  0  0  0  0  0  0
  151.7504  139.2995  156.6285 C   0  0  0  0  0  0  0  0  0  0  0  0
  151.0619  138.2033  155.8016 C   0  0  0  0  0  0  0  0  0  0  0  0
  149.8556  137.6173  156.5508 C   0  0  0  0  0  0  0  0  0  0  0  0
  150.2572  137.0846  157.9386 C   0  0  2  0  0  0  0  0  0  0  0  0
  148.7611  136.4359  158.8132 S   0  0  0  0  0  0  0  0  0  0  0  0
  147.3883  136.9015  157.6780 C   0  0  0  0  0  0  0  0  0  0  0  0
  148.8392  134.9675  158.8517 O   0  0  0  0  0  0  0  0  0  0  0  0
  148.6002  137.1859  160.0681 O   0  0  0  0  0  0  0  0  0  0  0  0
  150.9555  138.1834  158.7646 C   0  0  0  0  0  0  0  0  0  0  0  0
  152.4617  143.4034  159.7155 N   0  0  0  0  0  0  0  0  0  0  0  0
  152.1307  144.2352  160.7662 C   0  0  0  0  0  0  0  0  0  0  0  0
  151.6402  145.3939  160.2360 C   0  0  0  0  0  0  0  0  0  0  0  0
  151.7242  145.1843  158.8318 C   0  0  0  0  0  0  0  0  0  0  0  0
  152.2254  143.9999  158.5234 N   0  0  0  0  0  0  0  0  0  0  0  0
  153.7638  140.6173  161.2499 H   0  0  0  0  0  0  0  0  0  0  0  0
  152.3169  141.4757  161.7635 H   0  0  0  0  0  0  0  0  0  0  0  0
  153.8798  142.2844  161.7937 H   0  0  0  0  0  0  0  0  0  0  0  0
  154.0526  142.1514  159.3306 H   0  0  0  0  0  0  0  0  0  0  0  0
  153.6499  139.6624  159.2342 H   0  0  0  0  0  0  0  0  0  0  0  0
  152.9090  137.9892  157.8681 H   0  0  0  0  0  0  0  0  0  0  0  0
  151.0728  140.1474  156.7400 H   0  0  0  0  0  0  0  0  0  0  0  0
  152.6243  139.6700  156.0910 H   0  0  0  0  0  0  0  0  0  0  0  0
  150.7415  138.6084  154.8413 H   0  0  0  0  0  0  0  0  0  0  0  0
  151.7755  137.4089  155.5795 H   0  0  0  0  0  0  0  0  0  0  0  0
  149.0880  138.3847  156.6603 H   0  0  0  0  0  0  0  0  0  0  0  0
  149.4099  136.8180  155.9579 H   0  0  0  0  0  0  0  0  0  0  0  0
  150.9398  136.2438  157.8097 H   0  0  0  0  0  0  0  0  0  0  0  0
  146.4362  136.6542  158.1470 H   0  0  0  0  0  0  0  0  0  0  0  0
  147.4740  136.3510  156.7420 H   0  0  0  0  0  0  0  0  0  0  0  0
  147.4237  137.9723  157.4795 H   0  0  0  0  0  0  0  0  0  0  0  0
  151.2847  137.7783  159.7209 H   0  0  0  0  0  0  0  0  0  0  0  0
  150.2440  138.9779  158.9939 H   0  0  0  0  0  0  0  0  0  0  0  0
  152.2707  143.9362  161.7946 H   0  0  0  0  0  0  0  0  0  0  0  0
  151.2816  146.2615  160.7698 H   0  0  0  0  0  0  0  0  0  0  0  0
  151.4435  145.8550  158.0330 H   0  0  0  0  0  0  0  0  0  0  0  0
  1  2  1  0  0  0  0
  1 21  1  0  0  0  0
  1 22  1  0  0  0  0
  1 23  1  0  0  0  0
  2  3  1  0  0  0  0
  2 16  1  0  0  0  0
  2 24  1  0  0  0  0
  3  4  2  0  0  0  0
  3  5  1  0  0  0  0
  5  6  1  0  0  0  0
  5 25  1  0  0  0  0
  6 15  1  0  0  0  0
  6  7  1  0  0  0  0
  6 26  1  0  0  0  0
  7  8  1  0  0  0  0
  7 27  1  0  0  0  0
  7 28  1  0  0  0  0
  8  9  1  0  0  0  0
  8 29  1  0  0  0  0
  8 30  1  0  0  0  0
  9 10  1  0  0  0  0
  9 31  1  0  0  0  0
  9 32  1  0  0  0  0
 10 11  1  0  0  0  0
 10 15  1  0  0  0  0
 10 33  1  0  0  0  0
 11 12  1  0  0  0  0
 11 13  2  0  0  0  0
 11 14  2  0  0  0  0
 12 34  1  0  0  0  0
 12 35  1  0  0  0  0
 12 36  1  0  0  0  0
 15 37  1  0  0  0  0
 15 38  1  0  0  0  0
 16 20  1  0  0  0  0
 16 17  1  0  0  0  0
 17 18  2  0  0  0  0
 17 39  1  0  0  0  0
 18 19  1  0  0  0  0
 18 40  1  0  0  0  0
 19 20  2  0  0  0  0
 19 41  1  0  0  0  0
M  END
> <s_m_source_file>
AV-unprocessed.smi

> <i_m_source_file_index>
713

> <i_lp_mmshare_version>
43012

> <i_f3d_flags>
0

> <s_epik_input>
bjFbY0hdW2NIXVtjSF1uMVtDQEhdKFtDSDNdKUMoPU8pW05IXVtDQEBIXTJbQ0gyXVtDSDJdW0NIMl1bQ0BIXShbQ0gyXTIpUyg9TykoPU8pW0NIM10=

> <s_epik_cmdline>
J2VwaWtfcHl0aG9uJywgJy1waCcsICc3LjAnLCAnLXRuJywgJzgnLCAnLW1hJywgJzIwMCcsICctbWV0YWxfYmluZGluZycsICctaW1hZScsICc8aW5maWxlLm1hZT4nLCAnLW9tYWUnLCAnPG91dGZpbGUubWFlPic=

> <r_lp_tautomer_probability>
1

> <r_epik_Ionization_Penalty>
4.07816e-05

> <r_epik_Ionization_Penalty_Charging>
0

> <r_epik_Ionization_Penalty_Neutral>
4.07816e-05

> <r_epik_State_Penalty>
-0

> <r_epik_Charging_Adjusted_Penalty>
0

> <i_epik_Tot_Q>
0

> <i_epik_Tot_abs_Q>
0

> <r_epik_Metal_State_Penalty>
-0

> <b_epik_Metal_Only>
0

> <s_lp_Force_Field>
OPLS_2005

> <r_lp_Energy>
7.30822

> <b_lp_Chiralities_Consistent>
1

> <s_lp_Variant>
AV-unprocessed.smi:713-6

> <Gold.Version>
5.8.1

> <Gold.Id.Protein>
6NUR|6NUR_protein|mol2

> <Gold.PLP.Fitness>
43.1504

> <Gold.PLP.PLP>
-38.6264

> <Gold.PLP.part.hbond>
-3.0000

> <Gold.PLP.part.metal>
0.0000

> <Gold.PLP.part.buried>
-6.4445

> <Gold.PLP.part.nonpolar>
-29.0315

> <Gold.PLP.part.repulsive>
0.1303

> <Gold.PLP.ligand.clash>
0.0000

> <Gold.PLP.ligand.torsion>
0.3804

> <Gold.PLP.Chemscore.Hbond>
1.6823

> <Gold.PLP.Chemscore.CHOScore>
0.0000

> <Gold.PLP.Chemscore.Metal>
0.0000

> <Gold.Chemscore.Hbonds>
donor molecule, donor type, donor heavy atom, donor atom, acceptor molecule, acceptor atom, score
      P1  H  6896  6908       L1    13  1.00
      P1  H  6931  6943       L1    14  0.40

> <Gold.PLP.Chemscore.Internal.Correction>
0.2379

> <Gold.Rescore>
     Score         DG    S(hbond)    S(metal)    S(lipo)     H(rot)  DE(clash)    DE(int)     intcor
     13.43     -16.55       1.75        0.00      82.37       1.72       0.11       3.01       ----

> <Gold.Chemscore.Fitness>
13.4337

> <Gold.Chemscore.DG>
-16.5528

> <Gold.Chemscore.ZeroCoef>
-5.4800

> <Gold.Chemscore.Hbond>
1.7518

> <Gold.Chemscore.Metal>
0.0000

> <Gold.Chemscore.Lipo>
82.3732

> <Gold.Chemscore.Internal_Hbond>
0.0000

> <Gold.Chemscore.DEClash>
0.1133

> <Gold.Chemscore.DEInternal>
3.0058

> <Gold.Chemscore.Rot>
1.7249

> <Gold.Chemscore.Internal.Correction>
   9.000000E+99

> <Gold.Chemscore.Hbonds>
donor molecule, donor type, donor heavy atom, donor atom, acceptor molecule, acceptor atom, score
      P1  H  6896  6908       L1    13  0.59
      P1  H  6931  6943       L1    14  0.41
      P1  H  6934  6947       L1    14  0.02

> <Gold.Chemscore.Hbond.Weighted>
-5.8509

> <Gold.Chemscore.Metal.Weighted>
-0.0000

> <Gold.Chemscore.Lipo.Weighted>
-9.6377

> <Gold.Chemscore.Internal_Hbond.Weighted>
0.0000

> <Gold.Chemscore.DEClash.Weighted>
0.1133

> <Gold.Chemscore.DEInternal.Weighted>
3.0058

> <Gold.Chemscore.Rot.Weighted>
4.4157

> <Gold.Chemscore.Internal.Correction.Weighted>
   9.000000E+99

> <Gold.Protein.RotatedTorsions>
[ 6907 6896 6895 6894 ] final  166.21 input  -60.11 | X-H torsion
[ 7974 7965 7964 7962 ] final   48.06 input  175.53 | X-H torsion
[ 8008 7997 7996 7995 ] final -122.31 input   59.86 | X-H torsion
[ 10167 10162 10161 10158 ] final -167.62 input  -65.29 | X-H torsion
[ 10718 10713 10712 10709 ] final -145.32 input   66.30 | X-H torsion
[ 10763 10752 10751 10750 ] final  -34.55 input  -60.55 | X-H torsion
[ 11005 11000 10999 10996 ] final -175.63 input  -57.11 | X-H torsion

> <Gold.Protein.ActiveResidues>
 VAL166  LYS551  ARG553  GLY616  TRP617  ASP618  TYR619  PRO620  LYS621  CYS622 
 ASP623  PHE694  ASN695  SER759  ASP760  ASP761  ALA762  ILE779  LEU786  VAL792 
 PHE793  MET794  SER795  GLU796  ALA797  LYS798  CYS799  TRP800  GLU811  SER814 

> <Gold.Protein.RotatedAtoms>
  151.8824  133.3498  159.3770 H   0  0  0  0  0  0  0  0  0  0  0  0  # atno 6907 bound_to 6896
  150.7124  134.5005  159.5568 H   0  0  0  0  0  0  0  0  0  0  0  0  # atno 6908 bound_to 6896
  152.2559  134.8084  160.0489 H   0  0  0  0  0  0  0  0  0  0  0  0  # atno 6909 bound_to 6896
  146.0240  139.4684  142.9879 H   0  0  0  0  0  0  0  0  0  0  0  0  # atno 7974 bound_to 7965
  155.1621  140.0406  157.2845 H   0  0  0  0  0  0  0  0  0  0  0  0  # atno 8008 bound_to 7997
  154.6329  140.2528  155.7386 H   0  0  0  0  0  0  0  0  0  0  0  0  # atno 8009 bound_to 7997
  156.2494  140.2871  156.0688 H   0  0  0  0  0  0  0  0  0  0  0  0  # atno 8010 bound_to 7997
  139.6037  144.0956  152.1771 H   0  0  0  0  0  0  0  0  0  0  0  0  # atno 10167 bound_to 10162
  156.3810  130.7837  151.2029 H   0  0  0  0  0  0  0  0  0  0  0  0  # atno 10718 bound_to 10713
  153.8485  135.6851  153.4795 H   0  0  0  0  0  0  0  0  0  0  0  0  # atno 10763 bound_to 10752
  153.1411  135.4657  154.9495 H   0  0  0  0  0  0  0  0  0  0  0  0  # atno 10764 bound_to 10752
  154.7813  135.3270  154.7931 H   0  0  0  0  0  0  0  0  0  0  0  0  # atno 10765 bound_to 10752
  140.4611  134.6254  157.4843 H   0  0  0  0  0  0  0  0  0  0  0  0  # atno 11005 bound_to 11000
  145.7148  141.0094  143.1434 LP  0  0  0  0  0  0  0  0  0  0  0  0  # atno 17320 bound_to 7965
  144.7002  139.8800  143.7446 LP  0  0  0  0  0  0  0  0  0  0  0  0  # atno 17321 bound_to 7965
  140.0559  144.5896  150.7300 LP  0  0  0  0  0  0  0  0  0  0  0  0  # atno 17342 bound_to 10162
  140.7269  143.2646  151.4088 LP  0  0  0  0  0  0  0  0  0  0  0  0  # atno 17343 bound_to 10162
  157.7492  131.0344  150.4315 LP  0  0  0  0  0  0  0  0  0  0  0  0  # atno 17370 bound_to 10713
  156.4559  130.4021  149.6606 LP  0  0  0  0  0  0  0  0  0  0  0  0  # atno 17371 bound_to 10713
  139.9945  134.6933  155.9633 LP  0  0  0  0  0  0  0  0  0  0  0  0  # atno 17394 bound_to 11000
  141.1621  133.6538  156.4353 LP  0  0  0  0  0  0  0  0  0  0  0  0  # atno 17395 bound_to 11000

$$$$
