AV-unprocessed.smi:3219|AV-procd|sdf|12296|dock3
  -GOLD-   2272018133D 1   1.00000     0.00000
 Structure written by MMmdl.
 41 42  0  0  0  0  0  0  0  0  2 V2000
  147.1027  141.4398  155.1564 C   0  0  0  0  0  0  0  0  0  0  0  0
  148.1242  140.4956  154.6082 C   0  0  0  0  0  0  0  0  0  0  0  0
  147.9872  139.3849  153.8181 C   0  0  0  0  0  0  0  0  0  0  0  0
  146.7368  138.7710  153.2430 C   0  0  0  0  0  0  0  0  0  0  0  0
  146.7896  138.6917  151.7097 C   0  0  0  0  0  0  0  0  0  0  0  0
  146.6522  137.2990  151.2396 N   0  3  0  0  0  0  0  0  0  0  0  0
  145.4852  136.5821  151.7877 C   0  0  0  0  0  0  0  0  0  0  0  0
  145.2900  135.2218  151.0941 C   0  0  1  0  0  0  0  0  0  0  0  0
  146.4711  134.2598  151.3673 C   0  0  0  0  0  0  0  0  0  0  0  0
  146.1748  132.8327  150.9419 C   0  0  0  0  0  0  0  0  0  0  0  0
  144.9397  132.3856  150.6600 C   0  0  0  0  0  0  0  0  0  0  0  0
  143.6999  133.2563  150.7423 C   0  0  0  0  0  0  0  0  0  0  0  0
  143.9585  134.5667  151.5089 C   0  0  0  0  0  0  0  0  0  0  0  0
  149.3245  138.9291  153.6437 C   0  0  0  0  0  0  0  0  0  0  0  0
  150.2104  139.6893  154.2609 N   0  0  0  0  0  0  0  0  0  0  0  0
  149.4750  140.6505  154.8561 N   0  0  0  0  0  0  0  0  0  0  0  0
  150.1415  141.6752  155.6362 C   0  0  0  0  0  0  0  0  0  0  0  0
  146.1170  141.2487  154.7331 H   0  0  0  0  0  0  0  0  0  0  0  0
  147.3659  142.4732  154.9298 H   0  0  0  0  0  0  0  0  0  0  0  0
  147.0270  141.3394  156.2391 H   0  0  0  0  0  0  0  0  0  0  0  0
  146.5948  137.7653  153.6397 H   0  0  0  0  0  0  0  0  0  0  0  0
  145.8504  139.3285  153.5475 H   0  0  0  0  0  0  0  0  0  0  0  0
  145.9930  139.3013  151.2805 H   0  0  0  0  0  0  0  0  0  0  0  0
  147.7348  139.0983  151.3480 H   0  0  0  0  0  0  0  0  0  0  0  0
  146.5891  137.3004  150.2316 H   0  0  0  0  0  0  0  0  0  0  0  0
  145.6115  136.4431  152.8625 H   0  0  0  0  0  0  0  0  0  0  0  0
  144.6002  137.2043  151.6475 H   0  0  0  0  0  0  0  0  0  0  0  0
  145.2380  135.3976  150.0181 H   0  0  0  0  0  0  0  0  0  0  0  0
  147.3634  134.6014  150.8415 H   0  0  0  0  0  0  0  0  0  0  0  0
  146.7162  134.2446  152.4301 H   0  0  0  0  0  0  0  0  0  0  0  0
  147.0159  132.1575  150.8813 H   0  0  0  0  0  0  0  0  0  0  0  0
  144.7963  131.3611  150.3492 H   0  0  0  0  0  0  0  0  0  0  0  0
  143.3700  133.4716  149.7254 H   0  0  0  0  0  0  0  0  0  0  0  0
  142.8980  132.6963  151.2242 H   0  0  0  0  0  0  0  0  0  0  0  0
  143.9785  134.3600  152.5800 H   0  0  0  0  0  0  0  0  0  0  0  0
  143.1257  135.2517  151.3449 H   0  0  0  0  0  0  0  0  0  0  0  0
  149.6754  138.0749  153.0833 H   0  0  0  0  0  0  0  0  0  0  0  0
  149.7396  141.6844  156.6496 H   0  0  0  0  0  0  0  0  0  0  0  0
  149.9756  142.6504  155.1777 H   0  0  0  0  0  0  0  0  0  0  0  0
  151.2151  141.4865  155.6847 H   0  0  0  0  0  0  0  0  0  0  0  0
  147.4853  136.7951  151.5095 H   0  0  0  0  0  0  0  0  0  0  0  0
  1  2  1  0  0  0  0
  1 18  1  0  0  0  0
  1 19  1  0  0  0  0
  1 20  1  0  0  0  0
  2 16  1  0  0  0  0
  2  3  2  0  0  0  0
  3  4  1  0  0  0  0
  3 14  1  0  0  0  0
  4  5  1  0  0  0  0
  4 21  1  0  0  0  0
  4 22  1  0  0  0  0
  5  6  1  0  0  0  0
  5 23  1  0  0  0  0
  5 24  1  0  0  0  0
  6  7  1  0  0  0  0
  6 25  1  0  0  0  0
  6 41  1  0  0  0  0
  7  8  1  0  0  0  0
  7 26  1  0  0  0  0
  7 27  1  0  0  0  0
  8 13  1  0  0  0  0
  8  9  1  0  0  0  0
  8 28  1  0  0  0  0
  9 10  1  0  0  0  0
  9 29  1  0  0  0  0
  9 30  1  0  0  0  0
 10 11  2  0  0  0  0
 10 31  1  0  0  0  0
 11 12  1  0  0  0  0
 11 32  1  0  0  0  0
 12 13  1  0  0  0  0
 12 33  1  0  0  0  0
 12 34  1  0  0  0  0
 13 35  1  0  0  0  0
 13 36  1  0  0  0  0
 14 15  2  0  0  0  0
 14 37  1  0  0  0  0
 15 16  1  0  0  0  0
 16 17  1  0  0  0  0
 17 38  1  0  0  0  0
 17 39  1  0  0  0  0
 17 40  1  0  0  0  0
M  CHG  1   6   1
M  END
> <s_m_source_file>
AV-unprocessed.smi

> <i_m_source_file_index>
3219

> <i_lp_mmshare_version>
43012

> <i_f3d_flags>
0

> <s_epik_input>
W0NIM11uMW5bY0hdYyhjMVtDSDNdKVtDSDJdW0NIMl1bTkhdW0NIMl1bQ0BASF0yW0NIMl1bQ0hdPVtDSF1bQ0gyXVtDSDJdMg==

> <s_epik_cmdline>
J2VwaWtfcHl0aG9uJywgJy1waCcsICc3LjAnLCAnLXRuJywgJzgnLCAnLW1hJywgJzIwMCcsICctbWV0YWxfYmluZGluZycsICctaW1hZScsICc8aW5maWxlLm1hZT4nLCAnLW9tYWUnLCAnPG91dGZpbGUubWFlPic=

> <r_lp_tautomer_probability>
1

> <r_epik_Ionization_Penalty>
0.000661401

> <r_epik_Ionization_Penalty_Charging>
0.00057791

> <r_epik_Ionization_Penalty_Neutral>
8.34914e-05

> <r_epik_State_Penalty>
-0

> <r_epik_Charging_Adjusted_Penalty>
0.00057791

> <i_epik_Tot_Q>
1

> <i_epik_Tot_abs_Q>
1

> <r_epik_Metal_State_Penalty>
-0

> <b_epik_Metal_Only>
0

> <s_lp_Force_Field>
OPLS_2005

> <r_lp_Energy>
9.67125

> <b_lp_Chiralities_Consistent>
1

> <s_lp_Variant>
AV-unprocessed.smi:3219-2

> <Gold.Version>
5.8.1

> <Gold.Id.Protein>
6NUR|6NUR_protein|mol2

> <Gold.PLP.Fitness>
45.0868

> <Gold.PLP.PLP>
-33.9308

> <Gold.PLP.part.hbond>
-2.0000

> <Gold.PLP.part.metal>
0.0000

> <Gold.PLP.part.buried>
1.3634

> <Gold.PLP.part.nonpolar>
-33.0016

> <Gold.PLP.part.repulsive>
0.5121

> <Gold.PLP.ligand.clash>
0.0000

> <Gold.PLP.ligand.torsion>
0.4381

> <Gold.PLP.Chemscore.Hbond>
3.0000

> <Gold.PLP.Chemscore.CHOScore>
1.0000

> <Gold.PLP.Chemscore.Metal>
0.0000

> <Gold.Chemscore.Hbonds>
donor molecule, donor type, donor heavy atom, donor atom, acceptor molecule, acceptor atom, score
      L1  H     6    41       P1  7948  2.00
      P1  H  7989  7998       L1    15  0.90
      L1  C    14    37       P1  7948  1.00

> <Gold.PLP.Chemscore.Internal.Correction>
0.0323

> <Gold.Rescore>
     Score         DG    S(hbond)    S(metal)    S(lipo)     H(rot)  DE(clash)    DE(int)     intcor
     16.29     -18.18       1.90        0.00      86.26       1.46       1.42       0.47       ----

> <Gold.Chemscore.Fitness>
16.2867

> <Gold.Chemscore.DG>
-18.1763

> <Gold.Chemscore.ZeroCoef>
-5.4800

> <Gold.Chemscore.Hbond>
1.8984

> <Gold.Chemscore.Metal>
0.0000

> <Gold.Chemscore.Lipo>
86.2606

> <Gold.Chemscore.Internal_Hbond>
0.0000

> <Gold.Chemscore.DEClash>
1.4154

> <Gold.Chemscore.DEInternal>
0.4741

> <Gold.Chemscore.Rot>
1.4597

> <Gold.Chemscore.Internal.Correction>
   9.000000E+99

> <Gold.Chemscore.Hbonds>
donor molecule, donor type, donor heavy atom, donor atom, acceptor molecule, acceptor atom, score
      L1  H     6    41       P1  7948  0.97
      P1  H  7989  7998       L1    15  0.17

> <Gold.Chemscore.Hbond.Weighted>
-6.3406

> <Gold.Chemscore.Metal.Weighted>
-0.0000

> <Gold.Chemscore.Lipo.Weighted>
-10.0925

> <Gold.Chemscore.Internal_Hbond.Weighted>
0.0000

> <Gold.Chemscore.DEClash.Weighted>
1.4154

> <Gold.Chemscore.DEInternal.Weighted>
0.4741

> <Gold.Chemscore.Rot.Weighted>
3.7368

> <Gold.Chemscore.Internal.Correction.Weighted>
   9.000000E+99

> <Gold.Protein.RotatedTorsions>
[ 6907 6896 6895 6894 ] final -124.67 input  -60.11 | X-H torsion
[ 7974 7965 7964 7962 ] final  -13.07 input  175.53 | X-H torsion
[ 8008 7997 7996 7995 ] final  -90.82 input   59.86 | X-H torsion
[ 10167 10162 10161 10158 ] final  142.70 input  -65.29 | X-H torsion
[ 10718 10713 10712 10709 ] final  101.32 input   66.30 | X-H torsion
[ 10763 10752 10751 10750 ] final   35.99 input  -60.55 | X-H torsion
[ 11005 11000 10999 10996 ] final   90.22 input  -57.11 | X-H torsion

> <Gold.Protein.ActiveResidues>
 VAL166  LYS551  ARG553  GLY616  TRP617  ASP618  TYR619  PRO620  LYS621  CYS622 
 ASP623  PHE694  ASN695  SER759  ASP760  ASP761  ALA762  ILE779  LEU786  VAL792 
 PHE793  MET794  SER795  GLU796  ALA797  LYS798  CYS799  TRP800  GLU811  SER814 

> <Gold.Protein.RotatedAtoms>
  150.8791  133.7398  159.2937 H   0  0  0  0  0  0  0  0  0  0  0  0  # atno 6907 bound_to 6896
  151.4985  135.1059  159.9832 H   0  0  0  0  0  0  0  0  0  0  0  0  # atno 6908 bound_to 6896
  152.4747  133.8066  159.7036 H   0  0  0  0  0  0  0  0  0  0  0  0  # atno 6909 bound_to 6896
  146.2128  140.3149  142.8385 H   0  0  0  0  0  0  0  0  0  0  0  0  # atno 7974 bound_to 7965
  154.7032  140.0526  157.0478 H   0  0  0  0  0  0  0  0  0  0  0  0  # atno 8008 bound_to 7997
  155.0656  140.3194  155.4627 H   0  0  0  0  0  0  0  0  0  0  0  0  # atno 8009 bound_to 7997
  156.2766  140.2091  156.5784 H   0  0  0  0  0  0  0  0  0  0  0  0  # atno 8010 bound_to 7997
  139.4987  144.6090  151.6315 H   0  0  0  0  0  0  0  0  0  0  0  0  # atno 10167 bound_to 10162
  157.6832  131.0723  150.5234 H   0  0  0  0  0  0  0  0  0  0  0  0  # atno 10718 bound_to 10713
  153.0095  135.6318  154.1914 H   0  0  0  0  0  0  0  0  0  0  0  0  # atno 10763 bound_to 10752
  154.1657  135.2821  155.3097 H   0  0  0  0  0  0  0  0  0  0  0  0  # atno 10764 bound_to 10752
  154.5947  135.5606  153.7374 H   0  0  0  0  0  0  0  0  0  0  0  0  # atno 10765 bound_to 10752
  139.8860  134.8600  156.3254 H   0  0  0  0  0  0  0  0  0  0  0  0  # atno 11005 bound_to 11000
  144.8961  140.7585  143.5896 LP  0  0  0  0  0  0  0  0  0  0  0  0  # atno 17320 bound_to 7965
  145.3074  139.1830  143.4657 LP  0  0  0  0  0  0  0  0  0  0  0  0  # atno 17321 bound_to 7965
  140.5759  144.0029  150.6241 LP  0  0  0  0  0  0  0  0  0  0  0  0  # atno 17342 bound_to 10162
  140.3162  143.3166  152.0829 LP  0  0  0  0  0  0  0  0  0  0  0  0  # atno 17343 bound_to 10162
  156.5546  130.4240  149.6091 LP  0  0  0  0  0  0  0  0  0  0  0  0  # atno 17370 bound_to 10713
  156.2873  130.7104  151.1944 LP  0  0  0  0  0  0  0  0  0  0  0  0  # atno 17371 bound_to 10713
  140.9758  133.7298  156.0601 LP  0  0  0  0  0  0  0  0  0  0  0  0  # atno 17394 bound_to 11000
  140.7812  134.3723  157.5487 LP  0  0  0  0  0  0  0  0  0  0  0  0  # atno 17395 bound_to 11000

$$$$
