AV-unprocessed.smi:1799|AV-procd|sdf|7261|dock7
  -GOLD-   22720 8513D 1   1.00000     0.00000
 Structure written by MMmdl.
 41 42  0  0  0  0  0  0  0  0  2 V2000
  146.3955  134.9448  155.7496 C   0  0  0  0  0  0  0  0  0  0  0  0
  145.0365  134.5529  155.1289 C   0  0  0  0  0  0  0  0  0  0  0  0
  144.1038  134.1966  156.3030 C   0  0  0  0  0  0  0  0  0  0  0  0
  144.3884  135.7200  154.3429 C   0  0  0  0  0  0  0  0  0  0  0  0
  144.9573  135.9547  152.9298 C   0  0  0  0  0  0  0  0  0  0  0  0
  146.2560  136.6254  152.9202 N   0  0  0  0  0  0  0  0  0  0  0  0
  146.5455  137.7721  153.5526 C   0  0  0  0  0  0  0  0  0  0  0  0
  145.7269  138.4013  154.2227 O   0  0  0  0  0  0  0  0  0  0  0  0
  147.8281  138.1248  153.3574 N   0  0  0  0  0  0  0  0  0  0  0  0
  148.5253  139.2378  153.8976 C   0  0  0  0  0  0  0  0  0  0  0  0
  149.8346  139.2234  154.1932 N   0  0  0  0  0  0  0  0  0  0  0  0
  150.2664  140.4425  154.6992 N   0  0  0  0  0  0  0  0  0  0  0  0
  149.2675  141.3274  154.7648 C   0  0  0  0  0  0  0  0  0  0  0  0
  147.7008  140.7574  154.2154 S   0  0  0  0  0  0  0  0  0  0  0  0
  144.9834  134.6348  152.1418 C   0  0  0  0  0  0  0  0  0  0  0  0
  145.6376  133.4372  152.8794 C   0  0  0  0  0  0  0  0  0  0  0  0
  145.2047  132.1431  152.1629 C   0  0  0  0  0  0  0  0  0  0  0  0
  147.1805  133.4806  152.8159 C   0  0  0  0  0  0  0  0  0  0  0  0
  145.1497  133.3308  154.2838 N   0  3  0  0  0  0  0  0  0  0  0  0
  146.2686  135.7360  156.4894 H   0  0  0  0  0  0  0  0  0  0  0  0
  147.1141  135.3221  155.0298 H   0  0  0  0  0  0  0  0  0  0  0  0
  146.8573  134.0983  156.2592 H   0  0  0  0  0  0  0  0  0  0  0  0
  143.9531  135.0506  156.9647 H   0  0  0  0  0  0  0  0  0  0  0  0
  144.5113  133.3840  156.9059 H   0  0  0  0  0  0  0  0  0  0  0  0
  143.1204  133.8791  155.9537 H   0  0  0  0  0  0  0  0  0  0  0  0
  143.3259  135.5039  154.2200 H   0  0  0  0  0  0  0  0  0  0  0  0
  144.4216  136.6368  154.9329 H   0  0  0  0  0  0  0  0  0  0  0  0
  144.2713  136.6225  152.4051 H   0  0  0  0  0  0  0  0  0  0  0  0
  146.9901  136.1845  152.3855 H   0  0  0  0  0  0  0  0  0  0  0  0
  148.3767  137.5178  152.7667 H   0  0  0  0  0  0  0  0  0  0  0  0
  149.4550  142.3228  155.1392 H   0  0  0  0  0  0  0  0  0  0  0  0
  143.9454  134.3793  151.9222 H   0  0  0  0  0  0  0  0  0  0  0  0
  145.4527  134.7857  151.1684 H   0  0  0  0  0  0  0  0  0  0  0  0
  145.5086  132.1449  151.1151 H   0  0  0  0  0  0  0  0  0  0  0  0
  144.1219  132.0136  152.1869 H   0  0  0  0  0  0  0  0  0  0  0  0
  145.6457  131.2610  152.6295 H   0  0  0  0  0  0  0  0  0  0  0  0
  147.5285  133.3870  151.7865 H   0  0  0  0  0  0  0  0  0  0  0  0
  147.6237  132.6597  153.3808 H   0  0  0  0  0  0  0  0  0  0  0  0
  147.6095  134.4026  153.1936 H   0  0  0  0  0  0  0  0  0  0  0  0
  145.7040  132.6428  154.7731 H   0  0  0  0  0  0  0  0  0  0  0  0
  144.2093  132.9692  154.2119 H   0  0  0  0  0  0  0  0  0  0  0  0
  1  2  1  0  0  0  0
  1 20  1  0  0  0  0
  1 21  1  0  0  0  0
  1 22  1  0  0  0  0
  2 19  1  0  0  0  0
  2  3  1  0  0  0  0
  2  4  1  0  0  0  0
  3 23  1  0  0  0  0
  3 24  1  0  0  0  0
  3 25  1  0  0  0  0
  4  5  1  0  0  0  0
  4 26  1  0  0  0  0
  4 27  1  0  0  0  0
  5  6  1  0  0  0  0
  5 15  1  0  0  0  0
  5 28  1  0  0  0  0
  6  7  1  0  0  0  0
  6 29  1  0  0  0  0
  7  8  2  0  0  0  0
  7  9  1  0  0  0  0
  9 10  1  0  0  0  0
  9 30  1  0  0  0  0
 10 14  1  0  0  0  0
 10 11  2  0  0  0  0
 11 12  1  0  0  0  0
 12 13  2  0  0  0  0
 13 14  1  0  0  0  0
 13 31  1  0  0  0  0
 15 16  1  0  0  0  0
 15 32  1  0  0  0  0
 15 33  1  0  0  0  0
 16 17  1  0  0  0  0
 16 18  1  0  0  0  0
 16 19  1  0  0  0  0
 17 34  1  0  0  0  0
 17 35  1  0  0  0  0
 17 36  1  0  0  0  0
 18 37  1  0  0  0  0
 18 38  1  0  0  0  0
 18 39  1  0  0  0  0
 19 40  1  0  0  0  0
 19 41  1  0  0  0  0
M  CHG  1  19   1
M  END
> <s_m_source_file>
AV-unprocessed.smi

> <i_m_source_file_index>
1799

> <i_lp_mmshare_version>
43012

> <i_f3d_flags>
0

> <s_epik_input>
W0NIM11DMShbQ0gzXSlbQ0gyXVtDSF0oW0NIMl1DKFtDSDNdKShbQ0gzXSlbTkhdMSlbTkhdQyg9TylbTkhdYzJubltjSF1zMg==

> <s_epik_cmdline>
J2VwaWtfcHl0aG9uJywgJy1waCcsICc3LjAnLCAnLXRuJywgJzgnLCAnLW1hJywgJzIwMCcsICctbWV0YWxfYmluZGluZycsICctaW1hZScsICc8aW5maWxlLm1hZT4nLCAnLW9tYWUnLCAnPG91dGZpbGUubWFlPic=

> <r_lp_tautomer_probability>
1

> <r_epik_Ionization_Penalty>
0.000698711

> <r_epik_Ionization_Penalty_Charging>
0.000101406

> <r_epik_Ionization_Penalty_Neutral>
0.000597305

> <r_epik_State_Penalty>
-0

> <r_epik_Charging_Adjusted_Penalty>
0.000101406

> <i_epik_Tot_Q>
1

> <i_epik_Tot_abs_Q>
1

> <r_epik_Metal_State_Penalty>
0.237927

> <b_epik_Metal_Only>
0

> <s_lp_Force_Field>
OPLS_2005

> <r_lp_Energy>
25.55

> <b_lp_Chiralities_Consistent>
1

> <s_lp_Variant>
AV-unprocessed.smi:1799-1

> <Gold.Version>
5.8.1

> <Gold.Id.Protein>
6NUR|6NUR_protein|mol2

> <Gold.PLP.Fitness>
36.8039

> <Gold.PLP.PLP>
-19.6669

> <Gold.PLP.part.hbond>
-4.0000

> <Gold.PLP.part.metal>
0.0000

> <Gold.PLP.part.buried>
-3.3853

> <Gold.PLP.part.nonpolar>
-13.9799

> <Gold.PLP.part.repulsive>
0.7470

> <Gold.PLP.ligand.clash>
0.0000

> <Gold.PLP.ligand.torsion>
0.2484

> <Gold.PLP.Chemscore.Hbond>
4.8720

> <Gold.PLP.Chemscore.CHOScore>
1.0000

> <Gold.PLP.Chemscore.Metal>
0.0000

> <Gold.Chemscore.Hbonds>
donor molecule, donor type, donor heavy atom, donor atom, acceptor molecule, acceptor atom, score
      L1  H     6    29       P1  7948  0.94
      L1  H     9    30       P1  7948  1.00
      L1  H    19    41       P1 10957  1.98
      P1  H  7989  7998       L1    12  0.99
      L1  C    13    31       P1  8028  1.00

> <Gold.PLP.Chemscore.Internal.Correction>
0.0178

> <Gold.Rescore>
     Score         DG    S(hbond)    S(metal)    S(lipo)     H(rot)  DE(clash)    DE(int)     intcor
     16.40     -17.76       3.08        0.00      38.96       1.00       0.01       1.35       ----

> <Gold.Chemscore.Fitness>
16.3988

> <Gold.Chemscore.DG>
-17.7642

> <Gold.Chemscore.ZeroCoef>
-5.4800

> <Gold.Chemscore.Hbond>
3.0797

> <Gold.Chemscore.Metal>
0.0000

> <Gold.Chemscore.Lipo>
38.9575

> <Gold.Chemscore.Internal_Hbond>
0.0000

> <Gold.Chemscore.DEClash>
0.0147

> <Gold.Chemscore.DEInternal>
1.3508

> <Gold.Chemscore.Rot>
1.0000

> <Gold.Chemscore.Internal.Correction>
   9.000000E+99

> <Gold.Chemscore.Hbonds>
donor molecule, donor type, donor heavy atom, donor atom, acceptor molecule, acceptor atom, score
      L1  H     6    29       P1  7948  0.86
      L1  H     9    30       P1  7948  1.00
      L1  H    19    41       P1 10957  0.88
      P1  H  7989  7998       L1    12  0.25

> <Gold.Chemscore.Hbond.Weighted>
-10.2862

> <Gold.Chemscore.Metal.Weighted>
-0.0000

> <Gold.Chemscore.Lipo.Weighted>
-4.5580

> <Gold.Chemscore.Internal_Hbond.Weighted>
0.0000

> <Gold.Chemscore.DEClash.Weighted>
0.0147

> <Gold.Chemscore.DEInternal.Weighted>
1.3508

> <Gold.Chemscore.Rot.Weighted>
2.5600

> <Gold.Chemscore.Internal.Correction.Weighted>
   9.000000E+99

> <Gold.Protein.RotatedTorsions>
[ 6907 6896 6895 6894 ] final  162.05 input  -60.11 | X-H torsion
[ 7974 7965 7964 7962 ] final   37.33 input  175.53 | X-H torsion
[ 8008 7997 7996 7995 ] final  -30.65 input   59.86 | X-H torsion
[ 10167 10162 10161 10158 ] final   88.47 input  -65.29 | X-H torsion
[ 10718 10713 10712 10709 ] final  149.31 input   66.30 | X-H torsion
[ 10763 10752 10751 10750 ] final  -43.12 input  -60.55 | X-H torsion
[ 11005 11000 10999 10996 ] final   70.73 input  -57.11 | X-H torsion

> <Gold.Protein.ActiveResidues>
 VAL166  LYS551  ARG553  GLY616  TRP617  ASP618  TYR619  PRO620  LYS621  CYS622 
 ASP623  PHE694  ASN695  SER759  ASP760  ASP761  ALA762  ILE779  LEU786  VAL792 
 PHE793  MET794  SER795  GLU796  ALA797  LYS798  CYS799  TRP800  GLU811  SER814 

> <Gold.Protein.RotatedAtoms>
  151.9463  133.3652  159.3983 H   0  0  0  0  0  0  0  0  0  0  0  0  # atno 6907 bound_to 6896
  150.6989  134.4387  159.5291 H   0  0  0  0  0  0  0  0  0  0  0  0  # atno 6908 bound_to 6896
  152.2052  134.8551  160.0554 H   0  0  0  0  0  0  0  0  0  0  0  0  # atno 6909 bound_to 6896
  146.1145  139.5907  142.9330 H   0  0  0  0  0  0  0  0  0  0  0  0  # atno 7974 bound_to 7965
  154.4242  140.1785  156.1440 H   0  0  0  0  0  0  0  0  0  0  0  0  # atno 8008 bound_to 7997
  155.9968  140.3364  155.6782 H   0  0  0  0  0  0  0  0  0  0  0  0  # atno 8009 bound_to 7997
  155.6297  140.0668  157.2643 H   0  0  0  0  0  0  0  0  0  0  0  0  # atno 8010 bound_to 7997
  139.8670  144.6513  150.8993 H   0  0  0  0  0  0  0  0  0  0  0  0  # atno 10167 bound_to 10162
  157.2977  131.0865  151.1414 H   0  0  0  0  0  0  0  0  0  0  0  0  # atno 10718 bound_to 10713
  153.9903  135.6706  153.4754 H   0  0  0  0  0  0  0  0  0  0  0  0  # atno 10763 bound_to 10752
  153.0708  135.4975  154.8297 H   0  0  0  0  0  0  0  0  0  0  0  0  # atno 10764 bound_to 10752
  154.7113  135.3098  154.9155 H   0  0  0  0  0  0  0  0  0  0  0  0  # atno 10765 bound_to 10752
  139.9582  134.7107  156.0705 H   0  0  0  0  0  0  0  0  0  0  0  0  # atno 11005 bound_to 11000
  145.5594  141.0406  143.2234 LP  0  0  0  0  0  0  0  0  0  0  0  0  # atno 17320 bound_to 7965
  144.7541  139.7119  143.7261 LP  0  0  0  0  0  0  0  0  0  0  0  0  # atno 17321 bound_to 7965
  140.7766  143.3696  151.1674 LP  0  0  0  0  0  0  0  0  0  0  0  0  # atno 17342 bound_to 10162
  139.7320  143.9058  152.3022 LP  0  0  0  0  0  0  0  0  0  0  0  0  # atno 17343 bound_to 10162
  157.2785  130.6738  149.6054 LP  0  0  0  0  0  0  0  0  0  0  0  0  # atno 17370 bound_to 10713
  155.9670  130.4457  150.5512 LP  0  0  0  0  0  0  0  0  0  0  0  0  # atno 17371 bound_to 10713
  141.1256  133.6600  156.3328 LP  0  0  0  0  0  0  0  0  0  0  0  0  # atno 17394 bound_to 11000
  140.5561  134.5980  157.5421 LP  0  0  0  0  0  0  0  0  0  0  0  0  # atno 17395 bound_to 11000

$$$$
