#       Name:                AV-unprocessed.smi:1622
#       Creating user name   scv26
#       Creation time:       Fri Mar 27 07:16:30 2020


#       File generated by GOLD software.
#

@<TRIPOS>MOLECULE
AV-unprocessed.smi:1622
    45    46     1
SMALL
NO_CHARGES


@<TRIPOS>ATOM
      1 ****        -1.7041   1.5979   1.4323 C.3            1 S1                 0.0000
      2 ****        -2.1058   0.8299   0.1633 C.3            1 S1                 0.0000
      3 ****        -1.5527  -0.6191   0.0784 C.3            1 S1                 0.0000
      4 ****        -0.0046  -0.6592   0.0487 C.3            1 S1                 0.0000
      5 ****         0.5405   0.1802  -1.0114 N.am           1 S1                 0.0000
      6 ****         1.8124   0.5895  -1.1004 C.2            1 S1                 0.0000
      7 ****         2.6300   0.2450  -0.2440 O.2            1 S1                 0.0000
      8 ****         2.0547   1.3737  -2.1744 N.pl3          1 S1                -1.0000
      9 ****         3.2884   1.8615  -2.3856 C.2            1 S1                 0.0000
     10 ****         4.1509   1.2908  -3.2387 N.2            1 S1                 0.0000
     11 ****         5.3661   1.9564  -3.3102 N.2            1 S1                 0.0000
     12 ****         5.4005   3.0281  -2.5147 C.2            1 S1                 0.0000
     13 ****         6.5937   3.9146  -2.4103 C.3            1 S1                 0.0000
     14 ****         3.9251   3.3095  -1.6057 S.3            1 S1                 0.0000
     15 ****        -2.0994  -1.4847   1.1656 N.4            1 S1                 1.0000
     16 ****        -3.5762  -1.5367   1.2534 C.3            1 S1                 0.0000
     17 ****        -3.9254  -2.8214   2.0126 C.3            1 S1                 0.0000
     18 ****        -2.6420  -3.6548   2.0263 C.3            1 S1                 0.0000
     19 ****        -1.6609  -2.8962   1.1329 C.3            1 S1                 0.0000
     20 ****        -2.1562   2.5897   1.4385 H              1 S1                 0.0000
     21 ****        -0.6243   1.7338   1.4934 H              1 S1                 0.0000
     22 ****        -2.0314   1.0821   2.3349 H              1 S1                 0.0000
     23 ****        -3.1925   0.8245   0.0810 H              1 S1                 0.0000
     24 ****        -1.7736   1.4001  -0.7046 H              1 S1                 0.0000
     25 ****        -1.9035  -1.0378  -0.8665 H              1 S1                 0.0000
     26 ****         0.3965  -0.3507   1.0156 H              1 S1                 0.0000
     27 ****         0.3560  -1.6718  -0.1318 H              1 S1                 0.0000
     28 ****        -0.0951   0.4818  -1.7353 H              1 S1                 0.0000
     29 ****         6.7724   4.4141  -3.3626 H              1 S1                 0.0000
     30 ****         7.4748   3.3282  -2.1490 H              1 S1                 0.0000
     31 ****         6.4382   4.6718  -1.6418 H              1 S1                 0.0000
     32 ****        -3.9816  -0.6536   1.7482 H              1 S1                 0.0000
     33 ****        -4.0004  -1.5848   0.2491 H              1 S1                 0.0000
     34 ****        -4.2393  -2.5969   3.0328 H              1 S1                 0.0000
     35 ****        -4.7457  -3.3511   1.5269 H              1 S1                 0.0000
     36 ****        -2.2517  -3.7098   3.0434 H              1 S1                 0.0000
     37 ****        -2.8037  -4.6761   1.6797 H              1 S1                 0.0000
     38 ****        -1.7260  -3.2748   0.1114 H              1 S1                 0.0000
     39 ****        -0.6326  -3.0164   1.4751 H              1 S1                 0.0000
     40 ****        -1.7733  -1.1064   2.0436 H              1 S1                 0.0000
     41 ****         2.3428  -0.3390   0.5152 LP             1 S1                 0.0000
     42 ****         3.5803   0.5496  -0.3087 LP             1 S1                 0.0000
     43 ****         1.3155   1.5907  -2.8119 LP             1 S1                 0.0000
     44 ****         3.9400   0.4696  -3.7690 LP             1 S1                 0.0000
     45 ****         6.1277   1.6671  -3.8901 LP             1 S1                 0.0000
@<TRIPOS>BOND
    1    1    2 1     
    2    1   20 1     
    3    1   21 1     
    4    1   22 1     
    5    2    3 1     
    6    2   23 1     
    7    2   24 1     
    8    3    4 1     
    9    3   15 1     
   10    3   25 1     
   11    4    5 1     
   12    4   26 1     
   13    4   27 1     
   14    5    6 am    
   15    5   28 1     
   16    6    7 2     
   17    6    8 1     
   18    8    9 1     
   19    9   14 1     
   20    9   10 2     
   21   10   11 1     
   22   11   12 2     
   23   12   13 1     
   24   12   14 1     
   25   13   29 1     
   26   13   30 1     
   27   13   31 1     
   28   15   19 1     
   29   15   16 1     
   30   15   40 1     
   31   16   17 1     
   32   16   32 1     
   33   16   33 1     
   34   17   18 1     
   35   17   34 1     
   36   17   35 1     
   37   18   19 1     
   38   18   36 1     
   39   18   37 1     
   40   19   38 1     
   41   19   39 1     
   42    7   41 1     
   43    7   42 1     
   44    8   43 1     
   45   10   44 1     
   46   11   45 1     
@<TRIPOS>SUBSTRUCTURE
      1 S1             1
@<TRIPOS>SET
LONE_PAIRS      STATIC     ATOMS    <user>   **** ""
5 41 42 43 44 45
DONOR_HYDROGENS      STATIC     ATOMS    <user>   **** ""
2 28 40
ATOM$BLUE        STATIC     ATOMS    COLORGROUP SYSTEM
5 41 42 43 44 45
ATOM$RED        STATIC     ATOMS    COLORGROUP SYSTEM
2 28 40
