AV-unprocessed.smi:2226|AV-procd|sdf|9008|dock8
  -GOLD-   2272012213D 1   1.00000     0.00000
 Structure written by MMmdl.
 41 43  0  0  0  0  0  0  0  0  3 V2000
  146.4471  138.8467  153.4795 C   0  0  0  0  0  0  0  0  0  0  0  0
  146.2186  140.2092  154.0174 N   0  3  2  0  0  0  0  0  0  0  0  0
  147.0728  141.2649  153.4230 C   0  0  1  0  0  0  0  0  0  0  0  0
  146.4593  142.6485  153.7374 C   0  0  0  0  0  0  0  0  0  0  0  0
  146.1869  142.8822  155.2354 C   0  0  0  0  0  0  0  0  0  0  0  0
  145.5876  141.6414  155.9251 C   0  0  0  0  0  0  0  0  0  0  0  0
  146.2431  140.3078  155.4964 C   0  0  2  0  0  0  0  0  0  0  0  0
  147.6666  140.0625  156.0578 C   0  0  0  0  0  0  0  0  0  0  0  0
  148.8166  140.8147  155.3423 C   0  0  2  0  0  0  0  0  0  0  0  0
  149.2307  142.0013  156.0902 N   0  0  0  0  0  0  0  0  0  0  0  0
  149.9394  141.9999  157.2303 C   0  0  0  0  0  0  0  0  0  0  0  0
  150.3463  140.9754  157.7787 O   0  0  0  0  0  0  0  0  0  0  0  0
  150.1455  143.2442  157.6884 N   0  0  0  0  0  0  0  0  0  0  0  0
  150.8666  143.5829  158.8565 C   0  0  0  0  0  0  0  0  0  0  0  0
  151.1772  144.8303  159.2053 N   0  3  0  0  0  0  0  0  0  0  0  0
  151.8797  144.7961  160.3844 C   0  0  0  0  0  0  0  0  0  0  0  0
  151.9741  143.4678  160.7243 C   0  0  0  0  0  0  0  0  0  0  0  0
  151.3414  142.6925  159.7733 O   0  0  0  0  0  0  0  0  0  0  0  0
  148.5562  141.0964  153.8371 C   0  0  0  0  0  0  0  0  0  0  0  0
  147.4471  138.4756  153.7027 H   0  0  0  0  0  0  0  0  0  0  0  0
  146.3191  138.8400  152.3969 H   0  0  0  0  0  0  0  0  0  0  0  0
  145.7255  138.1463  153.9003 H   0  0  0  0  0  0  0  0  0  0  0  0
  147.0282  141.1535  152.3386 H   0  0  0  0  0  0  0  0  0  0  0  0
  147.0908  143.4453  153.3427 H   0  0  0  0  0  0  0  0  0  0  0  0
  145.5112  142.7290  153.2035 H   0  0  0  0  0  0  0  0  0  0  0  0
  147.0954  143.1938  155.7388 H   0  0  0  0  0  0  0  0  0  0  0  0
  145.5072  143.7267  155.3532 H   0  0  0  0  0  0  0  0  0  0  0  0
  145.6295  141.7577  157.0084 H   0  0  0  0  0  0  0  0  0  0  0  0
  144.5272  141.5940  155.6731 H   0  0  0  0  0  0  0  0  0  0  0  0
  145.6034  139.5166  155.8902 H   0  0  0  0  0  0  0  0  0  0  0  0
  147.6870  140.2544  157.1316 H   0  0  0  0  0  0  0  0  0  0  0  0
  147.8716  138.9949  155.9687 H   0  0  0  0  0  0  0  0  0  0  0  0
  149.6798  140.1474  155.3905 H   0  0  0  0  0  0  0  0  0  0  0  0
  148.9382  142.8924  155.7160 H   0  0  0  0  0  0  0  0  0  0  0  0
  150.9530  145.6865  158.7139 H   0  0  0  0  0  0  0  0  0  0  0  0
  152.2357  145.7015  160.8547 H   0  0  0  0  0  0  0  0  0  0  0  0
  152.4257  142.9390  161.5512 H   0  0  0  0  0  0  0  0  0  0  0  0
  148.9547  140.2491  153.2780 H   0  0  0  0  0  0  0  0  0  0  0  0
  149.1395  141.9485  153.4862 H   0  0  0  0  0  0  0  0  0  0  0  0
  145.2731  140.4371  153.7442 H   0  0  0  0  0  0  0  0  0  0  0  0
  149.7591  144.0115  157.1588 H   0  0  0  0  0  0  0  0  0  0  0  0
  1  2  1  0  0  0  0
  1 20  1  0  0  0  0
  1 21  1  0  0  0  0
  1 22  1  0  0  0  0
  2  7  1  0  0  0  0
  2  3  1  0  0  0  0
  2 40  1  0  0  0  0
  3 19  1  0  0  0  0
  3  4  1  0  0  0  0
  3 23  1  0  0  0  0
  4  5  1  0  0  0  0
  4 24  1  0  0  0  0
  4 25  1  0  0  0  0
  5  6  1  0  0  0  0
  5 26  1  0  0  0  0
  5 27  1  0  0  0  0
  6  7  1  0  0  0  0
  6 28  1  0  0  0  0
  6 29  1  0  0  0  0
  7  8  1  0  0  0  0
  7 30  1  0  0  0  0
  8  9  1  0  0  0  0
  8 31  1  0  0  0  0
  8 32  1  0  0  0  0
  9 10  1  0  0  0  0
  9 19  1  0  0  0  0
  9 33  1  0  0  0  0
 10 34  1  0  0  0  0
 10 11  1  0  0  0  0
 11 13  1  0  0  0  0
 11 12  2  0  0  0  0
 13 14  1  0  0  0  0
 13 41  1  0  0  0  0
 14 18  1  0  0  0  0
 14 15  2  0  0  0  0
 15 35  1  0  0  0  0
 15 16  1  0  0  0  0
 16 36  1  0  0  0  0
 16 17  2  0  0  0  0
 17 37  1  0  0  0  0
 17 18  1  0  0  0  0
 19 38  1  0  0  0  0
 19 39  1  0  0  0  0
M  CHG  1   2   1
M  CHG  1  15   1
M  END
> <s_m_source_file>
AV-unprocessed.smi

> <i_m_source_file_index>
2226

> <i_lp_mmshare_version>
43012

> <i_f3d_flags>
0

> <s_epik_input>
W0NIMl0xW0NIMl1bQ0gyXVtDQEhdKE4oW0NIM10pW0NIXTEyKVtDSDJdW0NASF0oW0NIMl0yKVtOSF1DKD1PKVtOSF1jM25bY0hdW2NIXW8z

> <s_epik_cmdline>
J2VwaWtfcHl0aG9uJywgJy1waCcsICc3LjAnLCAnLXRuJywgJzgnLCAnLW1hJywgJzIwMCcsICctbWV0YWxfYmluZGluZycsICctaW1hZScsICc8aW5maWxlLm1hZT4nLCAnLW9tYWUnLCAnPG91dGZpbGUubWFlPic=

> <r_epik_Ionization_Penalty>
6.92532

> <r_epik_Ionization_Penalty_Charging>
6.82059

> <r_epik_Ionization_Penalty_Neutral>
0.104727

> <r_epik_State_Penalty>
2.17671

> <r_epik_Charging_Adjusted_Penalty>
8.99731

> <i_epik_Tot_Q>
2

> <i_epik_Tot_abs_Q>
2

> <r_epik_Metal_State_Penalty>
2.20618

> <b_epik_Metal_Only>
0

> <s_lp_Force_Field>
OPLS_2005

> <r_lp_Energy>
48.5107

> <b_lp_Chiralities_Consistent>
1

> <s_lp_Variant>
AV-unprocessed.smi:2226-8

> <Gold.Version>
5.8.1

> <Gold.Id.Protein>
6NUR|6NUR_protein|mol2

> <Gold.PLP.Fitness>
43.1767

> <Gold.PLP.PLP>
-31.6939

> <Gold.PLP.part.hbond>
-3.4980

> <Gold.PLP.part.metal>
0.0000

> <Gold.PLP.part.buried>
-4.8619

> <Gold.PLP.part.nonpolar>
-22.6669

> <Gold.PLP.part.repulsive>
0.2784

> <Gold.PLP.ligand.clash>
0.0000

> <Gold.PLP.ligand.torsion>
0.2611

> <Gold.PLP.Chemscore.Hbond>
3.9825

> <Gold.PLP.Chemscore.CHOScore>
0.0000

> <Gold.PLP.Chemscore.Metal>
0.0000

> <Gold.Chemscore.Hbonds>
donor molecule, donor type, donor heavy atom, donor atom, acceptor molecule, acceptor atom, score
      L1  H     2    40       P1 10175  1.98
      L1  H    10    34       P1  8028  1.00
      L1  H    13    41       P1  8028  1.00

> <Gold.PLP.Chemscore.Internal.Correction>
0.0575

> <Gold.Rescore>
     Score         DG    S(hbond)    S(metal)    S(lipo)     H(rot)  DE(clash)    DE(int)     intcor
     18.37     -20.09       2.79        0.00      67.18       1.00       0.11       1.61       ----

> <Gold.Chemscore.Fitness>
18.3658

> <Gold.Chemscore.DG>
-20.0907

> <Gold.Chemscore.ZeroCoef>
-5.4800

> <Gold.Chemscore.Hbond>
2.7878

> <Gold.Chemscore.Metal>
0.0000

> <Gold.Chemscore.Lipo>
67.1751

> <Gold.Chemscore.Internal_Hbond>
0.0000

> <Gold.Chemscore.DEClash>
0.1107

> <Gold.Chemscore.DEInternal>
1.6141

> <Gold.Chemscore.Rot>
1.0000

> <Gold.Chemscore.Internal.Correction>
   9.000000E+99

> <Gold.Chemscore.Hbonds>
donor molecule, donor type, donor heavy atom, donor atom, acceptor molecule, acceptor atom, score
      L1  H     2    40       P1 10175  0.90
      L1  H    10    34       P1  8028  0.98
      L1  H    13    41       P1  8028  0.73

> <Gold.Chemscore.Hbond.Weighted>
-9.3112

> <Gold.Chemscore.Metal.Weighted>
-0.0000

> <Gold.Chemscore.Lipo.Weighted>
-7.8595

> <Gold.Chemscore.Internal_Hbond.Weighted>
0.0000

> <Gold.Chemscore.DEClash.Weighted>
0.1107

> <Gold.Chemscore.DEInternal.Weighted>
1.6141

> <Gold.Chemscore.Rot.Weighted>
2.5600

> <Gold.Chemscore.Internal.Correction.Weighted>
   9.000000E+99

> <Gold.Protein.RotatedTorsions>
[ 6907 6896 6895 6894 ] final  117.19 input  -60.11 | X-H torsion
[ 7974 7965 7964 7962 ] final   65.17 input  175.53 | X-H torsion
[ 8008 7997 7996 7995 ] final   69.75 input   59.86 | X-H torsion
[ 10167 10162 10161 10158 ] final   61.79 input  -65.29 | X-H torsion
[ 10718 10713 10712 10709 ] final  170.25 input   66.30 | X-H torsion
[ 10763 10752 10751 10750 ] final   88.06 input  -60.55 | X-H torsion
[ 11005 11000 10999 10996 ] final    6.97 input  -57.11 | X-H torsion

> <Gold.Protein.ActiveResidues>
 VAL166  LYS551  ARG553  GLY616  TRP617  ASP618  TYR619  PRO620  LYS621  CYS622 
 ASP623  PHE694  ASN695  SER759  ASP760  ASP761  ALA762  ILE779  LEU786  VAL792 
 PHE793  MET794  SER795  GLU796  ALA797  LYS798  CYS799  TRP800  GLU811  SER814 

> <Gold.Protein.RotatedAtoms>
  152.4628  133.7859  159.6875 H   0  0  0  0  0  0  0  0  0  0  0  0  # atno 6907 bound_to 6896
  150.8580  133.7677  159.3008 H   0  0  0  0  0  0  0  0  0  0  0  0  # atno 6908 bound_to 6896
  151.5251  135.1071  159.9940 H   0  0  0  0  0  0  0  0  0  0  0  0  # atno 6909 bound_to 6896
  145.8416  139.3199  143.0928 H   0  0  0  0  0  0  0  0  0  0  0  0  # atno 7974 bound_to 7965
  155.7283  140.3492  155.5047 H   0  0  0  0  0  0  0  0  0  0  0  0  # atno 8008 bound_to 7997
  155.9206  140.1066  157.1231 H   0  0  0  0  0  0  0  0  0  0  0  0  # atno 8009 bound_to 7997
  154.4069  140.1250  156.4661 H   0  0  0  0  0  0  0  0  0  0  0  0  # atno 8010 bound_to 7997
  140.1509  144.4463  150.6760 H   0  0  0  0  0  0  0  0  0  0  0  0  # atno 10167 bound_to 10162
  157.0108  131.0203  151.2803 H   0  0  0  0  0  0  0  0  0  0  0  0  # atno 10718 bound_to 10713
  153.1730  135.4521  154.9928 H   0  0  0  0  0  0  0  0  0  0  0  0  # atno 10763 bound_to 10752
  154.7979  135.3244  154.7624 H   0  0  0  0  0  0  0  0  0  0  0  0  # atno 10764 bound_to 10752
  153.8098  135.6955  153.4897 H   0  0  0  0  0  0  0  0  0  0  0  0  # atno 10765 bound_to 10752
  140.5535  134.0260  155.7945 H   0  0  0  0  0  0  0  0  0  0  0  0  # atno 11005 bound_to 11000
  145.9459  140.8945  143.0284 LP  0  0  0  0  0  0  0  0  0  0  0  0  # atno 17320 bound_to 7965
  144.6733  140.1613  143.7422 LP  0  0  0  0  0  0  0  0  0  0  0  0  # atno 17321 bound_to 7965
  140.6703  143.2283  151.5642 LP  0  0  0  0  0  0  0  0  0  0  0  0  # atno 17342 bound_to 10162
  139.5426  144.2606  152.1381 LP  0  0  0  0  0  0  0  0  0  0  0  0  # atno 17343 bound_to 10162
  157.5322  130.8065  149.7930 LP  0  0  0  0  0  0  0  0  0  0  0  0  # atno 17370 bound_to 10713
  156.0137  130.3822  150.2181 LP  0  0  0  0  0  0  0  0  0  0  0  0  # atno 17371 bound_to 10713
  141.1157  133.9543  157.2826 LP  0  0  0  0  0  0  0  0  0  0  0  0  # atno 17394 bound_to 11000
  139.9443  135.0186  156.8805 LP  0  0  0  0  0  0  0  0  0  0  0  0  # atno 17395 bound_to 11000

$$$$
