AV-unprocessed.smi:2024|AV-procd|sdf|8194|dock5
  -GOLD-   2272010453D 1   1.00000     0.00000
 Structure written by MMmdl.
 43 44  0  0  0  0  0  0  0  0  3 V2000
  144.2971  133.1540  150.1764 C   0  0  0  0  0  0  0  0  0  0  0  0
  145.5363  133.9647  150.1907 N   0  3  0  0  0  0  0  0  0  0  0  0
  146.7006  133.2682  150.7856 C   0  0  0  0  0  0  0  0  0  0  0  0
  146.6306  133.2462  152.3275 C   0  0  0  0  0  0  0  0  0  0  0  0
  146.5672  134.6231  152.8400 N   0  0  0  0  0  0  0  0  0  0  0  0
  146.7915  134.7959  154.2988 C   0  0  0  0  0  0  0  0  0  0  0  0
  146.8205  136.2915  154.6919 C   0  0  0  0  0  0  0  0  0  0  0  0
  145.6669  134.0982  155.1064 C   0  0  0  0  0  0  0  0  0  0  0  0
  148.1405  134.1257  154.7007 C   0  0  0  0  0  0  0  0  0  0  0  0
  149.3030  134.9301  154.3187 N   0  0  0  0  0  0  0  0  0  0  0  0
  150.4406  135.0709  155.0148 C   0  0  0  0  0  0  0  0  0  0  0  0
  150.6254  134.4124  156.0408 O   0  0  0  0  0  0  0  0  0  0  0  0
  151.2881  135.9847  154.4913 N   0  5  0  0  0  0  0  0  0  0  0  0
  151.0110  137.2940  154.6024 C   0  0  0  0  0  0  0  0  0  0  0  0
  149.7648  137.7727  154.6867 N   0  0  0  0  0  0  0  0  0  0  0  0
  149.7113  139.1631  154.8010 C   0  0  0  0  0  0  0  0  0  0  0  0
  150.9461  139.7561  154.8105 C   0  0  0  0  0  0  0  0  0  0  0  0
  152.2212  138.5787  154.6774 S   0  0  0  0  0  0  0  0  0  0  0  0
  145.3194  135.2174  152.3357 C   0  0  0  0  0  0  0  0  0  0  0  0
  145.3695  135.3048  150.7986 C   0  0  0  0  0  0  0  0  0  0  0  0
  143.9565  132.9126  151.1832 H   0  0  0  0  0  0  0  0  0  0  0  0
  144.4607  132.2182  149.6412 H   0  0  0  0  0  0  0  0  0  0  0  0
  143.4965  133.6901  149.6663 H   0  0  0  0  0  0  0  0  0  0  0  0
  146.7712  132.2541  150.3907 H   0  0  0  0  0  0  0  0  0  0  0  0
  147.6097  133.7837  150.4714 H   0  0  0  0  0  0  0  0  0  0  0  0
  145.7778  132.6633  152.6764 H   0  0  0  0  0  0  0  0  0  0  0  0
  147.5262  132.7341  152.6724 H   0  0  0  0  0  0  0  0  0  0  0  0
  146.9197  136.4046  155.7719 H   0  0  0  0  0  0  0  0  0  0  0  0
  145.9066  136.8085  154.3994 H   0  0  0  0  0  0  0  0  0  0  0  0
  147.6621  136.8210  154.2451 H   0  0  0  0  0  0  0  0  0  0  0  0
  145.9247  134.0356  156.1641 H   0  0  0  0  0  0  0  0  0  0  0  0
  145.4851  133.0804  154.7581 H   0  0  0  0  0  0  0  0  0  0  0  0
  144.7235  134.6426  155.0594 H   0  0  0  0  0  0  0  0  0  0  0  0
  148.1715  133.8613  155.7575 H   0  0  0  0  0  0  0  0  0  0  0  0
  148.2362  133.1704  154.1838 H   0  0  0  0  0  0  0  0  0  0  0  0
  149.2105  135.4831  153.4793 H   0  0  0  0  0  0  0  0  0  0  0  0
  148.7490  139.6480  154.8721 H   0  0  0  0  0  0  0  0  0  0  0  0
  151.1822  140.8064  154.8897 H   0  0  0  0  0  0  0  0  0  0  0  0
  144.4566  134.6342  152.6587 H   0  0  0  0  0  0  0  0  0  0  0  0
  145.1690  136.2220  152.7226 H   0  0  0  0  0  0  0  0  0  0  0  0
  146.2063  135.9359  150.4944 H   0  0  0  0  0  0  0  0  0  0  0  0
  144.4683  135.7818  150.4122 H   0  0  0  0  0  0  0  0  0  0  0  0
  145.7653  134.1220  149.2197 H   0  0  0  0  0  0  0  0  0  0  0  0
  1  2  1  0  0  0  0
  1 21  1  0  0  0  0
  1 22  1  0  0  0  0
  1 23  1  0  0  0  0
  2 20  1  0  0  0  0
  2  3  1  0  0  0  0
  2 43  1  0  0  0  0
  3  4  1  0  0  0  0
  3 24  1  0  0  0  0
  3 25  1  0  0  0  0
  4  5  1  0  0  0  0
  4 26  1  0  0  0  0
  4 27  1  0  0  0  0
  5  6  1  0  0  0  0
  5 19  1  0  0  0  0
  6  7  1  0  0  0  0
  6  8  1  0  0  0  0
  6  9  1  0  0  0  0
  7 28  1  0  0  0  0
  7 29  1  0  0  0  0
  7 30  1  0  0  0  0
  8 31  1  0  0  0  0
  8 32  1  0  0  0  0
  8 33  1  0  0  0  0
  9 10  1  0  0  0  0
  9 34  1  0  0  0  0
  9 35  1  0  0  0  0
 10 11  1  0  0  0  0
 10 36  1  0  0  0  0
 11 12  2  0  0  0  0
 11 13  1  0  0  0  0
 13 14  1  0  0  0  0
 14 18  1  0  0  0  0
 14 15  2  0  0  0  0
 15 16  1  0  0  0  0
 16 17  2  0  0  0  0
 16 37  1  0  0  0  0
 17 18  1  0  0  0  0
 17 38  1  0  0  0  0
 19 20  1  0  0  0  0
 19 39  1  0  0  0  0
 19 40  1  0  0  0  0
 20 41  1  0  0  0  0
 20 42  1  0  0  0  0
M  CHG  1   2   1
M  CHG  1  13  -1
M  END
> <s_m_source_file>
AV-unprocessed.smi

> <i_m_source_file_index>
2024

> <i_lp_mmshare_version>
43012

> <i_f3d_flags>
0

> <s_epik_input>
W0NIM11OMVtDSDJdW0NIMl1OKFtDSDJdW0NIMl0xKUMoW0NIM10pKFtDSDNdKVtDSDJdW05IXUMoPU8pW05IXWMybltjSF1bY0hdczI=

> <s_epik_cmdline>
J2VwaWtfcHl0aG9uJywgJy1waCcsICc3LjAnLCAnLXRuJywgJzgnLCAnLW1hJywgJzIwMCcsICctbWV0YWxfYmluZGluZycsICctaW1hZScsICc8aW5maWxlLm1hZT4nLCAnLW9tYWUnLCAnPG91dGZpbGUubWFlPic=

> <r_lp_tautomer_probability>
0.999

> <r_epik_Ionization_Penalty>
7.04933

> <r_epik_Ionization_Penalty_Charging>
5.90256

> <r_epik_Ionization_Penalty_Neutral>
1.14676

> <r_epik_State_Penalty>
6.00717

> <r_epik_Charging_Adjusted_Penalty>
11.9097

> <i_epik_Tot_Q>
0

> <i_epik_Tot_abs_Q>
2

> <r_epik_Metal_State_Penalty>
1.97542

> <b_epik_Metal_Only>
1

> <s_lp_Force_Field>
OPLS_2005

> <r_lp_Energy>
14.8551

> <b_lp_Chiralities_Consistent>
1

> <s_lp_Variant>
AV-unprocessed.smi:2024-4

> <Gold.Version>
5.8.1

> <Gold.Id.Protein>
6NUR|6NUR_protein|mol2

> <Gold.PLP.Fitness>
39.3365

> <Gold.PLP.PLP>
-29.7517

> <Gold.PLP.part.hbond>
-3.0000

> <Gold.PLP.part.metal>
0.0000

> <Gold.PLP.part.buried>
-4.0360

> <Gold.PLP.part.nonpolar>
-24.2126

> <Gold.PLP.part.repulsive>
1.3552

> <Gold.PLP.ligand.clash>
0.0000

> <Gold.PLP.ligand.torsion>
1.2355

> <Gold.PLP.Chemscore.Hbond>
4.0000

> <Gold.PLP.Chemscore.CHOScore>
0.0000

> <Gold.PLP.Chemscore.Metal>
0.0000

> <Gold.Chemscore.Hbonds>
donor molecule, donor type, donor heavy atom, donor atom, acceptor molecule, acceptor atom, score
      L1  H     2    43       P1  7921  1.00
      L1  H    10    36       P1  7948  1.00
      P1  H 10752 10765       L1    13  2.00

> <Gold.PLP.Chemscore.Internal.Correction>
0.0558

> <Gold.Rescore>
     Score         DG    S(hbond)    S(metal)    S(lipo)     H(rot)  DE(clash)    DE(int)     intcor
     15.40     -16.80       2.70        0.00      54.14       1.57       0.12       1.28       ----

> <Gold.Chemscore.Fitness>
15.4036

> <Gold.Chemscore.DG>
-16.8034

> <Gold.Chemscore.ZeroCoef>
-5.4800

> <Gold.Chemscore.Hbond>
2.6955

> <Gold.Chemscore.Metal>
0.0000

> <Gold.Chemscore.Lipo>
54.1373

> <Gold.Chemscore.Internal_Hbond>
0.0000

> <Gold.Chemscore.DEClash>
0.1207

> <Gold.Chemscore.DEInternal>
1.2792

> <Gold.Chemscore.Rot>
1.5678

> <Gold.Chemscore.Internal.Correction>
   9.000000E+99

> <Gold.Chemscore.Hbonds>
donor molecule, donor type, donor heavy atom, donor atom, acceptor molecule, acceptor atom, score
      L1  H     2    43       P1  7921  0.50
      L1  H    10    36       P1  7948  0.45
      P1  H 10752 10765       L1    13  0.86

> <Gold.Chemscore.Hbond.Weighted>
-9.0030

> <Gold.Chemscore.Metal.Weighted>
-0.0000

> <Gold.Chemscore.Lipo.Weighted>
-6.3341

> <Gold.Chemscore.Internal_Hbond.Weighted>
0.0000

> <Gold.Chemscore.DEClash.Weighted>
0.1207

> <Gold.Chemscore.DEInternal.Weighted>
1.2792

> <Gold.Chemscore.Rot.Weighted>
4.0136

> <Gold.Chemscore.Internal.Correction.Weighted>
   9.000000E+99

> <Gold.Protein.RotatedTorsions>
[ 6907 6896 6895 6894 ] final  128.86 input  -60.11 | X-H torsion
[ 7974 7965 7964 7962 ] final   84.84 input  175.53 | X-H torsion
[ 8008 7997 7996 7995 ] final -112.25 input   59.86 | X-H torsion
[ 10167 10162 10161 10158 ] final  156.92 input  -65.29 | X-H torsion
[ 10718 10713 10712 10709 ] final  138.51 input   66.30 | X-H torsion
[ 10763 10752 10751 10750 ] final  156.31 input  -60.55 | X-H torsion
[ 11005 11000 10999 10996 ] final  107.32 input  -57.11 | X-H torsion

> <Gold.Protein.ActiveResidues>
 VAL166  LYS551  ARG553  GLY616  TRP617  ASP618  TYR619  PRO620  LYS621  CYS622 
 ASP623  PHE694  ASN695  SER759  ASP760  ASP761  ALA762  ILE779  LEU786  VAL792 
 PHE793  MET794  SER795  GLU796  ALA797  LYS798  CYS799  TRP800  GLU811  SER814 

> <Gold.Protein.RotatedAtoms>
  152.3680  133.6381  159.6064 H   0  0  0  0  0  0  0  0  0  0  0  0  # atno 6907 bound_to 6896
  150.7648  133.9317  159.3438 H   0  0  0  0  0  0  0  0  0  0  0  0  # atno 6908 bound_to 6896
  151.7145  135.0907  160.0324 H   0  0  0  0  0  0  0  0  0  0  0  0  # atno 6909 bound_to 6896
  145.5934  139.2341  143.2286 H   0  0  0  0  0  0  0  0  0  0  0  0  # atno 7974 bound_to 7965
  155.0023  140.0394  157.2365 H   0  0  0  0  0  0  0  0  0  0  0  0  # atno 8008 bound_to 7997
  154.7533  140.2771  155.6251 H   0  0  0  0  0  0  0  0  0  0  0  0  # atno 8009 bound_to 7997
  156.2889  140.2642  156.2292 H   0  0  0  0  0  0  0  0  0  0  0  0  # atno 8010 bound_to 7997
  139.4822  144.4964  151.8232 H   0  0  0  0  0  0  0  0  0  0  0  0  # atno 10167 bound_to 10162
  157.4245  131.1042  151.0318 H   0  0  0  0  0  0  0  0  0  0  0  0  # atno 10718 bound_to 10713
  154.1823  135.2799  155.3048 H   0  0  0  0  0  0  0  0  0  0  0  0  # atno 10763 bound_to 10752
  154.5993  135.5535  153.7361 H   0  0  0  0  0  0  0  0  0  0  0  0  # atno 10764 bound_to 10752
  153.0135  135.6388  154.1962 H   0  0  0  0  0  0  0  0  0  0  0  0  # atno 10765 bound_to 10752
  139.8826  134.9397  156.5801 H   0  0  0  0  0  0  0  0  0  0  0  0  # atno 11005 bound_to 11000
  146.1630  140.6760  142.9268 LP  0  0  0  0  0  0  0  0  0  0  0  0  # atno 17320 bound_to 7965
  144.7341  140.4758  143.6916 LP  0  0  0  0  0  0  0  0  0  0  0  0  # atno 17321 bound_to 7965
  140.4453  144.1929  150.5894 LP  0  0  0  0  0  0  0  0  0  0  0  0  # atno 17342 bound_to 10162
  140.4640  143.2438  151.9180 LP  0  0  0  0  0  0  0  0  0  0  0  0  # atno 17343 bound_to 10162
  157.1236  130.6072  149.5511 LP  0  0  0  0  0  0  0  0  0  0  0  0  # atno 17370 bound_to 10713
  155.9892  130.4938  150.7202 LP  0  0  0  0  0  0  0  0  0  0  0  0  # atno 17371 bound_to 10713
  140.8033  133.8488  155.8746 LP  0  0  0  0  0  0  0  0  0  0  0  0  # atno 17394 bound_to 11000
  140.9573  134.1702  157.4682 LP  0  0  0  0  0  0  0  0  0  0  0  0  # atno 17395 bound_to 11000

$$$$
