#       Name:                AV-unprocessed.smi:1089
#       Creating user name   scv26
#       Creation time:       Fri Mar 27 03:27:08 2020


#       File generated by GOLD software.
#

@<TRIPOS>MOLECULE
AV-unprocessed.smi:1089
    20    21     1
SMALL
NO_CHARGES


@<TRIPOS>ATOM
      1 ****        -2.9841  -0.0655  -0.0000 C.2            1 S1                 0.0000
      2 ****        -2.9796  -1.4316  -0.0000 N.2            1 S1                 0.0000
      3 ****        -1.6721  -1.6494  -0.0000 C.2            1 S1                 0.0000
      4 ****        -0.9394  -0.5340  -0.0000 N.pl3          1 S1                 0.0000
      5 ****         0.4834  -0.3521  -0.0000 C.3            1 S1                 0.0000
      6 ****         1.1633   0.5466   1.0323 C.3            1 S1                 0.0000
      7 ****         2.1309   0.8982  -0.0000 N.4            1 S1                 1.0000
      8 ****         1.1633   0.5467  -1.0322 C.3            1 S1                 0.0000
      9 ****        -1.7872   0.5219  -0.0000 N.2            1 S1                 0.0000
     10 ****        -3.8960   0.5133  -0.0000 H              1 S1                 0.0000
     11 ****        -1.2424  -2.6404  -0.0000 H              1 S1                 0.0000
     12 ****         0.9326  -1.3482  -0.0000 H              1 S1                 0.0000
     13 ****         0.5628   1.4056   1.3381 H              1 S1                 0.0000
     14 ****         1.5944   0.0227   1.8857 H              1 S1                 0.0000
     15 ****         2.3953   1.8731   0.0001 H              1 S1                 0.0000
     16 ****         1.5944   0.0228  -1.8857 H              1 S1                 0.0000
     17 ****         0.5628   1.4056  -1.3380 H              1 S1                 0.0000
     18 ****         2.9181   0.2655  -0.0000 H              1 S1                 0.0000
     19 ****        -3.7416  -2.0793  -0.0000 LP             1 S1                 0.0000
     20 ****        -1.5700   1.4980  -0.0000 LP             1 S1                 0.0000
@<TRIPOS>BOND
    1    1    9 2     
    2    1    2 1     
    3    1   10 1     
    4    2    3 2     
    5    3    4 1     
    6    3   11 1     
    7    4    5 1     
    8    4    9 1     
    9    5    8 1     
   10    5    6 1     
   11    5   12 1     
   12    6    7 1     
   13    6   13 1     
   14    6   14 1     
   15    7    8 1     
   16    7   15 1     
   17    7   18 1     
   18    8   16 1     
   19    8   17 1     
   20    2   19 1     
   21    9   20 1     
@<TRIPOS>SUBSTRUCTURE
      1 S1             1
@<TRIPOS>SET
LONE_PAIRS      STATIC     ATOMS    <user>   **** ""
2 19 20
DONOR_HYDROGENS      STATIC     ATOMS    <user>   **** ""
2 15 18
ATOM$BLUE        STATIC     ATOMS    COLORGROUP SYSTEM
2 19 20
ATOM$RED        STATIC     ATOMS    COLORGROUP SYSTEM
2 15 18
