AV-unprocessed.smi:3001|AV-procd|sdf|11432|dock7
  -GOLD-   2272016363D 1   1.00000     0.00000
 Structure written by MMmdl.
 42 43  0  0  0  0  0  0  0  0  2 V2000
  159.1240  135.8426  159.6548 C   0  0  0  0  0  0  0  0  0  0  0  0
  157.9216  135.6636  159.7697 C   0  0  0  0  0  0  0  0  0  0  0  0
  156.4723  135.4523  159.9202 C   0  0  0  0  0  0  0  0  0  0  0  0
  155.7787  136.6408  160.4037 N   0  0  0  0  0  0  0  0  0  0  0  0
  154.4474  136.7793  160.5035 C   0  0  0  0  0  0  0  0  0  0  0  0
  153.6484  135.9005  160.1763 O   0  0  0  0  0  0  0  0  0  0  0  0
  153.9501  138.1294  161.0347 C   0  0  0  0  0  0  0  0  0  0  0  0
  153.2721  138.9252  160.0140 N   0  0  0  0  0  0  0  0  0  0  0  0
  153.2113  140.2647  159.9990 C   0  0  0  0  0  0  0  0  0  0  0  0
  153.7557  140.9815  160.8390 O   0  0  0  0  0  0  0  0  0  0  0  0
  152.4678  140.7097  158.9726 N   0  0  0  0  0  0  0  0  0  0  0  0
  152.1106  142.0564  158.6830 C   0  0  0  0  0  0  0  0  0  0  0  0
  152.6656  143.1314  159.4233 C   0  0  0  0  0  0  0  0  0  0  0  0
  152.3536  144.4591  159.0762 C   0  0  0  0  0  0  0  0  0  0  0  0
  151.5038  144.6935  157.9820 C   0  0  0  0  0  0  0  0  0  0  0  0
  151.0021  143.6502  157.2894 N   0  3  0  0  0  0  0  0  0  0  0  0
  151.2521  142.3494  157.5836 C   0  0  0  0  0  0  0  0  0  0  0  0
  150.6438  141.3621  156.7749 N   0  0  0  0  0  0  0  0  0  0  0  0
  151.4612  140.4132  156.0280 C   0  0  0  0  0  0  0  0  0  0  0  0
  150.5043  139.7638  155.0322 C   0  0  0  0  0  0  0  0  0  0  0  0
  149.5638  140.9135  154.6837 C   0  0  0  0  0  0  0  0  0  0  0  0
  149.4644  141.7106  155.9886 C   0  0  0  0  0  0  0  0  0  0  0  0
  160.1747  135.9999  159.5569 H   0  0  0  0  0  0  0  0  0  0  0  0
  156.0673  135.1132  158.9656 H   0  0  0  0  0  0  0  0  0  0  0  0
  156.3241  134.6436  160.6357 H   0  0  0  0  0  0  0  0  0  0  0  0
  156.3568  137.4183  160.6880 H   0  0  0  0  0  0  0  0  0  0  0  0
  153.2897  137.9779  161.8906 H   0  0  0  0  0  0  0  0  0  0  0  0
  154.8084  138.6952  161.3975 H   0  0  0  0  0  0  0  0  0  0  0  0
  152.7908  138.4148  159.2883 H   0  0  0  0  0  0  0  0  0  0  0  0
  152.0047  140.0042  158.4185 H   0  0  0  0  0  0  0  0  0  0  0  0
  153.3464  142.9568  160.2427 H   0  0  0  0  0  0  0  0  0  0  0  0
  152.7710  145.2844  159.6344 H   0  0  0  0  0  0  0  0  0  0  0  0
  151.2145  145.6762  157.6387 H   0  0  0  0  0  0  0  0  0  0  0  0
  152.2525  140.9347  155.4880 H   0  0  0  0  0  0  0  0  0  0  0  0
  151.9207  139.6765  156.6874 H   0  0  0  0  0  0  0  0  0  0  0  0
  151.0134  139.3475  154.1626 H   0  0  0  0  0  0  0  0  0  0  0  0
  149.9475  138.9606  155.5171 H   0  0  0  0  0  0  0  0  0  0  0  0
  150.0164  141.5332  153.9084 H   0  0  0  0  0  0  0  0  0  0  0  0
  148.5936  140.5754  154.3192 H   0  0  0  0  0  0  0  0  0  0  0  0
  148.5740  141.4087  156.5407 H   0  0  0  0  0  0  0  0  0  0  0  0
  149.3986  142.7821  155.7949 H   0  0  0  0  0  0  0  0  0  0  0  0
  150.3888  143.8534  156.5001 H   0  0  0  0  0  0  0  0  0  0  0  0
  1  2  3  0  0  0  0
  1 23  1  0  0  0  0
  2  3  1  0  0  0  0
  3  4  1  0  0  0  0
  3 24  1  0  0  0  0
  3 25  1  0  0  0  0
  4  5  1  0  0  0  0
  4 26  1  0  0  0  0
  5  6  2  0  0  0  0
  5  7  1  0  0  0  0
  7  8  1  0  0  0  0
  7 27  1  0  0  0  0
  7 28  1  0  0  0  0
  8  9  1  0  0  0  0
  8 29  1  0  0  0  0
  9 10  2  0  0  0  0
  9 11  1  0  0  0  0
 11 12  1  0  0  0  0
 11 30  1  0  0  0  0
 12 17  1  0  0  0  0
 12 13  2  0  0  0  0
 13 14  1  0  0  0  0
 13 31  1  0  0  0  0
 14 15  2  0  0  0  0
 14 32  1  0  0  0  0
 15 16  1  0  0  0  0
 15 33  1  0  0  0  0
 16 17  2  0  0  0  0
 16 42  1  0  0  0  0
 17 18  1  0  0  0  0
 18 22  1  0  0  0  0
 18 19  1  0  0  0  0
 19 20  1  0  0  0  0
 19 34  1  0  0  0  0
 19 35  1  0  0  0  0
 20 21  1  0  0  0  0
 20 36  1  0  0  0  0
 20 37  1  0  0  0  0
 21 22  1  0  0  0  0
 21 38  1  0  0  0  0
 21 39  1  0  0  0  0
 22 40  1  0  0  0  0
 22 41  1  0  0  0  0
M  CHG  1  16   1
M  END
> <s_m_source_file>
AV-unprocessed.smi

> <i_m_source_file_index>
3001

> <i_lp_mmshare_version>
43012

> <i_f3d_flags>
0

> <s_epik_input>
W0NIXSNDW0NIMl1bTkhdQyg9TylbQ0gyXVtOSF1DKD1PKVtOSF1jMVtjSF1bY0hdW2NIXW5jMU4yW0NIMl1bQ0gyXVtDSDJdW0NIMl0y

> <s_epik_cmdline>
J2VwaWtfcHl0aG9uJywgJy1waCcsICc3LjAnLCAnLXRuJywgJzgnLCAnLW1hJywgJzIwMCcsICctbWV0YWxfYmluZGluZycsICctaW1hZScsICc8aW5maWxlLm1hZT4nLCAnLW9tYWUnLCAnPG91dGZpbGUubWFlPic=

> <r_lp_tautomer_probability>
0.999994

> <r_epik_Ionization_Penalty>
0.644915

> <r_epik_Ionization_Penalty_Charging>
0.644896

> <r_epik_Ionization_Penalty_Neutral>
1.90142e-05

> <r_epik_State_Penalty>
0.662902

> <r_epik_Charging_Adjusted_Penalty>
1.3078

> <i_epik_Tot_Q>
1

> <i_epik_Tot_abs_Q>
1

> <r_epik_Metal_State_Penalty>
0.837036

> <b_epik_Metal_Only>
0

> <s_lp_Force_Field>
OPLS_2005

> <r_lp_Energy>
32.9475

> <b_lp_Chiralities_Consistent>
1

> <s_lp_Variant>
AV-unprocessed.smi:3001-2

> <Gold.Version>
5.8.1

> <Gold.Id.Protein>
6NUR|6NUR_protein|mol2

> <Gold.PLP.Fitness>
45.1038

> <Gold.PLP.PLP>
-36.8643

> <Gold.PLP.part.hbond>
-2.0000

> <Gold.PLP.part.metal>
0.0000

> <Gold.PLP.part.buried>
-3.5822

> <Gold.PLP.part.nonpolar>
-30.0880

> <Gold.PLP.part.repulsive>
0.2327

> <Gold.PLP.ligand.clash>
0.0000

> <Gold.PLP.ligand.torsion>
0.5796

> <Gold.PLP.Chemscore.Hbond>
3.0000

> <Gold.PLP.Chemscore.CHOScore>
0.0000

> <Gold.PLP.Chemscore.Metal>
0.0000

> <Gold.Chemscore.Hbonds>
donor molecule, donor type, donor heavy atom, donor atom, acceptor molecule, acceptor atom, score
      L1  H    16    42       P1  8028  2.00
      P1  H  6896  6909       L1     6  1.00

> <Gold.PLP.Chemscore.Internal.Correction>
0.3988

> <Gold.Rescore>
     Score         DG    S(hbond)    S(metal)    S(lipo)     H(rot)  DE(clash)    DE(int)     intcor
     14.59     -17.13       1.98        0.00      83.70       1.85       0.02       2.52       ----

> <Gold.Chemscore.Fitness>
14.5900

> <Gold.Chemscore.DG>
-17.1306

> <Gold.Chemscore.ZeroCoef>
-5.4800

> <Gold.Chemscore.Hbond>
1.9779

> <Gold.Chemscore.Metal>
0.0000

> <Gold.Chemscore.Lipo>
83.6969

> <Gold.Chemscore.Internal_Hbond>
0.0000

> <Gold.Chemscore.DEClash>
0.0186

> <Gold.Chemscore.DEInternal>
2.5220

> <Gold.Chemscore.Rot>
1.8547

> <Gold.Chemscore.Internal.Correction>
   9.000000E+99

> <Gold.Chemscore.Hbonds>
donor molecule, donor type, donor heavy atom, donor atom, acceptor molecule, acceptor atom, score
      L1  H    16    42       P1  8028  0.97
      P1  H  6896  6909       L1     6  1.00

> <Gold.Chemscore.Hbond.Weighted>
-6.6060

> <Gold.Chemscore.Metal.Weighted>
-0.0000

> <Gold.Chemscore.Lipo.Weighted>
-9.7925

> <Gold.Chemscore.Internal_Hbond.Weighted>
0.0000

> <Gold.Chemscore.DEClash.Weighted>
0.0186

> <Gold.Chemscore.DEInternal.Weighted>
2.5220

> <Gold.Chemscore.Rot.Weighted>
4.7479

> <Gold.Chemscore.Internal.Correction.Weighted>
   9.000000E+99

> <Gold.Protein.RotatedTorsions>
[ 6907 6896 6895 6894 ] final  178.23 input  -60.11 | X-H torsion
[ 7974 7965 7964 7962 ] final   15.98 input  175.53 | X-H torsion
[ 8008 7997 7996 7995 ] final  -17.22 input   59.86 | X-H torsion
[ 10167 10162 10161 10158 ] final  -43.76 input  -65.29 | X-H torsion
[ 10718 10713 10712 10709 ] final  -19.78 input   66.30 | X-H torsion
[ 10763 10752 10751 10750 ] final  -30.03 input  -60.55 | X-H torsion
[ 11005 11000 10999 10996 ] final  -35.21 input  -57.11 | X-H torsion

> <Gold.Protein.ActiveResidues>
 VAL166  LYS551  ARG553  GLY616  TRP617  ASP618  TYR619  PRO620  LYS621  CYS622 
 ASP623  PHE694  ASN695  SER759  ASP760  ASP761  ALA762  ILE779  LEU786  VAL792 
 PHE793  MET794  SER795  GLU796  ALA797  LYS798  CYS799  TRP800  GLU811  SER814 

> <Gold.Protein.RotatedAtoms>
  151.6912  133.3311  159.3242 H   0  0  0  0  0  0  0  0  0  0  0  0  # atno 6907 bound_to 6896
  150.7778  134.6697  159.6394 H   0  0  0  0  0  0  0  0  0  0  0  0  # atno 6908 bound_to 6896
  152.3826  134.6570  160.0189 H   0  0  0  0  0  0  0  0  0  0  0  0  # atno 6909 bound_to 6896
  146.2263  139.8814  142.8570 H   0  0  0  0  0  0  0  0  0  0  0  0  # atno 7974 bound_to 7965
  154.4995  140.2148  155.9377 H   0  0  0  0  0  0  0  0  0  0  0  0  # atno 8008 bound_to 7997
  156.1414  140.3179  155.8469 H   0  0  0  0  0  0  0  0  0  0  0  0  # atno 8009 bound_to 7997
  155.4112  140.0490  157.3022 H   0  0  0  0  0  0  0  0  0  0  0  0  # atno 8010 bound_to 7997
  140.6922  143.2966  151.3398 H   0  0  0  0  0  0  0  0  0  0  0  0  # atno 10167 bound_to 10162
  156.5409  130.4678  149.6499 H   0  0  0  0  0  0  0  0  0  0  0  0  # atno 10718 bound_to 10713
  153.7744  135.6910  153.4900 H   0  0  0  0  0  0  0  0  0  0  0  0  # atno 10763 bound_to 10752
  153.1853  135.4491  155.0079 H   0  0  0  0  0  0  0  0  0  0  0  0  # atno 10764 bound_to 10752
  154.8106  135.3375  154.7251 H   0  0  0  0  0  0  0  0  0  0  0  0  # atno 10765 bound_to 10752
  140.9778  133.7073  156.1632 H   0  0  0  0  0  0  0  0  0  0  0  0  # atno 11005 bound_to 11000
  145.2509  141.0043  143.3882 LP  0  0  0  0  0  0  0  0  0  0  0  0  # atno 17320 bound_to 7965
  144.9376  139.4226  143.6465 LP  0  0  0  0  0  0  0  0  0  0  0  0  # atno 17321 bound_to 7965
  139.6337  144.0672  152.2498 LP  0  0  0  0  0  0  0  0  0  0  0  0  # atno 17342 bound_to 10162
  140.0155  144.6192  150.7611 LP  0  0  0  0  0  0  0  0  0  0  0  0  # atno 17343 bound_to 10162
  156.2972  130.7157  151.2020 LP  0  0  0  0  0  0  0  0  0  0  0  0  # atno 17370 bound_to 10713
  157.7405  131.0516  150.5159 LP  0  0  0  0  0  0  0  0  0  0  0  0  # atno 17371 bound_to 10713
  140.7232  134.4335  157.5573 LP  0  0  0  0  0  0  0  0  0  0  0  0  # atno 17394 bound_to 11000
  139.8938  134.8723  156.2208 LP  0  0  0  0  0  0  0  0  0  0  0  0  # atno 17395 bound_to 11000

$$$$
