AV-unprocessed.smi:2571|AV-procd|sdf|10108|dock3
  -GOLD-   2272014123D 1   1.00000     0.00000
 Structure written by MMmdl.
 38 40  0  0  0  0  0  0  0  0  1 V2000
  153.6089  141.4864  161.7271 C   0  0  0  0  0  0  0  0  0  0  0  0
  153.0237  142.7639  161.9337 O   0  0  0  0  0  0  0  0  0  0  0  0
  152.4909  143.4173  160.8432 C   0  0  0  0  0  0  0  0  0  0  0  0
  152.1958  144.7871  160.9980 C   0  0  0  0  0  0  0  0  0  0  0  0
  151.6519  145.5312  159.9342 C   0  0  0  0  0  0  0  0  0  0  0  0
  151.3943  144.9096  158.6989 C   0  0  0  0  0  0  0  0  0  0  0  0
  151.6781  143.5396  158.5247 C   0  0  0  0  0  0  0  0  0  0  0  0
  151.4012  142.8690  157.1885 C   0  0  2  0  0  0  0  0  0  0  0  0
  151.0363  143.8065  156.1935 O   0  0  0  0  0  0  0  0  0  0  0  0
  150.3179  141.7792  157.3216 C   0  0  0  0  0  0  0  0  0  0  0  0
  150.3019  140.8625  156.1918 N   0  0  0  0  0  0  0  0  0  0  0  0
  149.3642  141.0125  155.2212 N   0  0  0  0  0  0  0  0  0  0  0  0
  149.5938  140.0388  154.3423 C   0  0  0  0  0  0  0  0  0  0  0  0
  150.6944  139.2237  154.7249 C   0  0  0  0  0  0  0  0  0  0  0  0
  151.3624  138.0550  154.1604 C   0  0  0  0  0  0  0  0  0  0  0  0
  152.3693  137.5531  154.8044 N   0  0  0  0  0  0  0  0  0  0  0  0
  152.8115  138.1091  156.0103 N   0  0  0  0  0  0  0  0  0  0  0  0
  153.9553  137.4296  156.6140 C   0  0  0  0  0  0  0  0  0  0  0  0
  152.2558  139.1974  156.6235 C   0  0  0  0  0  0  0  0  0  0  0  0
  152.6572  139.6678  157.6879 O   0  0  0  0  0  0  0  0  0  0  0  0
  151.1055  139.7804  155.8910 C   0  0  0  0  0  0  0  0  0  0  0  0
  152.2276  142.7990  159.5947 C   0  0  0  0  0  0  0  0  0  0  0  0
  153.9842  141.1049  162.6766 H   0  0  0  0  0  0  0  0  0  0  0  0
  154.4522  141.5408  161.0375 H   0  0  0  0  0  0  0  0  0  0  0  0
  152.8786  140.7693  161.3496 H   0  0  0  0  0  0  0  0  0  0  0  0
  152.3900  145.2732  161.9429 H   0  0  0  0  0  0  0  0  0  0  0  0
  151.4323  146.5803  160.0668 H   0  0  0  0  0  0  0  0  0  0  0  0
  150.9784  145.4887  157.8874 H   0  0  0  0  0  0  0  0  0  0  0  0
  152.3229  142.3985  156.8435 H   0  0  0  0  0  0  0  0  0  0  0  0
  151.8108  144.0408  155.7056 H   0  0  0  0  0  0  0  0  0  0  0  0
  150.4888  141.1983  158.2293 H   0  0  0  0  0  0  0  0  0  0  0  0
  149.3296  142.2237  157.4339 H   0  0  0  0  0  0  0  0  0  0  0  0
  148.9613  139.9580  153.4706 H   0  0  0  0  0  0  0  0  0  0  0  0
  151.0192  137.6198  153.2219 H   0  0  0  0  0  0  0  0  0  0  0  0
  154.7940  138.1176  156.7299 H   0  0  0  0  0  0  0  0  0  0  0  0
  154.2989  136.5900  156.0076 H   0  0  0  0  0  0  0  0  0  0  0  0
  153.6940  137.0397  157.5988 H   0  0  0  0  0  0  0  0  0  0  0  0
  152.4413  141.7529  159.4339 H   0  0  0  0  0  0  0  0  0  0  0  0
  1  2  1  0  0  0  0
  1 23  1  0  0  0  0
  1 24  1  0  0  0  0
  1 25  1  0  0  0  0
  2  3  1  0  0  0  0
  3 22  1  0  0  0  0
  3  4  2  0  0  0  0
  4  5  1  0  0  0  0
  4 26  1  0  0  0  0
  5  6  2  0  0  0  0
  5 27  1  0  0  0  0
  6  7  1  0  0  0  0
  6 28  1  0  0  0  0
  7  8  1  0  0  0  0
  7 22  2  0  0  0  0
  8  9  1  0  0  0  0
  8 10  1  0  0  0  0
  8 29  1  0  0  0  0
  9 30  1  0  0  0  0
 10 11  1  0  0  0  0
 10 31  1  0  0  0  0
 10 32  1  0  0  0  0
 11 21  1  0  0  0  0
 11 12  1  0  0  0  0
 12 13  2  0  0  0  0
 13 14  1  0  0  0  0
 13 33  1  0  0  0  0
 14 21  2  0  0  0  0
 14 15  1  0  0  0  0
 15 16  2  0  0  0  0
 15 34  1  0  0  0  0
 16 17  1  0  0  0  0
 17 18  1  0  0  0  0
 17 19  1  0  0  0  0
 18 35  1  0  0  0  0
 18 36  1  0  0  0  0
 18 37  1  0  0  0  0
 19 20  2  0  0  0  0
 19 21  1  0  0  0  0
 22 38  1  0  0  0  0
M  END
> <s_m_source_file>
AV-unprocessed.smi

> <i_m_source_file_index>
2571

> <i_lp_mmshare_version>
43012

> <i_f3d_flags>
0

> <s_epik_input>
W0NIM11PYzFbY0hdW2NIXVtjSF1jKFtjSF0xKVtDQEhdKFtPSF0pW0NIMl1uKG5bY0hdMiljKGMyMyljKD1PKW4oW0NIM10pbltjSF0z

> <s_epik_cmdline>
J2VwaWtfcHl0aG9uJywgJy1waCcsICc3LjAnLCAnLXRuJywgJzgnLCAnLW1hJywgJzIwMCcsICctbWV0YWxfYmluZGluZycsICctaW1hZScsICc8aW5maWxlLm1hZT4nLCAnLW9tYWUnLCAnPG91dGZpbGUubWFlPic=

> <r_lp_tautomer_probability>
1

> <r_epik_Ionization_Penalty>
1.38887e-06

> <r_epik_Ionization_Penalty_Charging>
1.65421e-10

> <r_epik_Ionization_Penalty_Neutral>
1.38871e-06

> <r_epik_State_Penalty>
-0

> <r_epik_Charging_Adjusted_Penalty>
1.65421e-10

> <i_epik_Tot_Q>
0

> <i_epik_Tot_abs_Q>
0

> <r_epik_Metal_State_Penalty>
-0

> <b_epik_Metal_Only>
0

> <s_lp_Force_Field>
OPLS_2005

> <r_lp_Energy>
30.8007

> <b_lp_Chiralities_Consistent>
1

> <s_lp_Variant>
AV-unprocessed.smi:2571-1

> <Gold.Version>
5.8.1

> <Gold.Id.Protein>
6NUR|6NUR_protein|mol2

> <Gold.PLP.Fitness>
57.7888

> <Gold.PLP.PLP>
-48.5986

> <Gold.PLP.part.hbond>
-2.3293

> <Gold.PLP.part.metal>
0.0000

> <Gold.PLP.part.buried>
-3.6444

> <Gold.PLP.part.nonpolar>
-41.8786

> <Gold.PLP.part.repulsive>
0.2499

> <Gold.PLP.ligand.clash>
0.0000

> <Gold.PLP.ligand.torsion>
0.6275

> <Gold.PLP.Chemscore.Hbond>
1.4584

> <Gold.PLP.Chemscore.CHOScore>
1.9966

> <Gold.PLP.Chemscore.Metal>
0.0000

> <Gold.Chemscore.Hbonds>
donor molecule, donor type, donor heavy atom, donor atom, acceptor molecule, acceptor atom, score
      P1  H  7997  8010       L1    20  0.68
      P1  H 10752 10764       L1    16  0.64
      L1  C    13    33       P1  7957  0.96
      L1  C    15    34       P1  7948  0.07
      L1  C    15    34       P1  7949  1.00

> <Gold.PLP.Chemscore.Internal.Correction>
0.0805

> <Gold.Rescore>
     Score         DG    S(hbond)    S(metal)    S(lipo)     H(rot)  DE(clash)    DE(int)     intcor
     16.85     -17.97       0.74        0.00     134.06       2.21       0.70       0.41       ----

> <Gold.Chemscore.Fitness>
16.8520

> <Gold.Chemscore.DG>
-17.9671

> <Gold.Chemscore.ZeroCoef>
-5.4800

> <Gold.Chemscore.Hbond>
0.7399

> <Gold.Chemscore.Metal>
0.0000

> <Gold.Chemscore.Lipo>
134.0602

> <Gold.Chemscore.Internal_Hbond>
0.0000

> <Gold.Chemscore.DEClash>
0.7040

> <Gold.Chemscore.DEInternal>
0.4111

> <Gold.Chemscore.Rot>
2.2146

> <Gold.Chemscore.Internal.Correction>
   9.000000E+99

> <Gold.Chemscore.Hbonds>
donor molecule, donor type, donor heavy atom, donor atom, acceptor molecule, acceptor atom, score
      P1  H  7997  8010       L1    20  0.09
      P1  H 10752 10764       L1    16  0.55

> <Gold.Chemscore.Hbond.Weighted>
-2.4714

> <Gold.Chemscore.Metal.Weighted>
-0.0000

> <Gold.Chemscore.Lipo.Weighted>
-15.6850

> <Gold.Chemscore.Internal_Hbond.Weighted>
0.0000

> <Gold.Chemscore.DEClash.Weighted>
0.7040

> <Gold.Chemscore.DEInternal.Weighted>
0.4111

> <Gold.Chemscore.Rot.Weighted>
5.6693

> <Gold.Chemscore.Internal.Correction.Weighted>
   9.000000E+99

> <Gold.Protein.RotatedTorsions>
[ 6907 6896 6895 6894 ] final  -49.47 input  -60.11 | X-H torsion
[ 7974 7965 7964 7962 ] final  -10.71 input  175.53 | X-H torsion
[ 8008 7997 7996 7995 ] final   31.97 input   59.86 | X-H torsion
[ 10167 10162 10161 10158 ] final  120.91 input  -65.29 | X-H torsion
[ 10718 10713 10712 10709 ] final -104.98 input   66.30 | X-H torsion
[ 10763 10752 10751 10750 ] final  -68.28 input  -60.55 | X-H torsion
[ 11005 11000 10999 10996 ] final -160.81 input  -57.11 | X-H torsion

> <Gold.Protein.ActiveResidues>
 VAL166  LYS551  ARG553  GLY616  TRP617  ASP618  TYR619  PRO620  LYS621  CYS622 
 ASP623  PHE694  ASN695  SER759  ASP760  ASP761  ALA762  ILE779  LEU786  VAL792 
 PHE793  MET794  SER795  GLU796  ALA797  LYS798  CYS799  TRP800  GLU811  SER814 

> <Gold.Protein.RotatedAtoms>
  150.8802  134.8192  159.7218 H   0  0  0  0  0  0  0  0  0  0  0  0  # atno 6907 bound_to 6896
  152.4773  134.4808  159.9675 H   0  0  0  0  0  0  0  0  0  0  0  0  # atno 6908 bound_to 6896
  151.4884  133.3492  159.2885 H   0  0  0  0  0  0  0  0  0  0  0  0  # atno 6909 bound_to 6896
  146.2212  140.2804  142.8362 H   0  0  0  0  0  0  0  0  0  0  0  0  # atno 7974 bound_to 7965
  155.1149  140.3242  155.4512 H   0  0  0  0  0  0  0  0  0  0  0  0  # atno 8008 bound_to 7997
  156.2680  140.2037  156.6221 H   0  0  0  0  0  0  0  0  0  0  0  0  # atno 8009 bound_to 7997
  154.6727  140.0534  157.0170 H   0  0  0  0  0  0  0  0  0  0  0  0  # atno 8010 bound_to 7997
  139.5952  144.7039  151.3193 H   0  0  0  0  0  0  0  0  0  0  0  0  # atno 10167 bound_to 10162
  156.0327  130.5541  150.7474 H   0  0  0  0  0  0  0  0  0  0  0  0  # atno 10718 bound_to 10713
  154.3867  135.6062  153.5820 H   0  0  0  0  0  0  0  0  0  0  0  0  # atno 10763 bound_to 10752
  152.9787  135.5874  154.4346 H   0  0  0  0  0  0  0  0  0  0  0  0  # atno 10764 bound_to 10752
  154.4124  135.2844  155.2006 H   0  0  0  0  0  0  0  0  0  0  0  0  # atno 10765 bound_to 10752
  140.6274  134.4687  157.5227 H   0  0  0  0  0  0  0  0  0  0  0  0  # atno 11005 bound_to 11000
  144.9201  140.7858  143.5753 LP  0  0  0  0  0  0  0  0  0  0  0  0  # atno 17320 bound_to 7965
  145.2740  139.1943  143.4826 LP  0  0  0  0  0  0  0  0  0  0  0  0  # atno 17321 bound_to 7965
  140.7206  143.7146  150.7743 LP  0  0  0  0  0  0  0  0  0  0  0  0  # atno 17342 bound_to 10162
  140.0711  143.5061  152.2579 LP  0  0  0  0  0  0  0  0  0  0  0  0  # atno 17343 bound_to 10162
  157.5027  131.0920  151.0294 LP  0  0  0  0  0  0  0  0  0  0  0  0  # atno 17370 bound_to 10713
  157.0671  130.5849  149.5396 LP  0  0  0  0  0  0  0  0  0  0  0  0  # atno 17371 bound_to 10713
  139.9129  134.8306  156.1464 LP  0  0  0  0  0  0  0  0  0  0  0  0  # atno 17394 bound_to 11000
  141.0700  133.6801  156.2120 LP  0  0  0  0  0  0  0  0  0  0  0  0  # atno 17395 bound_to 11000

$$$$
