AV-unprocessed.smi:1179|AV-procd|sdf|4958|dock5
  -GOLD-   22720 3553D 1   1.00000     0.00000
 Structure written by MMmdl.
 47 48  0  0  0  0  0  0  0  0  2 V2000
  151.2573  142.2731  156.5900 C   0  0  0  0  0  0  0  0  0  0  0  0
  150.6117  141.0791  155.9510 C   0  0  0  0  0  0  0  0  0  0  0  0
  149.2526  140.6656  156.0287 C   0  0  0  0  0  0  0  0  0  0  0  0
  149.2007  139.5296  155.2712 C   0  0  0  0  0  0  0  0  0  0  0  0
  148.0492  138.6307  154.9612 C   0  0  0  0  0  0  0  0  0  0  0  0
  150.4788  139.3114  154.7874 N   0  0  0  0  0  0  0  0  0  0  0  0
  150.9651  138.2443  153.9261 C   0  0  0  0  0  0  0  0  0  0  0  0
  151.0615  136.9196  154.6847 C   0  0  0  0  0  0  0  0  0  0  0  0
  151.8399  136.8056  155.6311 O   0  0  0  0  0  0  0  0  0  0  0  0
  150.2639  135.9264  154.2616 N   0  0  0  0  0  0  0  0  0  0  0  0
  150.1935  134.5993  154.8594 C   0  0  0  0  0  0  0  0  0  0  0  0
  148.7334  134.1684  155.0988 C   0  0  0  0  0  0  0  0  0  0  0  0
  147.8916  134.3187  153.8856 N   0  3  2  0  0  0  0  0  0  0  0  0
  146.4736  134.6103  154.2209 C   0  0  0  0  0  0  0  0  0  0  0  0
  145.6488  134.8963  152.9547 C   0  0  0  0  0  0  0  0  0  0  0  0
  145.7308  133.7276  151.9588 C   0  0  1  0  0  0  0  0  0  0  0  0
  144.9369  134.0154  150.6768 C   0  0  0  0  0  0  0  0  0  0  0  0
  147.2079  133.4237  151.6579 C   0  0  0  0  0  0  0  0  0  0  0  0
  148.0018  133.1674  152.9501 C   0  0  0  0  0  0  0  0  0  0  0  0
  151.3403  140.2656  155.2043 N   0  0  0  0  0  0  0  0  0  0  0  0
  150.5613  142.7908  157.2503 H   0  0  0  0  0  0  0  0  0  0  0  0
  151.5941  142.9865  155.8377 H   0  0  0  0  0  0  0  0  0  0  0  0
  152.1229  141.9815  157.1856 H   0  0  0  0  0  0  0  0  0  0  0  0
  148.4377  141.1331  156.5613 H   0  0  0  0  0  0  0  0  0  0  0  0
  147.1348  138.9950  155.4296 H   0  0  0  0  0  0  0  0  0  0  0  0
  148.2339  137.6211  155.3280 H   0  0  0  0  0  0  0  0  0  0  0  0
  147.8759  138.5762  153.8866 H   0  0  0  0  0  0  0  0  0  0  0  0
  150.2971  138.1327  153.0703 H   0  0  0  0  0  0  0  0  0  0  0  0
  151.9422  138.5230  153.5299 H   0  0  0  0  0  0  0  0  0  0  0  0
  149.6546  136.1115  153.4772 H   0  0  0  0  0  0  0  0  0  0  0  0
  150.6815  133.8974  154.1828 H   0  0  0  0  0  0  0  0  0  0  0  0
  150.7726  134.5938  155.7832 H   0  0  0  0  0  0  0  0  0  0  0  0
  148.6786  133.1384  155.4549 H   0  0  0  0  0  0  0  0  0  0  0  0
  148.3284  134.7903  155.8985 H   0  0  0  0  0  0  0  0  0  0  0  0
  146.0468  133.7670  154.7668 H   0  0  0  0  0  0  0  0  0  0  0  0
  146.4206  135.4760  154.8820 H   0  0  0  0  0  0  0  0  0  0  0  0
  144.6096  135.0812  153.2293 H   0  0  0  0  0  0  0  0  0  0  0  0
  146.0108  135.8114  152.4834 H   0  0  0  0  0  0  0  0  0  0  0  0
  145.2909  132.8474  152.4303 H   0  0  0  0  0  0  0  0  0  0  0  0
  145.3311  134.8859  150.1514 H   0  0  0  0  0  0  0  0  0  0  0  0
  143.8872  134.2090  150.8999 H   0  0  0  0  0  0  0  0  0  0  0  0
  144.9767  133.1675  149.9926 H   0  0  0  0  0  0  0  0  0  0  0  0
  147.2841  132.5544  151.0037 H   0  0  0  0  0  0  0  0  0  0  0  0
  147.6555  134.2579  151.1156 H   0  0  0  0  0  0  0  0  0  0  0  0
  149.0437  132.9852  152.6905 H   0  0  0  0  0  0  0  0  0  0  0  0
  147.6376  132.2629  153.4396 H   0  0  0  0  0  0  0  0  0  0  0  0
  148.2371  135.1318  153.3961 H   0  0  0  0  0  0  0  0  0  0  0  0
  1  2  1  0  0  0  0
  1 21  1  0  0  0  0
  1 22  1  0  0  0  0
  1 23  1  0  0  0  0
  2 20  2  0  0  0  0
  2  3  1  0  0  0  0
  3  4  2  0  0  0  0
  3 24  1  0  0  0  0
  4  5  1  0  0  0  0
  4  6  1  0  0  0  0
  5 25  1  0  0  0  0
  5 26  1  0  0  0  0
  5 27  1  0  0  0  0
  6  7  1  0  0  0  0
  6 20  1  0  0  0  0
  7  8  1  0  0  0  0
  7 28  1  0  0  0  0
  7 29  1  0  0  0  0
  8  9  2  0  0  0  0
  8 10  1  0  0  0  0
 10 11  1  0  0  0  0
 10 30  1  0  0  0  0
 11 12  1  0  0  0  0
 11 31  1  0  0  0  0
 11 32  1  0  0  0  0
 12 13  1  0  0  0  0
 12 33  1  0  0  0  0
 12 34  1  0  0  0  0
 13 19  1  0  0  0  0
 13 14  1  0  0  0  0
 13 47  1  0  0  0  0
 14 15  1  0  0  0  0
 14 35  1  0  0  0  0
 14 36  1  0  0  0  0
 15 16  1  0  0  0  0
 15 37  1  0  0  0  0
 15 38  1  0  0  0  0
 16 17  1  0  0  0  0
 16 18  1  0  0  0  0
 16 39  1  0  0  0  0
 17 40  1  0  0  0  0
 17 41  1  0  0  0  0
 17 42  1  0  0  0  0
 18 19  1  0  0  0  0
 18 43  1  0  0  0  0
 18 44  1  0  0  0  0
 19 45  1  0  0  0  0
 19 46  1  0  0  0  0
M  CHG  1  13   1
M  END
> <s_m_source_file>
AV-unprocessed.smi

> <i_m_source_file_index>
1179

> <i_lp_mmshare_version>
43012

> <i_f3d_flags>
0

> <s_epik_input>
W0NIM11jMVtjSF1jKFtDSDNdKW4objEpW0NIMl1DKD1PKVtOSF1bQ0gyXVtDSDJdTjJbQ0gyXVtDSDJdW0NIXShbQ0gzXSlbQ0gyXVtDSDJdMg==

> <s_epik_cmdline>
J2VwaWtfcHl0aG9uJywgJy1waCcsICc3LjAnLCAnLXRuJywgJzgnLCAnLW1hJywgJzIwMCcsICctbWV0YWxfYmluZGluZycsICctaW1hZScsICc8aW5maWxlLm1hZT4nLCAnLW9tYWUnLCAnPG91dGZpbGUubWFlPic=

> <r_lp_tautomer_probability>
1

> <r_epik_Ionization_Penalty>
0.00206343

> <r_epik_Ionization_Penalty_Charging>
0.00187095

> <r_epik_Ionization_Penalty_Neutral>
0.000192474

> <r_epik_State_Penalty>
-0

> <r_epik_Charging_Adjusted_Penalty>
0.00187095

> <i_epik_Tot_Q>
1

> <i_epik_Tot_abs_Q>
1

> <r_epik_Metal_State_Penalty>
-0

> <b_epik_Metal_Only>
0

> <s_lp_Force_Field>
OPLS_2005

> <r_lp_Energy>
13.8345

> <b_lp_Chiralities_Consistent>
1

> <s_lp_Variant>
AV-unprocessed.smi:1179-1

> <Gold.Version>
5.8.1

> <Gold.Id.Protein>
6NUR|6NUR_protein|mol2

> <Gold.PLP.Fitness>
46.0729

> <Gold.PLP.PLP>
-32.6075

> <Gold.PLP.part.hbond>
-5.0000

> <Gold.PLP.part.metal>
0.0000

> <Gold.PLP.part.buried>
-4.0564

> <Gold.PLP.part.nonpolar>
-24.7060

> <Gold.PLP.part.repulsive>
0.1528

> <Gold.PLP.ligand.clash>
0.0000

> <Gold.PLP.ligand.torsion>
0.5568

> <Gold.PLP.Chemscore.Hbond>
4.8500

> <Gold.PLP.Chemscore.CHOScore>
0.0000

> <Gold.PLP.Chemscore.Metal>
0.0000

> <Gold.Chemscore.Hbonds>
donor molecule, donor type, donor heavy atom, donor atom, acceptor molecule, acceptor atom, score
      L1  H    10    30       P1  7948  1.00
      L1  H    13    47       P1  7948  2.00
      P1  H  7989  7998       L1    20  0.65
      P1  H 10752 10764       L1     9  1.00

> <Gold.PLP.Chemscore.Internal.Correction>
0.0290

> <Gold.Rescore>
     Score         DG    S(hbond)    S(metal)    S(lipo)     H(rot)  DE(clash)    DE(int)     intcor
     15.25     -16.72       1.96        0.00      76.52       1.67       0.95       0.52       ----

> <Gold.Chemscore.Fitness>
15.2519

> <Gold.Chemscore.DG>
-16.7162

> <Gold.Chemscore.ZeroCoef>
-5.4800

> <Gold.Chemscore.Hbond>
1.9602

> <Gold.Chemscore.Metal>
0.0000

> <Gold.Chemscore.Lipo>
76.5246

> <Gold.Chemscore.Internal_Hbond>
0.0000

> <Gold.Chemscore.DEClash>
0.9454

> <Gold.Chemscore.DEInternal>
0.5189

> <Gold.Chemscore.Rot>
1.6657

> <Gold.Chemscore.Internal.Correction>
   9.000000E+99

> <Gold.Chemscore.Hbonds>
donor molecule, donor type, donor heavy atom, donor atom, acceptor molecule, acceptor atom, score
      L1  H    10    30       P1  7948  0.26
      L1  H    13    47       P1  7948  0.93
      P1  H  7989  7998       L1    20  0.05
      P1  H 10752 10764       L1     9  0.38

> <Gold.Chemscore.Hbond.Weighted>
-6.5469

> <Gold.Chemscore.Metal.Weighted>
-0.0000

> <Gold.Chemscore.Lipo.Weighted>
-8.9534

> <Gold.Chemscore.Internal_Hbond.Weighted>
0.0000

> <Gold.Chemscore.DEClash.Weighted>
0.9454

> <Gold.Chemscore.DEInternal.Weighted>
0.5189

> <Gold.Chemscore.Rot.Weighted>
4.2641

> <Gold.Chemscore.Internal.Correction.Weighted>
   9.000000E+99

> <Gold.Protein.RotatedTorsions>
[ 6907 6896 6895 6894 ] final -108.27 input  -60.11 | X-H torsion
[ 7974 7965 7964 7962 ] final -107.95 input  175.53 | X-H torsion
[ 8008 7997 7996 7995 ] final -101.51 input   59.86 | X-H torsion
[ 10167 10162 10161 10158 ] final   89.08 input  -65.29 | X-H torsion
[ 10718 10713 10712 10709 ] final  -48.94 input   66.30 | X-H torsion
[ 10763 10752 10751 10750 ] final  -33.24 input  -60.55 | X-H torsion
[ 11005 11000 10999 10996 ] final   33.00 input  -57.11 | X-H torsion

> <Gold.Protein.ActiveResidues>
 VAL166  LYS551  ARG553  GLY616  TRP617  ASP618  TYR619  PRO620  LYS621  CYS622 
 ASP623  PHE694  ASN695  SER759  ASP760  ASP761  ALA762  ILE779  LEU786  VAL792 
 PHE793  MET794  SER795  GLU796  ALA797  LYS798  CYS799  TRP800  GLU811  SER814 

> <Gold.Protein.RotatedAtoms>
  150.7492  133.9702  159.3543 H   0  0  0  0  0  0  0  0  0  0  0  0  # atno 6907 bound_to 6896
  151.7635  135.0802  160.0358 H   0  0  0  0  0  0  0  0  0  0  0  0  # atno 6908 bound_to 6896
  152.3387  133.6005  159.5897 H   0  0  0  0  0  0  0  0  0  0  0  0  # atno 6909 bound_to 6896
  145.1989  140.9047  143.3381 H   0  0  0  0  0  0  0  0  0  0  0  0  # atno 7974 bound_to 7965
  154.8436  140.0434  157.1558 H   0  0  0  0  0  0  0  0  0  0  0  0  # atno 8008 bound_to 7997
  154.9019  140.3001  155.5292 H   0  0  0  0  0  0  0  0  0  0  0  0  # atno 8009 bound_to 7997
  156.2993  140.2374  156.4048 H   0  0  0  0  0  0  0  0  0  0  0  0  # atno 8010 bound_to 7997
  139.8608  144.6545  150.9060 H   0  0  0  0  0  0  0  0  0  0  0  0  # atno 10167 bound_to 10162
  156.1940  130.4153  149.9332 H   0  0  0  0  0  0  0  0  0  0  0  0  # atno 10718 bound_to 10713
  153.8270  135.6869  153.4819 H   0  0  0  0  0  0  0  0  0  0  0  0  # atno 10763 bound_to 10752
  153.1534  135.4609  154.9668 H   0  0  0  0  0  0  0  0  0  0  0  0  # atno 10764 bound_to 10752
  154.7903  135.3299  154.7737 H   0  0  0  0  0  0  0  0  0  0  0  0  # atno 10765 bound_to 10752
  140.2676  134.3119  155.7838 H   0  0  0  0  0  0  0  0  0  0  0  0  # atno 11005 bound_to 11000
  144.9967  139.3637  143.6188 LP  0  0  0  0  0  0  0  0  0  0  0  0  # atno 17320 bound_to 7965
  146.3421  139.9173  142.8771 LP  0  0  0  0  0  0  0  0  0  0  0  0  # atno 17321 bound_to 7965
  140.7775  143.3746  151.1587 LP  0  0  0  0  0  0  0  0  0  0  0  0  # atno 17342 bound_to 10162
  139.7375  143.8975  152.3039 LP  0  0  0  0  0  0  0  0  0  0  0  0  # atno 17343 bound_to 10162
  156.7064  130.8953  151.3605 LP  0  0  0  0  0  0  0  0  0  0  0  0  # atno 17370 bound_to 10713
  157.6946  130.9268  150.0608 LP  0  0  0  0  0  0  0  0  0  0  0  0  # atno 17371 bound_to 10713
  141.2182  133.7447  156.9284 LP  0  0  0  0  0  0  0  0  0  0  0  0  # atno 17394 bound_to 11000
  140.1404  134.9297  157.2459 LP  0  0  0  0  0  0  0  0  0  0  0  0  # atno 17395 bound_to 11000

$$$$
