#       Name:                AV-unprocessed.smi:191
#       Creating user name   scv26
#       Creation time:       Thu Mar 26 19:31:32 2020


#       File generated by GOLD software.
#

@<TRIPOS>MOLECULE
AV-unprocessed.smi:191
    55    57     1
SMALL
NO_CHARGES


@<TRIPOS>ATOM
      1 ****        -4.1863  -2.5527  -1.9507 C.3            1 S1                 0.0000
      2 ****        -2.9182  -2.2249  -1.1518 C.3            1 S1                 0.0000
      3 ****        -2.3246  -0.9497  -1.5461 N.3            1 S1                 0.0000
      4 ****        -3.0056   0.2660  -1.0990 C.3            1 S1                 0.0000
      5 ****        -2.4789   1.5523  -1.7659 C.3            1 S1                 0.0000
      6 ****        -3.1871   2.7929  -1.2097 C.3            1 S1                 0.0000
      7 ****        -2.6068   1.4945  -3.2317 C.1            1 S1                 0.0000
      8 ****        -2.7071   1.4489  -4.3833 N.1            1 S1                 0.0000
      9 ****        -0.9886  -0.9290  -1.3487 C.ar           1 S1                 0.0000
     10 ****        -0.1977  -0.8799  -2.4481 N.ar           1 S1                 0.0000
     11 ****         1.1315  -0.8556  -2.3118 C.ar           1 S1                 0.0000
     12 ****         1.8565  -0.8742  -1.1908 N.ar           1 S1                 0.0000
     13 ****         1.0616  -0.9227  -0.0835 C.ar           1 S1                 0.0000
     14 ****        -0.3611  -0.9552  -0.0719 C.ar           1 S1                 0.0000
     15 ****        -0.8259  -1.0093   1.2361 N.2            1 S1                 0.0000
     16 ****         0.2614  -1.0141   1.9577 C.2            1 S1                 0.0000
     17 ****         1.4401  -0.9531   1.2476 N.pl3          1 S1                 0.0000
     18 ****         2.7857  -0.9445   1.8018 C.3            1 S1                 0.0000
     19 ****         3.4203   0.4584   1.9059 C.3            1 S1                 0.0000
     20 ****         2.4901   1.4282   2.6556 C.3            1 S1                 0.0000
     21 ****         2.2211   0.9762   3.9676 O.3            1 S1                 0.0000
     22 ****         4.8866   0.4937   2.3591 C.3            1 S1                 0.0000
     23 ****         5.2685   1.3309   1.2471 O.3            1 S1                 0.0000
     24 ****         4.0105   1.0283   0.6077 C.3            1 S1                 0.0000
     25 ****        -4.5734  -3.5319  -1.6690 H              1 S1                 0.0000
     26 ****        -3.9805  -2.5739  -3.0214 H              1 S1                 0.0000
     27 ****        -4.9787  -1.8258  -1.7741 H              1 S1                 0.0000
     28 ****        -3.1512  -2.2003  -0.0865 H              1 S1                 0.0000
     29 ****        -2.1971  -3.0320  -1.2942 H              1 S1                 0.0000
     30 ****        -4.0711   0.1747  -1.3074 H              1 S1                 0.0000
     31 ****        -2.9157   0.3479  -0.0153 H              1 S1                 0.0000
     32 ****        -1.4145   1.6616  -1.5574 H              1 S1                 0.0000
     33 ****        -2.7945   3.7028  -1.6644 H              1 S1                 0.0000
     34 ****        -3.0476   2.8746  -0.1314 H              1 S1                 0.0000
     35 ****        -4.2589   2.7576  -1.4072 H              1 S1                 0.0000
     36 ****         1.6947  -0.8157  -3.2326 H              1 S1                 0.0000
     37 ****         0.2335  -1.0556   3.0370 H              1 S1                 0.0000
     38 ****         2.7517  -1.4200   2.7828 H              1 S1                 0.0000
     39 ****         3.4030  -1.5989   1.1852 H              1 S1                 0.0000
     40 ****         2.9486   2.4149   2.7318 H              1 S1                 0.0000
     41 ****         1.5490   1.5758   2.1259 H              1 S1                 0.0000
     42 ****         1.6924   1.6252   4.4068 H              1 S1                 0.0000
     43 ****         5.0453   0.9772   3.3237 H              1 S1                 0.0000
     44 ****         5.3847  -0.4769   2.3240 H              1 S1                 0.0000
     45 ****         4.1365   0.2935  -0.1887 H              1 S1                 0.0000
     46 ****         3.4993   1.9183   0.2387 H              1 S1                 0.0000
     47 ****        -2.4852  -0.9129  -2.5324 LP             1 S1                 0.0000
     48 ****        -2.7938   1.4095  -5.3787 LP             1 S1                 0.0000
     49 ****        -0.6081  -0.8618  -3.3598 LP             1 S1                 0.0000
     50 ****         2.8560  -0.8550  -1.1661 LP             1 S1                 0.0000
     51 ****        -1.7744  -1.0379   1.5517 LP             1 S1                 0.0000
     52 ****         3.0803   0.8496   4.4634 LP             1 S1                 0.0000
     53 ****         1.7267   0.1078   3.9303 LP             1 S1                 0.0000
     54 ****         6.0716   1.0075   0.7466 LP             1 S1                 0.0000
     55 ****         5.3881   2.2956   1.4817 LP             1 S1                 0.0000
@<TRIPOS>BOND
    1    1    2 1     
    2    1   25 1     
    3    1   26 1     
    4    1   27 1     
    5    2    3 1     
    6    2   28 1     
    7    2   29 1     
    8    3    4 1     
    9    3    9 1     
   10    4    5 1     
   11    4   30 1     
   12    4   31 1     
   13    5    6 1     
   14    5    7 1     
   15    5   32 1     
   16    6   33 1     
   17    6   34 1     
   18    6   35 1     
   19    7    8 3     
   20    9   14 ar    
   21    9   10 ar    
   22   10   11 ar    
   23   11   12 ar    
   24   11   36 1     
   25   12   13 ar    
   26   13   17 1     
   27   13   14 ar    
   28   14   15 1     
   29   15   16 2     
   30   16   17 1     
   31   16   37 1     
   32   17   18 1     
   33   18   19 1     
   34   18   38 1     
   35   18   39 1     
   36   19   24 1     
   37   19   20 1     
   38   19   22 1     
   39   20   21 1     
   40   20   40 1     
   41   20   41 1     
   42   21   42 1     
   43   22   23 1     
   44   22   43 1     
   45   22   44 1     
   46   23   24 1     
   47   24   45 1     
   48   24   46 1     
   49    3   47 1     
   50    8   48 1     
   51   10   49 1     
   52   12   50 1     
   53   15   51 1     
   54   21   52 1     
   55   21   53 1     
   56   23   54 1     
   57   23   55 1     
@<TRIPOS>SUBSTRUCTURE
      1 S1             1
@<TRIPOS>SET
LONE_PAIRS      STATIC     ATOMS    <user>   **** ""
9 47 48 49 50 51 52 53 54 55
DONOR_HYDROGENS      STATIC     ATOMS    <user>   **** ""
1 42
ATOM$BLUE        STATIC     ATOMS    COLORGROUP SYSTEM
9 47 48 49 50 51 52 53 54 55
ATOM$RED        STATIC     ATOMS    COLORGROUP SYSTEM
1 42
