AV-unprocessed.smi:1801|AV-procd|sdf|7267|dock5
  -GOLD-   22720 8523D 1   1.00000     0.00000
 Structure written by MMmdl.
 38 39  0  0  0  0  0  0  0  0  2 V2000
  147.7782  131.9909  155.0366 C   0  0  0  0  0  0  0  0  0  0  0  0
  148.6306  132.3064  153.7958 C   0  0  2  0  0  0  0  0  0  0  0  0
  149.8921  133.0993  154.2115 C   0  0  0  0  0  0  0  0  0  0  0  0
  149.7612  134.5439  154.0355 N   0  0  0  0  0  0  0  0  0  0  0  0
  150.4784  135.4751  154.6810 C   0  0  0  0  0  0  0  0  0  0  0  0
  151.3528  135.2072  155.5052 O   0  0  0  0  0  0  0  0  0  0  0  0
  150.1155  136.7144  154.3066 N   0  0  0  0  0  0  0  0  0  0  0  0
  150.6703  137.9552  154.7179 C   0  0  0  0  0  0  0  0  0  0  0  0
  150.0967  139.1440  154.4737 N   0  0  0  0  0  0  0  0  0  0  0  0
  150.8419  140.1960  154.9906 N   0  0  0  0  0  0  0  0  0  0  0  0
  151.9455  139.7600  155.6046 C   0  0  0  0  0  0  0  0  0  0  0  0
  152.1805  138.0205  155.6153 S   0  0  0  0  0  0  0  0  0  0  0  0
  147.8015  133.0403  152.7154 C   0  0  0  0  0  0  0  0  0  0  0  0
  147.1628  132.1057  151.7583 N   0  3  0  0  0  0  0  0  0  0  0  0
  146.4621  130.9732  152.3953 C   0  0  0  0  0  0  0  0  0  0  0  0
  145.4585  130.4961  151.3512 C   0  0  0  0  0  0  0  0  0  0  0  0
  145.0027  131.7975  150.6986 C   0  0  0  0  0  0  0  0  0  0  0  0
  146.2182  132.7294  150.7989 C   0  0  0  0  0  0  0  0  0  0  0  0
  147.3973  132.9020  155.4991 H   0  0  0  0  0  0  0  0  0  0  0  0
  148.3623  131.4578  155.7874 H   0  0  0  0  0  0  0  0  0  0  0  0
  146.9237  131.3619  154.7865 H   0  0  0  0  0  0  0  0  0  0  0  0
  148.9653  131.3523  153.3888 H   0  0  0  0  0  0  0  0  0  0  0  0
  150.1171  132.9121  155.2619 H   0  0  0  0  0  0  0  0  0  0  0  0
  150.7589  132.7527  153.6464 H   0  0  0  0  0  0  0  0  0  0  0  0
  149.0582  134.8575  153.3823 H   0  0  0  0  0  0  0  0  0  0  0  0
  149.3581  136.7793  153.6426 H   0  0  0  0  0  0  0  0  0  0  0  0
  152.6249  140.4675  156.0563 H   0  0  0  0  0  0  0  0  0  0  0  0
  147.0293  133.6390  153.2007 H   0  0  0  0  0  0  0  0  0  0  0  0
  148.4187  133.7378  152.1482 H   0  0  0  0  0  0  0  0  0  0  0  0
  147.1562  130.1899  152.7006 H   0  0  0  0  0  0  0  0  0  0  0  0
  145.9298  131.3201  153.2830 H   0  0  0  0  0  0  0  0  0  0  0  0
  145.9592  129.8656  150.6149 H   0  0  0  0  0  0  0  0  0  0  0  0
  144.6353  129.9252  151.7819 H   0  0  0  0  0  0  0  0  0  0  0  0
  144.6655  131.6547  149.6712 H   0  0  0  0  0  0  0  0  0  0  0  0
  144.1704  132.2186  151.2648 H   0  0  0  0  0  0  0  0  0  0  0  0
  145.9067  133.7255  151.1176 H   0  0  0  0  0  0  0  0  0  0  0  0
  146.7160  132.8330  149.8343 H   0  0  0  0  0  0  0  0  0  0  0  0
  147.9003  131.6964  151.2024 H   0  0  0  0  0  0  0  0  0  0  0  0
  1  2  1  0  0  0  0
  1 19  1  0  0  0  0
  1 20  1  0  0  0  0
  1 21  1  0  0  0  0
  2  3  1  0  0  0  0
  2 13  1  0  0  0  0
  2 22  1  0  0  0  0
  3  4  1  0  0  0  0
  3 23  1  0  0  0  0
  3 24  1  0  0  0  0
  4  5  1  0  0  0  0
  4 25  1  0  0  0  0
  5  6  2  0  0  0  0
  5  7  1  0  0  0  0
  7  8  1  0  0  0  0
  7 26  1  0  0  0  0
  8 12  1  0  0  0  0
  8  9  2  0  0  0  0
  9 10  1  0  0  0  0
 10 11  2  0  0  0  0
 11 12  1  0  0  0  0
 11 27  1  0  0  0  0
 13 14  1  0  0  0  0
 13 28  1  0  0  0  0
 13 29  1  0  0  0  0
 14 18  1  0  0  0  0
 14 15  1  0  0  0  0
 14 38  1  0  0  0  0
 15 16  1  0  0  0  0
 15 30  1  0  0  0  0
 15 31  1  0  0  0  0
 16 17  1  0  0  0  0
 16 32  1  0  0  0  0
 16 33  1  0  0  0  0
 17 18  1  0  0  0  0
 17 34  1  0  0  0  0
 17 35  1  0  0  0  0
 18 36  1  0  0  0  0
 18 37  1  0  0  0  0
M  CHG  1  14   1
M  END
> <s_m_source_file>
AV-unprocessed.smi

> <i_m_source_file_index>
1801

> <i_lp_mmshare_version>
43012

> <i_f3d_flags>
0

> <s_epik_input>
W0NIMl0xW0NIMl1bQ0gyXVtDSDJdTjFbQ0gyXVtDQEhdKFtDSDNdKVtDSDJdW05IXUMoPU8pW05IXWMybm5bY0hdczI=

> <s_epik_cmdline>
J2VwaWtfcHl0aG9uJywgJy1waCcsICc3LjAnLCAnLXRuJywgJzgnLCAnLW1hJywgJzIwMCcsICctbWV0YWxfYmluZGluZycsICctaW1hZScsICc8aW5maWxlLm1hZT4nLCAnLW9tYWUnLCAnPG91dGZpbGUubWFlPic=

> <r_lp_tautomer_probability>
1

> <r_epik_Ionization_Penalty>
0.00281598

> <r_epik_Ionization_Penalty_Charging>
0.000371708

> <r_epik_Ionization_Penalty_Neutral>
0.00244427

> <r_epik_State_Penalty>
-0

> <r_epik_Charging_Adjusted_Penalty>
0.000371708

> <i_epik_Tot_Q>
1

> <i_epik_Tot_abs_Q>
1

> <r_epik_Metal_State_Penalty>
0.350595

> <b_epik_Metal_Only>
0

> <s_lp_Force_Field>
OPLS_2005

> <r_lp_Energy>
28.9171

> <b_lp_Chiralities_Consistent>
1

> <s_lp_Variant>
AV-unprocessed.smi:1801-1

> <Gold.Version>
5.8.1

> <Gold.Id.Protein>
6NUR|6NUR_protein|mol2

> <Gold.PLP.Fitness>
46.4414

> <Gold.PLP.PLP>
-34.9243

> <Gold.PLP.part.hbond>
-6.0186

> <Gold.PLP.part.metal>
0.0000

> <Gold.PLP.part.buried>
-3.7931

> <Gold.PLP.part.nonpolar>
-25.4916

> <Gold.PLP.part.repulsive>
0.4157

> <Gold.PLP.ligand.clash>
0.0000

> <Gold.PLP.ligand.torsion>
1.1512

> <Gold.PLP.Chemscore.Hbond>
4.5936

> <Gold.PLP.Chemscore.CHOScore>
0.0000

> <Gold.PLP.Chemscore.Metal>
0.0000

> <Gold.Chemscore.Hbonds>
donor molecule, donor type, donor heavy atom, donor atom, acceptor molecule, acceptor atom, score
      L1  H     4    25       P1  7948  0.63
      L1  H     7    26       P1  7948  0.75
      L1  H    14    38       P1 10747  1.00
      P1  H  7989  7998       L1    10  0.90
      P1  H 10752 10764       L1     6  0.99

> <Gold.PLP.Chemscore.Internal.Correction>
0.0387

> <Gold.Rescore>
     Score         DG    S(hbond)    S(metal)    S(lipo)     H(rot)  DE(clash)    DE(int)     intcor
     16.41     -18.83       3.03        0.00      70.50       1.97       0.06       2.36       ----

> <Gold.Chemscore.Fitness>
16.4105

> <Gold.Chemscore.DG>
-18.8266

> <Gold.Chemscore.ZeroCoef>
-5.4800

> <Gold.Chemscore.Hbond>
3.0337

> <Gold.Chemscore.Metal>
0.0000

> <Gold.Chemscore.Lipo>
70.5039

> <Gold.Chemscore.Internal_Hbond>
0.0000

> <Gold.Chemscore.DEClash>
0.0561

> <Gold.Chemscore.DEInternal>
2.3600

> <Gold.Chemscore.Rot>
1.9667

> <Gold.Chemscore.Internal.Correction>
   9.000000E+99

> <Gold.Chemscore.Hbonds>
donor molecule, donor type, donor heavy atom, donor atom, acceptor molecule, acceptor atom, score
      L1  H     4    25       P1  7948  0.12
      L1  H     7    26       P1  7948  0.71
      L1  H    14    38       P1 10747  1.00
      P1  H  7989  7998       L1    10  0.06
      P1  H 10752 10764       L1     6  0.83

> <Gold.Chemscore.Hbond.Weighted>
-10.1325

> <Gold.Chemscore.Metal.Weighted>
-0.0000

> <Gold.Chemscore.Lipo.Weighted>
-8.2490

> <Gold.Chemscore.Internal_Hbond.Weighted>
0.0000

> <Gold.Chemscore.DEClash.Weighted>
0.0561

> <Gold.Chemscore.DEInternal.Weighted>
2.3600

> <Gold.Chemscore.Rot.Weighted>
5.0348

> <Gold.Chemscore.Internal.Correction.Weighted>
   9.000000E+99

> <Gold.Protein.RotatedTorsions>
[ 6907 6896 6895 6894 ] final    1.17 input  -60.11 | X-H torsion
[ 7974 7965 7964 7962 ] final  -96.77 input  175.53 | X-H torsion
[ 8008 7997 7996 7995 ] final  109.12 input   59.86 | X-H torsion
[ 10167 10162 10161 10158 ] final -178.70 input  -65.29 | X-H torsion
[ 10718 10713 10712 10709 ] final  125.86 input   66.30 | X-H torsion
[ 10763 10752 10751 10750 ] final  -39.88 input  -60.55 | X-H torsion
[ 11005 11000 10999 10996 ] final  -27.90 input  -57.11 | X-H torsion

> <Gold.Protein.ActiveResidues>
 VAL166  LYS551  ARG553  GLY616  TRP617  ASP618  TYR619  PRO620  LYS621  CYS622 
 ASP623  PHE694  ASN695  SER759  ASP760  ASP761  ALA762  ILE779  LEU786  VAL792 
 PHE793  MET794  SER795  GLU796  ALA797  LYS798  CYS799  TRP800  GLU811  SER814 

> <Gold.Protein.RotatedAtoms>
  151.5884  135.1055  160.0032 H   0  0  0  0  0  0  0  0  0  0  0  0  # atno 6907 bound_to 6896
  152.4319  133.7288  159.6586 H   0  0  0  0  0  0  0  0  0  0  0  0  # atno 6908 bound_to 6896
  150.8212  133.8179  159.3161 H   0  0  0  0  0  0  0  0  0  0  0  0  # atno 6909 bound_to 6896
  145.3425  140.9462  143.2600 H   0  0  0  0  0  0  0  0  0  0  0  0  # atno 7974 bound_to 7965
  156.1955  140.3063  155.9419 H   0  0  0  0  0  0  0  0  0  0  0  0  # atno 8008 bound_to 7997
  155.3075  140.0449  157.3050 H   0  0  0  0  0  0  0  0  0  0  0  0  # atno 8009 bound_to 7997
  154.5505  140.2290  155.8502 H   0  0  0  0  0  0  0  0  0  0  0  0  # atno 8010 bound_to 7997
  139.5420  144.2338  152.0914 H   0  0  0  0  0  0  0  0  0  0  0  0  # atno 10167 bound_to 10162
  157.5467  131.1095  150.8770 H   0  0  0  0  0  0  0  0  0  0  0  0  # atno 10718 bound_to 10713
  153.9367  135.6766  153.4745 H   0  0  0  0  0  0  0  0  0  0  0  0  # atno 10763 bound_to 10752
  153.0952  135.4855  154.8762 H   0  0  0  0  0  0  0  0  0  0  0  0  # atno 10764 bound_to 10752
  154.7399  135.3158  154.8704 H   0  0  0  0  0  0  0  0  0  0  0  0  # atno 10765 bound_to 10752
  140.9161  133.7429  156.0736 H   0  0  0  0  0  0  0  0  0  0  0  0  # atno 11005 bound_to 11000
  144.8779  139.4945  143.6737 LP  0  0  0  0  0  0  0  0  0  0  0  0  # atno 17320 bound_to 7965
  146.3001  139.7400  142.9097 LP  0  0  0  0  0  0  0  0  0  0  0  0  # atno 17321 bound_to 7965
  140.1818  144.4837  150.6524 LP  0  0  0  0  0  0  0  0  0  0  0  0  # atno 17342 bound_to 10162
  140.6653  143.2266  151.5757 LP  0  0  0  0  0  0  0  0  0  0  0  0  # atno 17343 bound_to 10162
  156.9306  130.5348  149.5279 LP  0  0  0  0  0  0  0  0  0  0  0  0  # atno 17370 bound_to 10713
  156.0542  130.5606  150.9055 LP  0  0  0  0  0  0  0  0  0  0  0  0  # atno 17371 bound_to 10713
  140.8048  134.3467  157.5429 LP  0  0  0  0  0  0  0  0  0  0  0  0  # atno 17394 bound_to 11000
  139.8766  134.9219  156.3287 LP  0  0  0  0  0  0  0  0  0  0  0  0  # atno 17395 bound_to 11000

$$$$
