#       Name:                AV-unprocessed.smi:2528
#       Creating user name   scv26
#       Creation time:       Fri Mar 27 13:59:15 2020


#       File generated by GOLD software.
#

@<TRIPOS>MOLECULE
AV-unprocessed.smi:2528
    49    51     1
SMALL
NO_CHARGES


@<TRIPOS>ATOM
      1 ****        -1.4089   1.7808  -1.1543 O.2            1 S1                 0.0000
      2 ****        -1.8484   0.7539  -1.6722 C.2            1 S1                 0.0000
      3 ****        -1.0733  -0.2776  -2.0374 N.am           1 S1                 0.0000
      4 ****         0.3731  -0.3448  -1.8557 C.3            1 S1                 0.0000
      5 ****         0.7457  -0.9602  -0.4951 C.3            1 S1                 0.0000
      6 ****         2.2613  -1.1994  -0.3706 C.3            1 S1                 0.0000
      7 ****         2.5945  -1.7379   0.9713 N.4            1 S1                 1.0000
      8 ****         4.0343  -2.0601   1.1502 C.3            1 S1                 0.0000
      9 ****         4.8953  -0.7973   1.3437 C.3            1 S1                 0.0000
     10 ****         4.3601   0.0643   2.4953 C.3            1 S1                 0.0000
     11 ****         2.8759   0.3895   2.2748 C.3            1 S1                 0.0000
     12 ****         2.0488  -0.8994   2.0744 C.3            1 S1                 0.0000
     13 ****         0.5524  -0.6157   1.8376 C.3            1 S1                 0.0000
     14 ****         0.3529  -0.0665   0.5415 O.3            1 S1                 0.0000
     15 ****        -3.1435   0.5072  -1.9357 N.am           1 S1                 0.0000
     16 ****        -4.2639   1.3446  -1.6881 C.ar           1 S1                 0.0000
     17 ****        -5.5178   0.7756  -2.0062 C.ar           1 S1                 0.0000
     18 ****        -6.6918   1.5245  -1.7955 C.ar           1 S1                 0.0000
     19 ****        -6.5812   2.8260  -1.2747 C.ar           1 S1                 0.0000
     20 ****        -5.2948   3.3185  -0.9880 C.ar           1 S1                 0.0000
     21 ****        -4.1684   2.6016  -1.1866 N.ar           1 S1                 0.0000
     22 ****        -1.5169  -1.0795  -2.4609 H              1 S1                 0.0000
     23 ****         0.7722  -0.9641  -2.6593 H              1 S1                 0.0000
     24 ****         0.8279   0.6404  -1.9734 H              1 S1                 0.0000
     25 ****         0.2172  -1.9090  -0.3814 H              1 S1                 0.0000
     26 ****         2.5878  -1.9074  -1.1330 H              1 S1                 0.0000
     27 ****         2.7994  -0.2691  -0.5530 H              1 S1                 0.0000
     28 ****         4.1332  -2.7019   2.0265 H              1 S1                 0.0000
     29 ****         4.3947  -2.6426   0.3013 H              1 S1                 0.0000
     30 ****         5.9281  -1.0826   1.5459 H              1 S1                 0.0000
     31 ****         4.9176  -0.2119   0.4242 H              1 S1                 0.0000
     32 ****         4.4834  -0.4680   3.4394 H              1 S1                 0.0000
     33 ****         4.9396   0.9841   2.5787 H              1 S1                 0.0000
     34 ****         2.4953   0.9458   3.1320 H              1 S1                 0.0000
     35 ****         2.7677   1.0497   1.4135 H              1 S1                 0.0000
     36 ****         2.1293  -1.4841   2.9920 H              1 S1                 0.0000
     37 ****        -0.0343  -1.5298   1.9428 H              1 S1                 0.0000
     38 ****         0.1740   0.0841   2.5831 H              1 S1                 0.0000
     39 ****        -3.3554  -0.3872  -2.3522 H              1 S1                 0.0000
     40 ****        -5.5849  -0.2258  -2.4059 H              1 S1                 0.0000
     41 ****        -7.6597   1.1067  -2.0300 H              1 S1                 0.0000
     42 ****        -7.4585   3.4311  -1.1002 H              1 S1                 0.0000
     43 ****        -5.1663   4.3137  -0.5889 H              1 S1                 0.0000
     44 ****         2.1054  -2.6198   1.0283 H              1 S1                 0.0000
     45 ****        -0.4276   1.8757  -0.9865 LP             1 S1                 0.0000
     46 ****        -2.0332   2.5199  -0.9014 LP             1 S1                 0.0000
     47 ****        -0.6174   0.1478   0.4298 LP             1 S1                 0.0000
     48 ****         0.8908   0.7728   0.4625 LP             1 S1                 0.0000
     49 ****        -3.2745   2.9922  -0.9667 LP             1 S1                 0.0000
@<TRIPOS>BOND
    1    1    2 2     
    2    2    3 am    
    3    2   15 am    
    4    3    4 1     
    5    3   22 1     
    6    4    5 1     
    7    4   23 1     
    8    4   24 1     
    9    5   14 1     
   10    5    6 1     
   11    5   25 1     
   12    6    7 1     
   13    6   26 1     
   14    6   27 1     
   15    7   12 1     
   16    7    8 1     
   17    7   44 1     
   18    8    9 1     
   19    8   28 1     
   20    8   29 1     
   21    9   10 1     
   22    9   30 1     
   23    9   31 1     
   24   10   11 1     
   25   10   32 1     
   26   10   33 1     
   27   11   12 1     
   28   11   34 1     
   29   11   35 1     
   30   12   13 1     
   31   12   36 1     
   32   13   14 1     
   33   13   37 1     
   34   13   38 1     
   35   15   16 1     
   36   15   39 1     
   37   16   21 ar    
   38   16   17 ar    
   39   17   18 ar    
   40   17   40 1     
   41   18   19 ar    
   42   18   41 1     
   43   19   20 ar    
   44   19   42 1     
   45   20   21 ar    
   46   20   43 1     
   47    1   45 1     
   48    1   46 1     
   49   14   47 1     
   50   14   48 1     
   51   21   49 1     
@<TRIPOS>SUBSTRUCTURE
      1 S1             1
@<TRIPOS>SET
LONE_PAIRS      STATIC     ATOMS    <user>   **** ""
5 45 46 47 48 49
DONOR_HYDROGENS      STATIC     ATOMS    <user>   **** ""
3 22 44 39
ATOM$BLUE        STATIC     ATOMS    COLORGROUP SYSTEM
5 45 46 47 48 49
ATOM$RED        STATIC     ATOMS    COLORGROUP SYSTEM
3 22 44 39
