#       Name:                AV-unprocessed.smi:1462
#       Creating user name   scv26
#       Creation time:       Fri Mar 27 06:01:32 2020


#       File generated by GOLD software.
#

@<TRIPOS>MOLECULE
AV-unprocessed.smi:1462
    45    46     1
SMALL
NO_CHARGES


@<TRIPOS>ATOM
      1 ****        -6.4111  -1.5764   0.7650 C.3            1 S1                 0.0000
      2 ****        -5.7825  -0.3486   1.2279 N.3            1 S1                 0.0000
      3 ****        -6.4229   0.8935   0.8235 C.3            1 S1                 0.0000
      4 ****        -4.3956  -0.3340   1.0294 C.ar           1 S1                 0.0000
      5 ****        -3.8393  -0.3273  -0.2698 C.ar           1 S1                 0.0000
      6 ****        -2.4383  -0.3093  -0.4078 C.ar           1 S1                 0.0000
      7 ****        -1.6367  -0.2906   0.7583 C.ar           1 S1                 0.0000
      8 ****        -0.2159  -0.2910   0.7528 N.am           1 S1                 0.0000
      9 ****         0.6173   0.0972  -0.2277 C.2            1 S1                 0.0000
     10 ****         0.2692   0.5637  -1.3122 O.2            1 S1                 0.0000
     11 ****         1.8972  -0.0693   0.1355 N.am           1 S1                 0.0000
     12 ****         3.0677   0.2629  -0.6727 C.3            1 S1                 0.0000
     13 ****         3.9518  -0.9866  -0.8464 C.3            1 S1                 0.0000
     14 ****         5.2393  -0.6612  -1.6210 C.3            1 S1                 0.0000
     15 ****         6.0215   0.4786  -0.9497 C.3            1 S1                 0.0000
     16 ****         5.1437   1.7289  -0.7806 C.3            1 S1                 0.0000
     17 ****         3.8556   1.4067  -0.0056 C.3            1 S1                 0.0000
     18 ****        -2.2933  -0.3140   2.0062 C.ar           1 S1                 0.0000
     19 ****        -3.6357  -0.3301   2.1458 N.ar           1 S1                 0.0000
     20 ****        -5.8612  -2.4506   1.1158 H              1 S1                 0.0000
     21 ****        -6.4537  -1.6082  -0.3241 H              1 S1                 0.0000
     22 ****        -7.4297  -1.6444   1.1479 H              1 S1                 0.0000
     23 ****        -5.8997   1.7541   1.2422 H              1 S1                 0.0000
     24 ****        -7.4526   0.9197   1.1809 H              1 S1                 0.0000
     25 ****        -6.4361   0.9922  -0.2626 H              1 S1                 0.0000
     26 ****        -4.4702  -0.3393  -1.1465 H              1 S1                 0.0000
     27 ****        -2.0117  -0.3243  -1.3985 H              1 S1                 0.0000
     28 ****         0.2190  -0.5710   1.6197 H              1 S1                 0.0000
     29 ****         2.0790  -0.4551   1.0505 H              1 S1                 0.0000
     30 ****         2.7606   0.5968  -1.6655 H              1 S1                 0.0000
     31 ****         4.2133  -1.3945   0.1311 H              1 S1                 0.0000
     32 ****         3.3968  -1.7669  -1.3688 H              1 S1                 0.0000
     33 ****         5.8656  -1.5510  -1.6913 H              1 S1                 0.0000
     34 ****         4.9882  -0.3786  -2.6442 H              1 S1                 0.0000
     35 ****         6.3822   0.1498   0.0258 H              1 S1                 0.0000
     36 ****         6.9053   0.7217  -1.5403 H              1 S1                 0.0000
     37 ****         5.7033   2.5089  -0.2637 H              1 S1                 0.0000
     38 ****         4.8880   2.1307  -1.7618 H              1 S1                 0.0000
     39 ****         3.2336   2.3002   0.0599 H              1 S1                 0.0000
     40 ****         4.1111   1.1322   1.0190 H              1 S1                 0.0000
     41 ****        -1.7243  -0.3140   2.9246 H              1 S1                 0.0000
     42 ****        -5.9398  -0.3758   2.2150 LP             1 S1                 0.0000
     43 ****        -0.7025   0.6788  -1.5183 LP             1 S1                 0.0000
     44 ****         0.9582   0.8276  -1.9873 LP             1 S1                 0.0000
     45 ****        -4.0568  -0.3390   3.0527 LP             1 S1                 0.0000
@<TRIPOS>BOND
    1    1    2 1     
    2    1   20 1     
    3    1   21 1     
    4    1   22 1     
    5    2    3 1     
    6    2    4 1     
    7    3   23 1     
    8    3   24 1     
    9    3   25 1     
   10    4   19 ar    
   11    4    5 ar    
   12    5    6 ar    
   13    5   26 1     
   14    6    7 ar    
   15    6   27 1     
   16    7    8 1     
   17    7   18 ar    
   18    8    9 am    
   19    8   28 1     
   20    9   10 2     
   21    9   11 am    
   22   11   12 1     
   23   11   29 1     
   24   12   17 1     
   25   12   13 1     
   26   12   30 1     
   27   13   14 1     
   28   13   31 1     
   29   13   32 1     
   30   14   15 1     
   31   14   33 1     
   32   14   34 1     
   33   15   16 1     
   34   15   35 1     
   35   15   36 1     
   36   16   17 1     
   37   16   37 1     
   38   16   38 1     
   39   17   39 1     
   40   17   40 1     
   41   18   19 ar    
   42   18   41 1     
   43    2   42 1     
   44   10   43 1     
   45   10   44 1     
   46   19   45 1     
@<TRIPOS>SUBSTRUCTURE
      1 S1             1
@<TRIPOS>SET
LONE_PAIRS      STATIC     ATOMS    <user>   **** ""
4 42 43 44 45
DONOR_HYDROGENS      STATIC     ATOMS    <user>   **** ""
2 28 29
ATOM$BLUE        STATIC     ATOMS    COLORGROUP SYSTEM
4 42 43 44 45
ATOM$RED        STATIC     ATOMS    COLORGROUP SYSTEM
2 28 29
