AV-unprocessed.smi:3305|AV-procd|sdf|12699|dock10
  -GOLD-   2272019 33D 1   1.00000     0.00000
 Structure written by MMmdl.
 32 33  0  0  0  0  0  0  0  0  1 V2000
  153.0423  142.3236  161.6128 C   0  0  0  0  0  0  0  0  0  0  0  0
  152.5000  143.2590  160.5786 C   0  0  0  0  0  0  0  0  0  0  0  0
  152.2223  144.5946  160.7310 C   0  0  0  0  0  0  0  0  0  0  0  0
  151.5807  145.2961  159.2702 S   0  0  0  0  0  0  0  0  0  0  0  0
  151.7287  143.7269  158.4885 C   0  0  0  0  0  0  0  0  0  0  0  0
  151.2866  143.4620  157.0841 C   0  0  0  0  0  0  0  0  0  0  0  0
  151.0333  141.9706  156.7780 C   0  0  0  0  0  0  0  0  0  0  0  0
  149.8274  141.7490  155.9855 N   0  0  0  0  0  0  0  0  0  0  0  0
  149.7108  140.8595  154.9881 C   0  0  0  0  0  0  0  0  0  0  0  0
  150.6531  140.1829  154.5747 O   0  0  0  0  0  0  0  0  0  0  0  0
  148.3055  140.6944  154.3886 C   0  0  2  0  0  0  0  0  0  0  0  0
  147.7381  142.0302  153.8964 C   0  0  0  0  0  0  0  0  0  0  0  0
  146.5298  142.2974  154.7966 C   0  0  0  0  0  0  0  0  0  0  0  0
  146.7334  141.4639  155.9253 O   0  0  0  0  0  0  0  0  0  0  0  0
  147.2790  140.2488  155.4390 C   0  0  0  0  0  0  0  0  0  0  0  0
  152.2173  142.7816  159.2969 N   0  0  0  0  0  0  0  0  0  0  0  0
  153.2273  142.8355  162.5572 H   0  0  0  0  0  0  0  0  0  0  0  0
  153.9836  141.8802  161.2877 H   0  0  0  0  0  0  0  0  0  0  0  0
  152.3439  141.5100  161.8100 H   0  0  0  0  0  0  0  0  0  0  0  0
  152.3490  145.2049  161.6130 H   0  0  0  0  0  0  0  0  0  0  0  0
  150.3816  144.0373  156.8885 H   0  0  0  0  0  0  0  0  0  0  0  0
  152.0462  143.8535  156.4060 H   0  0  0  0  0  0  0  0  0  0  0  0
  151.8712  141.5754  156.2032 H   0  0  0  0  0  0  0  0  0  0  0  0
  150.9925  141.3918  157.7019 H   0  0  0  0  0  0  0  0  0  0  0  0
  149.0028  142.2635  156.2590 H   0  0  0  0  0  0  0  0  0  0  0  0
  148.3431  139.9664  153.5768 H   0  0  0  0  0  0  0  0  0  0  0  0
  148.4611  142.8434  153.9857 H   0  0  0  0  0  0  0  0  0  0  0  0
  147.4425  141.9818  152.8480 H   0  0  0  0  0  0  0  0  0  0  0  0
  146.4434  143.3453  155.0844 H   0  0  0  0  0  0  0  0  0  0  0  0
  145.6055  142.0040  154.2965 H   0  0  0  0  0  0  0  0  0  0  0  0
  146.4905  139.6523  154.9774 H   0  0  0  0  0  0  0  0  0  0  0  0
  147.7093  139.6597  156.2500 H   0  0  0  0  0  0  0  0  0  0  0  0
  1  2  1  0  0  0  0
  1 17  1  0  0  0  0
  1 18  1  0  0  0  0
  1 19  1  0  0  0  0
  2 16  1  0  0  0  0
  2  3  2  0  0  0  0
  3  4  1  0  0  0  0
  3 20  1  0  0  0  0
  4  5  1  0  0  0  0
  5  6  1  0  0  0  0
  5 16  2  0  0  0  0
  6  7  1  0  0  0  0
  6 21  1  0  0  0  0
  6 22  1  0  0  0  0
  7  8  1  0  0  0  0
  7 23  1  0  0  0  0
  7 24  1  0  0  0  0
  8  9  1  0  0  0  0
  8 25  1  0  0  0  0
  9 10  2  0  0  0  0
  9 11  1  0  0  0  0
 11 15  1  0  0  0  0
 11 12  1  0  0  0  0
 11 26  1  0  0  0  0
 12 13  1  0  0  0  0
 12 27  1  0  0  0  0
 12 28  1  0  0  0  0
 13 14  1  0  0  0  0
 13 29  1  0  0  0  0
 13 30  1  0  0  0  0
 14 15  1  0  0  0  0
 15 31  1  0  0  0  0
 15 32  1  0  0  0  0
M  END
> <s_m_source_file>
AV-unprocessed.smi

> <i_m_source_file_index>
3305

> <i_lp_mmshare_version>
43012

> <i_f3d_flags>
0

> <s_epik_input>
W0NIM11jMVtjSF1zYyhuMSlbQ0gyXVtDSDJdW05IXUMoPU8pW0NAQEhdMltDSDJdW0NIMl1PW0NIMl0y

> <s_epik_cmdline>
J2VwaWtfcHl0aG9uJywgJy1waCcsICc3LjAnLCAnLXRuJywgJzgnLCAnLW1hJywgJzIwMCcsICctbWV0YWxfYmluZGluZycsICctaW1hZScsICc8aW5maWxlLm1hZT4nLCAnLW9tYWUnLCAnPG91dGZpbGUubWFlPic=

> <r_epik_Ionization_Penalty>
0.00102754

> <r_epik_Ionization_Penalty_Charging>
0

> <r_epik_Ionization_Penalty_Neutral>
0.00102754

> <r_epik_State_Penalty>
0.000671034

> <r_epik_Charging_Adjusted_Penalty>
0.000671034

> <i_epik_Tot_Q>
0

> <i_epik_Tot_abs_Q>
0

> <r_epik_Metal_State_Penalty>
-0

> <b_epik_Metal_Only>
0

> <s_lp_Force_Field>
OPLS_2005

> <r_lp_Energy>
8.47785

> <b_lp_Chiralities_Consistent>
1

> <s_lp_Variant>
AV-unprocessed.smi:3305-1

> <Gold.Version>
5.8.1

> <Gold.Id.Protein>
6NUR|6NUR_protein|mol2

> <Gold.PLP.Fitness>
39.1543

> <Gold.PLP.PLP>
-37.5892

> <Gold.PLP.part.hbond>
-1.6397

> <Gold.PLP.part.metal>
0.0000

> <Gold.PLP.part.buried>
-4.5602

> <Gold.PLP.part.nonpolar>
-30.8904

> <Gold.PLP.part.repulsive>
0.2677

> <Gold.PLP.ligand.clash>
0.0000

> <Gold.PLP.ligand.torsion>
0.7372

> <Gold.PLP.Chemscore.Hbond>
1.0000

> <Gold.PLP.Chemscore.CHOScore>
0.0000

> <Gold.PLP.Chemscore.Metal>
0.0000

> <Gold.Chemscore.Hbonds>
donor molecule, donor type, donor heavy atom, donor atom, acceptor molecule, acceptor atom, score
      P1  H  7989  7998       L1    10  1.00

> <Gold.PLP.Chemscore.Internal.Correction>
0.0394

> <Gold.Rescore>
     Score         DG    S(hbond)    S(metal)    S(lipo)     H(rot)  DE(clash)    DE(int)     intcor
     15.71     -16.87       0.97        0.00     102.81       1.52       0.52       0.64       ----

> <Gold.Chemscore.Fitness>
15.7086

> <Gold.Chemscore.DG>
-16.8677

> <Gold.Chemscore.ZeroCoef>
-5.4800

> <Gold.Chemscore.Hbond>
0.9701

> <Gold.Chemscore.Metal>
0.0000

> <Gold.Chemscore.Lipo>
102.8055

> <Gold.Chemscore.Internal_Hbond>
0.0000

> <Gold.Chemscore.DEClash>
0.5215

> <Gold.Chemscore.DEInternal>
0.6375

> <Gold.Chemscore.Rot>
1.5159

> <Gold.Chemscore.Internal.Correction>
   9.000000E+99

> <Gold.Chemscore.Hbonds>
donor molecule, donor type, donor heavy atom, donor atom, acceptor molecule, acceptor atom, score
      P1  H  7989  7998       L1    10  0.93

> <Gold.Chemscore.Hbond.Weighted>
-3.2401

> <Gold.Chemscore.Metal.Weighted>
-0.0000

> <Gold.Chemscore.Lipo.Weighted>
-12.0282

> <Gold.Chemscore.Internal_Hbond.Weighted>
0.0000

> <Gold.Chemscore.DEClash.Weighted>
0.5215

> <Gold.Chemscore.DEInternal.Weighted>
0.6375

> <Gold.Chemscore.Rot.Weighted>
3.8807

> <Gold.Chemscore.Internal.Correction.Weighted>
   9.000000E+99

> <Gold.Protein.RotatedTorsions>
[ 6907 6896 6895 6894 ] final  -28.22 input  -60.11 | X-H torsion
[ 7974 7965 7964 7962 ] final -179.74 input  175.53 | X-H torsion
[ 8008 7997 7996 7995 ] final -133.36 input   59.86 | X-H torsion
[ 10167 10162 10161 10158 ] final   83.32 input  -65.29 | X-H torsion
[ 10718 10713 10712 10709 ] final   99.52 input   66.30 | X-H torsion
[ 10763 10752 10751 10750 ] final    9.03 input  -60.55 | X-H torsion
[ 11005 11000 10999 10996 ] final  101.22 input  -57.11 | X-H torsion

> <Gold.Protein.ActiveResidues>
 VAL166  LYS551  ARG553  GLY616  TRP617  ASP618  TYR619  PRO620  LYS621  CYS622 
 ASP623  PHE694  ASN695  SER759  ASP760  ASP761  ALA762  ILE779  LEU786  VAL792 
 PHE793  MET794  SER795  GLU796  ALA797  LYS798  CYS799  TRP800  GLU811  SER814 

> <Gold.Protein.RotatedAtoms>
  151.1360  135.0155  159.8603 H   0  0  0  0  0  0  0  0  0  0  0  0  # atno 6907 bound_to 6896
  152.5452  134.1554  159.8546 H   0  0  0  0  0  0  0  0  0  0  0  0  # atno 6908 bound_to 6896
  151.1625  133.4790  159.2627 H   0  0  0  0  0  0  0  0  0  0  0  0  # atno 6909 bound_to 6896
  144.7139  140.0672  143.6430 H   0  0  0  0  0  0  0  0  0  0  0  0  # atno 7974 bound_to 7965
  155.3442  140.0474  157.3045 H   0  0  0  0  0  0  0  0  0  0  0  0  # atno 8008 bound_to 7997
  154.5261  140.2241  155.8852 H   0  0  0  0  0  0  0  0  0  0  0  0  # atno 8009 bound_to 7997
  156.1741  140.3089  155.9032 H   0  0  0  0  0  0  0  0  0  0  0  0  # atno 8010 bound_to 7997
  139.9196  144.6221  150.8453 H   0  0  0  0  0  0  0  0  0  0  0  0  # atno 10167 bound_to 10162
  157.6874  131.0672  150.4960 H   0  0  0  0  0  0  0  0  0  0  0  0  # atno 10718 bound_to 10713
  153.2184  135.6878  153.8029 H   0  0  0  0  0  0  0  0  0  0  0  0  # atno 10763 bound_to 10752
  153.7236  135.3263  155.3273 H   0  0  0  0  0  0  0  0  0  0  0  0  # atno 10764 bound_to 10752
  154.8257  135.4619  154.1022 H   0  0  0  0  0  0  0  0  0  0  0  0  # atno 10765 bound_to 10752
  139.8773  134.9174  156.4874 H   0  0  0  0  0  0  0  0  0  0  0  0  # atno 11005 bound_to 11000
  145.9814  139.2944  143.1040 LP  0  0  0  0  0  0  0  0  0  0  0  0  # atno 17320 bound_to 7965
  145.9006  140.9245  143.0505 LP  0  0  0  0  0  0  0  0  0  0  0  0  # atno 17321 bound_to 7965
  140.7665  143.3306  151.2418 LP  0  0  0  0  0  0  0  0  0  0  0  0  # atno 17342 bound_to 10162
  139.6872  143.9753  152.2840 LP  0  0  0  0  0  0  0  0  0  0  0  0  # atno 17343 bound_to 10162
  156.5284  130.4179  149.6214 LP  0  0  0  0  0  0  0  0  0  0  0  0  # atno 17370 bound_to 10713
  156.3091  130.7219  151.2108 LP  0  0  0  0  0  0  0  0  0  0  0  0  # atno 17371 bound_to 10713
  140.8683  133.8007  155.9337 LP  0  0  0  0  0  0  0  0  0  0  0  0  # atno 17394 bound_to 11000
  140.8979  134.2415  157.5058 LP  0  0  0  0  0  0  0  0  0  0  0  0  # atno 17395 bound_to 11000

$$$$
