#       Name:                AV-unprocessed.smi:502
#       Creating user name   scv26
#       Creation time:       Thu Mar 26 23:20:54 2020


#       File generated by GOLD software.
#

@<TRIPOS>MOLECULE
AV-unprocessed.smi:502
    53    55     1
SMALL
NO_CHARGES


@<TRIPOS>ATOM
      1 ****        -1.4549   6.2576  -0.5014 C.3            1 S1                 0.0000
      2 ****        -2.0178   4.8405  -0.5074 C.2            1 S1                 0.0000
      3 ****        -3.2114   4.6498  -0.7394 O.2            1 S1                 0.0000
      4 ****        -1.1465   3.8536  -0.2497 N.am           1 S1                 0.0000
      5 ****        -1.4841   2.4363  -0.1889 C.3            1 S1                 0.0000
      6 ****        -1.6165   1.8199  -1.5914 C.3            1 S1                 0.0000
      7 ****        -1.9789   0.3715  -1.5217 C.2            1 S1                 0.0000
      8 ****        -3.2455  -0.1293  -1.5818 N.pl3          1 S1                 1.0000
      9 ****        -3.2111  -1.5198  -1.4738 C.ar           1 S1                 0.0000
     10 ****        -4.2361  -2.4609  -1.4830 C.ar           1 S1                 0.0000
     11 ****        -3.8553  -3.8125  -1.3494 C.ar           1 S1                 0.0000
     12 ****        -2.5017  -4.1843  -1.2150 C.ar           1 S1                 0.0000
     13 ****        -1.4715  -3.2209  -1.2074 C.ar           1 S1                 0.0000
     14 ****        -1.8570  -1.8869  -1.3380 C.ar           1 S1                 0.0000
     15 ****        -1.1334  -0.6892  -1.3652 N.pl3          1 S1                 0.0000
     16 ****         0.3294  -0.7405  -1.2331 C.3            1 S1                 0.0000
     17 ****         0.7744  -0.9334   0.2228 C.3            1 S1                 0.0000
     18 ****         2.1936  -0.9560   0.2594 O.3            1 S1                 0.0000
     19 ****         2.8170  -1.1356   1.4774 C.ar           1 S1                 0.0000
     20 ****         2.1203  -1.2801   2.7048 C.ar           1 S1                 0.0000
     21 ****         2.8240  -1.4603   3.9107 C.ar           1 S1                 0.0000
     22 ****         4.2294  -1.4996   3.9083 C.ar           1 S1                 0.0000
     23 ****         4.9314  -1.3576   2.6979 C.ar           1 S1                 0.0000
     24 ****         4.2312  -1.1759   1.4867 C.ar           1 S1                 0.0000
     25 ****         5.0048  -1.0250   0.1902 C.3            1 S1                 0.0000
     26 ****        -0.6619   6.3569  -1.2429 H              1 S1                 0.0000
     27 ****        -1.0444   6.5000   0.4791 H              1 S1                 0.0000
     28 ****        -2.2329   6.9853  -0.7342 H              1 S1                 0.0000
     29 ****        -0.1847   4.1038  -0.0690 H              1 S1                 0.0000
     30 ****        -0.6988   1.9286   0.3701 H              1 S1                 0.0000
     31 ****        -2.4068   2.2999   0.3778 H              1 S1                 0.0000
     32 ****        -2.3846   2.3416  -2.1637 H              1 S1                 0.0000
     33 ****        -0.6872   1.9353  -2.1493 H              1 S1                 0.0000
     34 ****        -5.2735  -2.1784  -1.5858 H              1 S1                 0.0000
     35 ****        -4.6165  -4.5793  -1.3496 H              1 S1                 0.0000
     36 ****        -2.2479  -5.2298  -1.1146 H              1 S1                 0.0000
     37 ****        -0.4377  -3.5151  -1.1022 H              1 S1                 0.0000
     38 ****         0.7080  -1.5426  -1.8678 H              1 S1                 0.0000
     39 ****         0.7401   0.1878  -1.6292 H              1 S1                 0.0000
     40 ****         0.3946  -0.1172   0.8383 H              1 S1                 0.0000
     41 ****         0.3753  -1.8693   0.6163 H              1 S1                 0.0000
     42 ****         1.0423  -1.2559   2.7504 H              1 S1                 0.0000
     43 ****         2.2834  -1.5685   4.8394 H              1 S1                 0.0000
     44 ****         4.7687  -1.6388   4.8336 H              1 S1                 0.0000
     45 ****         6.0112  -1.3891   2.7037 H              1 S1                 0.0000
     46 ****         6.0803  -1.0960   0.3556 H              1 S1                 0.0000
     47 ****         4.7953  -0.0568  -0.2651 H              1 S1                 0.0000
     48 ****         4.7186  -1.8064  -0.5144 H              1 S1                 0.0000
     49 ****        -4.0732   0.4431  -1.6899 H              1 S1                 0.0000
     50 ****        -3.8149   5.4253  -0.9246 LP             1 S1                 0.0000
     51 ****        -3.5777   3.7193  -0.7426 LP             1 S1                 0.0000
     52 ****         2.5126  -0.0832  -0.1098 LP             1 S1                 0.0000
     53 ****         2.4927  -1.7000  -0.3381 LP             1 S1                 0.0000
@<TRIPOS>BOND
    1    1    2 1     
    2    1   26 1     
    3    1   27 1     
    4    1   28 1     
    5    2    3 2     
    6    2    4 am    
    7    4    5 1     
    8    4   29 1     
    9    5    6 1     
   10    5   30 1     
   11    5   31 1     
   12    6    7 1     
   13    6   32 1     
   14    6   33 1     
   15    7   15 1     
   16    7    8 2     
   17    8    9 1     
   18    8   49 1     
   19    9   14 ar    
   20    9   10 ar    
   21   10   11 ar    
   22   10   34 1     
   23   11   12 ar    
   24   11   35 1     
   25   12   13 ar    
   26   12   36 1     
   27   13   14 ar    
   28   13   37 1     
   29   14   15 1     
   30   15   16 1     
   31   16   17 1     
   32   16   38 1     
   33   16   39 1     
   34   17   18 1     
   35   17   40 1     
   36   17   41 1     
   37   18   19 1     
   38   19   24 ar    
   39   19   20 ar    
   40   20   21 ar    
   41   20   42 1     
   42   21   22 ar    
   43   21   43 1     
   44   22   23 ar    
   45   22   44 1     
   46   23   24 ar    
   47   23   45 1     
   48   24   25 1     
   49   25   46 1     
   50   25   47 1     
   51   25   48 1     
   52    3   50 1     
   53    3   51 1     
   54   18   52 1     
   55   18   53 1     
@<TRIPOS>SUBSTRUCTURE
      1 S1             1
@<TRIPOS>SET
LONE_PAIRS      STATIC     ATOMS    <user>   **** ""
4 50 51 52 53
DONOR_HYDROGENS      STATIC     ATOMS    <user>   **** ""
2 29 49
ATOM$BLUE        STATIC     ATOMS    COLORGROUP SYSTEM
4 50 51 52 53
ATOM$RED        STATIC     ATOMS    COLORGROUP SYSTEM
2 29 49
