AV-unprocessed.smi:561|AV-procd|sdf|2943|dock4
  -GOLD-   2262023443D 1   1.00000     0.00000
 Structure written by MMmdl.
 35 36  0  0  0  0  0  0  0  0  2 V2000
  151.6601  138.4564  158.6633 C   0  0  0  0  0  0  0  0  0  0  0  0
  151.9281  139.9555  158.4679 C   0  0  1  0  0  0  0  0  0  0  0  0
  152.9354  140.4901  159.5156 C   0  0  0  0  0  0  0  0  0  0  0  0
  152.7369  141.8909  159.8734 N   0  0  0  0  0  0  0  0  0  0  0  0
  152.7029  142.9821  159.0107 C   0  0  0  0  0  0  0  0  0  0  0  0
  152.5111  144.0991  159.7915 C   0  0  0  0  0  0  0  0  0  0  0  0
  152.4359  143.7277  161.1317 N   0  0  0  0  0  0  0  0  0  0  0  0
  152.5788  142.4086  161.1019 C   0  0  0  0  0  0  0  0  0  0  0  0
  152.4629  140.1707  157.1190 N   0  5  0  0  0  0  0  0  0  0  0  0
  151.7526  140.0688  155.9576 C   0  0  0  0  0  0  0  0  0  0  0  0
  152.1145  139.4871  154.9259 O   0  0  0  0  0  0  0  0  0  0  0  0
  150.4052  140.7087  155.9127 C   0  0  0  0  0  0  0  0  0  0  0  0
  149.6166  140.4371  154.9204 N   0  0  0  0  0  0  0  0  0  0  0  0
  148.3631  141.0003  154.7956 N   0  0  0  0  0  0  0  0  0  0  0  0
  147.7571  140.7926  153.4806 C   0  0  0  0  0  0  0  0  0  0  0  0
  147.7193  141.6674  155.7874 C   0  0  0  0  0  0  0  0  0  0  0  0
  146.6087  142.1847  155.6653 O   0  0  0  0  0  0  0  0  0  0  0  0
  148.4348  141.7347  157.1392 C   0  0  0  0  0  0  0  0  0  0  0  0
  149.9676  141.6833  156.9931 C   0  0  0  0  0  0  0  0  0  0  0  0
  151.2574  138.2578  159.6567 H   0  0  0  0  0  0  0  0  0  0  0  0
  152.5723  137.8691  158.5513 H   0  0  0  0  0  0  0  0  0  0  0  0
  150.9343  138.0889  157.9372 H   0  0  0  0  0  0  0  0  0  0  0  0
  150.9831  140.4782  158.6254 H   0  0  0  0  0  0  0  0  0  0  0  0
  152.8606  139.9010  160.4305 H   0  0  0  0  0  0  0  0  0  0  0  0
  153.9589  140.3673  159.1580 H   0  0  0  0  0  0  0  0  0  0  0  0
  152.8078  142.8704  157.9417 H   0  0  0  0  0  0  0  0  0  0  0  0
  152.4262  145.1338  159.4940 H   0  0  0  0  0  0  0  0  0  0  0  0
  152.5683  141.8018  161.9953 H   0  0  0  0  0  0  0  0  0  0  0  0
  146.7451  141.1898  153.3926 H   0  0  0  0  0  0  0  0  0  0  0  0
  147.7079  139.7267  153.2546 H   0  0  0  0  0  0  0  0  0  0  0  0
  148.3638  141.2704  152.7104 H   0  0  0  0  0  0  0  0  0  0  0  0
  148.1355  142.6331  157.6799 H   0  0  0  0  0  0  0  0  0  0  0  0
  148.0957  140.8839  157.7315 H   0  0  0  0  0  0  0  0  0  0  0  0
  150.3856  141.4050  157.9612 H   0  0  0  0  0  0  0  0  0  0  0  0
  150.3567  142.6755  156.7625 H   0  0  0  0  0  0  0  0  0  0  0  0
  1  2  1  0  0  0  0
  1 20  1  0  0  0  0
  1 21  1  0  0  0  0
  1 22  1  0  0  0  0
  2  3  1  0  0  0  0
  2  9  1  0  0  0  0
  2 23  1  0  0  0  0
  3  4  1  0  0  0  0
  3 24  1  0  0  0  0
  3 25  1  0  0  0  0
  4  8  1  0  0  0  0
  4  5  1  0  0  0  0
  5  6  2  0  0  0  0
  5 26  1  0  0  0  0
  6  7  1  0  0  0  0
  6 27  1  0  0  0  0
  7  8  2  0  0  0  0
  8 28  1  0  0  0  0
  9 10  1  0  0  0  0
 10 11  2  0  0  0  0
 10 12  1  0  0  0  0
 12 19  1  0  0  0  0
 12 13  2  0  0  0  0
 13 14  1  0  0  0  0
 14 15  1  0  0  0  0
 14 16  1  0  0  0  0
 15 29  1  0  0  0  0
 15 30  1  0  0  0  0
 15 31  1  0  0  0  0
 16 17  2  0  0  0  0
 16 18  1  0  0  0  0
 18 19  1  0  0  0  0
 18 32  1  0  0  0  0
 18 33  1  0  0  0  0
 19 34  1  0  0  0  0
 19 35  1  0  0  0  0
M  CHG  1   9  -1
M  END
> <s_m_source_file>
AV-unprocessed.smi

> <i_m_source_file_index>
561

> <i_lp_mmshare_version>
43012

> <i_f3d_flags>
0

> <s_epik_input>
W2NIXTFuW2NIXVtjSF1uMVtDSDJdW0NAQEhdKFtDSDNdKVtOSF1DKD1PKUMyPU5OKFtDSDNdKUMoPU8pW0NIMl1bQ0gyXTI=

> <s_epik_cmdline>
J2VwaWtfcHl0aG9uJywgJy1waCcsICc3LjAnLCAnLXRuJywgJzgnLCAnLW1hJywgJzIwMCcsICctbWV0YWxfYmluZGluZycsICctaW1hZScsICc8aW5maWxlLm1hZT4nLCAnLW9tYWUnLCAnPG91dGZpbGUubWFlPic=

> <r_lp_tautomer_probability>
1

> <r_epik_Ionization_Penalty>
6.06239

> <r_epik_Ionization_Penalty_Charging>
6.06239

> <r_epik_Ionization_Penalty_Neutral>
3.91387e-09

> <r_epik_State_Penalty>
5.76729

> <r_epik_Charging_Adjusted_Penalty>
11.8297

> <i_epik_Tot_Q>
-1

> <i_epik_Tot_abs_Q>
1

> <r_epik_Metal_State_Penalty>
2.02369

> <b_epik_Metal_Only>
1

> <s_epik_Chemistry_Notes>
This compound has an imine and may undergo hydrolysis.

> <s_lp_Force_Field>
OPLS_2005

> <r_lp_Energy>
27.3289

> <b_lp_Chiralities_Consistent>
1

> <s_lp_Variant>
AV-unprocessed.smi:561-8

> <Gold.Version>
5.8.1

> <Gold.Id.Protein>
6NUR|6NUR_protein|mol2

> <Gold.PLP.Fitness>
44.5671

> <Gold.PLP.PLP>
-37.8648

> <Gold.PLP.part.hbond>
-2.0351

> <Gold.PLP.part.metal>
0.0000

> <Gold.PLP.part.buried>
-3.5771

> <Gold.PLP.part.nonpolar>
-32.3607

> <Gold.PLP.part.repulsive>
0.3810

> <Gold.PLP.ligand.clash>
0.0000

> <Gold.PLP.ligand.torsion>
0.9905

> <Gold.PLP.Chemscore.Hbond>
2.8800

> <Gold.PLP.Chemscore.CHOScore>
0.0000

> <Gold.PLP.Chemscore.Metal>
0.0000

> <Gold.Chemscore.Hbonds>
donor molecule, donor type, donor heavy atom, donor atom, acceptor molecule, acceptor atom, score
      P1  H  7989  7998       L1    11  0.86
      P1  H  7997  8009       L1     9  2.00

> <Gold.PLP.Chemscore.Internal.Correction>
0.0434

> <Gold.Rescore>
     Score         DG    S(hbond)    S(metal)    S(lipo)     H(rot)  DE(clash)    DE(int)     intcor
     12.31     -13.52       1.59        0.00      60.10       1.68       0.08       1.13       ----

> <Gold.Chemscore.Fitness>
12.3066

> <Gold.Chemscore.DG>
-13.5171

> <Gold.Chemscore.ZeroCoef>
-5.4800

> <Gold.Chemscore.Hbond>
1.5885

> <Gold.Chemscore.Metal>
0.0000

> <Gold.Chemscore.Lipo>
60.0955

> <Gold.Chemscore.Internal_Hbond>
0.0000

> <Gold.Chemscore.DEClash>
0.0842

> <Gold.Chemscore.DEInternal>
1.1263

> <Gold.Chemscore.Rot>
1.6796

> <Gold.Chemscore.Internal.Correction>
   9.000000E+99

> <Gold.Chemscore.Hbonds>
donor molecule, donor type, donor heavy atom, donor atom, acceptor molecule, acceptor atom, score
      P1  H  7989  7998       L1    11  0.28
      P1  H  7997  8009       L1     9  0.37

> <Gold.Chemscore.Hbond.Weighted>
-5.3057

> <Gold.Chemscore.Metal.Weighted>
-0.0000

> <Gold.Chemscore.Lipo.Weighted>
-7.0312

> <Gold.Chemscore.Internal_Hbond.Weighted>
0.0000

> <Gold.Chemscore.DEClash.Weighted>
0.0842

> <Gold.Chemscore.DEInternal.Weighted>
1.1263

> <Gold.Chemscore.Rot.Weighted>
4.2997

> <Gold.Chemscore.Internal.Correction.Weighted>
   9.000000E+99

> <Gold.Protein.RotatedTorsions>
[ 6907 6896 6895 6894 ] final   92.29 input  -60.11 | X-H torsion
[ 7974 7965 7964 7962 ] final   31.10 input  175.53 | X-H torsion
[ 8008 7997 7996 7995 ] final -171.22 input   59.86 | X-H torsion
[ 10167 10162 10161 10158 ] final -147.24 input  -65.29 | X-H torsion
[ 10718 10713 10712 10709 ] final -135.15 input   66.30 | X-H torsion
[ 10763 10752 10751 10750 ] final -170.34 input  -60.55 | X-H torsion
[ 11005 11000 10999 10996 ] final  -51.27 input  -57.11 | X-H torsion

> <Gold.Protein.ActiveResidues>
 VAL166  LYS551  ARG553  GLY616  TRP617  ASP618  TYR619  PRO620  LYS621  CYS622 
 ASP623  PHE694  ASN695  SER759  ASP760  ASP761  ALA762  ILE779  LEU786  VAL792 
 PHE793  MET794  SER795  GLU796  ALA797  LYS798  CYS799  TRP800  GLU811  SER814 

> <Gold.Protein.RotatedAtoms>
  152.5452  134.1526  159.8524 H   0  0  0  0  0  0  0  0  0  0  0  0  # atno 6907 bound_to 6896
  151.1551  133.4874  159.2602 H   0  0  0  0  0  0  0  0  0  0  0  0  # atno 6908 bound_to 6896
  151.1431  135.0200  159.8689 H   0  0  0  0  0  0  0  0  0  0  0  0  # atno 6909 bound_to 6896
  146.1571  139.6701  142.9059 H   0  0  0  0  0  0  0  0  0  0  0  0  # atno 7974 bound_to 7965
  155.9287  140.1087  157.1150 H   0  0  0  0  0  0  0  0  0  0  0  0  # atno 8008 bound_to 7997
  154.4067  140.1242  156.4839 H   0  0  0  0  0  0  0  0  0  0  0  0  # atno 8009 bound_to 7997
  155.7107  140.3471  155.4975 H   0  0  0  0  0  0  0  0  0  0  0  0  # atno 8010 bound_to 7997
  139.7640  143.8335  152.2612 H   0  0  0  0  0  0  0  0  0  0  0  0  # atno 10167 bound_to 10162
  156.2631  130.7221  151.1163 H   0  0  0  0  0  0  0  0  0  0  0  0  # atno 10718 bound_to 10713
  154.6425  135.2900  155.0086 H   0  0  0  0  0  0  0  0  0  0  0  0  # atno 10763 bound_to 10752
  154.1207  135.6548  153.4906 H   0  0  0  0  0  0  0  0  0  0  0  0  # atno 10764 bound_to 10752
  153.0334  135.5287  154.7299 H   0  0  0  0  0  0  0  0  0  0  0  0  # atno 10765 bound_to 10752
  141.0862  133.6642  156.3852 H   0  0  0  0  0  0  0  0  0  0  0  0  # atno 11005 bound_to 11000
  145.4681  141.0435  143.2714 LP  0  0  0  0  0  0  0  0  0  0  0  0  # atno 17320 bound_to 7965
  144.7978  139.6200  143.7085 LP  0  0  0  0  0  0  0  0  0  0  0  0  # atno 17321 bound_to 7965
  139.8349  144.7236  150.9403 LP  0  0  0  0  0  0  0  0  0  0  0  0  # atno 17342 bound_to 10162
  140.7809  143.4036  151.1109 LP  0  0  0  0  0  0  0  0  0  0  0  0  # atno 17343 bound_to 10162
  157.7258  131.0651  150.5938 LP  0  0  0  0  0  0  0  0  0  0  0  0  # atno 17370 bound_to 10713
  156.6028  130.4359  149.5890 LP  0  0  0  0  0  0  0  0  0  0  0  0  # atno 17371 bound_to 10713
  140.5358  134.6168  157.5364 LP  0  0  0  0  0  0  0  0  0  0  0  0  # atno 17394 bound_to 11000
  139.9680  134.7340  156.0098 LP  0  0  0  0  0  0  0  0  0  0  0  0  # atno 17395 bound_to 11000

$$$$
