#       Name:                AV-unprocessed.smi:801
#       Creating user name   scv26
#       Creation time:       Fri Mar 27 01:22:40 2020


#       File generated by GOLD software.
#

@<TRIPOS>MOLECULE
AV-unprocessed.smi:801
    52    53     1
SMALL
NO_CHARGES


@<TRIPOS>ATOM
      1 ****        -5.4714   2.0170  -1.8029 C.3            1 S1                 0.0000
      2 ****        -4.9119   0.7215  -1.6782 O.3            1 S1                 0.0000
      3 ****        -3.5306   0.6952  -1.9952 C.3            1 S1                 0.0000
      4 ****        -3.0116  -0.7419  -1.8399 C.3            1 S1                 0.0000
      5 ****        -1.5595  -0.8212  -2.1078 N.am           1 S1                 0.0000
      6 ****        -0.6449  -0.6140  -1.0405 C.2            1 S1                 0.0000
      7 ****        -1.1523  -0.2787   0.2264 N.am           1 S1                 0.0000
      8 ****        -1.0690  -1.0475   1.3273 C.2            1 S1                 0.0000
      9 ****        -1.7928  -0.5224   2.5620 C.3            1 S1                 0.0000
     10 ****        -0.4675  -2.1204   1.3781 O.2            1 S1                 0.0000
     11 ****         0.7009  -0.6828  -1.2535 C.2            1 S1                 0.0000
     12 ****         1.6155  -0.4284  -0.2279 N.pl3          1 S1                 0.0000
     13 ****         1.4316  -0.0669   1.1697 C.3            1 S1                 0.0000
     14 ****         2.7349   0.0467   1.9417 C.ar           1 S1                 0.0000
     15 ****         3.7515  -0.9209   1.7819 C.ar           1 S1                 0.0000
     16 ****         4.9554  -0.8118   2.5051 C.ar           1 S1                 0.0000
     17 ****         5.1481   0.2627   3.3946 C.ar           1 S1                 0.0000
     18 ****         4.1351   1.2262   3.5628 C.ar           1 S1                 0.0000
     19 ****         2.9310   1.1173   2.8401 C.ar           1 S1                 0.0000
     20 ****         1.1671  -1.0035  -2.6149 C.2            1 S1                 0.0000
     21 ****         2.3645  -1.1248  -2.8698 O.2            1 S1                 0.0000
     22 ****         0.2313  -1.1607  -3.5882 N.pl3          1 S1                -1.0000
     23 ****        -1.1096  -1.0643  -3.3737 C.2            1 S1                 0.0000
     24 ****        -1.9226  -1.1885  -4.2908 O.2            1 S1                 0.0000
     25 ****        -6.5314   1.9841  -1.5513 H              1 S1                 0.0000
     26 ****        -5.3794   2.3901  -2.8237 H              1 S1                 0.0000
     27 ****        -4.9866   2.7227  -1.1268 H              1 S1                 0.0000
     28 ****        -3.3742   1.0442  -3.0172 H              1 S1                 0.0000
     29 ****        -2.9862   1.3678  -1.3307 H              1 S1                 0.0000
     30 ****        -3.2502  -1.1183  -0.8453 H              1 S1                 0.0000
     31 ****        -3.5733  -1.4036  -2.5014 H              1 S1                 0.0000
     32 ****        -1.7573   0.5285   0.2636 H              1 S1                 0.0000
     33 ****        -2.8693  -0.5031   2.3901 H              1 S1                 0.0000
     34 ****        -1.4611   0.4892   2.7979 H              1 S1                 0.0000
     35 ****        -1.5952  -1.1566   3.4269 H              1 S1                 0.0000
     36 ****         2.5865  -0.4899  -0.4967 H              1 S1                 0.0000
     37 ****         0.8978   0.8829   1.2202 H              1 S1                 0.0000
     38 ****         0.8118  -0.8184   1.6597 H              1 S1                 0.0000
     39 ****         3.6118  -1.7516   1.1054 H              1 S1                 0.0000
     40 ****         5.7303  -1.5534   2.3784 H              1 S1                 0.0000
     41 ****         6.0709   0.3465   3.9494 H              1 S1                 0.0000
     42 ****         4.2816   2.0492   4.2466 H              1 S1                 0.0000
     43 ****         2.1591   1.8605   2.9770 H              1 S1                 0.0000
     44 ****        -5.3950   0.1023  -2.2972 LP             1 S1                 0.0000
     45 ****        -5.0307   0.4100  -0.7354 LP             1 S1                 0.0000
     46 ****        -0.0005  -2.4707   0.5663 LP             1 S1                 0.0000
     47 ****        -0.4459  -2.6416   2.2313 LP             1 S1                 0.0000
     48 ****         3.0444  -1.0055  -2.1461 LP             1 S1                 0.0000
     49 ****         2.6580  -1.3427  -3.8006 LP             1 S1                 0.0000
     50 ****         0.5464  -1.3588  -4.5163 LP             1 S1                 0.0000
     51 ****        -2.9020  -1.1111  -4.1046 LP             1 S1                 0.0000
     52 ****        -1.6031  -1.3667  -5.2214 LP             1 S1                 0.0000
@<TRIPOS>BOND
    1    1    2 1     
    2    1   25 1     
    3    1   26 1     
    4    1   27 1     
    5    2    3 1     
    6    3    4 1     
    7    3   28 1     
    8    3   29 1     
    9    4    5 1     
   10    4   30 1     
   11    4   31 1     
   12    5   23 am    
   13    5    6 1     
   14    6    7 1     
   15    6   11 2     
   16    7    8 am    
   17    7   32 1     
   18    8    9 1     
   19    8   10 2     
   20    9   33 1     
   21    9   34 1     
   22    9   35 1     
   23   11   12 1     
   24   11   20 1     
   25   12   13 1     
   26   12   36 1     
   27   13   14 1     
   28   13   37 1     
   29   13   38 1     
   30   14   19 ar    
   31   14   15 ar    
   32   15   16 ar    
   33   15   39 1     
   34   16   17 ar    
   35   16   40 1     
   36   17   18 ar    
   37   17   41 1     
   38   18   19 ar    
   39   18   42 1     
   40   19   43 1     
   41   20   21 2     
   42   20   22 1     
   43   22   23 1     
   44   23   24 2     
   45    2   44 1     
   46    2   45 1     
   47   10   46 1     
   48   10   47 1     
   49   21   48 1     
   50   21   49 1     
   51   22   50 1     
   52   24   51 1     
   53   24   52 1     
@<TRIPOS>SUBSTRUCTURE
      1 S1             1
@<TRIPOS>SET
LONE_PAIRS      STATIC     ATOMS    <user>   **** ""
9 44 45 46 47 48 49 50 51 52
DONOR_HYDROGENS      STATIC     ATOMS    <user>   **** ""
2 32 36
ATOM$BLUE        STATIC     ATOMS    COLORGROUP SYSTEM
9 44 45 46 47 48 49 50 51 52
ATOM$RED        STATIC     ATOMS    COLORGROUP SYSTEM
2 32 36
