AV-unprocessed.smi:412|AV-procd|sdf|2511|dock7
  -GOLD-   2262022463D 1   1.00000     0.00000
 Structure written by MMmdl.
 36 38  0  0  0  0  0  0  0  0  1 V2000
  153.8949  140.9828  160.2656 C   0  0  0  0  0  0  0  0  0  0  0  0
  152.9506  141.5966  159.3398 N   0  0  0  0  0  0  0  0  0  0  0  0
  152.4505  141.0539  158.2053 C   0  0  0  0  0  0  0  0  0  0  0  0
  152.7128  139.9372  157.7583 O   0  0  0  0  0  0  0  0  0  0  0  0
  151.6036  141.9521  157.6483 N   0  0  0  0  0  0  0  0  0  0  0  0
  150.8391  141.7762  156.4139 C   0  0  0  0  0  0  0  0  0  0  0  0
  149.3763  141.3781  156.6939 C   0  0  1  0  0  0  0  0  0  0  0  0
  148.6942  142.5038  157.2117 O   0  0  0  0  0  0  0  0  0  0  0  0
  148.7059  140.8477  155.4352 C   0  0  0  0  0  0  0  0  0  0  0  0
  149.0701  139.5937  154.8954 C   0  0  0  0  0  0  0  0  0  0  0  0
  148.4383  139.1097  153.7334 C   0  0  0  0  0  0  0  0  0  0  0  0
  147.4347  139.8732  153.1072 C   0  0  0  0  0  0  0  0  0  0  0  0
  147.0618  141.1198  153.6447 C   0  0  0  0  0  0  0  0  0  0  0  0
  147.6951  141.6055  154.8053 C   0  0  0  0  0  0  0  0  0  0  0  0
  151.5565  143.0995  158.4537 C   0  0  0  0  0  0  0  0  0  0  0  0
  150.8309  144.2968  158.3226 C   0  0  0  0  0  0  0  0  0  0  0  0
  151.0083  145.2740  159.3300 C   0  0  0  0  0  0  0  0  0  0  0  0
  151.8843  145.0423  160.4222 C   0  0  0  0  0  0  0  0  0  0  0  0
  152.6009  143.8274  160.5312 C   0  0  0  0  0  0  0  0  0  0  0  0
  152.4054  142.8744  159.5169 C   0  0  0  0  0  0  0  0  0  0  0  0
  154.2111  139.9931  159.9336 H   0  0  0  0  0  0  0  0  0  0  0  0
  153.4407  140.8776  161.2511 H   0  0  0  0  0  0  0  0  0  0  0  0
  154.7849  141.6049  160.3636 H   0  0  0  0  0  0  0  0  0  0  0  0
  150.8924  142.6645  155.7835 H   0  0  0  0  0  0  0  0  0  0  0  0
  151.3252  140.9830  155.8432 H   0  0  0  0  0  0  0  0  0  0  0  0
  149.3412  140.5951  157.4528 H   0  0  0  0  0  0  0  0  0  0  0  0
  148.9738  143.2690  156.7327 H   0  0  0  0  0  0  0  0  0  0  0  0
  149.8342  138.9973  155.3721 H   0  0  0  0  0  0  0  0  0  0  0  0
  148.7227  138.1518  153.3234 H   0  0  0  0  0  0  0  0  0  0  0  0
  146.9495  139.5018  152.2166 H   0  0  0  0  0  0  0  0  0  0  0  0
  146.2885  141.7037  153.1672 H   0  0  0  0  0  0  0  0  0  0  0  0
  147.3997  142.5620  155.2115 H   0  0  0  0  0  0  0  0  0  0  0  0
  150.1624  144.4679  157.4922 H   0  0  0  0  0  0  0  0  0  0  0  0
  150.4692  146.2077  159.2675 H   0  0  0  0  0  0  0  0  0  0  0  0
  152.0045  145.8022  161.1801 H   0  0  0  0  0  0  0  0  0  0  0  0
  153.2681  143.6420  161.3601 H   0  0  0  0  0  0  0  0  0  0  0  0
  1  2  1  0  0  0  0
  1 21  1  0  0  0  0
  1 22  1  0  0  0  0
  1 23  1  0  0  0  0
  2 20  1  0  0  0  0
  2  3  1  0  0  0  0
  3  4  2  0  0  0  0
  3  5  1  0  0  0  0
  5  6  1  0  0  0  0
  5 15  1  0  0  0  0
  6  7  1  0  0  0  0
  6 24  1  0  0  0  0
  6 25  1  0  0  0  0
  7  8  1  0  0  0  0
  7  9  1  0  0  0  0
  7 26  1  0  0  0  0
  8 27  1  0  0  0  0
  9 14  1  0  0  0  0
  9 10  2  0  0  0  0
 10 11  1  0  0  0  0
 10 28  1  0  0  0  0
 11 12  2  0  0  0  0
 11 29  1  0  0  0  0
 12 13  1  0  0  0  0
 12 30  1  0  0  0  0
 13 14  2  0  0  0  0
 13 31  1  0  0  0  0
 14 32  1  0  0  0  0
 15 20  2  0  0  0  0
 15 16  1  0  0  0  0
 16 17  2  0  0  0  0
 16 33  1  0  0  0  0
 17 18  1  0  0  0  0
 17 34  1  0  0  0  0
 18 19  2  0  0  0  0
 18 35  1  0  0  0  0
 19 20  1  0  0  0  0
 19 36  1  0  0  0  0
M  END
> <s_m_source_file>
AV-unprocessed.smi

> <i_m_source_file_index>
412

> <i_lp_mmshare_version>
43012

> <i_f3d_flags>
0

> <s_epik_input>
W2NIXTFbY0hdW2NIXVtjSF1jKGMxMiluKFtDSDNdKWMoPU8pbjJbQ0gyXVtDQEhdKFtPSF0pYzNbY0hdW2NIXVtjSF1bY0hdW2NIXTM=

> <s_epik_cmdline>
J2VwaWtfcHl0aG9uJywgJy1waCcsICc3LjAnLCAnLXRuJywgJzgnLCAnLW1hJywgJzIwMCcsICctbWV0YWxfYmluZGluZycsICctaW1hZScsICc8aW5maWxlLm1hZT4nLCAnLW9tYWUnLCAnPG91dGZpbGUubWFlPic=

> <r_lp_tautomer_probability>
1

> <r_epik_Ionization_Penalty>
1.34619e-06

> <r_epik_Ionization_Penalty_Charging>
2.57375e-09

> <r_epik_Ionization_Penalty_Neutral>
1.34362e-06

> <r_epik_State_Penalty>
-0

> <r_epik_Charging_Adjusted_Penalty>
2.57375e-09

> <i_epik_Tot_Q>
0

> <i_epik_Tot_abs_Q>
0

> <r_epik_Metal_State_Penalty>
-0

> <b_epik_Metal_Only>
0

> <s_lp_Force_Field>
OPLS_2005

> <r_lp_Energy>
43.5229

> <b_lp_Chiralities_Consistent>
1

> <s_lp_Variant>
AV-unprocessed.smi:412-2

> <Gold.Version>
5.8.1

> <Gold.Id.Protein>
6NUR|6NUR_protein|mol2

> <Gold.PLP.Fitness>
50.1317

> <Gold.PLP.PLP>
-45.2897

> <Gold.PLP.part.hbond>
-2.0000

> <Gold.PLP.part.metal>
0.0000

> <Gold.PLP.part.buried>
-2.6760

> <Gold.PLP.part.nonpolar>
-41.0435

> <Gold.PLP.part.repulsive>
0.0000

> <Gold.PLP.ligand.clash>
0.0000

> <Gold.PLP.ligand.torsion>
0.5830

> <Gold.PLP.Chemscore.Hbond>
2.0000

> <Gold.PLP.Chemscore.CHOScore>
0.0000

> <Gold.PLP.Chemscore.Metal>
0.0000

> <Gold.Chemscore.Hbonds>
donor molecule, donor type, donor heavy atom, donor atom, acceptor molecule, acceptor atom, score
      L1  H     8    27       P1  8028  1.00
      P1  H  7997  8010       L1     4  1.00

> <Gold.PLP.Chemscore.Internal.Correction>
0.0079

> <Gold.Rescore>
     Score         DG    S(hbond)    S(metal)    S(lipo)     H(rot)  DE(clash)    DE(int)     intcor
     20.53     -21.26       1.76        0.00     123.01       1.76       0.19       0.54       ----

> <Gold.Chemscore.Fitness>
20.5345

> <Gold.Chemscore.DG>
-21.2639

> <Gold.Chemscore.ZeroCoef>
-5.4800

> <Gold.Chemscore.Hbond>
1.7623

> <Gold.Chemscore.Metal>
0.0000

> <Gold.Chemscore.Lipo>
123.0082

> <Gold.Chemscore.Internal_Hbond>
0.0000

> <Gold.Chemscore.DEClash>
0.1863

> <Gold.Chemscore.DEInternal>
0.5432

> <Gold.Chemscore.Rot>
1.7555

> <Gold.Chemscore.Internal.Correction>
   9.000000E+99

> <Gold.Chemscore.Hbonds>
donor molecule, donor type, donor heavy atom, donor atom, acceptor molecule, acceptor atom, score
      L1  H     8    27       P1  8028  0.90
      P1  H  7997  8010       L1     4  0.58

> <Gold.Chemscore.Hbond.Weighted>
-5.8862

> <Gold.Chemscore.Metal.Weighted>
-0.0000

> <Gold.Chemscore.Lipo.Weighted>
-14.3920

> <Gold.Chemscore.Internal_Hbond.Weighted>
0.0000

> <Gold.Chemscore.DEClash.Weighted>
0.1863

> <Gold.Chemscore.DEInternal.Weighted>
0.5432

> <Gold.Chemscore.Rot.Weighted>
4.4942

> <Gold.Chemscore.Internal.Correction.Weighted>
   9.000000E+99

> <Gold.Protein.RotatedTorsions>
[ 6907 6896 6895 6894 ] final  -52.38 input  -60.11 | X-H torsion
[ 7974 7965 7964 7962 ] final   73.46 input  175.53 | X-H torsion
[ 8008 7997 7996 7995 ] final   49.91 input   59.86 | X-H torsion
[ 10167 10162 10161 10158 ] final  -61.34 input  -65.29 | X-H torsion
[ 10718 10713 10712 10709 ] final  105.63 input   66.30 | X-H torsion
[ 10763 10752 10751 10750 ] final -161.57 input  -60.55 | X-H torsion
[ 11005 11000 10999 10996 ] final   63.39 input  -57.11 | X-H torsion

> <Gold.Protein.ActiveResidues>
 VAL166  LYS551  ARG553  GLY616  TRP617  ASP618  TYR619  PRO620  LYS621  CYS622 
 ASP623  PHE694  ASN695  SER759  ASP760  ASP761  ALA762  ILE779  LEU786  VAL792 
 PHE793  MET794  SER795  GLU796  ALA797  LYS798  CYS799  TRP800  GLU811  SER814 

> <Gold.Protein.RotatedAtoms>
  150.8523  134.7851  159.7018 H   0  0  0  0  0  0  0  0  0  0  0  0  # atno 6907 bound_to 6896
  152.4584  134.5236  159.9799 H   0  0  0  0  0  0  0  0  0  0  0  0  # atno 6908 bound_to 6896
  151.5354  133.3403  159.2961 H   0  0  0  0  0  0  0  0  0  0  0  0  # atno 6909 bound_to 6896
  145.7405  139.2719  143.1489 H   0  0  0  0  0  0  0  0  0  0  0  0  # atno 7974 bound_to 7965
  155.4100  140.3442  155.4263 H   0  0  0  0  0  0  0  0  0  0  0  0  # atno 8008 bound_to 7997
  156.1454  140.1555  156.8886 H   0  0  0  0  0  0  0  0  0  0  0  0  # atno 8009 bound_to 7997
  154.5006  140.0815  156.7771 H   0  0  0  0  0  0  0  0  0  0  0  0  # atno 8010 bound_to 7997
  140.6012  143.2362  151.5924 H   0  0  0  0  0  0  0  0  0  0  0  0  # atno 10167 bound_to 10162
  157.6698  131.0832  150.5886 H   0  0  0  0  0  0  0  0  0  0  0  0  # atno 10718 bound_to 10713
  154.7291  135.3042  154.8921 H   0  0  0  0  0  0  0  0  0  0  0  0  # atno 10763 bound_to 10752
  153.9769  135.6735  153.4753 H   0  0  0  0  0  0  0  0  0  0  0  0  # atno 10764 bound_to 10752
  153.0902  135.4963  154.8596 H   0  0  0  0  0  0  0  0  0  0  0  0  # atno 10765 bound_to 10752
  140.0027  134.6417  155.9904 H   0  0  0  0  0  0  0  0  0  0  0  0  # atno 11005 bound_to 11000
  146.0452  140.8125  142.9809 LP  0  0  0  0  0  0  0  0  0  0  0  0  # atno 17320 bound_to 7965
  144.6871  140.2969  143.7269 LP  0  0  0  0  0  0  0  0  0  0  0  0  # atno 17321 bound_to 7965
  139.5292  144.2965  152.1109 LP  0  0  0  0  0  0  0  0  0  0  0  0  # atno 17342 bound_to 10162
  140.2147  144.4527  150.6369 LP  0  0  0  0  0  0  0  0  0  0  0  0  # atno 17343 bound_to 10162
  156.6187  130.4400  149.5831 LP  0  0  0  0  0  0  0  0  0  0  0  0  # atno 17370 bound_to 10713
  156.2373  130.6830  151.1522 LP  0  0  0  0  0  0  0  0  0  0  0  0  # atno 17371 bound_to 10713
  141.1654  133.6537  156.4462 LP  0  0  0  0  0  0  0  0  0  0  0  0  # atno 17394 bound_to 11000
  140.4697  134.6764  157.5123 LP  0  0  0  0  0  0  0  0  0  0  0  0  # atno 17395 bound_to 11000

$$$$
