AV-unprocessed.smi:1993|AV-procd|sdf|8070|dock4
  -GOLD-   2272010273D 1   1.00000     0.00000
 Structure written by MMmdl.
 50 51  0  0  0  0  0  0  0  0  1 V2000
  144.6955  133.1772  157.7820 C   0  0  0  0  0  0  0  0  0  0  0  0
  144.8216  134.2005  158.9058 C   0  0  0  0  0  0  0  0  0  0  0  0
  143.8165  134.7638  159.3377 O   0  0  0  0  0  0  0  0  0  0  0  0
  146.0597  134.4344  159.3698 N   0  0  0  0  0  0  0  0  0  0  0  0
  146.4023  135.3813  160.4324 C   0  0  2  0  0  0  0  0  0  0  0  0
  147.3819  136.4209  159.8571 C   0  0  0  0  0  0  0  0  0  0  0  0
  147.9599  137.2147  160.6017 O   0  0  0  0  0  0  0  0  0  0  0  0
  147.5411  136.4128  158.5253 N   0  0  0  0  0  0  0  0  0  0  0  0
  148.3727  137.3455  157.7757 C   0  0  0  0  0  0  0  0  0  0  0  0
  147.6217  138.0053  156.6264 C   0  0  0  0  0  0  0  0  0  0  0  0
  146.2462  137.7431  156.4537 C   0  0  0  0  0  0  0  0  0  0  0  0
  145.5597  138.3536  155.3885 C   0  0  0  0  0  0  0  0  0  0  0  0
  146.2801  139.2072  154.5329 C   0  0  0  0  0  0  0  0  0  0  0  0
  147.5956  139.4657  154.6832 N   0  0  0  0  0  0  0  0  0  0  0  0
  148.2601  138.8793  155.7085 C   0  0  0  0  0  0  0  0  0  0  0  0
  149.6330  139.1506  155.8283 N   0  0  0  0  0  0  0  0  0  0  0  0
  149.9727  140.5360  156.1300 C   0  0  0  0  0  0  0  0  0  0  0  0
  151.4833  140.6545  156.3963 C   0  0  0  0  0  0  0  0  0  0  0  0
  152.2065  140.1514  155.2758 O   0  0  0  0  0  0  0  0  0  0  0  0
  151.9186  138.7788  155.0225 C   0  0  0  0  0  0  0  0  0  0  0  0
  150.4187  138.6122  154.7264 C   0  0  0  0  0  0  0  0  0  0  0  0
  147.0740  134.6040  161.6033 C   0  0  0  0  0  0  0  0  0  0  0  0
  146.1625  133.4873  162.1497 C   0  0  0  0  0  0  0  0  0  0  0  0
  147.5010  135.5190  162.7699 C   0  0  0  0  0  0  0  0  0  0  0  0
  144.4318  133.6755  156.8491 H   0  0  0  0  0  0  0  0  0  0  0  0
  143.9149  132.4532  158.0169 H   0  0  0  0  0  0  0  0  0  0  0  0
  145.6282  132.6331  157.6287 H   0  0  0  0  0  0  0  0  0  0  0  0
  146.8266  133.9310  158.9480 H   0  0  0  0  0  0  0  0  0  0  0  0
  145.4986  135.8757  160.7959 H   0  0  0  0  0  0  0  0  0  0  0  0
  147.0344  135.7222  157.9906 H   0  0  0  0  0  0  0  0  0  0  0  0
  148.7812  138.1068  158.4427 H   0  0  0  0  0  0  0  0  0  0  0  0
  149.2332  136.8036  157.3826 H   0  0  0  0  0  0  0  0  0  0  0  0
  145.7226  137.0799  157.1267 H   0  0  0  0  0  0  0  0  0  0  0  0
  144.5070  138.1716  155.2312 H   0  0  0  0  0  0  0  0  0  0  0  0
  145.7875  139.6942  153.7045 H   0  0  0  0  0  0  0  0  0  0  0  0
  149.6955  141.1785  155.2931 H   0  0  0  0  0  0  0  0  0  0  0  0
  149.4089  140.8736  157.0004 H   0  0  0  0  0  0  0  0  0  0  0  0
  151.7566  141.6973  156.5574 H   0  0  0  0  0  0  0  0  0  0  0  0
  151.7637  140.1078  157.2981 H   0  0  0  0  0  0  0  0  0  0  0  0
  152.5097  138.4415  154.1710 H   0  0  0  0  0  0  0  0  0  0  0  0
  152.2149  138.1700  155.8784 H   0  0  0  0  0  0  0  0  0  0  0  0
  150.1821  137.5596  154.5783 H   0  0  0  0  0  0  0  0  0  0  0  0
  150.1587  139.1334  153.8039 H   0  0  0  0  0  0  0  0  0  0  0  0
  147.9771  134.1203  161.2262 H   0  0  0  0  0  0  0  0  0  0  0  0
  145.2185  133.8926  162.5155 H   0  0  0  0  0  0  0  0  0  0  0  0
  146.6398  132.9613  162.9772 H   0  0  0  0  0  0  0  0  0  0  0  0
  145.9318  132.7395  161.3909 H   0  0  0  0  0  0  0  0  0  0  0  0
  146.6442  136.0483  163.1869 H   0  0  0  0  0  0  0  0  0  0  0  0
  148.2392  136.2617  162.4667 H   0  0  0  0  0  0  0  0  0  0  0  0
  147.9520  134.9395  163.5758 H   0  0  0  0  0  0  0  0  0  0  0  0
  1  2  1  0  0  0  0
  1 25  1  0  0  0  0
  1 26  1  0  0  0  0
  1 27  1  0  0  0  0
  2  3  2  0  0  0  0
  2  4  1  0  0  0  0
  4  5  1  0  0  0  0
  4 28  1  0  0  0  0
  5  6  1  0  0  0  0
  5 22  1  0  0  0  0
  5 29  1  0  0  0  0
  6  7  2  0  0  0  0
  6  8  1  0  0  0  0
  8  9  1  0  0  0  0
  8 30  1  0  0  0  0
  9 10  1  0  0  0  0
  9 31  1  0  0  0  0
  9 32  1  0  0  0  0
 10 15  1  0  0  0  0
 10 11  2  0  0  0  0
 11 12  1  0  0  0  0
 11 33  1  0  0  0  0
 12 13  2  0  0  0  0
 12 34  1  0  0  0  0
 13 14  1  0  0  0  0
 13 35  1  0  0  0  0
 14 15  2  0  0  0  0
 15 16  1  0  0  0  0
 16 21  1  0  0  0  0
 16 17  1  0  0  0  0
 17 18  1  0  0  0  0
 17 36  1  0  0  0  0
 17 37  1  0  0  0  0
 18 19  1  0  0  0  0
 18 38  1  0  0  0  0
 18 39  1  0  0  0  0
 19 20  1  0  0  0  0
 20 21  1  0  0  0  0
 20 40  1  0  0  0  0
 20 41  1  0  0  0  0
 21 42  1  0  0  0  0
 21 43  1  0  0  0  0
 22 23  1  0  0  0  0
 22 24  1  0  0  0  0
 22 44  1  0  0  0  0
 23 45  1  0  0  0  0
 23 46  1  0  0  0  0
 23 47  1  0  0  0  0
 24 48  1  0  0  0  0
 24 49  1  0  0  0  0
 24 50  1  0  0  0  0
M  END
> <s_m_source_file>
AV-unprocessed.smi

> <i_m_source_file_index>
1993

> <i_lp_mmshare_version>
43012

> <i_f3d_flags>
0

> <s_epik_input>
W0NIM11DKD1PKVtOSF1bQ0BASF0oW0NIXShbQ0gzXSlbQ0gzXSlDKD1PKVtOSF1bQ0gyXWMxW2NIXVtjSF1bY0hdbmMxTjJbQ0gyXVtDSDJdT1tDSDJdW0NIMl0y

> <s_epik_cmdline>
J2VwaWtfcHl0aG9uJywgJy1waCcsICc3LjAnLCAnLXRuJywgJzgnLCAnLW1hJywgJzIwMCcsICctbWV0YWxfYmluZGluZycsICctaW1hZScsICc8aW5maWxlLm1hZT4nLCAnLW9tYWUnLCAnPG91dGZpbGUubWFlPic=

> <r_lp_tautomer_probability>
1

> <r_epik_Ionization_Penalty>
0.00485175

> <r_epik_Ionization_Penalty_Charging>
0

> <r_epik_Ionization_Penalty_Neutral>
0.00485175

> <r_epik_State_Penalty>
0.00351951

> <r_epik_Charging_Adjusted_Penalty>
0.00351951

> <i_epik_Tot_Q>
0

> <i_epik_Tot_abs_Q>
0

> <r_epik_Metal_State_Penalty>
-0

> <b_epik_Metal_Only>
0

> <s_lp_Force_Field>
OPLS_2005

> <r_lp_Energy>
19.1581

> <b_lp_Chiralities_Consistent>
1

> <s_lp_Variant>
AV-unprocessed.smi:1993-1

> <Gold.Version>
5.8.1

> <Gold.Id.Protein>
6NUR|6NUR_protein|mol2

> <Gold.PLP.Fitness>
37.8795

> <Gold.PLP.PLP>
-28.0811

> <Gold.PLP.part.hbond>
-3.0068

> <Gold.PLP.part.metal>
0.0000

> <Gold.PLP.part.buried>
-5.0495

> <Gold.PLP.part.nonpolar>
-20.7745

> <Gold.PLP.part.repulsive>
0.1807

> <Gold.PLP.ligand.clash>
0.0000

> <Gold.PLP.ligand.torsion>
0.3109

> <Gold.PLP.Chemscore.Hbond>
2.4792

> <Gold.PLP.Chemscore.CHOScore>
0.9337

> <Gold.PLP.Chemscore.Metal>
0.0000

> <Gold.Chemscore.Hbonds>
donor molecule, donor type, donor heavy atom, donor atom, acceptor molecule, acceptor atom, score
      P1  H  6931  6943       L1     7  0.78
      P1  H  6934  6947       L1     7  0.78
      P1  H  7989  7998       L1    19  0.62
      P1  H  7997  8009       L1    19  0.29
      L1  C    13    35       P1 10175  0.92

> <Gold.PLP.Chemscore.Internal.Correction>
0.1813

> <Gold.Rescore>
     Score         DG    S(hbond)    S(metal)    S(lipo)     H(rot)  DE(clash)    DE(int)     intcor
     13.65     -15.28       2.57        0.00      58.09       2.18       0.00       1.63       ----

> <Gold.Chemscore.Fitness>
13.6498

> <Gold.Chemscore.DG>
-15.2840

> <Gold.Chemscore.ZeroCoef>
-5.4800

> <Gold.Chemscore.Hbond>
2.5723

> <Gold.Chemscore.Metal>
0.0000

> <Gold.Chemscore.Lipo>
58.0920

> <Gold.Chemscore.Internal_Hbond>
0.0000

> <Gold.Chemscore.DEClash>
0.0000

> <Gold.Chemscore.DEInternal>
1.6342

> <Gold.Chemscore.Rot>
2.1813

> <Gold.Chemscore.Internal.Correction>
   9.000000E+99

> <Gold.Chemscore.Hbonds>
donor molecule, donor type, donor heavy atom, donor atom, acceptor molecule, acceptor atom, score
      P1  H  6931  6943       L1     7  0.76
      P1  H  6934  6947       L1     7  0.73
      P1  H  7989  7998       L1    19  0.11
      P1  H  7997  8009       L1    19  0.08

> <Gold.Chemscore.Hbond.Weighted>
-8.5914

> <Gold.Chemscore.Metal.Weighted>
-0.0000

> <Gold.Chemscore.Lipo.Weighted>
-6.7968

> <Gold.Chemscore.Internal_Hbond.Weighted>
0.0000

> <Gold.Chemscore.DEClash.Weighted>
0.0000

> <Gold.Chemscore.DEInternal.Weighted>
1.6342

> <Gold.Chemscore.Rot.Weighted>
5.5842

> <Gold.Chemscore.Internal.Correction.Weighted>
   9.000000E+99

> <Gold.Protein.RotatedTorsions>
[ 6907 6896 6895 6894 ] final  137.80 input  -60.11 | X-H torsion
[ 7974 7965 7964 7962 ] final  114.42 input  175.53 | X-H torsion
[ 8008 7997 7996 7995 ] final -138.22 input   59.86 | X-H torsion
[ 10167 10162 10161 10158 ] final  127.57 input  -65.29 | X-H torsion
[ 10718 10713 10712 10709 ] final -121.04 input   66.30 | X-H torsion
[ 10763 10752 10751 10750 ] final  -97.97 input  -60.55 | X-H torsion
[ 11005 11000 10999 10996 ] final -124.68 input  -57.11 | X-H torsion

> <Gold.Protein.ActiveResidues>
 VAL166  LYS551  ARG553  GLY616  TRP617  ASP618  TYR619  PRO620  LYS621  CYS622 
 ASP623  PHE694  ASN695  SER759  ASP760  ASP761  ALA762  ILE779  LEU786  VAL792 
 PHE793  MET794  SER795  GLU796  ALA797  LYS798  CYS799  TRP800  GLU811  SER814 

> <Gold.Protein.RotatedAtoms>
  152.2740  133.5408  159.5456 H   0  0  0  0  0  0  0  0  0  0  0  0  # atno 6907 bound_to 6896
  150.7170  134.0658  159.3856 H   0  0  0  0  0  0  0  0  0  0  0  0  # atno 6908 bound_to 6896
  151.8572  135.0537  160.0516 H   0  0  0  0  0  0  0  0  0  0  0  0  # atno 6909 bound_to 6896
  145.2047  139.2935  143.4300 H   0  0  0  0  0  0  0  0  0  0  0  0  # atno 7974 bound_to 7965
  155.4248  140.0521  157.3023 H   0  0  0  0  0  0  0  0  0  0  0  0  # atno 8008 bound_to 7997
  154.4886  140.2111  155.9557 H   0  0  0  0  0  0  0  0  0  0  0  0  # atno 8009 bound_to 7997
  156.1310  140.3171  155.8355 H   0  0  0  0  0  0  0  0  0  0  0  0  # atno 8010 bound_to 7997
  139.5571  144.6856  151.4150 H   0  0  0  0  0  0  0  0  0  0  0  0  # atno 10167 bound_to 10162
  156.1305  130.6392  150.9614 H   0  0  0  0  0  0  0  0  0  0  0  0  # atno 10718 bound_to 10713
  154.7374  135.5027  153.9065 H   0  0  0  0  0  0  0  0  0  0  0  0  # atno 10763 bound_to 10752
  153.1009  135.6685  153.9683 H   0  0  0  0  0  0  0  0  0  0  0  0  # atno 10764 bound_to 10752
  153.9469  135.3062  155.3419 H   0  0  0  0  0  0  0  0  0  0  0  0  # atno 10765 bound_to 10752
  140.9822  134.0657  157.3752 H   0  0  0  0  0  0  0  0  0  0  0  0  # atno 11005 bound_to 11000
  146.3410  140.2303  142.8593 LP  0  0  0  0  0  0  0  0  0  0  0  0  # atno 17320 bound_to 7965
  144.9914  140.8550  143.5337 LP  0  0  0  0  0  0  0  0  0  0  0  0  # atno 17321 bound_to 7965
  140.6846  143.8004  150.7168 LP  0  0  0  0  0  0  0  0  0  0  0  0  # atno 17342 bound_to 10162
  140.1468  143.4393  152.2158 LP  0  0  0  0  0  0  0  0  0  0  0  0  # atno 17343 bound_to 10162
  157.6484  131.0900  150.8105 LP  0  0  0  0  0  0  0  0  0  0  0  0  # atno 17370 bound_to 10713
  156.8190  130.4977  149.5345 LP  0  0  0  0  0  0  0  0  0  0  0  0  # atno 17371 bound_to 10713
  139.8955  135.0141  156.7004 LP  0  0  0  0  0  0  0  0  0  0  0  0  # atno 17394 bound_to 11000
  140.7169  133.9174  155.8121 LP  0  0  0  0  0  0  0  0  0  0  0  0  # atno 17395 bound_to 11000

$$$$
