AV-unprocessed.smi:1172|AV-procd|sdf|4944|dock2
  -GOLD-   22720 3533D 1   1.00000     0.00000
 Structure written by MMmdl.
 36 37  0  0  0  0  0  0  0  0  1 V2000
  148.1658  138.5747  153.0956 N   0  0  0  0  0  0  0  0  0  0  0  0
  147.7532  138.9723  154.3024 C   0  0  0  0  0  0  0  0  0  0  0  0
  147.1313  138.2313  155.0606 O   0  0  0  0  0  0  0  0  0  0  0  0
  148.0941  140.4034  154.7228 C   0  0  0  0  0  0  0  0  0  0  0  0
  149.1613  140.4267  155.7073 N   0  0  0  0  0  0  0  0  0  0  0  0
  149.7171  141.5232  156.3372 C   0  0  0  0  0  0  0  0  0  0  0  0
  150.6769  141.0241  157.1715 C   0  0  0  0  0  0  0  0  0  0  0  0
  151.5546  141.7106  158.0483 N   0  0  0  0  0  0  0  0  0  0  0  0
  152.2995  141.1922  159.0433 C   0  0  0  0  0  0  0  0  0  0  0  0
  152.3830  139.9825  159.2599 O   0  0  0  0  0  0  0  0  0  0  0  0
  153.0054  142.1130  159.7482 N   0  0  0  0  0  0  0  0  0  0  0  0
  152.5861  143.4992  160.0235 C   0  0  0  0  0  0  0  0  0  0  0  0
  152.0817  143.5857  161.4762 C   0  0  0  0  0  0  0  0  0  0  0  0
  153.1636  143.1071  162.4627 C   0  0  0  0  0  0  0  0  0  0  0  0
  153.7336  141.7334  162.0549 C   0  0  2  0  0  0  0  0  0  0  0  0
  154.8428  141.4219  162.8706 O   0  0  0  0  0  0  0  0  0  0  0  0
  154.1605  141.7353  160.5738 C   0  0  0  0  0  0  0  0  0  0  0  0
  150.6505  139.6166  156.9937 C   0  0  0  0  0  0  0  0  0  0  0  0
  149.7319  139.2626  156.1082 N   0  0  0  0  0  0  0  0  0  0  0  0
  147.9576  137.6385  152.7796 H   0  0  0  0  0  0  0  0  0  0  0  0
  148.6800  139.2092  152.5020 H   0  0  0  0  0  0  0  0  0  0  0  0
  148.3940  140.9877  153.8512 H   0  0  0  0  0  0  0  0  0  0  0  0
  147.2133  140.8891  155.1449 H   0  0  0  0  0  0  0  0  0  0  0  0
  149.3830  142.5299  156.1346 H   0  0  0  0  0  0  0  0  0  0  0  0
  151.6031  142.7115  157.9259 H   0  0  0  0  0  0  0  0  0  0  0  0
  153.4398  144.1646  159.8872 H   0  0  0  0  0  0  0  0  0  0  0  0
  151.8193  143.8743  159.3460 H   0  0  0  0  0  0  0  0  0  0  0  0
  151.7883  144.6087  161.7129 H   0  0  0  0  0  0  0  0  0  0  0  0
  151.1864  142.9726  161.5884 H   0  0  0  0  0  0  0  0  0  0  0  0
  153.9685  143.8433  162.4819 H   0  0  0  0  0  0  0  0  0  0  0  0
  152.7587  143.0659  163.4743 H   0  0  0  0  0  0  0  0  0  0  0  0
  152.9746  140.9654  162.2109 H   0  0  0  0  0  0  0  0  0  0  0  0
  154.8271  141.9864  163.6284 H   0  0  0  0  0  0  0  0  0  0  0  0
  154.5732  140.7640  160.2963 H   0  0  0  0  0  0  0  0  0  0  0  0
  154.9662  142.4532  160.4117 H   0  0  0  0  0  0  0  0  0  0  0  0
  151.2537  138.8560  157.4668 H   0  0  0  0  0  0  0  0  0  0  0  0
  1  2  1  0  0  0  0
  1 20  1  0  0  0  0
  1 21  1  0  0  0  0
  2  3  2  0  0  0  0
  2  4  1  0  0  0  0
  4  5  1  0  0  0  0
  4 22  1  0  0  0  0
  4 23  1  0  0  0  0
  5 19  1  0  0  0  0
  5  6  1  0  0  0  0
  6  7  2  0  0  0  0
  6 24  1  0  0  0  0
  7  8  1  0  0  0  0
  7 18  1  0  0  0  0
  8  9  1  0  0  0  0
  8 25  1  0  0  0  0
  9 10  2  0  0  0  0
  9 11  1  0  0  0  0
 11 17  1  0  0  0  0
 11 12  1  0  0  0  0
 12 13  1  0  0  0  0
 12 26  1  0  0  0  0
 12 27  1  0  0  0  0
 13 14  1  0  0  0  0
 13 28  1  0  0  0  0
 13 29  1  0  0  0  0
 14 15  1  0  0  0  0
 14 30  1  0  0  0  0
 14 31  1  0  0  0  0
 15 16  1  0  0  0  0
 15 17  1  0  0  0  0
 15 32  1  0  0  0  0
 16 33  1  0  0  0  0
 17 34  1  0  0  0  0
 17 35  1  0  0  0  0
 18 19  2  0  0  0  0
 18 36  1  0  0  0  0
M  END
> <s_m_source_file>
AV-unprocessed.smi

> <i_m_source_file_index>
1172

> <i_lp_mmshare_version>
43012

> <i_f3d_flags>
0

> <s_epik_input>
W05IMl1DKD1PKVtDSDJdbjFbY0hdYyhbY0hdbjEpW05IXUMoPU8pTjJbQ0gyXVtDSDJdW0NIMl1bQ0BASF0oW09IXSlbQ0gyXTI=

> <s_epik_cmdline>
J2VwaWtfcHl0aG9uJywgJy1waCcsICc3LjAnLCAnLXRuJywgJzgnLCAnLW1hJywgJzIwMCcsICctbWV0YWxfYmluZGluZycsICctaW1hZScsICc8aW5maWxlLm1hZT4nLCAnLW9tYWUnLCAnPG91dGZpbGUubWFlPic=

> <r_lp_tautomer_probability>
1

> <r_epik_Ionization_Penalty>
4.44977e-05

> <r_epik_Ionization_Penalty_Charging>
0

> <r_epik_Ionization_Penalty_Neutral>
4.44977e-05

> <r_epik_State_Penalty>
-0

> <r_epik_Charging_Adjusted_Penalty>
0

> <i_epik_Tot_Q>
0

> <i_epik_Tot_abs_Q>
0

> <r_epik_Metal_State_Penalty>
-0

> <b_epik_Metal_Only>
0

> <s_lp_Force_Field>
OPLS_2005

> <r_lp_Energy>
32.958

> <b_lp_Chiralities_Consistent>
1

> <s_lp_Variant>
AV-unprocessed.smi:1172-2

> <Gold.Version>
5.8.1

> <Gold.Id.Protein>
6NUR|6NUR_protein|mol2

> <Gold.PLP.Fitness>
44.8517

> <Gold.PLP.PLP>
-37.1622

> <Gold.PLP.part.hbond>
-2.9228

> <Gold.PLP.part.metal>
0.0000

> <Gold.PLP.part.buried>
-6.6089

> <Gold.PLP.part.nonpolar>
-29.3487

> <Gold.PLP.part.repulsive>
0.2213

> <Gold.PLP.ligand.clash>
0.0000

> <Gold.PLP.ligand.torsion>
0.4865

> <Gold.PLP.Chemscore.Hbond>
1.8713

> <Gold.PLP.Chemscore.CHOScore>
1.0000

> <Gold.PLP.Chemscore.Metal>
0.0000

> <Gold.Chemscore.Hbonds>
donor molecule, donor type, donor heavy atom, donor atom, acceptor molecule, acceptor atom, score
      L1  H     1    20       P1  7948  0.69
      L1  H     1    21       P1  7957  1.00
      L1  C     6    24       P1  8028  1.00

> <Gold.PLP.Chemscore.Internal.Correction>
0.0487

> <Gold.Rescore>
     Score         DG    S(hbond)    S(metal)    S(lipo)     H(rot)  DE(clash)    DE(int)     intcor
     13.30     -15.53       1.94        0.00      78.59       2.20       0.31       1.93       ----

> <Gold.Chemscore.Fitness>
13.2983

> <Gold.Chemscore.DG>
-15.5295

> <Gold.Chemscore.ZeroCoef>
-5.4800

> <Gold.Chemscore.Hbond>
1.9395

> <Gold.Chemscore.Metal>
0.0000

> <Gold.Chemscore.Lipo>
78.5875

> <Gold.Chemscore.Internal_Hbond>
0.0000

> <Gold.Chemscore.DEClash>
0.3057

> <Gold.Chemscore.DEInternal>
1.9254

> <Gold.Chemscore.Rot>
2.1966

> <Gold.Chemscore.Internal.Correction>
   9.000000E+99

> <Gold.Chemscore.Hbonds>
donor molecule, donor type, donor heavy atom, donor atom, acceptor molecule, acceptor atom, score
      L1  H     1    20       P1  7948  0.67
      L1  H     1    21       P1  7957  1.00

> <Gold.Chemscore.Hbond.Weighted>
-6.4779

> <Gold.Chemscore.Metal.Weighted>
-0.0000

> <Gold.Chemscore.Lipo.Weighted>
-9.1947

> <Gold.Chemscore.Internal_Hbond.Weighted>
0.0000

> <Gold.Chemscore.DEClash.Weighted>
0.3057

> <Gold.Chemscore.DEInternal.Weighted>
1.9254

> <Gold.Chemscore.Rot.Weighted>
5.6232

> <Gold.Chemscore.Internal.Correction.Weighted>
   9.000000E+99

> <Gold.Protein.RotatedTorsions>
[ 6907 6896 6895 6894 ] final -164.28 input  -60.11 | X-H torsion
[ 7974 7965 7964 7962 ] final -165.58 input  175.53 | X-H torsion
[ 8008 7997 7996 7995 ] final    3.22 input   59.86 | X-H torsion
[ 10167 10162 10161 10158 ] final  133.90 input  -65.29 | X-H torsion
[ 10718 10713 10712 10709 ] final -147.70 input   66.30 | X-H torsion
[ 10763 10752 10751 10750 ] final  -97.07 input  -60.55 | X-H torsion
[ 11005 11000 10999 10996 ] final   24.96 input  -57.11 | X-H torsion

> <Gold.Protein.ActiveResidues>
 VAL166  LYS551  ARG553  GLY616  TRP617  ASP618  TYR619  PRO620  LYS621  CYS622 
 ASP623  PHE694  ASN695  SER759  ASP760  ASP761  ALA762  ILE779  LEU786  VAL792 
 PHE793  MET794  SER795  GLU796  ALA797  LYS798  CYS799  TRP800  GLU811  SER814 

> <Gold.Protein.RotatedAtoms>
  151.4094  133.3732  159.2741 H   0  0  0  0  0  0  0  0  0  0  0  0  # atno 6907 bound_to 6896
  150.9374  134.8787  159.7601 H   0  0  0  0  0  0  0  0  0  0  0  0  # atno 6908 bound_to 6896
  152.5056  134.4043  159.9479 H   0  0  0  0  0  0  0  0  0  0  0  0  # atno 6909 bound_to 6896
  144.7266  140.2793  143.6238 H   0  0  0  0  0  0  0  0  0  0  0  0  # atno 7974 bound_to 7965
  154.7010  140.2673  155.6720 H   0  0  0  0  0  0  0  0  0  0  0  0  # atno 8008 bound_to 7997
  156.2765  140.2772  156.1544 H   0  0  0  0  0  0  0  0  0  0  0  0  # atno 8009 bound_to 7997
  155.0765  140.0372  157.2615 H   0  0  0  0  0  0  0  0  0  0  0  0  # atno 8010 bound_to 7997
  139.5278  144.6594  151.5062 H   0  0  0  0  0  0  0  0  0  0  0  0  # atno 10167 bound_to 10162
  156.4109  130.7981  151.2198 H   0  0  0  0  0  0  0  0  0  0  0  0  # atno 10718 bound_to 10713
  154.7296  135.5060  153.8942 H   0  0  0  0  0  0  0  0  0  0  0  0  # atno 10763 bound_to 10752
  153.0937  135.6666  153.9813 H   0  0  0  0  0  0  0  0  0  0  0  0  # atno 10764 bound_to 10752
  153.9617  135.3047  155.3412 H   0  0  0  0  0  0  0  0  0  0  0  0  # atno 10765 bound_to 10752
  140.3530  134.2208  155.7678 H   0  0  0  0  0  0  0  0  0  0  0  0  # atno 11005 bound_to 11000
  145.7965  139.1947  143.2073 LP  0  0  0  0  0  0  0  0  0  0  0  0  # atno 17320 bound_to 7965
  146.0712  140.7867  142.9687 LP  0  0  0  0  0  0  0  0  0  0  0  0  # atno 17321 bound_to 7965
  140.6434  143.8843  150.6714 LP  0  0  0  0  0  0  0  0  0  0  0  0  # atno 17342 bound_to 10162
  140.2184  143.3828  152.1662 LP  0  0  0  0  0  0  0  0  0  0  0  0  # atno 17343 bound_to 10162
  157.7507  131.0258  150.3934 LP  0  0  0  0  0  0  0  0  0  0  0  0  # atno 17370 bound_to 10713
  156.4232  130.3957  149.6811 LP  0  0  0  0  0  0  0  0  0  0  0  0  # atno 17371 bound_to 10713
  141.2006  133.7982  157.0479 LP  0  0  0  0  0  0  0  0  0  0  0  0  # atno 17394 bound_to 11000
  140.0687  134.9714  157.1431 LP  0  0  0  0  0  0  0  0  0  0  0  0  # atno 17395 bound_to 11000

$$$$
