AV-unprocessed.smi:600|AV-procd|sdf|3030|dock6
  -GOLD-   2262023543D 1   1.00000     0.00000
 Structure written by MMmdl.
 33 34  0  0  0  0  0  0  0  0  1 V2000
  150.3124  134.6924  155.2232 C   0  0  0  0  0  0  0  0  0  0  0  0
  151.0112  135.8051  154.6948 O   0  0  0  0  0  0  0  0  0  0  0  0
  150.9487  136.9384  155.5447 C   0  0  0  0  0  0  0  0  0  0  0  0
  151.6279  138.1394  154.8669 C   0  0  0  0  0  0  0  0  0  0  0  0
  151.2218  139.4099  155.4786 N   0  0  0  0  0  0  0  0  0  0  0  0
  151.9511  139.7463  156.6067 N   0  0  0  0  0  0  0  0  0  0  0  0
  151.6861  140.8300  157.2608 C   0  0  0  0  0  0  0  0  0  0  0  0
  152.4795  141.1678  158.4829 C   0  0  0  0  0  0  0  0  0  0  0  0
  153.4345  140.4408  158.7786 O   0  0  0  0  0  0  0  0  0  0  0  0
  152.0338  142.2969  159.1708 N   0  0  0  0  0  0  0  0  0  0  0  0
  152.4664  142.5955  160.3594 C   0  0  0  0  0  0  0  0  0  0  0  0
  153.3943  141.9198  161.1457 N   0  0  0  0  0  0  0  0  0  0  0  0
  153.4483  142.2564  162.5565 C   0  0  0  0  0  0  0  0  0  0  0  0
  153.0588  143.7260  162.6890 C   0  0  0  0  0  0  0  0  0  0  0  0
  151.9327  144.0386  161.3179 S   0  0  0  0  0  0  0  0  0  0  0  0
  150.6201  141.7202  156.8139 C   0  0  0  0  0  0  0  0  0  0  0  0
  149.9170  141.3769  155.7126 C   0  0  0  0  0  0  0  0  0  0  0  0
  150.1942  140.1503  154.9651 C   0  0  0  0  0  0  0  0  0  0  0  0
  149.5577  139.8147  153.9667 O   0  0  0  0  0  0  0  0  0  0  0  0
  150.3947  133.8489  154.5380 H   0  0  0  0  0  0  0  0  0  0  0  0
  149.2532  134.9181  155.3529 H   0  0  0  0  0  0  0  0  0  0  0  0
  150.7260  134.3873  156.1851 H   0  0  0  0  0  0  0  0  0  0  0  0
  149.9120  137.1754  155.7898 H   0  0  0  0  0  0  0  0  0  0  0  0
  151.4595  136.7146  156.4822 H   0  0  0  0  0  0  0  0  0  0  0  0
  152.7099  138.0341  154.9610 H   0  0  0  0  0  0  0  0  0  0  0  0
  151.4334  138.1262  153.7933 H   0  0  0  0  0  0  0  0  0  0  0  0
  152.7402  141.6228  163.0915 H   0  0  0  0  0  0  0  0  0  0  0  0
  154.4411  142.0671  162.9651 H   0  0  0  0  0  0  0  0  0  0  0  0
  152.6003  143.9538  163.6513 H   0  0  0  0  0  0  0  0  0  0  0  0
  153.9343  144.3642  162.5666 H   0  0  0  0  0  0  0  0  0  0  0  0
  150.3793  142.6370  157.3312 H   0  0  0  0  0  0  0  0  0  0  0  0
  149.1251  142.0271  155.3714 H   0  0  0  0  0  0  0  0  0  0  0  0
  153.8412  141.0595  160.8611 H   0  0  0  0  0  0  0  0  0  0  0  0
  1  2  1  0  0  0  0
  1 20  1  0  0  0  0
  1 21  1  0  0  0  0
  1 22  1  0  0  0  0
  2  3  1  0  0  0  0
  3  4  1  0  0  0  0
  3 23  1  0  0  0  0
  3 24  1  0  0  0  0
  4  5  1  0  0  0  0
  4 25  1  0  0  0  0
  4 26  1  0  0  0  0
  5 18  1  0  0  0  0
  5  6  1  0  0  0  0
  6  7  2  0  0  0  0
  7  8  1  0  0  0  0
  7 16  1  0  0  0  0
  8  9  2  0  0  0  0
  8 10  1  0  0  0  0
 10 11  2  0  0  0  0
 11 15  1  0  0  0  0
 11 12  1  0  0  0  0
 12 13  1  0  0  0  0
 12 33  1  0  0  0  0
 13 14  1  0  0  0  0
 13 27  1  0  0  0  0
 13 28  1  0  0  0  0
 14 15  1  0  0  0  0
 14 29  1  0  0  0  0
 14 30  1  0  0  0  0
 16 17  2  0  0  0  0
 16 31  1  0  0  0  0
 17 18  1  0  0  0  0
 17 32  1  0  0  0  0
 18 19  2  0  0  0  0
M  END
> <s_m_source_file>
AV-unprocessed.smi

> <i_m_source_file_index>
600

> <i_lp_mmshare_version>
43012

> <i_f3d_flags>
0

> <s_epik_input>
W0NIM11PW0NIMl1bQ0gyXW4xbmMoW2NIXVtjSF1jMT1PKUMoPU8pW05IXUMyPU5bQ0gyXVtDSDJdUzI=

> <s_epik_cmdline>
J2VwaWtfcHl0aG9uJywgJy1waCcsICc3LjAnLCAnLXRuJywgJzgnLCAnLW1hJywgJzIwMCcsICctbWV0YWxfYmluZGluZycsICctaW1hZScsICc8aW5maWxlLm1hZT4nLCAnLW9tYWUnLCAnPG91dGZpbGUubWFlPic=

> <r_epik_Ionization_Penalty>
0.0115713

> <r_epik_Ionization_Penalty_Charging>
8.15052e-11

> <r_epik_Ionization_Penalty_Neutral>
0.0115713

> <r_epik_State_Penalty>
0.0066973

> <r_epik_Charging_Adjusted_Penalty>
0.0066973

> <i_epik_Tot_Q>
0

> <i_epik_Tot_abs_Q>
0

> <r_epik_Metal_State_Penalty>
-0

> <b_epik_Metal_Only>
0

> <s_epik_Chemistry_Notes>
This compound has an imine and may undergo hydrolysis.

> <s_lp_Force_Field>
OPLS_2005

> <r_lp_Energy>
40.8102

> <b_lp_Chiralities_Consistent>
1

> <s_lp_Variant>
AV-unprocessed.smi:600-1

> <Gold.Version>
5.8.1

> <Gold.Id.Protein>
6NUR|6NUR_protein|mol2

> <Gold.PLP.Fitness>
41.7471

> <Gold.PLP.PLP>
-37.5323

> <Gold.PLP.part.hbond>
-2.3647

> <Gold.PLP.part.metal>
0.0000

> <Gold.PLP.part.buried>
-5.6441

> <Gold.PLP.part.nonpolar>
-30.5008

> <Gold.PLP.part.repulsive>
2.3158

> <Gold.PLP.ligand.clash>
0.0000

> <Gold.PLP.ligand.torsion>
0.4768

> <Gold.PLP.Chemscore.Hbond>
1.7160

> <Gold.PLP.Chemscore.CHOScore>
0.0000

> <Gold.PLP.Chemscore.Metal>
0.0000

> <Gold.Chemscore.Hbonds>
donor molecule, donor type, donor heavy atom, donor atom, acceptor molecule, acceptor atom, score
      P1  H  7997  8008       L1     9  0.68
      P1  H 10752 10764       L1     2  1.00

> <Gold.PLP.Chemscore.Internal.Correction>
0.0202

> <Gold.Rescore>
     Score         DG    S(hbond)    S(metal)    S(lipo)     H(rot)  DE(clash)    DE(int)     intcor
     12.37     -13.29       0.98        0.00      72.62       1.54       0.50       0.43       ----

> <Gold.Chemscore.Fitness>
12.3660

> <Gold.Chemscore.DG>
-13.2935

> <Gold.Chemscore.ZeroCoef>
-5.4800

> <Gold.Chemscore.Hbond>
0.9777

> <Gold.Chemscore.Metal>
0.0000

> <Gold.Chemscore.Lipo>
72.6217

> <Gold.Chemscore.Internal_Hbond>
0.0000

> <Gold.Chemscore.DEClash>
0.5014

> <Gold.Chemscore.DEInternal>
0.4261

> <Gold.Chemscore.Rot>
1.5425

> <Gold.Chemscore.Internal.Correction>
   9.000000E+99

> <Gold.Chemscore.Hbonds>
donor molecule, donor type, donor heavy atom, donor atom, acceptor molecule, acceptor atom, score
      P1  H  7997  8008       L1     9  0.53
      P1  H 10752 10764       L1     2  0.27

> <Gold.Chemscore.Hbond.Weighted>
-3.2657

> <Gold.Chemscore.Metal.Weighted>
-0.0000

> <Gold.Chemscore.Lipo.Weighted>
-8.4967

> <Gold.Chemscore.Internal_Hbond.Weighted>
0.0000

> <Gold.Chemscore.DEClash.Weighted>
0.5014

> <Gold.Chemscore.DEInternal.Weighted>
0.4261

> <Gold.Chemscore.Rot.Weighted>
3.9489

> <Gold.Chemscore.Internal.Correction.Weighted>
   9.000000E+99

> <Gold.Protein.RotatedTorsions>
[ 6907 6896 6895 6894 ] final  -58.81 input  -60.11 | X-H torsion
[ 7974 7965 7964 7962 ] final  -10.12 input  175.53 | X-H torsion
[ 8008 7997 7996 7995 ] final  -93.65 input   59.86 | X-H torsion
[ 10167 10162 10161 10158 ] final -109.91 input  -65.29 | X-H torsion
[ 10718 10713 10712 10709 ] final    3.39 input   66.30 | X-H torsion
[ 10763 10752 10751 10750 ] final  -60.93 input  -60.55 | X-H torsion
[ 11005 11000 10999 10996 ] final -154.02 input  -57.11 | X-H torsion

> <Gold.Protein.ActiveResidues>
 VAL166  LYS551  ARG553  GLY616  TRP617  ASP618  TYR619  PRO620  LYS621  CYS622 
 ASP623  PHE694  ASN695  SER759  ASP760  ASP761  ALA762  ILE779  LEU786  VAL792 
 PHE793  MET794  SER795  GLU796  ALA797  LYS798  CYS799  TRP800  GLU811  SER814 

> <Gold.Protein.RotatedAtoms>
  150.7978  134.7050  159.6570 H   0  0  0  0  0  0  0  0  0  0  0  0  # atno 6907 bound_to 6896
  152.4092  134.6151  160.0046 H   0  0  0  0  0  0  0  0  0  0  0  0  # atno 6908 bound_to 6896
  151.6399  133.3289  159.3164 H   0  0  0  0  0  0  0  0  0  0  0  0  # atno 6909 bound_to 6896
  146.2230  140.2718  142.8357 H   0  0  0  0  0  0  0  0  0  0  0  0  # atno 7974 bound_to 7965
  154.7384  140.0497  157.0789 H   0  0  0  0  0  0  0  0  0  0  0  0  # atno 8008 bound_to 7997
  155.0210  140.3147  155.4774 H   0  0  0  0  0  0  0  0  0  0  0  0  # atno 8009 bound_to 7997
  156.2858  140.2167  156.5328 H   0  0  0  0  0  0  0  0  0  0  0  0  # atno 8010 bound_to 7997
  140.1502  143.4206  152.1500 H   0  0  0  0  0  0  0  0  0  0  0  0  # atno 10167 bound_to 10162
  156.8772  130.5640  149.5654 H   0  0  0  0  0  0  0  0  0  0  0  0  # atno 10718 bound_to 10713
  154.2767  135.6280  153.5331 H   0  0  0  0  0  0  0  0  0  0  0  0  # atno 10763 bound_to 10752
  152.9872  135.5623  154.5540 H   0  0  0  0  0  0  0  0  0  0  0  0  # atno 10764 bound_to 10752
  154.5122  135.2877  155.1309 H   0  0  0  0  0  0  0  0  0  0  0  0  # atno 10765 bound_to 10752
  140.7019  134.3928  157.5208 H   0  0  0  0  0  0  0  0  0  0  0  0  # atno 11005 bound_to 11000
  144.9262  140.7924  143.5717 LP  0  0  0  0  0  0  0  0  0  0  0  0  # atno 17320 bound_to 7965
  145.2658  139.1974  143.4868 LP  0  0  0  0  0  0  0  0  0  0  0  0  # atno 17321 bound_to 7965
  139.5430  144.7273  151.4674 LP  0  0  0  0  0  0  0  0  0  0  0  0  # atno 17342 bound_to 10162
  140.6707  143.8299  150.6996 LP  0  0  0  0  0  0  0  0  0  0  0  0  # atno 17343 bound_to 10162
  156.0696  130.5732  150.9357 LP  0  0  0  0  0  0  0  0  0  0  0  0  # atno 17370 bound_to 10713
  157.6162  131.0933  150.8707 LP  0  0  0  0  0  0  0  0  0  0  0  0  # atno 17371 bound_to 10713
  139.8894  134.8830  156.2421 LP  0  0  0  0  0  0  0  0  0  0  0  0  # atno 17394 bound_to 11000
  141.0156  133.7070  156.1184 LP  0  0  0  0  0  0  0  0  0  0  0  0  # atno 17395 bound_to 11000

$$$$
