AV-unprocessed.smi:72|AV-procd|sdf|701|dock8
  -GOLD-   2262017 23D 1   1.00000     0.00000
 Structure written by MMmdl.
 30 31  0  0  0  0  0  0  0  0  2 V2000
  138.9356  139.9158  152.9865 N   0  0  0  0  0  0  0  0  0  0  0  0
  139.9278  139.0096  153.2972 C   0  0  0  0  0  0  0  0  0  0  0  0
  141.1182  139.0957  152.5989 N   0  3  0  0  0  0  0  0  0  0  0  0
  142.1716  138.2851  152.7667 C   0  0  0  0  0  0  0  0  0  0  0  0
  142.0895  137.2980  153.6389 N   0  0  0  0  0  0  0  0  0  0  0  0
  143.2408  136.3483  153.8838 C   0  0  2  0  0  0  0  0  0  0  0  0
  144.1485  136.4711  152.8363 O   0  0  0  0  0  0  0  0  0  0  0  0
  143.7972  135.5533  151.8095 C   0  0  1  0  0  0  0  0  0  0  0  0
  144.9853  135.3506  150.8583 C   0  0  0  0  0  0  0  0  0  0  0  0
  144.8783  136.2394  149.7668 O   0  0  0  0  0  0  0  0  0  0  0  0
  143.4282  134.3059  152.6157 C   0  0  2  0  0  0  0  0  0  0  0  0
  142.5076  133.5147  151.8919 O   0  0  0  0  0  0  0  0  0  0  0  0
  142.7729  134.8750  153.8740 C   0  0  1  0  0  0  0  0  0  0  0  0
  143.2211  134.1814  155.0202 O   0  0  0  0  0  0  0  0  0  0  0  0
  140.9305  137.1728  154.4490 C   0  0  0  0  0  0  0  0  0  0  0  0
  140.8736  136.3084  155.3231 O   0  0  0  0  0  0  0  0  0  0  0  0
  139.8801  138.0669  154.1972 N   0  0  0  0  0  0  0  0  0  0  0  0
  143.6863  136.6842  154.8221 H   0  0  0  0  0  0  0  0  0  0  0  0
  142.9199  135.9143  151.2682 H   0  0  0  0  0  0  0  0  0  0  0  0
  144.3236  133.7308  152.8587 H   0  0  0  0  0  0  0  0  0  0  0  0
  141.6848  134.8186  153.8173 H   0  0  0  0  0  0  0  0  0  0  0  0
  138.0380  139.9332  153.4498 H   0  0  0  0  0  0  0  0  0  0  0  0
  139.0244  140.6300  152.2778 H   0  0  0  0  0  0  0  0  0  0  0  0
  143.0664  138.4731  152.1881 H   0  0  0  0  0  0  0  0  0  0  0  0
  145.9368  135.4896  151.3728 H   0  0  0  0  0  0  0  0  0  0  0  0
  144.9771  134.3363  150.4581 H   0  0  0  0  0  0  0  0  0  0  0  0
  145.5146  135.9903  149.1137 H   0  0  0  0  0  0  0  0  0  0  0  0
  142.3396  133.9355  151.0620 H   0  0  0  0  0  0  0  0  0  0  0  0
  143.0685  133.2568  154.8926 H   0  0  0  0  0  0  0  0  0  0  0  0
  141.1982  139.8318  151.9118 H   0  0  0  0  0  0  0  0  0  0  0  0
  1  2  1  0  0  0  0
  1 22  1  0  0  0  0
  1 23  1  0  0  0  0
  2 17  2  0  0  0  0
  2  3  1  0  0  0  0
  3  4  2  0  0  0  0
  3 30  1  0  0  0  0
  4  5  1  0  0  0  0
  4 24  1  0  0  0  0
  5  6  1  0  0  0  0
  5 15  1  0  0  0  0
  6 18  1  0  0  0  0
  6 13  1  0  0  0  0
  6  7  1  0  0  0  0
  7  8  1  0  0  0  0
  8 19  1  0  0  0  0
  8  9  1  0  0  0  0
  8 11  1  0  0  0  0
  9 10  1  0  0  0  0
  9 25  1  0  0  0  0
  9 26  1  0  0  0  0
 10 27  1  0  0  0  0
 11 20  1  0  0  0  0
 11 12  1  0  0  0  0
 11 13  1  0  0  0  0
 12 28  1  0  0  0  0
 13 21  1  0  0  0  0
 13 14  1  0  0  0  0
 14 29  1  0  0  0  0
 15 16  2  0  0  0  0
 15 17  1  0  0  0  0
M  CHG  1   3   1
M  END
> <s_m_source_file>
AV-unprocessed.smi

> <i_m_source_file_index>
72

> <i_lp_mmshare_version>
43012

> <i_f3d_flags>
0

> <s_epik_input>
W05IMl1jMW5bY0hdbihjKD1PKW4xKVtDQEBIXTJPW0NASF0oW0NIMl1bT0hdKVtDQEBIXShbT0hdKVtDQEhdMltPSF0=

> <s_epik_cmdline>
J2VwaWtfcHl0aG9uJywgJy1waCcsICc3LjAnLCAnLXRuJywgJzgnLCAnLW1hJywgJzIwMCcsICctbWV0YWxfYmluZGluZycsICctaW1hZScsICc8aW5maWxlLm1hZT4nLCAnLW9tYWUnLCAnPG91dGZpbGUubWFlPic=

> <r_lp_tautomer_probability>
4.77166e-05

> <r_epik_Ionization_Penalty>
0.104979

> <r_epik_Ionization_Penalty_Charging>
0.0999619

> <r_epik_Ionization_Penalty_Neutral>
0.00501745

> <r_epik_State_Penalty>
2.51541

> <r_epik_Charging_Adjusted_Penalty>
2.61537

> <i_epik_Tot_Q>
1

> <i_epik_Tot_abs_Q>
1

> <r_epik_Metal_State_Penalty>
3.53763

> <b_epik_Metal_Only>
0

> <s_epik_Chemistry_Notes>
This compound contains an acetal/aminal-like group ( X-CH(R)-Y where X, Y are N, S, or O) that may be acid/base labile, releasing an aldehyde.

> <s_lp_Force_Field>
OPLS_2005

> <r_lp_Energy>
25.3585

> <b_lp_Chiralities_Consistent>
1

> <s_lp_Variant>
AV-unprocessed.smi:72-39

> <Gold.Version>
5.8.1

> <Gold.Id.Protein>
6NUR|6NUR_protein|mol2

> <Gold.PLP.Fitness>
42.0790

> <Gold.PLP.PLP>
-24.7962

> <Gold.PLP.part.hbond>
-7.2110

> <Gold.PLP.part.metal>
0.0000

> <Gold.PLP.part.buried>
-1.3523

> <Gold.PLP.part.nonpolar>
-16.9634

> <Gold.PLP.part.repulsive>
0.3282

> <Gold.PLP.ligand.clash>
0.0000

> <Gold.PLP.ligand.torsion>
0.6412

> <Gold.PLP.Chemscore.Hbond>
4.5629

> <Gold.PLP.Chemscore.CHOScore>
1.6103

> <Gold.PLP.Chemscore.Metal>
0.0000

> <Gold.Chemscore.Hbonds>
donor molecule, donor type, donor heavy atom, donor atom, acceptor molecule, acceptor atom, score
      L1  H     1    23       P1 10160  0.45
      L1  H     3    30       P1 10160  0.67
      L1  H    10    27       P1  7921  1.00
      L1  H    12    28       P1 10186  0.90
      L1  H    14    29       P1 10957  1.00
      P1  H 11000 11005       L1    16  0.53
      L1  C     4    24       P1 10171  1.00
      L1  C     4    24       P1 10175  0.57

> <Gold.PLP.Chemscore.Internal.Correction>
0.0458

> <Gold.Rescore>
     Score         DG    S(hbond)    S(metal)    S(lipo)     H(rot)  DE(clash)    DE(int)     intcor
      7.00     -10.24       3.85        0.00      20.01       4.08       1.22       2.01       ----

> <Gold.Chemscore.Fitness>
7.0036

> <Gold.Chemscore.DG>
-10.2380

> <Gold.Chemscore.ZeroCoef>
-5.4800

> <Gold.Chemscore.Hbond>
3.8495

> <Gold.Chemscore.Metal>
0.0000

> <Gold.Chemscore.Lipo>
20.0100

> <Gold.Chemscore.Internal_Hbond>
0.0000

> <Gold.Chemscore.DEClash>
1.2218

> <Gold.Chemscore.DEInternal>
2.0127

> <Gold.Chemscore.Rot>
4.0783

> <Gold.Chemscore.Internal.Correction>
   9.000000E+99

> <Gold.Chemscore.Hbonds>
donor molecule, donor type, donor heavy atom, donor atom, acceptor molecule, acceptor atom, score
      L1  H     1    23       P1 10160  0.42
      L1  H     3    30       P1 10160  0.65
      L1  H    10    27       P1  7921  0.95
      L1  H    12    28       P1 10186  0.29
      L1  H    14    29       P1 10957  0.94
      P1  H 11000 11005       L1    16  0.52

> <Gold.Chemscore.Hbond.Weighted>
-12.8573

> <Gold.Chemscore.Metal.Weighted>
-0.0000

> <Gold.Chemscore.Lipo.Weighted>
-2.3412

> <Gold.Chemscore.Internal_Hbond.Weighted>
0.0000

> <Gold.Chemscore.DEClash.Weighted>
1.2218

> <Gold.Chemscore.DEInternal.Weighted>
2.0127

> <Gold.Chemscore.Rot.Weighted>
10.4404

> <Gold.Chemscore.Internal.Correction.Weighted>
   9.000000E+99

> <Gold.Protein.RotatedTorsions>
[ 6907 6896 6895 6894 ] final  -11.21 input  -60.11 | X-H torsion
[ 7974 7965 7964 7962 ] final   43.88 input  175.53 | X-H torsion
[ 8008 7997 7996 7995 ] final -152.58 input   59.86 | X-H torsion
[ 10167 10162 10161 10158 ] final -158.67 input  -65.29 | X-H torsion
[ 10718 10713 10712 10709 ] final  -54.26 input   66.30 | X-H torsion
[ 10763 10752 10751 10750 ] final  -85.58 input  -60.55 | X-H torsion
[ 11005 11000 10999 10996 ] final   77.30 input  -57.11 | X-H torsion

> <Gold.Protein.ActiveResidues>
 VAL166  LYS551  ARG553  GLY616  TRP617  ASP618  TYR619  PRO620  LYS621  CYS622 
 ASP623  PHE694  ASN695  SER759  ASP760  ASP761  ALA762  ILE779  LEU786  VAL792 
 PHE793  MET794  SER795  GLU796  ALA797  LYS798  CYS799  TRP800  GLU811  SER814 

> <Gold.Protein.RotatedAtoms>
  151.3897  135.0954  159.9522 H   0  0  0  0  0  0  0  0  0  0  0  0  # atno 6907 bound_to 6896
  152.5083  133.8991  159.7442 H   0  0  0  0  0  0  0  0  0  0  0  0  # atno 6908 bound_to 6896
  150.9442  133.6566  159.2813 H   0  0  0  0  0  0  0  0  0  0  0  0  # atno 6909 bound_to 6896
  146.0617  139.5137  142.9654 H   0  0  0  0  0  0  0  0  0  0  0  0  # atno 7974 bound_to 7965
  155.6574  140.0719  157.2566 H   0  0  0  0  0  0  0  0  0  0  0  0  # atno 8008 bound_to 7997
  154.4149  140.1722  156.1790 H   0  0  0  0  0  0  0  0  0  0  0  0  # atno 8009 bound_to 7997
  155.9726  140.3360  155.6592 H   0  0  0  0  0  0  0  0  0  0  0  0  # atno 8010 bound_to 7997
  139.6674  143.9805  152.2263 H   0  0  0  0  0  0  0  0  0  0  0  0  # atno 10167 bound_to 10162
  156.1466  130.4152  150.0014 H   0  0  0  0  0  0  0  0  0  0  0  0  # atno 10718 bound_to 10713
  154.6127  135.5480  153.7491 H   0  0  0  0  0  0  0  0  0  0  0  0  # atno 10763 bound_to 10752
  153.0202  135.6393  154.1554 H   0  0  0  0  0  0  0  0  0  0  0  0  # atno 10764 bound_to 10752
  154.1491  135.2904  155.3120 H   0  0  0  0  0  0  0  0  0  0  0  0  # atno 10765 bound_to 10752
  139.9261  134.7671  156.1504 H   0  0  0  0  0  0  0  0  0  0  0  0  # atno 11005 bound_to 11000
  145.6548  141.0254  143.1740 LP  0  0  0  0  0  0  0  0  0  0  0  0  # atno 17320 bound_to 7965
  144.7179  139.8133  143.7392 LP  0  0  0  0  0  0  0  0  0  0  0  0  # atno 17321 bound_to 7965
  139.9560  144.6589  150.8125 LP  0  0  0  0  0  0  0  0  0  0  0  0  # atno 17342 bound_to 10162
  140.7605  143.3152  151.2750 LP  0  0  0  0  0  0  0  0  0  0  0  0  # atno 17343 bound_to 10162
  156.7884  130.9247  151.3646 LP  0  0  0  0  0  0  0  0  0  0  0  0  # atno 17370 bound_to 10713
  157.6621  130.8975  149.9853 LP  0  0  0  0  0  0  0  0  0  0  0  0  # atno 17371 bound_to 10713
  141.0818  133.6751  156.2353 LP  0  0  0  0  0  0  0  0  0  0  0  0  # atno 17394 bound_to 11000
  140.6334  134.5241  157.5562 LP  0  0  0  0  0  0  0  0  0  0  0  0  # atno 17395 bound_to 11000

$$$$
