#       Name:                AV-unprocessed.smi:275
#       Creating user name   scv26
#       Creation time:       Thu Mar 26 21:31:22 2020


#       File generated by GOLD software.
#

@<TRIPOS>MOLECULE
AV-unprocessed.smi:275
    73    77     1
SMALL
NO_CHARGES


@<TRIPOS>ATOM
      1 ****        -2.8303   2.9826  -2.3367 C.3            1 S1                 0.0000
      2 ****        -3.7091   1.9613  -1.5949 C.3            1 S1                 0.0000
      3 ****        -5.0158   2.6450  -1.1588 C.3            1 S1                 0.0000
      4 ****        -2.9894   1.3208  -0.3936 C.3            1 S1                 0.0000
      5 ****        -1.8790   0.4480  -0.7696 N.3            1 S1                 0.0000
      6 ****        -0.5541   0.9702  -0.7708 C.ar           1 S1                 0.0000
      7 ****        -0.2927   2.2573  -0.4160 N.ar           1 S1                 0.0000
      8 ****         0.9558   2.7330  -0.4229 C.ar           1 S1                 0.0000
      9 ****         2.0860   2.1028  -0.7451 N.ar           1 S1                 0.0000
     10 ****         1.8393   0.8110  -1.1026 C.ar           1 S1                 0.0000
     11 ****         0.5656   0.1765  -1.1428 C.ar           1 S1                 0.0000
     12 ****         0.7056  -1.1416  -1.5588 N.2            1 S1                 0.0000
     13 ****         1.9886  -1.2795  -1.7533 C.2            1 S1                 0.0000
     14 ****         2.7469  -0.1618  -1.4849 N.pl3          1 S1                 0.0000
     15 ****         4.1875  -0.0355  -1.6238 C.3            1 S1                 0.0000
     16 ****         5.0094  -0.9786  -0.7061 C.3            1 S1                 0.0000
     17 ****         6.4849  -0.9361  -1.1744 C.3            1 S1                 0.0000
     18 ****         7.1891  -2.1054  -0.8105 O.3            1 S1                 0.0000
     19 ****         4.8631  -0.6303   0.8073 C.3            1 S1                 0.0000
     20 ****         5.7309  -1.4457   1.7533 C.3            1 S1                 0.0000
     21 ****         5.0617  -1.2038   3.0980 C.3            1 S1                 0.0000
     22 ****         3.6737  -1.1864   2.8037 O.3            1 S1                 0.0000
     23 ****         3.4777  -0.8805   1.4261 C.3            1 S1                 0.0000
     24 ****        -2.1259  -0.4266   0.3624 C.3            1 S1                 0.0000
     25 ****        -3.5735   0.0908   0.3486 C.3            1 S1                 0.0000
     26 ****        -4.5734  -0.8088  -0.4133 C.3            1 S1                 0.0000
     27 ****        -4.9044  -2.1077   0.3419 C.3            1 S1                 0.0000
     28 ****        -5.4545  -1.8103   1.7427 C.3            1 S1                 0.0000
     29 ****        -4.5111  -0.8867   2.5236 C.3            1 S1                 0.0000
     30 ****        -4.1927   0.3878   1.7240 C.3            1 S1                 0.0000
     31 ****        -2.4957   3.7779  -1.6700 H              1 S1                 0.0000
     32 ****        -3.3747   3.4465  -3.1595 H              1 S1                 0.0000
     33 ****        -1.9467   2.5107  -2.7659 H              1 S1                 0.0000
     34 ****        -3.9737   1.1838  -2.3122 H              1 S1                 0.0000
     35 ****        -4.8176   3.4600  -0.4620 H              1 S1                 0.0000
     36 ****        -5.6966   1.9538  -0.6654 H              1 S1                 0.0000
     37 ****        -5.5454   3.0630  -2.0151 H              1 S1                 0.0000
     38 ****        -2.6772   2.0645   0.3417 H              1 S1                 0.0000
     39 ****         1.0638   3.7659  -0.1265 H              1 S1                 0.0000
     40 ****         2.4206  -2.2096  -2.0927 H              1 S1                 0.0000
     41 ****         4.4152  -0.2366  -2.6712 H              1 S1                 0.0000
     42 ****         4.4742   1.0015  -1.4455 H              1 S1                 0.0000
     43 ****         4.6460  -1.9947  -0.8671 H              1 S1                 0.0000
     44 ****         6.5470  -0.8673  -2.2608 H              1 S1                 0.0000
     45 ****         6.9950  -0.0585  -0.7759 H              1 S1                 0.0000
     46 ****         8.0784  -2.0302  -1.1218 H              1 S1                 0.0000
     47 ****         5.1169   0.4213   0.9517 H              1 S1                 0.0000
     48 ****         5.6818  -2.5060   1.5012 H              1 S1                 0.0000
     49 ****         6.7771  -1.1385   1.7526 H              1 S1                 0.0000
     50 ****         5.3065  -1.9683   3.8355 H              1 S1                 0.0000
     51 ****         5.3505  -0.2327   3.5020 H              1 S1                 0.0000
     52 ****         2.8221  -0.0159   1.3298 H              1 S1                 0.0000
     53 ****         2.9851  -1.7343   0.9602 H              1 S1                 0.0000
     54 ****        -2.0091  -1.4850   0.1291 H              1 S1                 0.0000
     55 ****        -1.5686  -0.1373   1.2559 H              1 S1                 0.0000
     56 ****        -5.5034  -0.2747  -0.6019 H              1 S1                 0.0000
     57 ****        -4.1804  -1.0690  -1.3968 H              1 S1                 0.0000
     58 ****        -5.6292  -2.6932  -0.2245 H              1 S1                 0.0000
     59 ****        -4.0096  -2.7253   0.4245 H              1 S1                 0.0000
     60 ****        -6.4329  -1.3366   1.6546 H              1 S1                 0.0000
     61 ****        -5.6089  -2.7402   2.2905 H              1 S1                 0.0000
     62 ****        -4.9593  -0.6230   3.4819 H              1 S1                 0.0000
     63 ****        -3.5851  -1.4161   2.7513 H              1 S1                 0.0000
     64 ****        -3.5203   1.0125   2.3131 H              1 S1                 0.0000
     65 ****        -5.1054   0.9727   1.6041 H              1 S1                 0.0000
     66 ****        -1.8795   0.1187  -1.7138 LP             1 S1                 0.0000
     67 ****        -1.0464   2.8564  -0.1459 LP             1 S1                 0.0000
     68 ****         2.9936   2.5222  -0.7268 LP             1 S1                 0.0000
     69 ****        -0.0120  -1.8273  -1.6811 LP             1 S1                 0.0000
     70 ****         6.7532  -2.9042  -1.2251 LP             1 S1                 0.0000
     71 ****         7.1875  -2.2039   0.1847 LP             1 S1                 0.0000
     72 ****         3.2236  -0.4923   3.3655 LP             1 S1                 0.0000
     73 ****         3.2803  -2.0837   3.0040 LP             1 S1                 0.0000
@<TRIPOS>BOND
    1    1    2 1     
    2    1   31 1     
    3    1   32 1     
    4    1   33 1     
    5    2    3 1     
    6    2    4 1     
    7    2   34 1     
    8    3   35 1     
    9    3   36 1     
   10    3   37 1     
   11    4   25 1     
   12    4    5 1     
   13    4   38 1     
   14    5    6 1     
   15    5   24 1     
   16    6   11 ar    
   17    6    7 ar    
   18    7    8 ar    
   19    8    9 ar    
   20    8   39 1     
   21    9   10 ar    
   22   10   14 1     
   23   10   11 ar    
   24   11   12 1     
   25   12   13 2     
   26   13   14 1     
   27   13   40 1     
   28   14   15 1     
   29   15   16 1     
   30   15   41 1     
   31   15   42 1     
   32   16   17 1     
   33   16   19 1     
   34   16   43 1     
   35   17   18 1     
   36   17   44 1     
   37   17   45 1     
   38   18   46 1     
   39   19   23 1     
   40   19   20 1     
   41   19   47 1     
   42   20   21 1     
   43   20   48 1     
   44   20   49 1     
   45   21   22 1     
   46   21   50 1     
   47   21   51 1     
   48   22   23 1     
   49   23   52 1     
   50   23   53 1     
   51   24   25 1     
   52   24   54 1     
   53   24   55 1     
   54   25   30 1     
   55   25   26 1     
   56   26   27 1     
   57   26   56 1     
   58   26   57 1     
   59   27   28 1     
   60   27   58 1     
   61   27   59 1     
   62   28   29 1     
   63   28   60 1     
   64   28   61 1     
   65   29   30 1     
   66   29   62 1     
   67   29   63 1     
   68   30   64 1     
   69   30   65 1     
   70    5   66 1     
   71    7   67 1     
   72    9   68 1     
   73   12   69 1     
   74   18   70 1     
   75   18   71 1     
   76   22   72 1     
   77   22   73 1     
@<TRIPOS>SUBSTRUCTURE
      1 S1             1
@<TRIPOS>SET
LONE_PAIRS      STATIC     ATOMS    <user>   **** ""
8 66 67 68 69 70 71 72 73
DONOR_HYDROGENS      STATIC     ATOMS    <user>   **** ""
1 46
ATOM$BLUE        STATIC     ATOMS    COLORGROUP SYSTEM
8 66 67 68 69 70 71 72 73
ATOM$RED        STATIC     ATOMS    COLORGROUP SYSTEM
1 46
