AV-unprocessed.smi:2914|AV-procd|sdf|11186|dock3
  -GOLD-   2272016 73D 1   1.00000     0.00000
 Structure written by MMmdl.
 32 34  0  0  0  0  0  0  0  0  1 V2000
  150.4406  140.3851  155.6073 O   0  0  0  0  0  0  0  0  0  0  0  0
  149.9712  141.5010  155.8321 C   0  0  0  0  0  0  0  0  0  0  0  0
  150.3274  142.3057  156.8488 N   0  0  0  0  0  0  0  0  0  0  0  0
  151.2549  142.0914  157.8197 C   0  0  0  0  0  0  0  0  0  0  0  0
  151.6368  140.9117  158.3984 C   0  0  0  0  0  0  0  0  0  0  0  0
  152.6353  141.3311  159.3232 C   0  0  0  0  0  0  0  0  0  0  0  0
  152.8407  142.6419  159.3081 N   0  0  0  0  0  0  0  0  0  0  0  0
  151.9842  143.1194  158.3783 N   0  0  0  0  0  0  0  0  0  0  0  0
  151.9475  144.5427  158.0933 C   0  0  0  0  0  0  0  0  0  0  0  0
  151.5982  145.3513  159.3272 C   0  0  0  0  0  0  0  0  0  0  0  0
  151.8304  144.7885  160.7099 C   0  0  0  0  0  0  0  0  0  0  0  0
  150.4224  144.9716  160.1964 C   0  0  0  0  0  0  0  0  0  0  0  0
  149.0222  142.0715  155.0770 N   0  0  0  0  0  0  0  0  0  0  0  0
  148.4194  141.4870  153.9226 C   0  0  0  0  0  0  0  0  0  0  0  0
  146.9132  141.3393  153.9149 C   0  0  0  0  0  0  0  0  0  0  0  0
  147.7825  140.1230  154.0781 C   0  0  0  0  0  0  0  0  0  0  0  0
  149.8486  143.1927  156.9011 H   0  0  0  0  0  0  0  0  0  0  0  0
  151.2796  139.9112  158.2074 H   0  0  0  0  0  0  0  0  0  0  0  0
  153.2161  140.7245  160.0022 H   0  0  0  0  0  0  0  0  0  0  0  0
  152.9205  144.8576  157.7153 H   0  0  0  0  0  0  0  0  0  0  0  0
  151.2191  144.7332  157.3032 H   0  0  0  0  0  0  0  0  0  0  0  0
  151.7837  146.4181  159.2166 H   0  0  0  0  0  0  0  0  0  0  0  0
  152.2101  143.7714  160.7848 H   0  0  0  0  0  0  0  0  0  0  0  0
  152.1800  145.4746  161.4784 H   0  0  0  0  0  0  0  0  0  0  0  0
  149.8321  145.7798  160.6232 H   0  0  0  0  0  0  0  0  0  0  0  0
  149.8644  144.0747  159.9353 H   0  0  0  0  0  0  0  0  0  0  0  0
  148.6980  142.9909  155.3387 H   0  0  0  0  0  0  0  0  0  0  0  0
  148.8844  141.6893  152.9585 H   0  0  0  0  0  0  0  0  0  0  0  0
  146.3626  141.6839  154.7884 H   0  0  0  0  0  0  0  0  0  0  0  0
  146.4019  141.4664  152.9626 H   0  0  0  0  0  0  0  0  0  0  0  0
  147.8521  139.4384  153.2350 H   0  0  0  0  0  0  0  0  0  0  0  0
  147.8116  139.6554  155.0606 H   0  0  0  0  0  0  0  0  0  0  0  0
  1  2  2  0  0  0  0
  2  3  1  0  0  0  0
  2 13  1  0  0  0  0
  3  4  1  0  0  0  0
  3 17  1  0  0  0  0
  4  8  1  0  0  0  0
  4  5  2  0  0  0  0
  5  6  1  0  0  0  0
  5 18  1  0  0  0  0
  6  7  2  0  0  0  0
  6 19  1  0  0  0  0
  7  8  1  0  0  0  0
  8  9  1  0  0  0  0
  9 10  1  0  0  0  0
  9 20  1  0  0  0  0
  9 21  1  0  0  0  0
 10 12  1  0  0  0  0
 10 11  1  0  0  0  0
 10 22  1  0  0  0  0
 11 12  1  0  0  0  0
 11 23  1  0  0  0  0
 11 24  1  0  0  0  0
 12 25  1  0  0  0  0
 12 26  1  0  0  0  0
 13 14  1  0  0  0  0
 13 27  1  0  0  0  0
 14 16  1  0  0  0  0
 14 15  1  0  0  0  0
 14 28  1  0  0  0  0
 15 16  1  0  0  0  0
 15 29  1  0  0  0  0
 15 30  1  0  0  0  0
 16 31  1  0  0  0  0
 16 32  1  0  0  0  0
M  END
> <s_m_source_file>
AV-unprocessed.smi

> <i_m_source_file_index>
2914

> <i_lp_mmshare_version>
43012

> <i_f3d_flags>
0

> <s_epik_input>
W0NIMl0xW0NIMl1bQ0hdMVtOSF1DKD1PKVtOSF1jMltjSF1bY0hdbm4yW0NIMl1bQ0hdM1tDSDJdW0NIMl0z

> <s_epik_cmdline>
J2VwaWtfcHl0aG9uJywgJy1waCcsICc3LjAnLCAnLXRuJywgJzgnLCAnLW1hJywgJzIwMCcsICctbWV0YWxfYmluZGluZycsICctaW1hZScsICc8aW5maWxlLm1hZT4nLCAnLW9tYWUnLCAnPG91dGZpbGUubWFlPic=

> <r_lp_tautomer_probability>
1

> <r_epik_Ionization_Penalty>
4.83987e-05

> <r_epik_Ionization_Penalty_Charging>
0

> <r_epik_Ionization_Penalty_Neutral>
4.83987e-05

> <r_epik_State_Penalty>
-0

> <r_epik_Charging_Adjusted_Penalty>
0

> <i_epik_Tot_Q>
0

> <i_epik_Tot_abs_Q>
0

> <r_epik_Metal_State_Penalty>
-0

> <b_epik_Metal_Only>
0

> <s_lp_Force_Field>
OPLS_2005

> <r_lp_Energy>
29.2759

> <b_lp_Chiralities_Consistent>
1

> <s_lp_Variant>
AV-unprocessed.smi:2914-1

> <Gold.Version>
5.8.1

> <Gold.Id.Protein>
6NUR|6NUR_protein|mol2

> <Gold.PLP.Fitness>
45.3760

> <Gold.PLP.PLP>
-38.3996

> <Gold.PLP.part.hbond>
-3.0000

> <Gold.PLP.part.metal>
0.0000

> <Gold.PLP.part.buried>
-4.0461

> <Gold.PLP.part.nonpolar>
-30.7320

> <Gold.PLP.part.repulsive>
0.3397

> <Gold.PLP.ligand.clash>
0.0000

> <Gold.PLP.ligand.torsion>
0.5180

> <Gold.PLP.Chemscore.Hbond>
2.4721

> <Gold.PLP.Chemscore.CHOScore>
0.0000

> <Gold.PLP.Chemscore.Metal>
0.0000

> <Gold.Chemscore.Hbonds>
donor molecule, donor type, donor heavy atom, donor atom, acceptor molecule, acceptor atom, score
      L1  H     3    17       P1  8028  0.53
      L1  H    13    27       P1  8028  1.00

> <Gold.PLP.Chemscore.Internal.Correction>
0.5961

> <Gold.Rescore>
     Score         DG    S(hbond)    S(metal)    S(lipo)     H(rot)  DE(clash)    DE(int)     intcor
     14.95     -18.70       2.18        0.00      81.21       1.39       0.04       3.71       ----

> <Gold.Chemscore.Fitness>
14.9530

> <Gold.Chemscore.DG>
-18.7039

> <Gold.Chemscore.ZeroCoef>
-5.4800

> <Gold.Chemscore.Hbond>
2.1819

> <Gold.Chemscore.Metal>
0.0000

> <Gold.Chemscore.Lipo>
81.2150

> <Gold.Chemscore.Internal_Hbond>
0.0000

> <Gold.Chemscore.DEClash>
0.0396

> <Gold.Chemscore.DEInternal>
3.7113

> <Gold.Chemscore.Rot>
1.3929

> <Gold.Chemscore.Internal.Correction>
   9.000000E+99

> <Gold.Chemscore.Hbonds>
donor molecule, donor type, donor heavy atom, donor atom, acceptor molecule, acceptor atom, score
      L1  H     3    17       P1  8028  0.51
      L1  H    13    27       P1  8028  0.98
      P1  H  7989  7998       L1     1  0.01

> <Gold.Chemscore.Hbond.Weighted>
-7.2875

> <Gold.Chemscore.Metal.Weighted>
-0.0000

> <Gold.Chemscore.Lipo.Weighted>
-9.5022

> <Gold.Chemscore.Internal_Hbond.Weighted>
0.0000

> <Gold.Chemscore.DEClash.Weighted>
0.0396

> <Gold.Chemscore.DEInternal.Weighted>
3.7113

> <Gold.Chemscore.Rot.Weighted>
3.5657

> <Gold.Chemscore.Internal.Correction.Weighted>
   9.000000E+99

> <Gold.Protein.RotatedTorsions>
[ 6907 6896 6895 6894 ] final  -42.61 input  -60.11 | X-H torsion
[ 7974 7965 7964 7962 ] final  -77.40 input  175.53 | X-H torsion
[ 8008 7997 7996 7995 ] final   69.20 input   59.86 | X-H torsion
[ 10167 10162 10161 10158 ] final -108.47 input  -65.29 | X-H torsion
[ 10718 10713 10712 10709 ] final -137.60 input   66.30 | X-H torsion
[ 10763 10752 10751 10750 ] final   30.99 input  -60.55 | X-H torsion
[ 11005 11000 10999 10996 ] final  167.04 input  -57.11 | X-H torsion

> <Gold.Protein.ActiveResidues>
 VAL166  LYS551  ARG553  GLY616  TRP617  ASP618  TYR619  PRO620  LYS621  CYS622 
 ASP623  PHE694  ASN695  SER759  ASP760  ASP761  ALA762  ILE779  LEU786  VAL792 
 PHE793  MET794  SER795  GLU796  ALA797  LYS798  CYS799  TRP800  GLU811  SER814 

> <Gold.Protein.RotatedAtoms>
  150.9533  134.8930  159.7685 H   0  0  0  0  0  0  0  0  0  0  0  0  # atno 6907 bound_to 6896
  152.5128  134.3775  159.9349 H   0  0  0  0  0  0  0  0  0  0  0  0  # atno 6908 bound_to 6896
  151.3790  133.3787  159.2743 H   0  0  0  0  0  0  0  0  0  0  0  0  # atno 6909 bound_to 6896
  145.6002  140.9410  143.1245 H   0  0  0  0  0  0  0  0  0  0  0  0  # atno 7974 bound_to 7965
  155.7199  140.3493  155.5011 H   0  0  0  0  0  0  0  0  0  0  0  0  # atno 8008 bound_to 7997
  155.9279  140.1079  157.1177 H   0  0  0  0  0  0  0  0  0  0  0  0  # atno 8009 bound_to 7997
  154.4080  140.1237  156.4751 H   0  0  0  0  0  0  0  0  0  0  0  0  # atno 8010 bound_to 7997
  140.1658  143.4083  152.1392 H   0  0  0  0  0  0  0  0  0  0  0  0  # atno 10167 bound_to 10162
  156.2900  130.7369  151.1392 H   0  0  0  0  0  0  0  0  0  0  0  0  # atno 10718 bound_to 10713
  153.0340  135.6450  154.1130 H   0  0  0  0  0  0  0  0  0  0  0  0  # atno 10763 bound_to 10752
  154.0848  135.2870  155.3285 H   0  0  0  0  0  0  0  0  0  0  0  0  # atno 10764 bound_to 10752
  154.6505  135.5427  153.7960 H   0  0  0  0  0  0  0  0  0  0  0  0  # atno 10765 bound_to 10752
  140.2727  134.7814  157.3689 H   0  0  0  0  0  0  0  0  0  0  0  0  # atno 11005 bound_to 11000
  144.7313  139.7717  143.7346 LP  0  0  0  0  0  0  0  0  0  0  0  0  # atno 17320 bound_to 7965
  146.1582  139.4687  143.0005 LP  0  0  0  0  0  0  0  0  0  0  0  0  # atno 17321 bound_to 7965
  139.5360  144.7210  151.4891 LP  0  0  0  0  0  0  0  0  0  0  0  0  # atno 17342 bound_to 10162
  140.6614  143.8490  150.6892 LP  0  0  0  0  0  0  0  0  0  0  0  0  # atno 17343 bound_to 10162
  157.7339  131.0586  150.5550 LP  0  0  0  0  0  0  0  0  0  0  0  0  # atno 17370 bound_to 10713
  156.5665  130.4269  149.6039 LP  0  0  0  0  0  0  0  0  0  0  0  0  # atno 17371 bound_to 10713
  140.1358  134.5036  155.8069 LP  0  0  0  0  0  0  0  0  0  0  0  0  # atno 17394 bound_to 11000
  141.2175  133.6807  156.7122 LP  0  0  0  0  0  0  0  0  0  0  0  0  # atno 17395 bound_to 11000

$$$$
