AV-unprocessed.smi:301|AV-procd|sdf|2270|dock5
  -GOLD-   2262022163D 1   1.00000     0.00000
 Structure written by MMmdl.
 32 33  0  0  0  0  0  0  0  0  1 V2000
  146.1526  142.5507  158.5549 C   0  0  0  0  0  0  0  0  0  0  0  0
  146.2573  142.2344  157.1022 C   0  0  0  0  0  0  0  0  0  0  0  0
  147.4182  142.1324  156.4503 N   0  0  0  0  0  0  0  0  0  0  0  0
  147.2516  141.8375  155.0927 C   0  0  0  0  0  0  0  0  0  0  0  0
  148.4536  141.6884  154.2050 C   0  0  0  0  0  0  0  0  0  0  0  0
  149.6923  141.3183  155.0262 C   0  0  0  0  0  0  0  0  0  0  0  0
  150.3082  140.2788  154.7873 O   0  0  0  0  0  0  0  0  0  0  0  0
  150.0531  142.1817  155.9882 N   0  0  0  0  0  0  0  0  0  0  0  0
  151.2082  142.0251  156.8647 C   0  0  0  0  0  0  0  0  0  0  0  0
  151.2283  143.0926  157.9714 C   0  0  2  0  0  0  0  0  0  0  0  0
  151.8781  144.4060  157.5493 C   0  0  0  0  0  0  0  0  0  0  0  0
  152.2097  145.0271  158.8892 C   0  0  0  0  0  0  0  0  0  0  0  0
  152.5313  143.8117  159.7619 C   0  0  0  0  0  0  0  0  0  0  0  0
  152.0323  142.6713  159.0660 O   0  0  0  0  0  0  0  0  0  0  0  0
  145.9341  141.7050  154.7276 C   0  0  0  0  0  0  0  0  0  0  0  0
  144.8570  141.9607  156.0730 S   0  0  0  0  0  0  0  0  0  0  0  0
  147.1312  142.4930  159.0326 H   0  0  0  0  0  0  0  0  0  0  0  0
  145.4838  141.8423  159.0439 H   0  0  0  0  0  0  0  0  0  0  0  0
  145.7565  143.5575  158.6882 H   0  0  0  0  0  0  0  0  0  0  0  0
  148.2906  140.9114  153.4572 H   0  0  0  0  0  0  0  0  0  0  0  0
  148.6314  142.6124  153.6527 H   0  0  0  0  0  0  0  0  0  0  0  0
  149.4971  143.0155  156.1122 H   0  0  0  0  0  0  0  0  0  0  0  0
  151.1749  141.0281  157.3051 H   0  0  0  0  0  0  0  0  0  0  0  0
  152.1261  142.0731  156.2766 H   0  0  0  0  0  0  0  0  0  0  0  0
  150.2190  143.2923  158.3362 H   0  0  0  0  0  0  0  0  0  0  0  0
  152.7940  144.2180  156.9868 H   0  0  0  0  0  0  0  0  0  0  0  0
  151.2226  145.0291  156.9403 H   0  0  0  0  0  0  0  0  0  0  0  0
  153.0315  145.7418  158.8353 H   0  0  0  0  0  0  0  0  0  0  0  0
  151.3347  145.5466  159.2826 H   0  0  0  0  0  0  0  0  0  0  0  0
  153.6064  143.6982  159.9029 H   0  0  0  0  0  0  0  0  0  0  0  0
  152.0683  143.8956  160.7456 H   0  0  0  0  0  0  0  0  0  0  0  0
  145.5336  141.4779  153.7508 H   0  0  0  0  0  0  0  0  0  0  0  0
  1  2  1  0  0  0  0
  1 17  1  0  0  0  0
  1 18  1  0  0  0  0
  1 19  1  0  0  0  0
  2 16  1  0  0  0  0
  2  3  2  0  0  0  0
  3  4  1  0  0  0  0
  4  5  1  0  0  0  0
  4 15  2  0  0  0  0
  5  6  1  0  0  0  0
  5 20  1  0  0  0  0
  5 21  1  0  0  0  0
  6  7  2  0  0  0  0
  6  8  1  0  0  0  0
  8  9  1  0  0  0  0
  8 22  1  0  0  0  0
  9 10  1  0  0  0  0
  9 23  1  0  0  0  0
  9 24  1  0  0  0  0
 10 14  1  0  0  0  0
 10 11  1  0  0  0  0
 10 25  1  0  0  0  0
 11 12  1  0  0  0  0
 11 26  1  0  0  0  0
 11 27  1  0  0  0  0
 12 13  1  0  0  0  0
 12 28  1  0  0  0  0
 12 29  1  0  0  0  0
 13 14  1  0  0  0  0
 13 30  1  0  0  0  0
 13 31  1  0  0  0  0
 15 16  1  0  0  0  0
 15 32  1  0  0  0  0
M  END
> <s_m_source_file>
AV-unprocessed.smi

> <i_m_source_file_index>
301

> <i_lp_mmshare_version>
43012

> <i_f3d_flags>
0

> <s_epik_input>
W0NIM11jMW5jKFtjSF1zMSlbQ0gyXUMoPU8pW05IXVtDSDJdW0NAQEhdMltDSDJdW0NIMl1bQ0gyXU8y

> <s_epik_cmdline>
J2VwaWtfcHl0aG9uJywgJy1waCcsICc3LjAnLCAnLXRuJywgJzgnLCAnLW1hJywgJzIwMCcsICctbWV0YWxfYmluZGluZycsICctaW1hZScsICc8aW5maWxlLm1hZT4nLCAnLW9tYWUnLCAnPG91dGZpbGUubWFlPic=

> <r_lp_tautomer_probability>
1

> <r_epik_Ionization_Penalty>
6.06873e-05

> <r_epik_Ionization_Penalty_Charging>
0

> <r_epik_Ionization_Penalty_Neutral>
6.06873e-05

> <r_epik_State_Penalty>
-0

> <r_epik_Charging_Adjusted_Penalty>
0

> <i_epik_Tot_Q>
0

> <i_epik_Tot_abs_Q>
0

> <r_epik_Metal_State_Penalty>
-0

> <b_epik_Metal_Only>
0

> <s_lp_Force_Field>
OPLS_2005

> <r_lp_Energy>
15.97

> <b_lp_Chiralities_Consistent>
1

> <s_lp_Variant>
AV-unprocessed.smi:301-1

> <Gold.Version>
5.8.1

> <Gold.Id.Protein>
6NUR|6NUR_protein|mol2

> <Gold.PLP.Fitness>
42.0381

> <Gold.PLP.PLP>
-34.2536

> <Gold.PLP.part.hbond>
-2.0000

> <Gold.PLP.part.metal>
0.0000

> <Gold.PLP.part.buried>
-4.5416

> <Gold.PLP.part.nonpolar>
-28.1979

> <Gold.PLP.part.repulsive>
0.8323

> <Gold.PLP.ligand.clash>
0.0000

> <Gold.PLP.ligand.torsion>
0.6110

> <Gold.PLP.Chemscore.Hbond>
2.0000

> <Gold.PLP.Chemscore.CHOScore>
0.9979

> <Gold.PLP.Chemscore.Metal>
0.0000

> <Gold.Chemscore.Hbonds>
donor molecule, donor type, donor heavy atom, donor atom, acceptor molecule, acceptor atom, score
      L1  H     8    22       P1  8028  1.00
      P1  H  7989  7998       L1     7  1.00
      L1  C    15    32       P1 10175  1.00

> <Gold.PLP.Chemscore.Internal.Correction>
0.0128

> <Gold.Rescore>
     Score         DG    S(hbond)    S(metal)    S(lipo)     H(rot)  DE(clash)    DE(int)     intcor
     15.87     -16.68       1.71        0.00      79.94       1.51       0.36       0.45       ----

> <Gold.Chemscore.Fitness>
15.8681

> <Gold.Chemscore.DG>
-16.6800

> <Gold.Chemscore.ZeroCoef>
-5.4800

> <Gold.Chemscore.Hbond>
1.7109

> <Gold.Chemscore.Metal>
0.0000

> <Gold.Chemscore.Lipo>
79.9367

> <Gold.Chemscore.Internal_Hbond>
0.0000

> <Gold.Chemscore.DEClash>
0.3572

> <Gold.Chemscore.DEInternal>
0.4546

> <Gold.Chemscore.Rot>
1.5106

> <Gold.Chemscore.Internal.Correction>
   9.000000E+99

> <Gold.Chemscore.Hbonds>
donor molecule, donor type, donor heavy atom, donor atom, acceptor molecule, acceptor atom, score
      L1  H     8    22       P1  8028  0.98
      P1  H  7989  7998       L1     7  0.34

> <Gold.Chemscore.Hbond.Weighted>
-5.7144

> <Gold.Chemscore.Metal.Weighted>
-0.0000

> <Gold.Chemscore.Lipo.Weighted>
-9.3526

> <Gold.Chemscore.Internal_Hbond.Weighted>
0.0000

> <Gold.Chemscore.DEClash.Weighted>
0.3572

> <Gold.Chemscore.DEInternal.Weighted>
0.4546

> <Gold.Chemscore.Rot.Weighted>
3.8670

> <Gold.Chemscore.Internal.Correction.Weighted>
   9.000000E+99

> <Gold.Protein.RotatedTorsions>
[ 6907 6896 6895 6894 ] final   70.70 input  -60.11 | X-H torsion
[ 7974 7965 7964 7962 ] final  145.49 input  175.53 | X-H torsion
[ 8008 7997 7996 7995 ] final  134.74 input   59.86 | X-H torsion
[ 10167 10162 10161 10158 ] final  135.94 input  -65.29 | X-H torsion
[ 10718 10713 10712 10709 ] final  151.54 input   66.30 | X-H torsion
[ 10763 10752 10751 10750 ] final  -19.78 input  -60.55 | X-H torsion
[ 11005 11000 10999 10996 ] final  -38.78 input  -57.11 | X-H torsion

> <Gold.Protein.ActiveResidues>
 VAL166  LYS551  ARG553  GLY616  TRP617  ASP618  TYR619  PRO620  LYS621  CYS622 
 ASP623  PHE694  ASN695  SER759  ASP760  ASP761  ALA762  ILE779  LEU786  VAL792 
 PHE793  MET794  SER795  GLU796  ALA797  LYS798  CYS799  TRP800  GLU811  SER814 

> <Gold.Protein.RotatedAtoms>
  152.4765  134.4830  159.9671 H   0  0  0  0  0  0  0  0  0  0  0  0  # atno 6907 bound_to 6896
  151.4845  133.3533  159.2851 H   0  0  0  0  0  0  0  0  0  0  0  0  # atno 6908 bound_to 6896
  150.8808  134.8225  159.7284 H   0  0  0  0  0  0  0  0  0  0  0  0  # atno 6909 bound_to 6896
  144.8748  139.5789  143.5870 H   0  0  0  0  0  0  0  0  0  0  0  0  # atno 7974 bound_to 7965
  156.3000  140.2488  156.3466 H   0  0  0  0  0  0  0  0  0  0  0  0  # atno 8008 bound_to 7997
  154.9005  140.0406  157.1909 H   0  0  0  0  0  0  0  0  0  0  0  0  # atno 8009 bound_to 7997
  154.8506  140.2905  155.5605 H   0  0  0  0  0  0  0  0  0  0  0  0  # atno 8010 bound_to 7997
  139.5198  144.6490  151.5356 H   0  0  0  0  0  0  0  0  0  0  0  0  # atno 10167 bound_to 10162
  157.2694  131.0814  151.1610 H   0  0  0  0  0  0  0  0  0  0  0  0  # atno 10718 bound_to 10713
  153.6102  135.6996  153.5350 H   0  0  0  0  0  0  0  0  0  0  0  0  # atno 10763 bound_to 10752
  153.3023  135.4125  155.1263 H   0  0  0  0  0  0  0  0  0  0  0  0  # atno 10764 bound_to 10752
  154.8565  135.3652  154.5640 H   0  0  0  0  0  0  0  0  0  0  0  0  # atno 10765 bound_to 10752
  141.0053  133.6935  156.2099 H   0  0  0  0  0  0  0  0  0  0  0  0  # atno 11005 bound_to 11000
  146.2955  139.7266  142.9129 LP  0  0  0  0  0  0  0  0  0  0  0  0  # atno 17320 bound_to 7965
  145.4062  141.0391  143.3042 LP  0  0  0  0  0  0  0  0  0  0  0  0  # atno 17321 bound_to 7965
  140.6288  143.9117  150.6587 LP  0  0  0  0  0  0  0  0  0  0  0  0  # atno 17342 bound_to 10162
  140.2414  143.3660  152.1483 LP  0  0  0  0  0  0  0  0  0  0  0  0  # atno 17343 bound_to 10162
  157.3088  130.6879  149.6204 LP  0  0  0  0  0  0  0  0  0  0  0  0  # atno 17370 bound_to 10713
  155.9663  130.4370  150.5156 LP  0  0  0  0  0  0  0  0  0  0  0  0  # atno 17371 bound_to 10713
  140.6822  134.4754  157.5589 LP  0  0  0  0  0  0  0  0  0  0  0  0  # atno 17394 bound_to 11000
  139.9060  134.8448  156.1705 LP  0  0  0  0  0  0  0  0  0  0  0  0  # atno 17395 bound_to 11000

$$$$
