AV-unprocessed.smi:21|AV-procd|sdf|164|dock6
  -GOLD-   2262015403D 1   1.00000     0.00000
 Structure written by MMmdl.
 61 64  0  0  0  0  0  0  0  0  1 V2000
  146.4350  134.2804  151.3200 C   0  0  0  0  0  0  0  0  0  0  0  0
  147.0985  133.0772  151.6739 O   0  0  0  0  0  0  0  0  0  0  0  0
  147.1385  132.8436  153.0754 C   0  0  2  0  0  0  0  0  0  0  0  0
  147.9578  133.9204  153.8084 C   0  0  0  0  0  0  0  0  0  0  0  0
  149.0142  133.1336  154.5991 C   0  0  2  0  0  0  0  0  0  0  0  0
  150.2942  133.9475  154.9015 C   0  0  0  0  0  0  0  0  0  0  0  0
  150.0975  134.9916  155.9085 N   0  0  0  0  0  0  0  0  0  0  0  0
  148.9110  134.8864  156.7544 C   0  0  0  0  0  0  0  0  0  0  0  0
  150.6182  136.2300  155.6833 C   0  0  0  0  0  0  0  0  0  0  0  0
  151.1098  136.5212  154.4481 N   0  0  0  0  0  0  0  0  0  0  0  0
  151.6621  137.7103  154.1951 C   0  0  0  0  0  0  0  0  0  0  0  0
  151.8235  138.7458  155.0190 N   0  0  0  0  0  0  0  0  0  0  0  0
  151.3203  138.4733  156.2562 C   0  0  0  0  0  0  0  0  0  0  0  0
  150.7011  137.2580  156.6699 C   0  0  0  0  0  0  0  0  0  0  0  0
  150.3013  137.3713  157.9973 N   0  0  0  0  0  0  0  0  0  0  0  0
  150.6781  138.5686  158.3513 C   0  0  0  0  0  0  0  0  0  0  0  0
  151.2944  139.3015  157.3646 N   0  0  0  0  0  0  0  0  0  0  0  0
  151.8128  140.6533  157.4882 C   0  0  0  0  0  0  0  0  0  0  0  0
  150.7091  141.7155  157.7201 C   0  0  2  0  0  0  0  0  0  0  0  0
  149.7520  141.7989  156.5035 C   0  0  0  0  0  0  0  0  0  0  0  0
  148.5063  142.3630  156.8545 O   0  0  0  0  0  0  0  0  0  0  0  0
  151.3503  143.0886  158.0629 C   0  0  1  0  0  0  0  0  0  0  0  0
  150.4069  144.1369  158.6281 C   0  0  0  0  0  0  0  0  0  0  0  0
  151.3693  145.1286  159.2701 C   0  0  0  0  0  0  0  0  0  0  0  0
  152.4568  144.3469  159.7471 O   0  0  0  0  0  0  0  0  0  0  0  0
  152.4025  143.0423  159.1789 C   0  0  0  0  0  0  0  0  0  0  0  0
  149.2383  131.9428  153.7948 N   0  0  0  0  0  0  0  0  0  0  0  0
  149.9197  130.8674  154.5036 C   0  0  0  0  0  0  0  0  0  0  0  0
  147.9116  131.5505  153.3566 C   0  0  0  0  0  0  0  0  0  0  0  0
  146.1286  132.7577  153.4801 H   0  0  0  0  0  0  0  0  0  0  0  0
  148.5627  132.8255  155.5439 H   0  0  0  0  0  0  0  0  0  0  0  0
  146.4355  134.3911  150.2357 H   0  0  0  0  0  0  0  0  0  0  0  0
  146.9290  135.1548  151.7451 H   0  0  0  0  0  0  0  0  0  0  0  0
  145.3971  134.2702  151.6547 H   0  0  0  0  0  0  0  0  0  0  0  0
  148.4455  134.5752  153.0851 H   0  0  0  0  0  0  0  0  0  0  0  0
  147.3352  134.5414  154.4530 H   0  0  0  0  0  0  0  0  0  0  0  0
  151.0633  133.2815  155.2911 H   0  0  0  0  0  0  0  0  0  0  0  0
  150.7136  134.3420  153.9792 H   0  0  0  0  0  0  0  0  0  0  0  0
  149.0543  135.4233  157.6930 H   0  0  0  0  0  0  0  0  0  0  0  0
  148.7035  133.8445  156.9994 H   0  0  0  0  0  0  0  0  0  0  0  0
  148.0353  135.2956  156.2490 H   0  0  0  0  0  0  0  0  0  0  0  0
  152.0309  137.8496  153.1895 H   0  0  0  0  0  0  0  0  0  0  0  0
  150.5124  138.9539  159.3469 H   0  0  0  0  0  0  0  0  0  0  0  0
  152.5237  140.6444  158.3139 H   0  0  0  0  0  0  0  0  0  0  0  0
  152.3863  140.8955  156.5927 H   0  0  0  0  0  0  0  0  0  0  0  0
  150.1262  141.3882  158.5826 H   0  0  0  0  0  0  0  0  0  0  0  0
  150.2019  142.3764  155.6955 H   0  0  0  0  0  0  0  0  0  0  0  0
  149.5316  140.8129  156.0971 H   0  0  0  0  0  0  0  0  0  0  0  0
  148.3826  143.1542  156.3527 H   0  0  0  0  0  0  0  0  0  0  0  0
  151.8178  143.4998  157.1665 H   0  0  0  0  0  0  0  0  0  0  0  0
  149.7790  144.6062  157.8706 H   0  0  0  0  0  0  0  0  0  0  0  0
  149.7596  143.6982  159.3889 H   0  0  0  0  0  0  0  0  0  0  0  0
  151.7460  145.8300  158.5247 H   0  0  0  0  0  0  0  0  0  0  0  0
  150.9057  145.7018  160.0730 H   0  0  0  0  0  0  0  0  0  0  0  0
  152.1058  142.3436  159.9622 H   0  0  0  0  0  0  0  0  0  0  0  0
  153.3842  142.7409  158.8133 H   0  0  0  0  0  0  0  0  0  0  0  0
  150.0037  129.9852  153.8684 H   0  0  0  0  0  0  0  0  0  0  0  0
  149.3788  130.5834  155.4073 H   0  0  0  0  0  0  0  0  0  0  0  0
  150.9292  131.1617  154.7887 H   0  0  0  0  0  0  0  0  0  0  0  0
  147.4048  131.0071  154.1562 H   0  0  0  0  0  0  0  0  0  0  0  0
  147.9548  130.8892  152.4903 H   0  0  0  0  0  0  0  0  0  0  0  0
  1  2  1  0  0  0  0
  1 32  1  0  0  0  0
  1 33  1  0  0  0  0
  1 34  1  0  0  0  0
  2  3  1  0  0  0  0
  3 30  1  0  0  0  0
  3 29  1  0  0  0  0
  3  4  1  0  0  0  0
  4  5  1  0  0  0  0
  4 35  1  0  0  0  0
  4 36  1  0  0  0  0
  5 31  1  0  0  0  0
  5  6  1  0  0  0  0
  5 27  1  0  0  0  0
  6  7  1  0  0  0  0
  6 37  1  0  0  0  0
  6 38  1  0  0  0  0
  7  8  1  0  0  0  0
  7  9  1  0  0  0  0
  8 39  1  0  0  0  0
  8 40  1  0  0  0  0
  8 41  1  0  0  0  0
  9 14  1  0  0  0  0
  9 10  2  0  0  0  0
 10 11  1  0  0  0  0
 11 12  2  0  0  0  0
 11 42  1  0  0  0  0
 12 13  1  0  0  0  0
 13 17  1  0  0  0  0
 13 14  2  0  0  0  0
 14 15  1  0  0  0  0
 15 16  2  0  0  0  0
 16 17  1  0  0  0  0
 16 43  1  0  0  0  0
 17 18  1  0  0  0  0
 18 19  1  0  0  0  0
 18 44  1  0  0  0  0
 18 45  1  0  0  0  0
 19 20  1  0  0  0  0
 19 22  1  0  0  0  0
 19 46  1  0  0  0  0
 20 21  1  0  0  0  0
 20 47  1  0  0  0  0
 20 48  1  0  0  0  0
 21 49  1  0  0  0  0
 22 26  1  0  0  0  0
 22 23  1  0  0  0  0
 22 50  1  0  0  0  0
 23 24  1  0  0  0  0
 23 51  1  0  0  0  0
 23 52  1  0  0  0  0
 24 25  1  0  0  0  0
 24 53  1  0  0  0  0
 24 54  1  0  0  0  0
 25 26  1  0  0  0  0
 26 55  1  0  0  0  0
 26 56  1  0  0  0  0
 27 28  1  0  0  0  0
 27 29  1  0  0  0  0
 28 57  1  0  0  0  0
 28 58  1  0  0  0  0
 28 59  1  0  0  0  0
 29 60  1  0  0  0  0
 29 61  1  0  0  0  0
M  END
> <s_m_source_file>
AV-unprocessed.smi

> <i_m_source_file_index>
21

> <i_lp_mmshare_version>
43012

> <i_f3d_flags>
0

> <s_epik_input>
W0NIM11PW0NASF0xW0NIMl1bQ0BIXShOKFtDSDNdKVtDSDJdMSlbQ0gyXU4oW0NIM10pYyhuW2NIXW4yKWMoYzIzKW5bY0hdbjNbQ0gyXVtDQEhdKFtDSDJdW09IXSlbQ0BASF00W0NIMl1bQ0gyXU9bQ0gyXTQ=

> <s_epik_cmdline>
J2VwaWtfcHl0aG9uJywgJy1waCcsICc3LjAnLCAnLXRuJywgJzgnLCAnLW1hJywgJzIwMCcsICctbWV0YWxfYmluZGluZycsICctaW1hZScsICc8aW5maWxlLm1hZT4nLCAnLW9tYWUnLCAnPG91dGZpbGUubWFlPic=

> <r_lp_tautomer_probability>
1

> <r_epik_Ionization_Penalty>
2.17574

> <r_epik_Ionization_Penalty_Charging>
0

> <r_epik_Ionization_Penalty_Neutral>
2.17574

> <r_epik_State_Penalty>
2.31336

> <r_epik_Charging_Adjusted_Penalty>
2.31336

> <i_epik_Tot_Q>
0

> <i_epik_Tot_abs_Q>
0

> <r_epik_Metal_State_Penalty>
2.31025

> <b_epik_Metal_Only>
0

> <s_lp_Force_Field>
OPLS_2005

> <r_lp_Energy>
70.4108

> <b_lp_Chiralities_Consistent>
1

> <s_lp_Variant>
AV-unprocessed.smi:21-44

> <Gold.Version>
5.8.1

> <Gold.Id.Protein>
6NUR|6NUR_protein|mol2

> <Gold.PLP.Fitness>
49.5192

> <Gold.PLP.PLP>
-43.6022

> <Gold.PLP.part.hbond>
-2.0000

> <Gold.PLP.part.metal>
0.0000

> <Gold.PLP.part.buried>
-8.2595

> <Gold.PLP.part.nonpolar>
-34.9284

> <Gold.PLP.part.repulsive>
1.4160

> <Gold.PLP.ligand.clash>
0.0000

> <Gold.PLP.ligand.torsion>
0.9388

> <Gold.PLP.Chemscore.Hbond>
1.7000

> <Gold.PLP.Chemscore.CHOScore>
0.5922

> <Gold.PLP.Chemscore.Metal>
0.0000

> <Gold.Chemscore.Hbonds>
donor molecule, donor type, donor heavy atom, donor atom, acceptor molecule, acceptor atom, score
      L1  H    21    49       P1  8028  1.00
      P1  H 10752 10764       L1    10  0.55
      L1  C    11    42       P1  7949  0.46

> <Gold.PLP.Chemscore.Internal.Correction>
0.9180

> <Gold.Rescore>
     Score         DG    S(hbond)    S(metal)    S(lipo)     H(rot)  DE(clash)    DE(int)     intcor
     11.98     -13.05       0.93        0.00     103.84       3.00       0.13       0.94       ----

> <Gold.Chemscore.Fitness>
11.9805

> <Gold.Chemscore.DG>
-13.0528

> <Gold.Chemscore.ZeroCoef>
-5.4800

> <Gold.Chemscore.Hbond>
0.9315

> <Gold.Chemscore.Metal>
0.0000

> <Gold.Chemscore.Lipo>
103.8410

> <Gold.Chemscore.Internal_Hbond>
0.0000

> <Gold.Chemscore.DEClash>
0.1321

> <Gold.Chemscore.DEInternal>
0.9402

> <Gold.Chemscore.Rot>
3.0031

> <Gold.Chemscore.Internal.Correction>
   9.000000E+99

> <Gold.Chemscore.Hbonds>
donor molecule, donor type, donor heavy atom, donor atom, acceptor molecule, acceptor atom, score
      L1  H    21    49       P1  8028  0.69
      P1  H 10752 10764       L1    10  0.01

> <Gold.Chemscore.Hbond.Weighted>
-3.1114

> <Gold.Chemscore.Metal.Weighted>
-0.0000

> <Gold.Chemscore.Lipo.Weighted>
-12.1494

> <Gold.Chemscore.Internal_Hbond.Weighted>
0.0000

> <Gold.Chemscore.DEClash.Weighted>
0.1321

> <Gold.Chemscore.DEInternal.Weighted>
0.9402

> <Gold.Chemscore.Rot.Weighted>
7.6880

> <Gold.Chemscore.Internal.Correction.Weighted>
   9.000000E+99

> <Gold.Protein.RotatedTorsions>
[ 6907 6896 6895 6894 ] final -146.00 input  -60.11 | X-H torsion
[ 7974 7965 7964 7962 ] final  147.86 input  175.53 | X-H torsion
[ 8008 7997 7996 7995 ] final  -22.84 input   59.86 | X-H torsion
[ 10167 10162 10161 10158 ] final  -57.87 input  -65.29 | X-H torsion
[ 10718 10713 10712 10709 ] final -133.42 input   66.30 | X-H torsion
[ 10763 10752 10751 10750 ] final  -70.12 input  -60.55 | X-H torsion
[ 11005 11000 10999 10996 ] final   28.03 input  -57.11 | X-H torsion

> <Gold.Protein.ActiveResidues>
 VAL166  LYS551  ARG553  GLY616  TRP617  ASP618  TYR619  PRO620  LYS621  CYS622 
 ASP623  PHE694  ASN695  SER759  ASP760  ASP761  ALA762  ILE779  LEU786  VAL792 
 PHE793  MET794  SER795  GLU796  ALA797  LYS798  CYS799  TRP800  GLU811  SER814 

> <Gold.Protein.RotatedAtoms>
  151.1355  133.5007  159.2597 H   0  0  0  0  0  0  0  0  0  0  0  0  # atno 6907 bound_to 6896
  151.1711  135.0318  159.8762 H   0  0  0  0  0  0  0  0  0  0  0  0  # atno 6908 bound_to 6896
  152.5461  134.1218  159.8455 H   0  0  0  0  0  0  0  0  0  0  0  0  # atno 6909 bound_to 6896
  144.8558  139.6082  143.5953 H   0  0  0  0  0  0  0  0  0  0  0  0  # atno 7974 bound_to 7965
  154.4620  140.1997  156.0218 H   0  0  0  0  0  0  0  0  0  0  0  0  # atno 8008 bound_to 7997
  156.0858  140.3265  155.7723 H   0  0  0  0  0  0  0  0  0  0  0  0  # atno 8009 bound_to 7997
  155.5037  140.0556  157.2925 H   0  0  0  0  0  0  0  0  0  0  0  0  # atno 8010 bound_to 7997
  140.6232  143.2428  151.5429 H   0  0  0  0  0  0  0  0  0  0  0  0  # atno 10167 bound_to 10162
  156.2448  130.7117  151.0993 H   0  0  0  0  0  0  0  0  0  0  0  0  # atno 10718 bound_to 10713
  154.4131  135.6004  153.5964 H   0  0  0  0  0  0  0  0  0  0  0  0  # atno 10763 bound_to 10752
  152.9791  135.5934  154.4046 H   0  0  0  0  0  0  0  0  0  0  0  0  # atno 10764 bound_to 10752
  154.3861  135.2841  155.2161 H   0  0  0  0  0  0  0  0  0  0  0  0  # atno 10765 bound_to 10752
  140.3199  134.2554  155.7719 H   0  0  0  0  0  0  0  0  0  0  0  0  # atno 11005 bound_to 11000
  146.2822  139.6907  142.9221 LP  0  0  0  0  0  0  0  0  0  0  0  0  # atno 17320 bound_to 7965
  145.4409  141.0422  143.2858 LP  0  0  0  0  0  0  0  0  0  0  0  0  # atno 17321 bound_to 7965
  139.5457  144.2528  152.1437 LP  0  0  0  0  0  0  0  0  0  0  0  0  # atno 17342 bound_to 10162
  140.1753  144.4896  150.6557 LP  0  0  0  0  0  0  0  0  0  0  0  0  # atno 17343 bound_to 10162
  157.7190  131.0693  150.6212 LP  0  0  0  0  0  0  0  0  0  0  0  0  # atno 17370 bound_to 10713
  156.6288  130.4426  149.5794 LP  0  0  0  0  0  0  0  0  0  0  0  0  # atno 17371 bound_to 10713
  141.2089  133.7765  157.0031 LP  0  0  0  0  0  0  0  0  0  0  0  0  # atno 17394 bound_to 11000
  140.0950  134.9569  157.1836 LP  0  0  0  0  0  0  0  0  0  0  0  0  # atno 17395 bound_to 11000

$$$$
