AV-unprocessed.smi:806|AV-procd|sdf|3800|dock3
  -GOLD-   22720 1233D 1   1.00000     0.00000
 Structure written by MMmdl.
 45 46  0  0  0  0  0  0  0  0  2 V2000
  147.0866  140.5166  152.9098 C   0  0  0  0  0  0  0  0  0  0  0  0
  147.5199  139.4520  153.8352 N   0  0  0  0  0  0  0  0  0  0  0  0
  147.0615  138.1719  153.7176 C   0  0  0  0  0  0  0  0  0  0  0  0
  147.4299  137.2691  154.4709 O   0  0  0  0  0  0  0  0  0  0  0  0
  146.0434  137.8129  152.6167 C   0  0  0  0  0  0  0  0  0  0  0  0
  146.6771  137.3601  151.3587 N   0  3  0  0  0  0  0  0  0  0  0  0
  145.7924  136.5951  150.4530 C   0  0  0  0  0  0  0  0  0  0  0  0
  145.0036  135.5236  151.2229 C   0  0  0  0  0  0  0  0  0  0  0  0
  145.1296  134.2104  150.6155 N   0  0  0  0  0  0  0  0  0  0  0  0
  144.1301  133.3683  150.1748 C   0  0  0  0  0  0  0  0  0  0  0  0
  144.7320  132.2427  149.6901 C   0  0  0  0  0  0  0  0  0  0  0  0
  146.1203  132.4968  149.8700 C   0  0  0  0  0  0  0  0  0  0  0  0
  146.3546  133.6768  150.4211 N   0  0  0  0  0  0  0  0  0  0  0  0
  148.5088  139.8298  154.8966 C   0  0  0  0  0  0  0  0  0  0  0  0
  147.9257  139.6325  156.2431 C   0  0  0  0  0  0  0  0  0  0  0  0
  147.4695  139.4797  157.2961 N   0  0  0  0  0  0  0  0  0  0  0  0
  149.7878  138.9602  154.7316 C   0  0  0  0  0  0  0  0  0  0  0  0
  150.8778  139.2895  155.7676 C   0  0  0  0  0  0  0  0  0  0  0  0
  151.2639  140.7734  155.7192 C   0  0  0  0  0  0  0  0  0  0  0  0
  150.0305  141.6713  155.8803 C   0  0  0  0  0  0  0  0  0  0  0  0
  148.9580  141.3233  154.8319 C   0  0  0  0  0  0  0  0  0  0  0  0
  146.3896  140.2200  152.1298 H   0  0  0  0  0  0  0  0  0  0  0  0
  147.9485  140.9306  152.3866 H   0  0  0  0  0  0  0  0  0  0  0  0
  146.5892  141.3203  153.4522 H   0  0  0  0  0  0  0  0  0  0  0  0
  145.4264  136.9887  152.9756 H   0  0  0  0  0  0  0  0  0  0  0  0
  145.3853  138.6570  152.4059 H   0  0  0  0  0  0  0  0  0  0  0  0
  147.0120  138.1783  150.8693 H   0  0  0  0  0  0  0  0  0  0  0  0
  145.1037  137.2854  149.9652 H   0  0  0  0  0  0  0  0  0  0  0  0
  146.3774  136.1263  149.6607 H   0  0  0  0  0  0  0  0  0  0  0  0
  145.3450  135.4686  152.2573 H   0  0  0  0  0  0  0  0  0  0  0  0
  143.9452  135.7860  151.2542 H   0  0  0  0  0  0  0  0  0  0  0  0
  143.0853  133.6331  150.2465 H   0  0  0  0  0  0  0  0  0  0  0  0
  144.2540  131.3708  149.2685 H   0  0  0  0  0  0  0  0  0  0  0  0
  146.9587  131.8644  149.6180 H   0  0  0  0  0  0  0  0  0  0  0  0
  149.5558  137.8989  154.8126 H   0  0  0  0  0  0  0  0  0  0  0  0
  150.1952  139.1009  153.7293 H   0  0  0  0  0  0  0  0  0  0  0  0
  150.5295  139.0322  156.7684 H   0  0  0  0  0  0  0  0  0  0  0  0
  151.7590  138.6740  155.5842 H   0  0  0  0  0  0  0  0  0  0  0  0
  151.9921  140.9953  156.5000 H   0  0  0  0  0  0  0  0  0  0  0  0
  151.7530  140.9921  154.7691 H   0  0  0  0  0  0  0  0  0  0  0  0
  149.6261  141.5669  156.8877 H   0  0  0  0  0  0  0  0  0  0  0  0
  150.3214  142.7170  155.7772 H   0  0  0  0  0  0  0  0  0  0  0  0
  149.3774  141.5679  153.8563 H   0  0  0  0  0  0  0  0  0  0  0  0
  148.1014  141.9817  154.9817 H   0  0  0  0  0  0  0  0  0  0  0  0
  147.4670  136.7743  151.5879 H   0  0  0  0  0  0  0  0  0  0  0  0
  1  2  1  0  0  0  0
  1 22  1  0  0  0  0
  1 23  1  0  0  0  0
  1 24  1  0  0  0  0
  2  3  1  0  0  0  0
  2 14  1  0  0  0  0
  3  4  2  0  0  0  0
  3  5  1  0  0  0  0
  5  6  1  0  0  0  0
  5 25  1  0  0  0  0
  5 26  1  0  0  0  0
  6  7  1  0  0  0  0
  6 27  1  0  0  0  0
  6 45  1  0  0  0  0
  7  8  1  0  0  0  0
  7 28  1  0  0  0  0
  7 29  1  0  0  0  0
  8  9  1  0  0  0  0
  8 30  1  0  0  0  0
  8 31  1  0  0  0  0
  9 13  1  0  0  0  0
  9 10  1  0  0  0  0
 10 11  2  0  0  0  0
 10 32  1  0  0  0  0
 11 12  1  0  0  0  0
 11 33  1  0  0  0  0
 12 13  2  0  0  0  0
 12 34  1  0  0  0  0
 14 21  1  0  0  0  0
 14 15  1  0  0  0  0
 14 17  1  0  0  0  0
 15 16  3  0  0  0  0
 17 18  1  0  0  0  0
 17 35  1  0  0  0  0
 17 36  1  0  0  0  0
 18 19  1  0  0  0  0
 18 37  1  0  0  0  0
 18 38  1  0  0  0  0
 19 20  1  0  0  0  0
 19 39  1  0  0  0  0
 19 40  1  0  0  0  0
 20 21  1  0  0  0  0
 20 41  1  0  0  0  0
 20 42  1  0  0  0  0
 21 43  1  0  0  0  0
 21 44  1  0  0  0  0
M  CHG  1   6   1
M  END
> <s_m_source_file>
AV-unprocessed.smi

> <i_m_source_file_index>
806

> <i_lp_mmshare_version>
43012

> <i_f3d_flags>
0

> <s_epik_input>
W0NIMl0xW0NIMl1bQ0gyXVtDSDJdW0NIMl1DMShDI04pTihbQ0gzXSlDKD1PKVtDSDJdW05IXVtDSDJdW0NIMl1uMltjSF1bY0hdW2NIXW4y

> <s_epik_cmdline>
J2VwaWtfcHl0aG9uJywgJy1waCcsICc3LjAnLCAnLXRuJywgJzgnLCAnLW1hJywgJzIwMCcsICctbWV0YWxfYmluZGluZycsICctaW1hZScsICc8aW5maWxlLm1hZT4nLCAnLW9tYWUnLCAnPG91dGZpbGUubWFlPic=

> <r_lp_tautomer_probability>
1

> <r_epik_Ionization_Penalty>
0.349033

> <r_epik_Ionization_Penalty_Charging>
0.349031

> <r_epik_Ionization_Penalty_Neutral>
2.24604e-06

> <r_epik_State_Penalty>
0.345151

> <r_epik_Charging_Adjusted_Penalty>
0.694182

> <i_epik_Tot_Q>
1

> <i_epik_Tot_abs_Q>
1

> <r_epik_Metal_State_Penalty>
0.345887

> <b_epik_Metal_Only>
0

> <s_lp_Force_Field>
OPLS_2005

> <r_lp_Energy>
26.3561

> <b_lp_Chiralities_Consistent>
1

> <s_lp_Variant>
AV-unprocessed.smi:806-1

> <Gold.Version>
5.8.1

> <Gold.Id.Protein>
6NUR|6NUR_protein|mol2

> <Gold.PLP.Fitness>
45.9723

> <Gold.PLP.PLP>
-35.6263

> <Gold.PLP.part.hbond>
-0.9493

> <Gold.PLP.part.metal>
0.0000

> <Gold.PLP.part.buried>
-1.5891

> <Gold.PLP.part.nonpolar>
-33.8284

> <Gold.PLP.part.repulsive>
0.4212

> <Gold.PLP.ligand.clash>
0.0000

> <Gold.PLP.ligand.torsion>
0.8959

> <Gold.PLP.Chemscore.Hbond>
2.0000

> <Gold.PLP.Chemscore.CHOScore>
2.0000

> <Gold.PLP.Chemscore.Metal>
0.0000

> <Gold.Chemscore.Hbonds>
donor molecule, donor type, donor heavy atom, donor atom, acceptor molecule, acceptor atom, score
      L1  H     6    45       P1  7948  2.00
      L1  C    10    32       P1 10186  1.00
      L1  C    12    34       P1 10747  1.00

> <Gold.PLP.Chemscore.Internal.Correction>
0.1377

> <Gold.Rescore>
     Score         DG    S(hbond)    S(metal)    S(lipo)     H(rot)  DE(clash)    DE(int)     intcor
     10.66     -14.23       0.94        0.00      93.67       2.09       0.41       3.17       ----

> <Gold.Chemscore.Fitness>
10.6596

> <Gold.Chemscore.DG>
-14.2344

> <Gold.Chemscore.ZeroCoef>
-5.4800

> <Gold.Chemscore.Hbond>
0.9413

> <Gold.Chemscore.Metal>
0.0000

> <Gold.Chemscore.Lipo>
93.6671

> <Gold.Chemscore.Internal_Hbond>
0.0000

> <Gold.Chemscore.DEClash>
0.4091

> <Gold.Chemscore.DEInternal>
3.1657

> <Gold.Chemscore.Rot>
2.0893

> <Gold.Chemscore.Internal.Correction>
   9.000000E+99

> <Gold.Chemscore.Hbonds>
donor molecule, donor type, donor heavy atom, donor atom, acceptor molecule, acceptor atom, score
      L1  H     6    45       P1  7948  0.97

> <Gold.Chemscore.Hbond.Weighted>
-3.1440

> <Gold.Chemscore.Metal.Weighted>
-0.0000

> <Gold.Chemscore.Lipo.Weighted>
-10.9590

> <Gold.Chemscore.Internal_Hbond.Weighted>
0.0000

> <Gold.Chemscore.DEClash.Weighted>
0.4091

> <Gold.Chemscore.DEInternal.Weighted>
3.1657

> <Gold.Chemscore.Rot.Weighted>
5.3486

> <Gold.Chemscore.Internal.Correction.Weighted>
   9.000000E+99

> <Gold.Protein.RotatedTorsions>
[ 6907 6896 6895 6894 ] final  106.82 input  -60.11 | X-H torsion
[ 7974 7965 7964 7962 ] final  -36.87 input  175.53 | X-H torsion
[ 8008 7997 7996 7995 ] final -112.63 input   59.86 | X-H torsion
[ 10167 10162 10161 10158 ] final  173.09 input  -65.29 | X-H torsion
[ 10718 10713 10712 10709 ] final -109.34 input   66.30 | X-H torsion
[ 10763 10752 10751 10750 ] final   22.00 input  -60.55 | X-H torsion
[ 11005 11000 10999 10996 ] final -161.30 input  -57.11 | X-H torsion

> <Gold.Protein.ActiveResidues>
 VAL166  LYS551  ARG553  GLY616  TRP617  ASP618  TYR619  PRO620  LYS621  CYS622 
 ASP623  PHE694  ASN695  SER759  ASP760  ASP761  ALA762  ILE779  LEU786  VAL792 
 PHE793  MET794  SER795  GLU796  ALA797  LYS798  CYS799  TRP800  GLU811  SER814 

> <Gold.Protein.RotatedAtoms>
  152.5179  133.9326  159.7587 H   0  0  0  0  0  0  0  0  0  0  0  0  # atno 6907 bound_to 6896
  150.9673  133.6373  159.2751 H   0  0  0  0  0  0  0  0  0  0  0  0  # atno 6908 bound_to 6896
  151.3597  135.0907  159.9483 H   0  0  0  0  0  0  0  0  0  0  0  0  # atno 6909 bound_to 6896
  146.0624  140.6329  142.8990 H   0  0  0  0  0  0  0  0  0  0  0  0  # atno 7974 bound_to 7965
  155.0082  140.0394  157.2388 H   0  0  0  0  0  0  0  0  0  0  0  0  # atno 8008 bound_to 7997
  154.7484  140.2762  155.6290 H   0  0  0  0  0  0  0  0  0  0  0  0  # atno 8009 bound_to 7997
  156.2880  140.2652  156.2230 H   0  0  0  0  0  0  0  0  0  0  0  0  # atno 8010 bound_to 7997
  139.5097  144.3300  152.0121 H   0  0  0  0  0  0  0  0  0  0  0  0  # atno 10167 bound_to 10162
  156.0532  130.5759  150.8086 H   0  0  0  0  0  0  0  0  0  0  0  0  # atno 10718 bound_to 10713
  153.0950  135.6657  153.9780 H   0  0  0  0  0  0  0  0  0  0  0  0  # atno 10763 bound_to 10752
  153.9367  135.2998  155.3445 H   0  0  0  0  0  0  0  0  0  0  0  0  # atno 10764 bound_to 10752
  154.7368  135.5098  153.9129 H   0  0  0  0  0  0  0  0  0  0  0  0  # atno 10765 bound_to 10752
  140.6219  134.4742  157.5224 H   0  0  0  0  0  0  0  0  0  0  0  0  # atno 11005 bound_to 11000
  144.7183  140.4286  143.7028 LP  0  0  0  0  0  0  0  0  0  0  0  0  # atno 17320 bound_to 7965
  145.6536  139.1569  143.2848 LP  0  0  0  0  0  0  0  0  0  0  0  0  # atno 17321 bound_to 7965
  140.2739  144.3933  150.6141 LP  0  0  0  0  0  0  0  0  0  0  0  0  # atno 17342 bound_to 10162
  140.6068  143.2168  151.6965 LP  0  0  0  0  0  0  0  0  0  0  0  0  # atno 17343 bound_to 10162
  157.5478  131.0943  150.9738 LP  0  0  0  0  0  0  0  0  0  0  0  0  # atno 17370 bound_to 10713
  157.0005  130.5598  149.5311 LP  0  0  0  0  0  0  0  0  0  0  0  0  # atno 17371 bound_to 10713
  139.9150  134.8265  156.1397 LP  0  0  0  0  0  0  0  0  0  0  0  0  # atno 17394 bound_to 11000
  141.0736  133.6785  156.2191 LP  0  0  0  0  0  0  0  0  0  0  0  0  # atno 17395 bound_to 11000

$$$$
