#       Name:                AV-unprocessed.smi:3225
#       Creating user name   scv26
#       Creation time:       Fri Mar 27 18:15:38 2020


#       File generated by GOLD software.
#

@<TRIPOS>MOLECULE
AV-unprocessed.smi:3225
    44    45     1
SMALL
NO_CHARGES


@<TRIPOS>ATOM
      1 ****        -2.5694  -2.2233   1.5254 C.3            1 S1                 0.0000
      2 ****        -2.1405  -1.0694   0.6035 C.3            1 S1                 0.0000
      3 ****        -2.5978  -1.2823  -0.8586 C.3            1 S1                 0.0000
      4 ****        -4.0319  -1.4710  -0.9836 N.pl3          1 S1                 0.0000
      5 ****        -4.7194  -2.5965  -1.3872 C.2            1 S1                 0.0000
      6 ****        -6.0499  -2.2913  -1.3575 C.2            1 S1                 0.0000
      7 ****        -6.0771  -0.9363  -0.9244 C.2            1 S1                 0.0000
      8 ****        -4.8671  -0.4470  -0.7050 N.2            1 S1                 0.0000
      9 ****        -0.6723  -0.9000   0.6810 N.4            1 S1                 1.0000
     10 ****        -0.1677   0.4259   0.2660 C.3            1 S1                 0.0000
     11 ****         1.3575   0.5021   0.4082 C.3            1 S1                 0.0000
     12 ****         1.9125   1.8805   0.0116 C.3            1 S1                 0.0000
     13 ****         3.3688   1.9275   0.1121 N.am           1 S1                 0.0000
     14 ****         4.1945   1.9536  -1.0836 C.3            1 S1                 0.0000
     15 ****         5.6347   1.7981  -0.5746 C.3            1 S1                 0.0000
     16 ****         5.5736   2.0672   0.9329 C.3            1 S1                 0.0000
     17 ****         4.0865   2.0078   1.2388 C.2            1 S1                 0.0000
     18 ****         3.6374   2.0332   2.3838 O.2            1 S1                 0.0000
     19 ****        -3.6545  -2.3196   1.5703 H              1 S1                 0.0000
     20 ****        -2.2200  -2.0603   2.5456 H              1 S1                 0.0000
     21 ****        -2.1649  -3.1765   1.1832 H              1 S1                 0.0000
     22 ****        -2.6015  -0.1593   0.9910 H              1 S1                 0.0000
     23 ****        -2.3220  -0.4326  -1.4833 H              1 S1                 0.0000
     24 ****        -2.0993  -2.1545  -1.2838 H              1 S1                 0.0000
     25 ****        -4.2118  -3.5110  -1.6571 H              1 S1                 0.0000
     26 ****        -6.8784  -2.9367  -1.6093 H              1 S1                 0.0000
     27 ****        -6.9334  -0.2974  -0.7659 H              1 S1                 0.0000
     28 ****        -0.4000  -1.0324   1.6447 H              1 S1                 0.0000
     29 ****        -0.4470   0.6244  -0.7685 H              1 S1                 0.0000
     30 ****        -0.6360   1.1960   0.8805 H              1 S1                 0.0000
     31 ****         1.6353   0.2757   1.4386 H              1 S1                 0.0000
     32 ****         1.8192  -0.2667  -0.2131 H              1 S1                 0.0000
     33 ****         1.6154   2.1211  -1.0102 H              1 S1                 0.0000
     34 ****         1.4833   2.6570   0.6467 H              1 S1                 0.0000
     35 ****         3.9206   1.1560  -1.7754 H              1 S1                 0.0000
     36 ****         4.0611   2.9095  -1.5919 H              1 S1                 0.0000
     37 ****         5.9873   0.7817  -0.7546 H              1 S1                 0.0000
     38 ****         6.3190   2.4771  -1.0844 H              1 S1                 0.0000
     39 ****         6.1311   1.3274   1.5081 H              1 S1                 0.0000
     40 ****         5.9536   3.0600   1.1753 H              1 S1                 0.0000
     41 ****        -0.2301  -1.6168   0.1235 H              1 S1                 0.0000
     42 ****        -4.6254   0.4745  -0.4010 LP             1 S1                 0.0000
     43 ****         2.6497   1.9922   2.5345 LP             1 S1                 0.0000
     44 ****         4.2601   2.0948   3.1639 LP             1 S1                 0.0000
@<TRIPOS>BOND
    1    1    2 1     
    2    1   19 1     
    3    1   20 1     
    4    1   21 1     
    5    2    3 1     
    6    2    9 1     
    7    2   22 1     
    8    3    4 1     
    9    3   23 1     
   10    3   24 1     
   11    4    8 1     
   12    4    5 1     
   13    5    6 2     
   14    5   25 1     
   15    6    7 1     
   16    6   26 1     
   17    7    8 2     
   18    7   27 1     
   19    9   10 1     
   20    9   28 1     
   21    9   41 1     
   22   10   11 1     
   23   10   29 1     
   24   10   30 1     
   25   11   12 1     
   26   11   31 1     
   27   11   32 1     
   28   12   13 1     
   29   12   33 1     
   30   12   34 1     
   31   13   17 am    
   32   13   14 1     
   33   14   15 1     
   34   14   35 1     
   35   14   36 1     
   36   15   16 1     
   37   15   37 1     
   38   15   38 1     
   39   16   17 1     
   40   16   39 1     
   41   16   40 1     
   42   17   18 2     
   43    8   42 1     
   44   18   43 1     
   45   18   44 1     
@<TRIPOS>SUBSTRUCTURE
      1 S1             1
@<TRIPOS>SET
LONE_PAIRS      STATIC     ATOMS    <user>   **** ""
3 42 43 44
DONOR_HYDROGENS      STATIC     ATOMS    <user>   **** ""
2 28 41
ATOM$BLUE        STATIC     ATOMS    COLORGROUP SYSTEM
3 42 43 44
ATOM$RED        STATIC     ATOMS    COLORGROUP SYSTEM
2 28 41
