#       Name:                AV-unprocessed.smi:2078
#       Creating user name   scv26
#       Creation time:       Fri Mar 27 11:16:30 2020


#       File generated by GOLD software.
#

@<TRIPOS>MOLECULE
AV-unprocessed.smi:2078
    47    48     1
SMALL
NO_CHARGES


@<TRIPOS>ATOM
      1 ****        -7.8963   2.0831   0.7904 C.3            1 S1                 0.0000
      2 ****        -6.4485   1.7313   0.8140 C.2            1 S1                 0.0000
      3 ****        -5.7795   0.5395   0.8244 C.2            1 S1                 0.0000
      4 ****        -4.4166   0.9388   0.8406 C.2            1 S1                 0.0000
      5 ****        -3.3742  -0.0232   0.8458 N.am           1 S1                 0.0000
      6 ****        -2.0505   0.2091   0.8330 C.2            1 S1                 0.0000
      7 ****        -1.5242   1.3222   0.8556 O.2            1 S1                 0.0000
      8 ****        -1.3504  -0.9338   0.7880 N.am           1 S1                 0.0000
      9 ****         0.1058  -1.0106   0.7617 C.3            1 S1                 0.0000
     10 ****         0.6686  -0.6454  -0.6263 C.3            1 S1                 0.0000
     11 ****         2.1500  -0.7225  -0.6714 N.4            1 S1                 1.0000
     12 ****         2.6608  -0.9502  -2.0477 C.3            1 S1                 0.0000
     13 ****         4.1805  -1.1801  -2.0438 C.3            1 S1                 0.0000
     14 ****         4.9145  -0.0131  -1.3676 C.3            1 S1                 0.0000
     15 ****         4.3445   0.2695   0.0348 C.3            1 S1                 0.0000
     16 ****         4.7643  -0.7842   1.0748 C.3            1 S1                 0.0000
     17 ****         2.8135   0.4458  -0.0303 C.3            1 S1                 0.0000
     18 ****        -4.2674   2.2545   0.8429 N.2            1 S1                 0.0000
     19 ****        -5.5689   2.7692   0.8264 O.3            1 S1                 0.0000
     20 ****        -8.5160   1.1863   0.7875 H              1 S1                 0.0000
     21 ****        -8.1376   2.6633  -0.1004 H              1 S1                 0.0000
     22 ****        -8.1643   2.6770   1.6643 H              1 S1                 0.0000
     23 ****        -6.2005  -0.4548   0.8180 H              1 S1                 0.0000
     24 ****        -3.6691  -0.9885   0.8375 H              1 S1                 0.0000
     25 ****        -1.8577  -1.8070   0.7775 H              1 S1                 0.0000
     26 ****         0.5079  -0.3645   1.5425 H              1 S1                 0.0000
     27 ****         0.3967  -2.0283   1.0230 H              1 S1                 0.0000
     28 ****         0.2464  -1.3423  -1.3518 H              1 S1                 0.0000
     29 ****         0.3485   0.3502  -0.9375 H              1 S1                 0.0000
     30 ****         2.1717  -1.8211  -2.4859 H              1 S1                 0.0000
     31 ****         2.4090  -0.0949  -2.6769 H              1 S1                 0.0000
     32 ****         4.4099  -2.1135  -1.5291 H              1 S1                 0.0000
     33 ****         4.5394  -1.2994  -3.0665 H              1 S1                 0.0000
     34 ****         5.9844  -0.2172  -1.3130 H              1 S1                 0.0000
     35 ****         4.8058   0.8799  -1.9846 H              1 S1                 0.0000
     36 ****         4.7679   1.2168   0.3715 H              1 S1                 0.0000
     37 ****         4.3695  -1.7719   0.8371 H              1 S1                 0.0000
     38 ****         4.4035  -0.5168   2.0684 H              1 S1                 0.0000
     39 ****         5.8501  -0.8659   1.1331 H              1 S1                 0.0000
     40 ****         2.5716   1.3462  -0.5975 H              1 S1                 0.0000
     41 ****         2.4271   0.6059   0.9757 H              1 S1                 0.0000
     42 ****         2.4098  -1.5394  -0.1373 H              1 S1                 0.0000
     43 ****        -2.0934   2.1439   0.8861 LP             1 S1                 0.0000
     44 ****        -0.5277   1.4044   0.8434 LP             1 S1                 0.0000
     45 ****        -3.4101   2.7692   0.8540 LP             1 S1                 0.0000
     46 ****        -5.7199   3.3285   1.6415 LP             1 S1                 0.0000
     47 ****        -5.6986   3.3300   0.0086 LP             1 S1                 0.0000
@<TRIPOS>BOND
    1    1    2 1     
    2    1   20 1     
    3    1   21 1     
    4    1   22 1     
    5    2   19 1     
    6    2    3 2     
    7    3    4 1     
    8    3   23 1     
    9    4    5 1     
   10    4   18 2     
   11    5    6 am    
   12    5   24 1     
   13    6    7 2     
   14    6    8 am    
   15    8    9 1     
   16    8   25 1     
   17    9   10 1     
   18    9   26 1     
   19    9   27 1     
   20   10   11 1     
   21   10   28 1     
   22   10   29 1     
   23   11   17 1     
   24   11   12 1     
   25   11   42 1     
   26   12   13 1     
   27   12   30 1     
   28   12   31 1     
   29   13   14 1     
   30   13   32 1     
   31   13   33 1     
   32   14   15 1     
   33   14   34 1     
   34   14   35 1     
   35   15   16 1     
   36   15   17 1     
   37   15   36 1     
   38   16   37 1     
   39   16   38 1     
   40   16   39 1     
   41   17   40 1     
   42   17   41 1     
   43   18   19 1     
   44    7   43 1     
   45    7   44 1     
   46   18   45 1     
   47   19   46 1     
   48   19   47 1     
@<TRIPOS>SUBSTRUCTURE
      1 S1             1
@<TRIPOS>SET
LONE_PAIRS      STATIC     ATOMS    <user>   **** ""
5 43 44 45 46 47
DONOR_HYDROGENS      STATIC     ATOMS    <user>   **** ""
3 24 25 42
ATOM$BLUE        STATIC     ATOMS    COLORGROUP SYSTEM
5 43 44 45 46 47
ATOM$RED        STATIC     ATOMS    COLORGROUP SYSTEM
3 24 25 42
