AV-unprocessed.smi:1586|AV-procd|sdf|6380|dock6
  -GOLD-   22720 7 13D 1   1.00000     0.00000
 Structure written by MMmdl.
 46 47  0  0  0  0  0  0  0  0  3 V2000
  146.0753  143.3464  154.7264 C   0  0  0  0  0  0  0  0  0  0  0  0
  146.3328  142.5782  156.0305 C   0  0  0  0  0  0  0  0  0  0  0  0
  147.7353  142.1080  156.1490 N   0  3  0  0  0  0  0  0  0  0  0  0
  148.1380  141.2428  155.0132 C   0  0  0  0  0  0  0  0  0  0  0  0
  149.6163  140.8218  155.1494 C   0  0  0  0  0  0  0  0  0  0  0  0
  149.8651  140.0968  156.4023 N   0  0  0  0  0  0  0  0  0  0  0  0
  149.2562  138.7508  156.4855 C   0  0  1  0  0  0  0  0  0  0  0  0
  149.0847  138.1270  155.0836 C   0  0  0  0  0  0  0  0  0  0  0  0
  150.0740  137.7920  157.3851 C   0  0  0  0  0  0  0  0  0  0  0  0
  149.6443  137.8528  158.7781 N   0  0  0  0  0  0  0  0  0  0  0  0
  149.3738  136.7933  159.5508 C   0  0  0  0  0  0  0  0  0  0  0  0
  149.4850  135.6548  159.0903 O   0  0  0  0  0  0  0  0  0  0  0  0
  148.9930  137.1195  160.8072 N   0  5  0  0  0  0  0  0  0  0  0  0
  147.9369  136.5147  161.3726 C   0  0  0  0  0  0  0  0  0  0  0  0
  147.8090  135.1217  161.6255 C   0  0  0  0  0  0  0  0  0  0  0  0
  146.5824  135.0229  162.2185 C   0  0  0  0  0  0  0  0  0  0  0  0
  145.8026  133.8662  162.7439 C   0  0  0  0  0  0  0  0  0  0  0  0
  146.0111  136.2524  162.3282 O   0  0  0  0  0  0  0  0  0  0  0  0
  146.8869  137.2024  161.7892 N   0  0  0  0  0  0  0  0  0  0  0  0
  149.5158  141.0125  157.4971 C   0  0  0  0  0  0  0  0  0  0  0  0
  148.0335  141.4377  157.4400 C   0  0  0  0  0  0  0  0  0  0  0  0
  145.0175  143.5926  154.6310 H   0  0  0  0  0  0  0  0  0  0  0  0
  146.3543  142.7523  153.8555 H   0  0  0  0  0  0  0  0  0  0  0  0
  146.6287  144.2843  154.6872 H   0  0  0  0  0  0  0  0  0  0  0  0
  146.0680  143.1884  156.8951 H   0  0  0  0  0  0  0  0  0  0  0  0
  145.6669  141.7143  156.0457 H   0  0  0  0  0  0  0  0  0  0  0  0
  147.4833  140.3730  154.9490 H   0  0  0  0  0  0  0  0  0  0  0  0
  148.0119  141.7946  154.0810 H   0  0  0  0  0  0  0  0  0  0  0  0
  149.9314  140.2384  154.2860 H   0  0  0  0  0  0  0  0  0  0  0  0
  150.2462  141.7125  155.1346 H   0  0  0  0  0  0  0  0  0  0  0  0
  148.2638  138.8300  156.9272 H   0  0  0  0  0  0  0  0  0  0  0  0
  148.7730  137.0849  155.1571 H   0  0  0  0  0  0  0  0  0  0  0  0
  150.0156  138.1502  154.5157 H   0  0  0  0  0  0  0  0  0  0  0  0
  148.3170  138.6330  154.4991 H   0  0  0  0  0  0  0  0  0  0  0  0
  150.0195  136.7650  157.0243 H   0  0  0  0  0  0  0  0  0  0  0  0
  151.1308  138.0589  157.3343 H   0  0  0  0  0  0  0  0  0  0  0  0
  149.5385  138.7700  159.1864 H   0  0  0  0  0  0  0  0  0  0  0  0
  148.5037  134.3257  161.4043 H   0  0  0  0  0  0  0  0  0  0  0  0
  146.3095  133.4170  163.5980 H   0  0  0  0  0  0  0  0  0  0  0  0
  145.6864  133.1001  161.9773 H   0  0  0  0  0  0  0  0  0  0  0  0
  144.8078  134.1753  163.0656 H   0  0  0  0  0  0  0  0  0  0  0  0
  149.7552  140.5796  158.4668 H   0  0  0  0  0  0  0  0  0  0  0  0
  150.1470  141.8990  157.4214 H   0  0  0  0  0  0  0  0  0  0  0  0
  147.8386  142.1221  158.2648 H   0  0  0  0  0  0  0  0  0  0  0  0
  147.3724  140.5824  157.5852 H   0  0  0  0  0  0  0  0  0  0  0  0
  148.3251  142.9266  156.1008 H   0  0  0  0  0  0  0  0  0  0  0  0
  1  2  1  0  0  0  0
  1 22  1  0  0  0  0
  1 23  1  0  0  0  0
  1 24  1  0  0  0  0
  2  3  1  0  0  0  0
  2 25  1  0  0  0  0
  2 26  1  0  0  0  0
  3 21  1  0  0  0  0
  3  4  1  0  0  0  0
  3 46  1  0  0  0  0
  4  5  1  0  0  0  0
  4 27  1  0  0  0  0
  4 28  1  0  0  0  0
  5  6  1  0  0  0  0
  5 29  1  0  0  0  0
  5 30  1  0  0  0  0
  6  7  1  0  0  0  0
  6 20  1  0  0  0  0
  7  8  1  0  0  0  0
  7  9  1  0  0  0  0
  7 31  1  0  0  0  0
  8 32  1  0  0  0  0
  8 33  1  0  0  0  0
  8 34  1  0  0  0  0
  9 10  1  0  0  0  0
  9 35  1  0  0  0  0
  9 36  1  0  0  0  0
 10 11  1  0  0  0  0
 10 37  1  0  0  0  0
 11 12  2  0  0  0  0
 11 13  1  0  0  0  0
 13 14  1  0  0  0  0
 14 19  2  0  0  0  0
 14 15  1  0  0  0  0
 15 16  2  0  0  0  0
 15 38  1  0  0  0  0
 16 17  1  0  0  0  0
 16 18  1  0  0  0  0
 17 39  1  0  0  0  0
 17 40  1  0  0  0  0
 17 41  1  0  0  0  0
 18 19  1  0  0  0  0
 20 21  1  0  0  0  0
 20 42  1  0  0  0  0
 20 43  1  0  0  0  0
 21 44  1  0  0  0  0
 21 45  1  0  0  0  0
M  CHG  1   3   1
M  CHG  1  13  -1
M  END
> <s_m_source_file>
AV-unprocessed.smi

> <i_m_source_file_index>
1586

> <i_lp_mmshare_version>
43012

> <i_f3d_flags>
0

> <s_epik_input>
W0NIM11bQ0gyXU4xW0NIMl1bQ0gyXU4oW0NIMl1bQ0gyXTEpW0NASF0oW0NIM10pW0NIMl1bTkhdQyg9TylbTkhdYzJbY0hdYyhbQ0gzXSlvbjI=

> <s_epik_cmdline>
J2VwaWtfcHl0aG9uJywgJy1waCcsICc3LjAnLCAnLXRuJywgJzgnLCAnLW1hJywgJzIwMCcsICctbWV0YWxfYmluZGluZycsICctaW1hZScsICc8aW5maWxlLm1hZT4nLCAnLW9tYWUnLCAnPG91dGZpbGUubWFlPic=

> <r_epik_Ionization_Penalty>
6.66134

> <r_epik_Ionization_Penalty_Charging>
6.66063

> <r_epik_Ionization_Penalty_Neutral>
0.000714131

> <r_epik_State_Penalty>
6.77843

> <r_epik_Charging_Adjusted_Penalty>
13.4391

> <i_epik_Tot_Q>
0

> <i_epik_Tot_abs_Q>
2

> <r_epik_Metal_State_Penalty>
2.70494

> <b_epik_Metal_Only>
1

> <s_lp_Force_Field>
OPLS_2005

> <r_lp_Energy>
15.0096

> <b_lp_Chiralities_Consistent>
1

> <s_lp_Variant>
AV-unprocessed.smi:1586-8

> <Gold.Version>
5.8.1

> <Gold.Id.Protein>
6NUR|6NUR_protein|mol2

> <Gold.PLP.Fitness>
44.0987

> <Gold.PLP.PLP>
-31.6583

> <Gold.PLP.part.hbond>
-4.5805

> <Gold.PLP.part.metal>
0.0000

> <Gold.PLP.part.buried>
-4.1047

> <Gold.PLP.part.nonpolar>
-23.2346

> <Gold.PLP.part.repulsive>
0.2354

> <Gold.PLP.ligand.clash>
0.0889

> <Gold.PLP.ligand.torsion>
2.1062

> <Gold.PLP.Chemscore.Hbond>
5.5360

> <Gold.PLP.Chemscore.CHOScore>
0.0000

> <Gold.PLP.Chemscore.Metal>
0.0000

> <Gold.Chemscore.Hbonds>
donor molecule, donor type, donor heavy atom, donor atom, acceptor molecule, acceptor atom, score
      L1  H     3    46       P1  8028  2.00
      P1  H  6896  6909       L1    12  1.00
      P1  H  6931  6943       L1    13  1.08
      P1  H  6934  6947       L1    19  0.93

> <Gold.PLP.Chemscore.Internal.Correction>
0.1337

> <Gold.Rescore>
     Score         DG    S(hbond)    S(metal)    S(lipo)     H(rot)  DE(clash)    DE(int)     intcor
     14.78     -16.68       2.69        0.00      56.80       1.73       0.02       1.88       ----

> <Gold.Chemscore.Fitness>
14.7823

> <Gold.Chemscore.DG>
-16.6834

> <Gold.Chemscore.ZeroCoef>
-5.4800

> <Gold.Chemscore.Hbond>
2.6869

> <Gold.Chemscore.Metal>
0.0000

> <Gold.Chemscore.Lipo>
56.7974

> <Gold.Chemscore.Internal_Hbond>
0.0000

> <Gold.Chemscore.DEClash>
0.0228

> <Gold.Chemscore.DEInternal>
1.8783

> <Gold.Chemscore.Rot>
1.7250

> <Gold.Chemscore.Internal.Correction>
   9.000000E+99

> <Gold.Chemscore.Hbonds>
donor molecule, donor type, donor heavy atom, donor atom, acceptor molecule, acceptor atom, score
      L1  H     3    46       P1  8028  0.87
      P1  H  6896  6909       L1    12  0.99
      P1  H  6931  6943       L1    13  0.05
      P1  H  6934  6947       L1    19  0.34

> <Gold.Chemscore.Hbond.Weighted>
-8.9742

> <Gold.Chemscore.Metal.Weighted>
-0.0000

> <Gold.Chemscore.Lipo.Weighted>
-6.6453

> <Gold.Chemscore.Internal_Hbond.Weighted>
0.0000

> <Gold.Chemscore.DEClash.Weighted>
0.0228

> <Gold.Chemscore.DEInternal.Weighted>
1.8783

> <Gold.Chemscore.Rot.Weighted>
4.4161

> <Gold.Chemscore.Internal.Correction.Weighted>
   9.000000E+99

> <Gold.Protein.RotatedTorsions>
[ 6907 6896 6895 6894 ] final   47.58 input  -60.11 | X-H torsion
[ 7974 7965 7964 7962 ] final  139.24 input  175.53 | X-H torsion
[ 8008 7997 7996 7995 ] final   99.48 input   59.86 | X-H torsion
[ 10167 10162 10161 10158 ] final -150.85 input  -65.29 | X-H torsion
[ 10718 10713 10712 10709 ] final   77.87 input   66.30 | X-H torsion
[ 10763 10752 10751 10750 ] final   47.25 input  -60.55 | X-H torsion
[ 11005 11000 10999 10996 ] final  107.03 input  -57.11 | X-H torsion

> <Gold.Protein.ActiveResidues>
 VAL166  LYS551  ARG553  GLY616  TRP617  ASP618  TYR619  PRO620  LYS621  CYS622 
 ASP623  PHE694  ASN695  SER759  ASP760  ASP761  ALA762  ILE779  LEU786  VAL792 
 PHE793  MET794  SER795  GLU796  ALA797  LYS798  CYS799  TRP800  GLU811  SER814 

> <Gold.Protein.RotatedAtoms>
  152.2696  134.7947  160.0416 H   0  0  0  0  0  0  0  0  0  0  0  0  # atno 6907 bound_to 6896
  151.8564  133.3444  159.3698 H   0  0  0  0  0  0  0  0  0  0  0  0  # atno 6908 bound_to 6896
  150.7147  134.5177  159.5682 H   0  0  0  0  0  0  0  0  0  0  0  0  # atno 6909 bound_to 6896
  144.9297  139.5063  143.5624 H   0  0  0  0  0  0  0  0  0  0  0  0  # atno 7974 bound_to 7965
  156.1109  140.3228  155.8071 H   0  0  0  0  0  0  0  0  0  0  0  0  # atno 8008 bound_to 7997
  155.4675  140.0544  157.3001 H   0  0  0  0  0  0  0  0  0  0  0  0  # atno 8009 bound_to 7997
  154.4759  140.2032  155.9894 H   0  0  0  0  0  0  0  0  0  0  0  0  # atno 8010 bound_to 7997
  139.7319  143.8795  152.2537 H   0  0  0  0  0  0  0  0  0  0  0  0  # atno 10167 bound_to 10162
  157.6725  130.9842  150.1704 H   0  0  0  0  0  0  0  0  0  0  0  0  # atno 10718 bound_to 10713
  152.9802  135.5982  154.3732 H   0  0  0  0  0  0  0  0  0  0  0  0  # atno 10763 bound_to 10752
  154.3404  135.2768  155.2427 H   0  0  0  0  0  0  0  0  0  0  0  0  # atno 10764 bound_to 10752
  154.4512  135.5989  153.6248 H   0  0  0  0  0  0  0  0  0  0  0  0  # atno 10765 bound_to 10752
  139.8822  134.9388  156.5757 H   0  0  0  0  0  0  0  0  0  0  0  0  # atno 11005 bound_to 11000
  146.3241  139.8238  142.8921 LP  0  0  0  0  0  0  0  0  0  0  0  0  # atno 17320 bound_to 7965
  145.3162  141.0232  143.3526 LP  0  0  0  0  0  0  0  0  0  0  0  0  # atno 17321 bound_to 7965
  139.8721  144.7063  150.8975 LP  0  0  0  0  0  0  0  0  0  0  0  0  # atno 17342 bound_to 10162
  140.7772  143.3730  151.1615 LP  0  0  0  0  0  0  0  0  0  0  0  0  # atno 17343 bound_to 10162
  156.2459  130.3695  149.8285 LP  0  0  0  0  0  0  0  0  0  0  0  0  # atno 17370 bound_to 10713
  156.6071  130.8571  151.3446 LP  0  0  0  0  0  0  0  0  0  0  0  0  # atno 17371 bound_to 10713
  140.8065  133.8463  155.8772 LP  0  0  0  0  0  0  0  0  0  0  0  0  # atno 17394 bound_to 11000
  140.9545  134.1735  157.4702 LP  0  0  0  0  0  0  0  0  0  0  0  0  # atno 17395 bound_to 11000

$$$$
