#       Name:                AV-unprocessed.smi:48
#       Creating user name   scv26
#       Creation time:       Thu Mar 26 16:32:16 2020


#       File generated by GOLD software.
#

@<TRIPOS>MOLECULE
AV-unprocessed.smi:48
    41    43     1
SMALL
NO_CHARGES


@<TRIPOS>ATOM
      1 ****        -3.4960   1.5381  -1.9504 O.3            1 S1                 0.0000
      2 ****        -3.1826   0.1690  -1.8079 C.3            1 S1                 0.0000
      3 ****        -1.7686   0.0119  -1.2292 C.3            1 S1                 0.0000
      4 ****        -1.8064   0.1418   0.1860 O.3            1 S1                 0.0000
      5 ****        -0.6540  -0.4228   0.7300 C.3            1 S1                 0.0000
      6 ****         0.3998   0.6382   0.8413 N.pl3          1 S1                 0.0000
      7 ****         0.3440   1.9448   0.5019 C.2            1 S1                 0.0000
      8 ****         1.4284   2.6853   0.7309 N.2            1 S1                 0.0000
      9 ****         2.2816   1.7571   1.3037 C.ar           1 S1                 0.0000
     10 ****         3.6039   1.8444   1.8033 C.ar           1 S1                 0.0000
     11 ****         4.4748   3.3335   1.7595 Cl             1 S1                 0.0000
     12 ****         4.1719   0.7290   2.3213 N.ar           1 S1                 0.0000
     13 ****         3.4726  -0.4126   2.3473 C.ar           1 S1                 0.0000
     14 ****         2.2273  -0.6461   1.9162 N.ar           1 S1                 0.0000
     15 ****         1.6598   0.4799   1.3909 C.ar           1 S1                 0.0000
     16 ****        -0.2017  -1.5279  -0.2431 C.3            1 S1                 0.0000
     17 ****        -0.3027  -2.8081   0.3450 O.3            1 S1                 0.0000
     18 ****        -1.1847  -1.3931  -1.4061 C.3            1 S1                 0.0000
     19 ****        -0.5076  -1.4888  -2.6430 O.3            1 S1                 0.0000
     20 ****        -1.0873   0.7530  -1.6522 H              1 S1                 0.0000
     21 ****        -0.8130  -0.7517   1.7580 H              1 S1                 0.0000
     22 ****         0.8281  -1.3532  -0.5600 H              1 S1                 0.0000
     23 ****        -1.9756  -2.1429  -1.3427 H              1 S1                 0.0000
     24 ****        -4.3596   1.6108  -2.3270 H              1 S1                 0.0000
     25 ****        -3.9257  -0.3294  -1.1846 H              1 S1                 0.0000
     26 ****        -3.2341  -0.2833  -2.7987 H              1 S1                 0.0000
     27 ****        -0.5398   2.3831   0.0619 H              1 S1                 0.0000
     28 ****         3.9837  -1.2623   2.7753 H              1 S1                 0.0000
     29 ****         0.2889  -2.8462   1.0812 H              1 S1                 0.0000
     30 ****        -0.1262  -2.3511  -2.7078 H              1 S1                 0.0000
     31 ****        -2.8278   1.9761  -2.5519 LP             1 S1                 0.0000
     32 ****        -3.4801   1.9826  -1.0548 LP             1 S1                 0.0000
     33 ****        -2.6114  -0.3314   0.5437 LP             1 S1                 0.0000
     34 ****        -1.8523   1.1100   0.4317 LP             1 S1                 0.0000
     35 ****         1.5845   3.6544   0.5397 LP             1 S1                 0.0000
     36 ****         5.1046   0.7579   2.6808 LP             1 S1                 0.0000
     37 ****         1.7697  -1.5335   1.9716 LP             1 S1                 0.0000
     38 ****        -0.0538  -3.5079  -0.3247 LP             1 S1                 0.0000
     39 ****        -1.2401  -2.9634   0.6567 LP             1 S1                 0.0000
     40 ****         0.2126  -0.7965  -2.6884 LP             1 S1                 0.0000
     41 ****        -1.1533  -1.3477  -3.3935 LP             1 S1                 0.0000
@<TRIPOS>BOND
    1    1    2 1     
    2    1   24 1     
    3    2    3 1     
    4    2   25 1     
    5    2   26 1     
    6    3   20 1     
    7    3   18 1     
    8    3    4 1     
    9    4    5 1     
   10    5   21 1     
   11    5    6 1     
   12    5   16 1     
   13    6   15 1     
   14    6    7 1     
   15    7    8 2     
   16    7   27 1     
   17    8    9 1     
   18    9   15 ar    
   19    9   10 ar    
   20   10   11 1     
   21   10   12 ar    
   22   12   13 ar    
   23   13   14 ar    
   24   13   28 1     
   25   14   15 ar    
   26   16   22 1     
   27   16   17 1     
   28   16   18 1     
   29   17   29 1     
   30   18   23 1     
   31   18   19 1     
   32   19   30 1     
   33    1   31 1     
   34    1   32 1     
   35    4   33 1     
   36    4   34 1     
   37    8   35 1     
   38   12   36 1     
   39   14   37 1     
   40   17   38 1     
   41   17   39 1     
   42   19   40 1     
   43   19   41 1     
@<TRIPOS>SUBSTRUCTURE
      1 S1             1
@<TRIPOS>SET
LONE_PAIRS      STATIC     ATOMS    <user>   **** ""
11 31 32 33 34 35 36 37 38 39 40 41
DONOR_HYDROGENS      STATIC     ATOMS    <user>   **** ""
3 24 29 30
ATOM$BLUE        STATIC     ATOMS    COLORGROUP SYSTEM
11 31 32 33 34 35 36 37 38 39 40 41
ATOM$RED        STATIC     ATOMS    COLORGROUP SYSTEM
3 24 29 30
