#       Name:                AV-unprocessed.smi:2253
#       Creating user name   scv26
#       Creation time:       Fri Mar 27 12:32:25 2020


#       File generated by GOLD software.
#

@<TRIPOS>MOLECULE
AV-unprocessed.smi:2253
    55    57     1
SMALL
NO_CHARGES


@<TRIPOS>ATOM
      1 ****        -6.7611  -2.6770   0.2894 C.3            1 S1                 0.0000
      2 ****        -5.3290  -2.3291   0.1683 N.4            1 S1                 1.0000
      3 ****        -4.8239  -1.5896   1.3456 C.3            1 S1                 0.0000
      4 ****        -3.3046  -1.3761   1.2541 C.3            1 S1                 0.0000
      5 ****        -2.8717  -0.6444  -0.0466 C.3            1 S1                 0.0000
      6 ****        -1.3969  -0.5784  -0.1677 N.3            1 S1                 0.0000
      7 ****        -0.7948   0.1417   0.9684 C.3            1 S1                 0.0000
      8 ****         0.7418   0.1610   0.8934 C.3            1 S1                 0.0000
      9 ****         1.2219   0.8233  -0.4023 C.3            1 S1                 0.0000
     10 ****         2.6743   0.7401  -0.5284 N.am           1 S1                 0.0000
     11 ****         3.5453   1.5962   0.0256 C.2            1 S1                 0.0000
     12 ****         3.2005   2.5595   0.7091 O.2            1 S1                 0.0000
     13 ****         4.8123   1.2561  -0.2701 N.am           1 S1                 0.0000
     14 ****         6.0349   1.8881   0.0964 C.ar           1 S1                 0.0000
     15 ****         6.1433   3.0011   0.9672 C.ar           1 S1                 0.0000
     16 ****         7.4238   3.5219   1.2428 C.ar           1 S1                 0.0000
     17 ****         8.5618   3.0161   0.7231 N.ar           1 S1                 0.0000
     18 ****         8.4565   1.9542  -0.1028 C.ar           1 S1                 0.0000
     19 ****         7.2262   1.3575  -0.4437 C.ar           1 S1                 0.0000
     20 ****         7.1945   0.2907  -1.2789 F              1 S1                 0.0000
     21 ****         0.5464   0.1125  -1.5768 C.3            1 S1                 0.0000
     22 ****        -0.9830   0.1008  -1.4083 C.3            1 S1                 0.0000
     23 ****        -3.5128  -1.3916  -1.2487 C.3            1 S1                 0.0000
     24 ****        -5.0261  -1.6037  -1.0847 C.3            1 S1                 0.0000
     25 ****        -7.3800  -1.7799   0.3378 H              1 S1                 0.0000
     26 ****        -6.9394  -3.2652   1.1901 H              1 S1                 0.0000
     27 ****        -7.0864  -3.2719  -0.5647 H              1 S1                 0.0000
     28 ****        -5.3351  -0.6285   1.4241 H              1 S1                 0.0000
     29 ****        -5.0567  -2.1472   2.2537 H              1 S1                 0.0000
     30 ****        -3.0230  -0.8116   2.1414 H              1 S1                 0.0000
     31 ****        -2.7993  -2.3407   1.3213 H              1 S1                 0.0000
     32 ****        -3.2652   0.3732  -0.0211 H              1 S1                 0.0000
     33 ****        -1.1838   1.1601   1.0132 H              1 S1                 0.0000
     34 ****        -1.0420  -0.3375   1.9125 H              1 S1                 0.0000
     35 ****         1.1418   0.6935   1.7570 H              1 S1                 0.0000
     36 ****         1.1218  -0.8600   0.9569 H              1 S1                 0.0000
     37 ****         0.9140   1.8709  -0.4087 H              1 S1                 0.0000
     38 ****         3.0396  -0.0249  -1.0766 H              1 S1                 0.0000
     39 ****         4.9193   0.4406  -0.8556 H              1 S1                 0.0000
     40 ****         5.2892   3.4661   1.4318 H              1 S1                 0.0000
     41 ****         7.5362   4.3696   1.9026 H              1 S1                 0.0000
     42 ****         9.3813   1.5671  -0.5042 H              1 S1                 0.0000
     43 ****         0.8082   0.6087  -2.5121 H              1 S1                 0.0000
     44 ****         0.9110  -0.9129  -1.6576 H              1 S1                 0.0000
     45 ****        -1.3769  -0.4078  -2.2849 H              1 S1                 0.0000
     46 ****        -1.3734   1.1195  -1.4244 H              1 S1                 0.0000
     47 ****        -3.3823  -0.8374  -2.1767 H              1 S1                 0.0000
     48 ****        -3.0248  -2.3576  -1.3868 H              1 S1                 0.0000
     49 ****        -5.4060  -2.1711  -1.9355 H              1 S1                 0.0000
     50 ****        -5.5436  -0.6428  -1.0883 H              1 S1                 0.0000
     51 ****        -4.8218  -3.2020   0.1310 H              1 S1                 0.0000
     52 ****        -1.0764  -1.5256  -0.1790 LP             1 S1                 0.0000
     53 ****         2.2296   2.7337   0.8739 LP             1 S1                 0.0000
     54 ****         3.8910   3.1681   1.0997 LP             1 S1                 0.0000
     55 ****         9.4524   3.4145   0.9424 LP             1 S1                 0.0000
@<TRIPOS>BOND
    1    1    2 1     
    2    1   25 1     
    3    1   26 1     
    4    1   27 1     
    5    2   24 1     
    6    2    3 1     
    7    2   51 1     
    8    3    4 1     
    9    3   28 1     
   10    3   29 1     
   11    4    5 1     
   12    4   30 1     
   13    4   31 1     
   14    5    6 1     
   15    5   23 1     
   16    5   32 1     
   17    6   22 1     
   18    6    7 1     
   19    7    8 1     
   20    7   33 1     
   21    7   34 1     
   22    8    9 1     
   23    8   35 1     
   24    8   36 1     
   25    9   10 1     
   26    9   21 1     
   27    9   37 1     
   28   10   11 am    
   29   10   38 1     
   30   11   12 2     
   31   11   13 am    
   32   13   14 1     
   33   13   39 1     
   34   14   19 ar    
   35   14   15 ar    
   36   15   16 ar    
   37   15   40 1     
   38   16   17 ar    
   39   16   41 1     
   40   17   18 ar    
   41   18   19 ar    
   42   18   42 1     
   43   19   20 1     
   44   21   22 1     
   45   21   43 1     
   46   21   44 1     
   47   22   45 1     
   48   22   46 1     
   49   23   24 1     
   50   23   47 1     
   51   23   48 1     
   52   24   49 1     
   53   24   50 1     
   54    6   52 1     
   55   12   53 1     
   56   12   54 1     
   57   17   55 1     
@<TRIPOS>SUBSTRUCTURE
      1 S1             1
@<TRIPOS>SET
LONE_PAIRS      STATIC     ATOMS    <user>   **** ""
4 52 53 54 55
DONOR_HYDROGENS      STATIC     ATOMS    <user>   **** ""
3 51 38 39
ATOM$BLUE        STATIC     ATOMS    COLORGROUP SYSTEM
4 52 53 54 55
ATOM$RED        STATIC     ATOMS    COLORGROUP SYSTEM
3 51 38 39
