AV-unprocessed.smi:207|AV-procd|sdf|1604|dock10
  -GOLD-   2262019523D 1   1.00000     0.00000
 Structure written by MMmdl.
 56 59  0  0  0  0  0  0  0  0  2 V2000
  142.6584  135.2011  153.4287 C   0  0  0  0  0  0  0  0  0  0  0  0
  144.0612  134.7698  152.9419 C   0  0  0  0  0  0  0  0  0  0  0  0
  144.4775  135.6578  151.7455 C   0  0  0  0  0  0  0  0  0  0  0  0
  145.0212  135.0253  154.1322 C   0  0  0  0  0  0  0  0  0  0  0  0
  146.3433  134.4514  153.9151 N   0  0  0  0  0  0  0  0  0  0  0  0
  147.3238  134.9394  154.7151 C   0  0  0  0  0  0  0  0  0  0  0  0
  148.1428  134.0850  155.3844 N   0  0  0  0  0  0  0  0  0  0  0  0
  149.1096  134.5591  156.1758 C   0  0  0  0  0  0  0  0  0  0  0  0
  149.4310  135.8286  156.4313 N   0  0  0  0  0  0  0  0  0  0  0  0
  148.6178  136.6909  155.7566 C   0  0  0  0  0  0  0  0  0  0  0  0
  147.5471  136.3340  154.8894 C   0  0  0  0  0  0  0  0  0  0  0  0
  146.9487  137.4802  154.3798 N   0  0  0  0  0  0  0  0  0  0  0  0
  147.6251  138.4584  154.9174 C   0  0  0  0  0  0  0  0  0  0  0  0
  148.6551  138.0749  155.7467 N   0  0  0  0  0  0  0  0  0  0  0  0
  149.5706  138.9480  156.4653 C   0  0  0  0  0  0  0  0  0  0  0  0
  150.3831  139.9126  155.5734 C   0  0  0  0  0  0  0  0  0  0  0  0
  149.4467  140.8873  154.8346 C   0  0  0  0  0  0  0  0  0  0  0  0
  148.8278  141.8037  155.7158 O   0  0  0  0  0  0  0  0  0  0  0  0
  151.6461  140.5253  156.1995 C   0  0  0  0  0  0  0  0  0  0  0  0
  152.5094  139.5860  155.5262 O   0  0  0  0  0  0  0  0  0  0  0  0
  151.4077  139.1962  154.6804 C   0  0  0  0  0  0  0  0  0  0  0  0
  146.3300  133.0230  153.6337 C   0  0  0  0  0  0  0  0  0  0  0  0
  145.4358  132.7335  152.4233 C   0  0  0  0  0  0  0  0  0  0  0  0
  144.0693  133.3091  152.5788 N   0  3  2  0  0  0  0  0  0  0  0  0
  143.1831  132.9210  151.4440 C   0  0  0  0  0  0  0  0  0  0  0  0
  143.9496  132.8671  150.1123 C   0  0  0  0  0  0  0  0  0  0  0  0
  143.1160  132.3459  149.0988 O   0  0  0  0  0  0  0  0  0  0  0  0
  142.6842  136.2093  153.8444 H   0  0  0  0  0  0  0  0  0  0  0  0
  142.2890  134.5380  154.2120 H   0  0  0  0  0  0  0  0  0  0  0  0
  141.9144  135.2213  152.6341 H   0  0  0  0  0  0  0  0  0  0  0  0
  144.4846  136.7114  152.0270 H   0  0  0  0  0  0  0  0  0  0  0  0
  143.7925  135.5587  150.9036 H   0  0  0  0  0  0  0  0  0  0  0  0
  145.4783  135.4193  151.3860 H   0  0  0  0  0  0  0  0  0  0  0  0
  145.0809  136.0944  154.3366 H   0  0  0  0  0  0  0  0  0  0  0  0
  144.6137  134.5701  155.0366 H   0  0  0  0  0  0  0  0  0  0  0  0
  149.7130  133.8148  156.6747 H   0  0  0  0  0  0  0  0  0  0  0  0
  147.3887  139.4931  154.7179 H   0  0  0  0  0  0  0  0  0  0  0  0
  148.9826  139.5108  157.1915 H   0  0  0  0  0  0  0  0  0  0  0  0
  150.2426  138.3252  157.0569 H   0  0  0  0  0  0  0  0  0  0  0  0
  149.9983  141.4746  154.1002 H   0  0  0  0  0  0  0  0  0  0  0  0
  148.6763  140.3512  154.2798 H   0  0  0  0  0  0  0  0  0  0  0  0
  148.9240  142.6739  155.3598 H   0  0  0  0  0  0  0  0  0  0  0  0
  151.8446  141.5509  155.8837 H   0  0  0  0  0  0  0  0  0  0  0  0
  151.7026  140.4370  157.2836 H   0  0  0  0  0  0  0  0  0  0  0  0
  151.2791  138.1141  154.6343 H   0  0  0  0  0  0  0  0  0  0  0  0
  151.5036  139.6152  153.6775 H   0  0  0  0  0  0  0  0  0  0  0  0
  147.3412  132.6664  153.4324 H   0  0  0  0  0  0  0  0  0  0  0  0
  145.9634  132.4845  154.5088 H   0  0  0  0  0  0  0  0  0  0  0  0
  145.9021  133.1356  151.5232 H   0  0  0  0  0  0  0  0  0  0  0  0
  145.3764  131.6550  152.2808 H   0  0  0  0  0  0  0  0  0  0  0  0
  142.7119  131.9531  151.5977 H   0  0  0  0  0  0  0  0  0  0  0  0
  142.3575  133.6305  151.3697 H   0  0  0  0  0  0  0  0  0  0  0  0
  144.2536  133.8723  149.8197 H   0  0  0  0  0  0  0  0  0  0  0  0
  144.8582  132.2699  150.1839 H   0  0  0  0  0  0  0  0  0  0  0  0
  142.3257  132.8639  149.0617 H   0  0  0  0  0  0  0  0  0  0  0  0
  143.6736  132.8506  153.3875 H   0  0  0  0  0  0  0  0  0  0  0  0
  1  2  1  0  0  0  0
  1 28  1  0  0  0  0
  1 29  1  0  0  0  0
  1 30  1  0  0  0  0
  2 24  1  0  0  0  0
  2  3  1  0  0  0  0
  2  4  1  0  0  0  0
  3 31  1  0  0  0  0
  3 32  1  0  0  0  0
  3 33  1  0  0  0  0
  4  5  1  0  0  0  0
  4 34  1  0  0  0  0
  4 35  1  0  0  0  0
  5  6  1  0  0  0  0
  5 22  1  0  0  0  0
  6 11  1  0  0  0  0
  6  7  2  0  0  0  0
  7  8  1  0  0  0  0
  8  9  2  0  0  0  0
  8 36  1  0  0  0  0
  9 10  1  0  0  0  0
 10 14  1  0  0  0  0
 10 11  2  0  0  0  0
 11 12  1  0  0  0  0
 12 13  2  0  0  0  0
 13 14  1  0  0  0  0
 13 37  1  0  0  0  0
 14 15  1  0  0  0  0
 15 16  1  0  0  0  0
 15 38  1  0  0  0  0
 15 39  1  0  0  0  0
 16 21  1  0  0  0  0
 16 17  1  0  0  0  0
 16 19  1  0  0  0  0
 17 18  1  0  0  0  0
 17 40  1  0  0  0  0
 17 41  1  0  0  0  0
 18 42  1  0  0  0  0
 19 20  1  0  0  0  0
 19 43  1  0  0  0  0
 19 44  1  0  0  0  0
 20 21  1  0  0  0  0
 21 45  1  0  0  0  0
 21 46  1  0  0  0  0
 22 23  1  0  0  0  0
 22 47  1  0  0  0  0
 22 48  1  0  0  0  0
 23 24  1  0  0  0  0
 23 49  1  0  0  0  0
 23 50  1  0  0  0  0
 24 25  1  0  0  0  0
 24 56  1  0  0  0  0
 25 26  1  0  0  0  0
 25 51  1  0  0  0  0
 25 52  1  0  0  0  0
 26 27  1  0  0  0  0
 26 53  1  0  0  0  0
 26 54  1  0  0  0  0
 27 55  1  0  0  0  0
M  CHG  1  24   1
M  END
> <s_m_source_file>
AV-unprocessed.smi

> <i_m_source_file_index>
207

> <i_lp_mmshare_version>
43012

> <i_f3d_flags>
0

> <s_epik_input>
W09IXVtDSDJdW0NIMl1OMVtDSDJdW0NIMl1OKFtDSDJdQzEoW0NIM10pW0NIM10pYyhuW2NIXW4yKWMoYzIzKW5bY0hdbjNbQ0gyXUM0KFtDSDJdW09IXSlbQ0gyXU9bQ0gyXTQ=

> <s_epik_cmdline>
J2VwaWtfcHl0aG9uJywgJy1waCcsICc3LjAnLCAnLXRuJywgJzgnLCAnLW1hJywgJzIwMCcsICctbWV0YWxfYmluZGluZycsICctaW1hZScsICc8aW5maWxlLm1hZT4nLCAnLW9tYWUnLCAnPG91dGZpbGUubWFlPic=

> <r_lp_tautomer_probability>
1

> <r_epik_Ionization_Penalty>
0.416568

> <r_epik_Ionization_Penalty_Charging>
0.416506

> <r_epik_Ionization_Penalty_Neutral>
6.2219e-05

> <r_epik_State_Penalty>
0.419386

> <r_epik_Charging_Adjusted_Penalty>
0.835892

> <i_epik_Tot_Q>
1

> <i_epik_Tot_abs_Q>
1

> <r_epik_Metal_State_Penalty>
0.420232

> <b_epik_Metal_Only>
0

> <s_lp_Force_Field>
OPLS_2005

> <r_lp_Energy>
56.1561

> <b_lp_Chiralities_Consistent>
1

> <s_lp_Variant>
AV-unprocessed.smi:207-3

> <Gold.Version>
5.8.1

> <Gold.Id.Protein>
6NUR|6NUR_protein|mol2

> <Gold.PLP.Fitness>
48.5191

> <Gold.PLP.PLP>
-33.4966

> <Gold.PLP.part.hbond>
-5.5494

> <Gold.PLP.part.metal>
0.0000

> <Gold.PLP.part.buried>
-5.9772

> <Gold.PLP.part.nonpolar>
-23.5314

> <Gold.PLP.part.repulsive>
0.2382

> <Gold.PLP.ligand.clash>
0.0000

> <Gold.PLP.ligand.torsion>
0.7802

> <Gold.PLP.Chemscore.Hbond>
5.2556

> <Gold.PLP.Chemscore.CHOScore>
0.0000

> <Gold.PLP.Chemscore.Metal>
0.0000

> <Gold.Chemscore.Hbonds>
donor molecule, donor type, donor heavy atom, donor atom, acceptor molecule, acceptor atom, score
      L1  H    18    42       P1  8028  0.92
      L1  H    24    56       P1 10957  2.00
      L1  H    27    55       P1 10186  0.86
      P1  H  7997  8010       L1    20  1.00
      P1  H 10785 10796       L1    27  0.50

> <Gold.PLP.Chemscore.Internal.Correction>
0.8160

> <Gold.Rescore>
     Score         DG    S(hbond)    S(metal)    S(lipo)     H(rot)  DE(clash)    DE(int)     intcor
     15.37     -17.26       4.13        0.00      65.75       3.80       0.00       1.88       ----

> <Gold.Chemscore.Fitness>
15.3695

> <Gold.Chemscore.DG>
-17.2557

> <Gold.Chemscore.ZeroCoef>
-5.4800

> <Gold.Chemscore.Hbond>
4.1350

> <Gold.Chemscore.Metal>
0.0000

> <Gold.Chemscore.Lipo>
65.7454

> <Gold.Chemscore.Internal_Hbond>
0.0000

> <Gold.Chemscore.DEClash>
0.0013

> <Gold.Chemscore.DEInternal>
1.8849

> <Gold.Chemscore.Rot>
3.7997

> <Gold.Chemscore.Internal.Correction>
   9.000000E+99

> <Gold.Chemscore.Hbonds>
donor molecule, donor type, donor heavy atom, donor atom, acceptor molecule, acceptor atom, score
      L1  H    18    42       P1  8028  0.83
      L1  H    24    56       P1 10957  0.61
      L1  H    27    55       P1 10186  0.83
      P1  H  7997  8010       L1    20  0.42
      P1  H 10785 10796       L1    27  0.46

> <Gold.Chemscore.Hbond.Weighted>
-13.8108

> <Gold.Chemscore.Metal.Weighted>
-0.0000

> <Gold.Chemscore.Lipo.Weighted>
-7.6922

> <Gold.Chemscore.Internal_Hbond.Weighted>
0.0000

> <Gold.Chemscore.DEClash.Weighted>
0.0013

> <Gold.Chemscore.DEInternal.Weighted>
1.8849

> <Gold.Chemscore.Rot.Weighted>
9.7273

> <Gold.Chemscore.Internal.Correction.Weighted>
   9.000000E+99

> <Gold.Protein.RotatedTorsions>
[ 6907 6896 6895 6894 ] final   42.96 input  -60.11 | X-H torsion
[ 7974 7965 7964 7962 ] final   46.89 input  175.53 | X-H torsion
[ 8008 7997 7996 7995 ] final   94.41 input   59.86 | X-H torsion
[ 10167 10162 10161 10158 ] final  -19.35 input  -65.29 | X-H torsion
[ 10718 10713 10712 10709 ] final  143.13 input   66.30 | X-H torsion
[ 10763 10752 10751 10750 ] final   20.45 input  -60.55 | X-H torsion
[ 11005 11000 10999 10996 ] final  -67.26 input  -57.11 | X-H torsion

> <Gold.Protein.ActiveResidues>
 VAL166  LYS551  ARG553  GLY616  TRP617  ASP618  TYR619  PRO620  LYS621  CYS622 
 ASP623  PHE694  ASN695  SER759  ASP760  ASP761  ALA762  ILE779  LEU786  VAL792 
 PHE793  MET794  SER795  GLU796  ALA797  LYS798  CYS799  TRP800  GLU811  SER814 

> <Gold.Protein.RotatedAtoms>
  152.2143  134.8472  160.0493 H   0  0  0  0  0  0  0  0  0  0  0  0  # atno 6907 bound_to 6896
  151.9279  133.3598  159.3928 H   0  0  0  0  0  0  0  0  0  0  0  0  # atno 6908 bound_to 6896
  150.6984  134.4493  159.5372 H   0  0  0  0  0  0  0  0  0  0  0  0  # atno 6909 bound_to 6896
  146.0348  139.4807  142.9815 H   0  0  0  0  0  0  0  0  0  0  0  0  # atno 7974 bound_to 7965
  156.0576  140.3300  155.7423 H   0  0  0  0  0  0  0  0  0  0  0  0  # atno 8008 bound_to 7997
  155.5505  140.0610  157.2868 H   0  0  0  0  0  0  0  0  0  0  0  0  # atno 8009 bound_to 7997
  154.4465  140.1895  156.0670 H   0  0  0  0  0  0  0  0  0  0  0  0  # atno 8010 bound_to 7997
  140.7267  143.4828  151.0095 H   0  0  0  0  0  0  0  0  0  0  0  0  # atno 10167 bound_to 10162
  157.3726  131.0981  151.0814 H   0  0  0  0  0  0  0  0  0  0  0  0  # atno 10718 bound_to 10713
  153.1077  135.6689  153.9557 H   0  0  0  0  0  0  0  0  0  0  0  0  # atno 10763 bound_to 10752
  153.9109  135.3025  155.3450 H   0  0  0  0  0  0  0  0  0  0  0  0  # atno 10764 bound_to 10752
  154.7497  135.5040  153.9344 H   0  0  0  0  0  0  0  0  0  0  0  0  # atno 10765 bound_to 10752
  141.1503  133.6715  156.6265 H   0  0  0  0  0  0  0  0  0  0  0  0  # atno 11005 bound_to 11000
  145.6982  141.0144  143.1519 LP  0  0  0  0  0  0  0  0  0  0  0  0  # atno 17320 bound_to 7965
  144.7047  139.8613  143.7434 LP  0  0  0  0  0  0  0  0  0  0  0  0  # atno 17321 bound_to 7965
  139.8527  143.7417  152.3177 LP  0  0  0  0  0  0  0  0  0  0  0  0  # atno 17342 bound_to 10162
  139.7605  144.7508  151.0371 LP  0  0  0  0  0  0  0  0  0  0  0  0  # atno 17343 bound_to 10162
  157.1913  130.6353  149.5705 LP  0  0  0  0  0  0  0  0  0  0  0  0  # atno 17370 bound_to 10713
  155.9758  130.4721  150.6488 LP  0  0  0  0  0  0  0  0  0  0  0  0  # atno 17371 bound_to 10713
  140.3500  134.7777  157.4460 LP  0  0  0  0  0  0  0  0  0  0  0  0  # atno 17394 bound_to 11000
  140.0868  134.5655  155.8484 LP  0  0  0  0  0  0  0  0  0  0  0  0  # atno 17395 bound_to 11000

$$$$
