AV-unprocessed.smi:3150|AV-procd|sdf|12012|dock9
  -GOLD-   2272017423D 1   1.00000     0.00000
 Structure written by MMmdl.
 32 33  0  0  0  0  0  0  0  0  2 V2000
  148.2839  138.4779  157.4212 C   0  0  0  0  0  0  0  0  0  0  0  0
  149.5311  137.7262  157.9055 C   0  0  1  0  0  0  0  0  0  0  0  0
  150.2652  138.6024  158.7574 O   0  0  0  0  0  0  0  0  0  0  0  0
  151.1227  139.5160  158.0842 C   0  0  0  0  0  0  0  0  0  0  0  0
  150.3192  140.7360  157.6887 C   0  0  0  0  0  0  0  0  0  0  0  0
  150.9539  141.8389  156.8724 C   0  0  0  0  0  0  0  0  0  0  0  0
  150.6035  142.0804  158.3187 C   0  0  0  0  0  0  0  0  0  0  0  0
  149.1345  136.4465  158.6612 C   0  0  0  0  0  0  0  0  0  0  0  0
  149.4087  135.3541  158.1564 O   0  0  0  0  0  0  0  0  0  0  0  0
  148.4907  136.7311  159.8627 N   0  0  0  0  0  0  0  0  0  0  0  0
  147.9855  135.8164  160.6450 C   0  0  0  0  0  0  0  0  0  0  0  0
  148.0337  134.4411  160.3576 N   0  0  0  0  0  0  0  0  0  0  0  0
  147.4945  133.4799  161.1861 C   0  0  0  0  0  0  0  0  0  0  0  0
  146.8870  133.8046  162.3285 C   0  0  0  0  0  0  0  0  0  0  0  0
  146.7962  135.2015  162.7001 C   0  0  0  0  0  0  0  0  0  0  0  0
  147.3240  136.2208  161.8988 C   0  0  0  0  0  0  0  0  0  0  0  0
  147.2210  137.4163  162.2595 O   0  5  0  0  0  0  0  0  0  0  0  0
  147.6833  137.8588  156.7537 H   0  0  0  0  0  0  0  0  0  0  0  0
  148.5636  139.3775  156.8723 H   0  0  0  0  0  0  0  0  0  0  0  0
  147.6517  138.7832  158.2559 H   0  0  0  0  0  0  0  0  0  0  0  0
  150.1440  137.4798  157.0357 H   0  0  0  0  0  0  0  0  0  0  0  0
  151.9597  139.8215  158.7135 H   0  0  0  0  0  0  0  0  0  0  0  0
  151.5323  139.0559  157.1841 H   0  0  0  0  0  0  0  0  0  0  0  0
  149.2756  140.5218  157.4663 H   0  0  0  0  0  0  0  0  0  0  0  0
  152.0085  141.7422  156.6212 H   0  0  0  0  0  0  0  0  0  0  0  0
  150.3374  142.3227  156.1176 H   0  0  0  0  0  0  0  0  0  0  0  0
  149.7526  142.7246  158.5305 H   0  0  0  0  0  0  0  0  0  0  0  0
  151.4229  142.1409  159.0324 H   0  0  0  0  0  0  0  0  0  0  0  0
  147.6048  132.4647  160.8349 H   0  0  0  0  0  0  0  0  0  0  0  0
  146.4693  133.0392  162.9658 H   0  0  0  0  0  0  0  0  0  0  0  0
  146.3022  135.4525  163.6279 H   0  0  0  0  0  0  0  0  0  0  0  0
  148.4744  134.1063  159.5136 H   0  0  0  0  0  0  0  0  0  0  0  0
  1  2  1  0  0  0  0
  1 18  1  0  0  0  0
  1 19  1  0  0  0  0
  1 20  1  0  0  0  0
  2  3  1  0  0  0  0
  2  8  1  0  0  0  0
  2 21  1  0  0  0  0
  3  4  1  0  0  0  0
  4  5  1  0  0  0  0
  4 22  1  0  0  0  0
  4 23  1  0  0  0  0
  5  7  1  0  0  0  0
  5  6  1  0  0  0  0
  5 24  1  0  0  0  0
  6  7  1  0  0  0  0
  6 25  1  0  0  0  0
  6 26  1  0  0  0  0
  7 27  1  0  0  0  0
  7 28  1  0  0  0  0
  8  9  2  0  0  0  0
  8 10  1  0  0  0  0
 10 11  2  0  0  0  0
 11 16  1  0  0  0  0
 11 12  1  0  0  0  0
 12 32  1  0  0  0  0
 12 13  1  0  0  0  0
 13 29  1  0  0  0  0
 13 14  2  0  0  0  0
 14 30  1  0  0  0  0
 14 15  1  0  0  0  0
 15 16  2  0  0  0  0
 15 31  1  0  0  0  0
 16 17  1  0  0  0  0
M  CHG  1  17  -1
M  END
> <s_m_source_file>
AV-unprocessed.smi

> <i_m_source_file_index>
3150

> <i_lp_mmshare_version>
43012

> <i_f3d_flags>
0

> <s_epik_input>
W0NIMl0xW0NIMl1bQ0hdMVtDSDJdT1tDQEBIXShbQ0gzXSlDKD1PKVtOSF1jMm5bY0hdW2NIXVtjSF1jMltPSF0=

> <s_epik_cmdline>
J2VwaWtfcHl0aG9uJywgJy1waCcsICc3LjAnLCAnLXRuJywgJzgnLCAnLW1hJywgJzIwMCcsICctbWV0YWxfYmluZGluZycsICctaW1hZScsICc8aW5maWxlLm1hZT4nLCAnLW9tYWUnLCAnPG91dGZpbGUubWFlPic=

> <r_epik_Ionization_Penalty>
0.784632

> <r_epik_Ionization_Penalty_Charging>
0.784632

> <r_epik_Ionization_Penalty_Neutral>
7.02258e-13

> <r_epik_State_Penalty>
1.43154

> <r_epik_Charging_Adjusted_Penalty>
2.21617

> <i_epik_Tot_Q>
-1

> <i_epik_Tot_abs_Q>
1

> <r_epik_Metal_State_Penalty>
1.39244

> <b_epik_Metal_Only>
0

> <s_lp_Force_Field>
OPLS_2005

> <r_lp_Energy>
45.381

> <b_lp_Chiralities_Consistent>
1

> <s_lp_Variant>
AV-unprocessed.smi:3150-6

> <Gold.Version>
5.8.1

> <Gold.Id.Protein>
6NUR|6NUR_protein|mol2

> <Gold.PLP.Fitness>
40.4362

> <Gold.PLP.PLP>
-31.0538

> <Gold.PLP.part.hbond>
-3.2303

> <Gold.PLP.part.metal>
0.0000

> <Gold.PLP.part.buried>
-4.6586

> <Gold.PLP.part.nonpolar>
-23.1055

> <Gold.PLP.part.repulsive>
0.0824

> <Gold.PLP.ligand.clash>
0.0000

> <Gold.PLP.ligand.torsion>
0.8823

> <Gold.PLP.Chemscore.Hbond>
3.5280

> <Gold.PLP.Chemscore.CHOScore>
0.0000

> <Gold.PLP.Chemscore.Metal>
0.0000

> <Gold.Chemscore.Hbonds>
donor molecule, donor type, donor heavy atom, donor atom, acceptor molecule, acceptor atom, score
      P1  H  6896  6908       L1     9  0.94
      P1  H  6931  6943       L1    17  1.41
      P1  H  6934  6947       L1    17  1.11

> <Gold.PLP.Chemscore.Internal.Correction>
0.5631

> <Gold.Rescore>
     Score         DG    S(hbond)    S(metal)    S(lipo)     H(rot)  DE(clash)    DE(int)     intcor
     13.55     -14.39       1.92        0.00      57.10       1.64       0.00       0.84       ----

> <Gold.Chemscore.Fitness>
13.5536

> <Gold.Chemscore.DG>
-14.3948

> <Gold.Chemscore.ZeroCoef>
-5.4800

> <Gold.Chemscore.Hbond>
1.9249

> <Gold.Chemscore.Metal>
0.0000

> <Gold.Chemscore.Lipo>
57.0987

> <Gold.Chemscore.Internal_Hbond>
0.0000

> <Gold.Chemscore.DEClash>
0.0048

> <Gold.Chemscore.DEInternal>
0.8363

> <Gold.Chemscore.Rot>
1.6387

> <Gold.Chemscore.Internal.Correction>
   9.000000E+99

> <Gold.Chemscore.Hbonds>
donor molecule, donor type, donor heavy atom, donor atom, acceptor molecule, acceptor atom, score
      P1  H  6896  6908       L1     9  0.66
      P1  H  6931  6943       L1    17  0.40
      P1  H  6934  6947       L1    17  0.52

> <Gold.Chemscore.Hbond.Weighted>
-6.4293

> <Gold.Chemscore.Metal.Weighted>
-0.0000

> <Gold.Chemscore.Lipo.Weighted>
-6.6805

> <Gold.Chemscore.Internal_Hbond.Weighted>
0.0000

> <Gold.Chemscore.DEClash.Weighted>
0.0048

> <Gold.Chemscore.DEInternal.Weighted>
0.8363

> <Gold.Chemscore.Rot.Weighted>
4.1950

> <Gold.Chemscore.Internal.Correction.Weighted>
   9.000000E+99

> <Gold.Protein.RotatedTorsions>
[ 6907 6896 6895 6894 ] final  151.02 input  -60.11 | X-H torsion
[ 7974 7965 7964 7962 ] final   14.53 input  175.53 | X-H torsion
[ 8008 7997 7996 7995 ] final   76.75 input   59.86 | X-H torsion
[ 10167 10162 10161 10158 ] final -103.34 input  -65.29 | X-H torsion
[ 10718 10713 10712 10709 ] final   -1.26 input   66.30 | X-H torsion
[ 10763 10752 10751 10750 ] final  148.73 input  -60.55 | X-H torsion
[ 11005 11000 10999 10996 ] final  -72.09 input  -57.11 | X-H torsion

> <Gold.Protein.ActiveResidues>
 VAL166  LYS551  ARG553  GLY616  TRP617  ASP618  TYR619  PRO620  LYS621  CYS622 
 ASP623  PHE694  ASN695  SER759  ASP760  ASP761  ALA762  ILE779  LEU786  VAL792 
 PHE793  MET794  SER795  GLU796  ALA797  LYS798  CYS799  TRP800  GLU811  SER814 

> <Gold.Protein.RotatedAtoms>
  152.1064  133.4277  159.4610 H   0  0  0  0  0  0  0  0  0  0  0  0  # atno 6907 bound_to 6896
  150.6865  134.2700  159.4593 H   0  0  0  0  0  0  0  0  0  0  0  0  # atno 6908 bound_to 6896
  152.0565  134.9621  160.0625 H   0  0  0  0  0  0  0  0  0  0  0  0  # atno 6909 bound_to 6896
  146.2302  139.9027  142.8536 H   0  0  0  0  0  0  0  0  0  0  0  0  # atno 7974 bound_to 7965
  155.8318  140.3466  155.5577 H   0  0  0  0  0  0  0  0  0  0  0  0  # atno 8008 bound_to 7997
  155.8233  140.0916  157.1856 H   0  0  0  0  0  0  0  0  0  0  0  0  # atno 8009 bound_to 7997
  154.4004  140.1426  156.3514 H   0  0  0  0  0  0  0  0  0  0  0  0  # atno 8010 bound_to 7997
  140.2210  143.3676  152.0970 H   0  0  0  0  0  0  0  0  0  0  0  0  # atno 10167 bound_to 10162
  156.8082  130.5415  149.5712 H   0  0  0  0  0  0  0  0  0  0  0  0  # atno 10718 bound_to 10713
  154.0596  135.2875  155.3327 H   0  0  0  0  0  0  0  0  0  0  0  0  # atno 10763 bound_to 10752
  154.6817  135.5261  153.8275 H   0  0  0  0  0  0  0  0  0  0  0  0  # atno 10764 bound_to 10752
  153.0528  135.6583  154.0786 H   0  0  0  0  0  0  0  0  0  0  0  0  # atno 10765 bound_to 10752
  141.1603  133.6836  156.7005 H   0  0  0  0  0  0  0  0  0  0  0  0  # atno 11005 bound_to 11000
  145.2307  140.9972  143.3992 LP  0  0  0  0  0  0  0  0  0  0  0  0  # atno 17320 bound_to 7965
  144.9533  139.4059  143.6392 LP  0  0  0  0  0  0  0  0  0  0  0  0  # atno 17321 bound_to 7965
  139.5144  144.6948  151.5662 LP  0  0  0  0  0  0  0  0  0  0  0  0  # atno 17342 bound_to 10162
  140.6255  143.9177  150.6561 LP  0  0  0  0  0  0  0  0  0  0  0  0  # atno 17343 bound_to 10162
  156.1060  130.6005  150.9972 LP  0  0  0  0  0  0  0  0  0  0  0  0  # atno 17370 bound_to 10713
  157.6519  131.0895  150.8031 LP  0  0  0  0  0  0  0  0  0  0  0  0  # atno 17371 bound_to 10713
  140.2962  134.8201  157.4059 LP  0  0  0  0  0  0  0  0  0  0  0  0  # atno 17394 bound_to 11000
  140.1302  134.5104  155.8111 LP  0  0  0  0  0  0  0  0  0  0  0  0  # atno 17395 bound_to 11000

$$$$
