AV-unprocessed.smi:2750|AV-procd|sdf|10590|dock7
  -GOLD-   2272015 43D 1   1.00000     0.00000
 Structure written by MMmdl.
 25 26  0  0  0  0  0  0  0  0  2 V2000
  150.0225  134.8022  156.3824 O   0  0  0  0  0  0  0  0  0  0  0  0
  150.9368  135.5660  156.0021 C   0  0  0  0  0  0  0  0  0  0  0  0
  152.0388  135.7178  156.5753 O   0  5  0  0  0  0  0  0  0  0  0  0
  150.6869  136.3575  154.7145 C   0  0  0  0  0  0  0  0  0  0  0  0
  150.4489  137.7720  154.9486 N   0  0  0  0  0  0  0  0  0  0  0  0
  149.8181  138.6858  154.1292 C   0  0  0  0  0  0  0  0  0  0  0  0
  149.8776  139.8480  154.8438 C   0  0  0  0  0  0  0  0  0  0  0  0
  149.3530  141.2063  154.4835 C   0  0  0  0  0  0  0  0  0  0  0  0
  147.9361  141.4710  155.0324 C   0  0  1  0  0  0  0  0  0  0  0  0
  147.4181  142.7811  154.6747 N   0  0  0  0  0  0  0  0  0  0  0  0
  146.2821  142.7074  153.9680 C   0  0  0  0  0  0  0  0  0  0  0  0
  145.6352  143.6598  153.5391 O   0  0  0  0  0  0  0  0  0  0  0  0
  145.9778  141.4146  153.8100 N   0  0  0  0  0  0  0  0  0  0  0  0
  146.8745  140.6078  154.3751 C   0  0  0  0  0  0  0  0  0  0  0  0
  146.8667  139.3783  154.3774 O   0  0  0  0  0  0  0  0  0  0  0  0
  150.5294  139.5975  156.0514 N   0  0  0  0  0  0  0  0  0  0  0  0
  150.8710  138.3479  156.1002 N   0  0  0  0  0  0  0  0  0  0  0  0
  151.5550  136.2546  154.0630 H   0  0  0  0  0  0  0  0  0  0  0  0
  149.8350  135.9383  154.1764 H   0  0  0  0  0  0  0  0  0  0  0  0
  149.4098  138.4382  153.1607 H   0  0  0  0  0  0  0  0  0  0  0  0
  150.0406  141.9725  154.8460 H   0  0  0  0  0  0  0  0  0  0  0  0
  149.3414  141.3133  153.3980 H   0  0  0  0  0  0  0  0  0  0  0  0
  147.9029  141.3444  156.1153 H   0  0  0  0  0  0  0  0  0  0  0  0
  147.8819  143.6418  154.9278 H   0  0  0  0  0  0  0  0  0  0  0  0
  145.1661  141.0872  153.3069 H   0  0  0  0  0  0  0  0  0  0  0  0
  1  2  2  0  0  0  0
  2  3  1  0  0  0  0
  2  4  1  0  0  0  0
  4  5  1  0  0  0  0
  4 18  1  0  0  0  0
  4 19  1  0  0  0  0
  5 17  1  0  0  0  0
  5  6  1  0  0  0  0
  6  7  2  0  0  0  0
  6 20  1  0  0  0  0
  7  8  1  0  0  0  0
  7 16  1  0  0  0  0
  8  9  1  0  0  0  0
  8 21  1  0  0  0  0
  8 22  1  0  0  0  0
  9 14  1  0  0  0  0
  9 10  1  0  0  0  0
  9 23  1  0  0  0  0
 10 11  1  0  0  0  0
 10 24  1  0  0  0  0
 11 12  2  0  0  0  0
 11 13  1  0  0  0  0
 13 14  1  0  0  0  0
 13 25  1  0  0  0  0
 14 15  2  0  0  0  0
 16 17  2  0  0  0  0
M  CHG  1   3  -1
M  END
> <s_m_source_file>
AV-unprocessed.smi

> <i_m_source_file_index>
2750

> <i_lp_mmshare_version>
43012

> <i_f3d_flags>
0

> <s_epik_input>
Tz1DKFtPSF0pW0NIMl1uMVtjSF1jKG5uMSlbQ0gyXVtDQEBIXTJbTkhdQyg9TylbTkhdQzI9Tw==

> <s_epik_cmdline>
J2VwaWtfcHl0aG9uJywgJy1waCcsICc3LjAnLCAnLXRuJywgJzgnLCAnLW1hJywgJzIwMCcsICctbWV0YWxfYmluZGluZycsICctaW1hZScsICc8aW5maWxlLm1hZT4nLCAnLW9tYWUnLCAnPG91dGZpbGUubWFlPic=

> <r_lp_tautomer_probability>
1

> <r_epik_Ionization_Penalty>
0.019671

> <r_epik_Ionization_Penalty_Charging>
2.66176e-05

> <r_epik_Ionization_Penalty_Neutral>
0.0196444

> <r_epik_State_Penalty>
0.0155882

> <r_epik_Charging_Adjusted_Penalty>
0.0156148

> <i_epik_Tot_Q>
-1

> <i_epik_Tot_abs_Q>
1

> <r_epik_Metal_State_Penalty>
0.396229

> <b_epik_Metal_Only>
0

> <s_lp_Force_Field>
OPLS_2005

> <r_lp_Energy>
18.3652

> <b_lp_Chiralities_Consistent>
1

> <s_lp_Variant>
AV-unprocessed.smi:2750-2

> <Gold.Version>
5.8.1

> <Gold.Id.Protein>
6NUR|6NUR_protein|mol2

> <Gold.PLP.Fitness>
39.7125

> <Gold.PLP.PLP>
-24.0122

> <Gold.PLP.part.hbond>
-3.0000

> <Gold.PLP.part.metal>
0.0000

> <Gold.PLP.part.buried>
-2.3186

> <Gold.PLP.part.nonpolar>
-19.1513

> <Gold.PLP.part.repulsive>
0.5036

> <Gold.PLP.ligand.clash>
0.0000

> <Gold.PLP.ligand.torsion>
0.8227

> <Gold.PLP.Chemscore.Hbond>
4.0000

> <Gold.PLP.Chemscore.CHOScore>
1.7750

> <Gold.PLP.Chemscore.Metal>
0.0000

> <Gold.Chemscore.Hbonds>
donor molecule, donor type, donor heavy atom, donor atom, acceptor molecule, acceptor atom, score
      L1  H    10    24       P1  8028  1.00
      L1  H    13    25       P1 10175  1.00
      P1  H 10752 10763       L1     3  2.00
      L1  C     6    20       P1  7948  0.92
      L1  C     6    20       P1  7957  0.79

> <Gold.PLP.Chemscore.Internal.Correction>
0.0208

> <Gold.Rescore>
     Score         DG    S(hbond)    S(metal)    S(lipo)     H(rot)  DE(clash)    DE(int)     intcor
     10.12     -11.18       2.70        0.00      33.70       2.84       0.04       1.02       ----

> <Gold.Chemscore.Fitness>
10.1172

> <Gold.Chemscore.DG>
-11.1804

> <Gold.Chemscore.ZeroCoef>
-5.4800

> <Gold.Chemscore.Hbond>
2.6995

> <Gold.Chemscore.Metal>
0.0000

> <Gold.Chemscore.Lipo>
33.6979

> <Gold.Chemscore.Internal_Hbond>
0.0000

> <Gold.Chemscore.DEClash>
0.0398

> <Gold.Chemscore.DEInternal>
1.0234

> <Gold.Chemscore.Rot>
2.8354

> <Gold.Chemscore.Internal.Correction>
   9.000000E+99

> <Gold.Chemscore.Hbonds>
donor molecule, donor type, donor heavy atom, donor atom, acceptor molecule, acceptor atom, score
      L1  H    10    24       P1  8028  0.44
      L1  H    13    25       P1 10175  0.40
      P1  H 10752 10763       L1     3  0.45

> <Gold.Chemscore.Hbond.Weighted>
-9.0163

> <Gold.Chemscore.Metal.Weighted>
-0.0000

> <Gold.Chemscore.Lipo.Weighted>
-3.9427

> <Gold.Chemscore.Internal_Hbond.Weighted>
0.0000

> <Gold.Chemscore.DEClash.Weighted>
0.0398

> <Gold.Chemscore.DEInternal.Weighted>
1.0234

> <Gold.Chemscore.Rot.Weighted>
7.2586

> <Gold.Chemscore.Internal.Correction.Weighted>
   9.000000E+99

> <Gold.Protein.RotatedTorsions>
[ 6907 6896 6895 6894 ] final  141.50 input  -60.11 | X-H torsion
[ 7974 7965 7964 7962 ] final    7.56 input  175.53 | X-H torsion
[ 8008 7997 7996 7995 ] final  117.93 input   59.86 | X-H torsion
[ 10167 10162 10161 10158 ] final  -50.42 input  -65.29 | X-H torsion
[ 10718 10713 10712 10709 ] final   -9.43 input   66.30 | X-H torsion
[ 10763 10752 10751 10750 ] final  104.11 input  -60.55 | X-H torsion
[ 11005 11000 10999 10996 ] final  122.80 input  -57.11 | X-H torsion

> <Gold.Protein.ActiveResidues>
 VAL166  LYS551  ARG553  GLY616  TRP617  ASP618  TYR619  PRO620  LYS621  CYS622 
 ASP623  PHE694  ASN695  SER759  ASP760  ASP761  ALA762  ILE779  LEU786  VAL792 
 PHE793  MET794  SER795  GLU796  ALA797  LYS798  CYS799  TRP800  GLU811  SER814 

> <Gold.Protein.RotatedAtoms>
  152.2303  133.5052  159.5211 H   0  0  0  0  0  0  0  0  0  0  0  0  # atno 6907 bound_to 6896
  150.7035  134.1226  159.4049 H   0  0  0  0  0  0  0  0  0  0  0  0  # atno 6908 bound_to 6896
  151.9147  135.0324  160.0568 H   0  0  0  0  0  0  0  0  0  0  0  0  # atno 6909 bound_to 6896
  146.2425  140.0065  142.8411 H   0  0  0  0  0  0  0  0  0  0  0  0  # atno 7974 bound_to 7965
  156.2520  140.2885  156.0756 H   0  0  0  0  0  0  0  0  0  0  0  0  # atno 8008 bound_to 7997
  155.1623  140.0400  157.2862 H   0  0  0  0  0  0  0  0  0  0  0  0  # atno 8009 bound_to 7997
  154.6384  140.2516  155.7358 H   0  0  0  0  0  0  0  0  0  0  0  0  # atno 8010 bound_to 7997
  140.6638  143.2658  151.4356 H   0  0  0  0  0  0  0  0  0  0  0  0  # atno 10167 bound_to 10162
  156.6882  130.5057  149.5951 H   0  0  0  0  0  0  0  0  0  0  0  0  # atno 10718 bound_to 10713
  153.3616  135.3954  155.1723 H   0  0  0  0  0  0  0  0  0  0  0  0  # atno 10763 bound_to 10752
  154.8680  135.3681  154.5092 H   0  0  0  0  0  0  0  0  0  0  0  0  # atno 10764 bound_to 10752
  153.5551  135.7082  153.5633 H   0  0  0  0  0  0  0  0  0  0  0  0  # atno 10765 bound_to 10752
  139.9284  134.9641  156.8164 H   0  0  0  0  0  0  0  0  0  0  0  0  # atno 11005 bound_to 11000
  145.1367  140.9548  143.4512 LP  0  0  0  0  0  0  0  0  0  0  0  0  # atno 17320 bound_to 7965
  145.0335  139.3320  143.6012 LP  0  0  0  0  0  0  0  0  0  0  0  0  # atno 17321 bound_to 7965
  139.5880  144.1561  152.2054 LP  0  0  0  0  0  0  0  0  0  0  0  0  # atno 17342 bound_to 10162
  140.0906  144.5623  150.7057 LP  0  0  0  0  0  0  0  0  0  0  0  0  # atno 17343 bound_to 10162
  156.1817  130.6503  151.0959 LP  0  0  0  0  0  0  0  0  0  0  0  0  # atno 17370 bound_to 10713
  157.7019  131.0772  150.6794 LP  0  0  0  0  0  0  0  0  0  0  0  0  # atno 17371 bound_to 10713
  140.6270  133.9941  155.7644 LP  0  0  0  0  0  0  0  0  0  0  0  0  # atno 17394 bound_to 11000
  141.0857  133.9994  157.3317 LP  0  0  0  0  0  0  0  0  0  0  0  0  # atno 17395 bound_to 11000

$$$$
