AV-unprocessed.smi:1580|AV-procd|sdf|6358|dock10
  -GOLD-   22720 6583D 1   1.00000     0.00000
 Structure written by MMmdl.
 37 38  0  0  0  0  0  0  0  0  1 V2000
  154.7475  136.4059  157.2598 C   0  0  0  0  0  0  0  0  0  0  0  0
  153.1870  137.1934  157.8312 S   0  0  0  0  0  0  0  0  0  0  0  0
  152.9303  136.7401  159.2071 O   0  0  0  0  0  0  0  0  0  0  0  0
  153.2643  138.6341  157.5433 O   0  0  0  0  0  0  0  0  0  0  0  0
  151.9395  136.4833  156.7633 C   0  0  0  0  0  0  0  0  0  0  0  0
  151.2296  135.3340  157.1641 C   0  0  0  0  0  0  0  0  0  0  0  0
  150.2938  134.7848  156.2671 C   0  0  0  0  0  0  0  0  0  0  0  0
  150.1088  135.4023  155.0048 C   0  0  0  0  0  0  0  0  0  0  0  0
  149.2091  134.9448  154.0023 N   0  0  0  0  0  0  0  0  0  0  0  0
  148.6303  133.7392  153.8644 C   0  0  0  0  0  0  0  0  0  0  0  0
  148.7654  132.7873  154.6323 O   0  0  0  0  0  0  0  0  0  0  0  0
  147.8589  133.6966  152.7693 N   0  0  0  0  0  0  0  0  0  0  0  0
  147.0946  132.5345  152.3302 C   0  0  0  0  0  0  0  0  0  0  0  0
  146.3182  132.8168  151.0330 C   0  0  2  0  0  0  0  0  0  0  0  0
  145.2322  133.8796  151.1901 C   0  0  0  0  0  0  0  0  0  0  0  0
  144.2813  133.5116  150.0748 C   0  0  0  0  0  0  0  0  0  0  0  0
  144.3273  131.9874  150.1209 C   0  0  0  0  0  0  0  0  0  0  0  0
  145.6286  131.6478  150.5942 O   0  0  0  0  0  0  0  0  0  0  0  0
  150.8944  136.5369  154.7068 C   0  0  0  0  0  0  0  0  0  0  0  0
  151.7963  137.0710  155.5569 N   0  0  0  0  0  0  0  0  0  0  0  0
  155.5811  136.7786  157.8542 H   0  0  0  0  0  0  0  0  0  0  0  0
  154.9134  136.6471  156.2099 H   0  0  0  0  0  0  0  0  0  0  0  0
  154.6725  135.3251  157.3765 H   0  0  0  0  0  0  0  0  0  0  0  0
  151.3956  134.8789  158.1291 H   0  0  0  0  0  0  0  0  0  0  0  0
  149.7557  133.8996  156.5653 H   0  0  0  0  0  0  0  0  0  0  0  0
  148.9514  135.6348  153.3119 H   0  0  0  0  0  0  0  0  0  0  0  0
  147.7944  134.5254  152.1968 H   0  0  0  0  0  0  0  0  0  0  0  0
  147.7861  131.7050  152.1794 H   0  0  0  0  0  0  0  0  0  0  0  0
  146.4091  132.2261  153.1213 H   0  0  0  0  0  0  0  0  0  0  0  0
  146.9969  133.1253  150.2360 H   0  0  0  0  0  0  0  0  0  0  0  0
  144.7308  133.7809  152.1540 H   0  0  0  0  0  0  0  0  0  0  0  0
  145.6173  134.8964  151.1071 H   0  0  0  0  0  0  0  0  0  0  0  0
  143.2773  133.9135  150.2143 H   0  0  0  0  0  0  0  0  0  0  0  0
  144.6665  133.8718  149.1200 H   0  0  0  0  0  0  0  0  0  0  0  0
  143.5922  131.6061  150.8307 H   0  0  0  0  0  0  0  0  0  0  0  0
  144.1249  131.5360  149.1492 H   0  0  0  0  0  0  0  0  0  0  0  0
  150.7988  137.0332  153.7520 H   0  0  0  0  0  0  0  0  0  0  0  0
  1  2  1  0  0  0  0
  1 21  1  0  0  0  0
  1 22  1  0  0  0  0
  1 23  1  0  0  0  0
  2  3  2  0  0  0  0
  2  4  2  0  0  0  0
  2  5  1  0  0  0  0
  5 20  1  0  0  0  0
  5  6  2  0  0  0  0
  6  7  1  0  0  0  0
  6 24  1  0  0  0  0
  7  8  2  0  0  0  0
  7 25  1  0  0  0  0
  8  9  1  0  0  0  0
  8 19  1  0  0  0  0
  9 10  1  0  0  0  0
  9 26  1  0  0  0  0
 10 11  2  0  0  0  0
 10 12  1  0  0  0  0
 12 13  1  0  0  0  0
 12 27  1  0  0  0  0
 13 14  1  0  0  0  0
 13 28  1  0  0  0  0
 13 29  1  0  0  0  0
 14 18  1  0  0  0  0
 14 15  1  0  0  0  0
 14 30  1  0  0  0  0
 15 16  1  0  0  0  0
 15 31  1  0  0  0  0
 15 32  1  0  0  0  0
 16 17  1  0  0  0  0
 16 33  1  0  0  0  0
 16 34  1  0  0  0  0
 17 18  1  0  0  0  0
 17 35  1  0  0  0  0
 17 36  1  0  0  0  0
 19 20  2  0  0  0  0
 19 37  1  0  0  0  0
M  END
> <s_m_source_file>
AV-unprocessed.smi

> <i_m_source_file_index>
1580

> <i_lp_mmshare_version>
43012

> <i_f3d_flags>
0

> <s_epik_input>
W0NIM11TKD1PKSg9TyljMVtjSF1bY0hdYyhbY0hdbjEpW05IXUMoPU8pW05IXVtDSDJdW0NAQEhdMltDSDJdW0NIMl1bQ0gyXU8y

> <s_epik_cmdline>
J2VwaWtfcHl0aG9uJywgJy1waCcsICc3LjAnLCAnLXRuJywgJzgnLCAnLW1hJywgJzIwMCcsICctbWV0YWxfYmluZGluZycsICctaW1hZScsICc8aW5maWxlLm1hZT4nLCAnLW9tYWUnLCAnPG91dGZpbGUubWFlPic=

> <r_lp_tautomer_probability>
1

> <r_epik_Ionization_Penalty>
3.28405e-05

> <r_epik_Ionization_Penalty_Charging>
0

> <r_epik_Ionization_Penalty_Neutral>
3.28405e-05

> <r_epik_State_Penalty>
-0

> <r_epik_Charging_Adjusted_Penalty>
0

> <i_epik_Tot_Q>
0

> <i_epik_Tot_abs_Q>
0

> <r_epik_Metal_State_Penalty>
-0

> <b_epik_Metal_Only>
0

> <s_lp_Force_Field>
OPLS_2005

> <r_lp_Energy>
18.5173

> <b_lp_Chiralities_Consistent>
1

> <s_lp_Variant>
AV-unprocessed.smi:1580-1

> <Gold.Version>
5.8.1

> <Gold.Id.Protein>
6NUR|6NUR_protein|mol2

> <Gold.PLP.Fitness>
39.3563

> <Gold.PLP.PLP>
-24.8772

> <Gold.PLP.part.hbond>
-5.0000

> <Gold.PLP.part.metal>
0.0000

> <Gold.PLP.part.buried>
-0.0092

> <Gold.PLP.part.nonpolar>
-20.3747

> <Gold.PLP.part.repulsive>
0.1965

> <Gold.PLP.ligand.clash>
0.0000

> <Gold.PLP.ligand.torsion>
1.0994

> <Gold.PLP.Chemscore.Hbond>
3.8160

> <Gold.PLP.Chemscore.CHOScore>
1.0694

> <Gold.PLP.Chemscore.Metal>
0.0000

> <Gold.Chemscore.Hbonds>
donor molecule, donor type, donor heavy atom, donor atom, acceptor molecule, acceptor atom, score
      L1  H     9    26       P1  7948  1.00
      L1  H    12    27       P1  7948  0.72
      P1  H  6896  6907       L1     3  0.86
      P1  H  7997  8008       L1     4  1.00
      L1  C    19    37       P1  7948  0.20
      L1  C    19    37       P1  7949  0.78

> <Gold.PLP.Chemscore.Internal.Correction>
2.0215

> <Gold.Rescore>
     Score         DG    S(hbond)    S(metal)    S(lipo)     H(rot)  DE(clash)    DE(int)     intcor
     15.93     -19.38       3.17        0.00      56.11       1.27       1.31       2.15       ----

> <Gold.Chemscore.Fitness>
15.9262

> <Gold.Chemscore.DG>
-19.3814

> <Gold.Chemscore.ZeroCoef>
-5.4800

> <Gold.Chemscore.Hbond>
3.1719

> <Gold.Chemscore.Metal>
0.0000

> <Gold.Chemscore.Lipo>
56.1090

> <Gold.Chemscore.Internal_Hbond>
0.0000

> <Gold.Chemscore.DEClash>
1.3067

> <Gold.Chemscore.DEInternal>
2.1485

> <Gold.Chemscore.Rot>
1.2725

> <Gold.Chemscore.Internal.Correction>
   9.000000E+99

> <Gold.Chemscore.Hbonds>
donor molecule, donor type, donor heavy atom, donor atom, acceptor molecule, acceptor atom, score
      L1  H     9    26       P1  7948  0.74
      L1  H    12    27       P1  7948  0.30
      P1  H  6896  6907       L1     3  0.80
      P1  H  7997  8008       L1     4  0.91

> <Gold.Chemscore.Hbond.Weighted>
-10.5942

> <Gold.Chemscore.Metal.Weighted>
-0.0000

> <Gold.Chemscore.Lipo.Weighted>
-6.5648

> <Gold.Chemscore.Internal_Hbond.Weighted>
0.0000

> <Gold.Chemscore.DEClash.Weighted>
1.3067

> <Gold.Chemscore.DEInternal.Weighted>
2.1485

> <Gold.Chemscore.Rot.Weighted>
3.2576

> <Gold.Chemscore.Internal.Correction.Weighted>
   9.000000E+99

> <Gold.Protein.RotatedTorsions>
[ 6907 6896 6895 6894 ] final   23.31 input  -60.11 | X-H torsion
[ 7974 7965 7964 7962 ] final   15.06 input  175.53 | X-H torsion
[ 8008 7997 7996 7995 ] final  -92.97 input   59.86 | X-H torsion
[ 10167 10162 10161 10158 ] final  155.28 input  -65.29 | X-H torsion
[ 10718 10713 10712 10709 ] final  -57.73 input   66.30 | X-H torsion
[ 10763 10752 10751 10750 ] final   50.78 input  -60.55 | X-H torsion
[ 11005 11000 10999 10996 ] final  -91.03 input  -57.11 | X-H torsion

> <Gold.Protein.ActiveResidues>
 VAL166  LYS551  ARG553  GLY616  TRP617  ASP618  TYR619  PRO620  LYS621  CYS622 
 ASP623  PHE694  ASN695  SER759  ASP760  ASP761  ALA762  ILE779  LEU786  VAL792 
 PHE793  MET794  SER795  GLU796  ALA797  LYS798  CYS799  TRP800  GLU811  SER814 

> <Gold.Protein.RotatedAtoms>
  151.9404  135.0216  160.0535 H   0  0  0  0  0  0  0  0  0  0  0  0  # atno 6907 bound_to 6896
  152.2041  133.4858  159.5082 H   0  0  0  0  0  0  0  0  0  0  0  0  # atno 6908 bound_to 6896
  150.6961  134.1469  159.4169 H   0  0  0  0  0  0  0  0  0  0  0  0  # atno 6909 bound_to 6896
  146.2288  139.8950  142.8548 H   0  0  0  0  0  0  0  0  0  0  0  0  # atno 7974 bound_to 7965
  154.7298  140.0503  157.0716 H   0  0  0  0  0  0  0  0  0  0  0  0  # atno 8008 bound_to 7997
  155.0317  140.3158  155.4737 H   0  0  0  0  0  0  0  0  0  0  0  0  # atno 8009 bound_to 7997
  156.2838  140.2148  156.5439 H   0  0  0  0  0  0  0  0  0  0  0  0  # atno 8010 bound_to 7997
  139.4821  144.5112  151.8021 H   0  0  0  0  0  0  0  0  0  0  0  0  # atno 10167 bound_to 10162
  156.1188  130.4168  150.0481 H   0  0  0  0  0  0  0  0  0  0  0  0  # atno 10718 bound_to 10713
  152.9784  135.5867  154.4309 H   0  0  0  0  0  0  0  0  0  0  0  0  # atno 10763 bound_to 10752
  154.3922  135.2768  155.2150 H   0  0  0  0  0  0  0  0  0  0  0  0  # atno 10764 bound_to 10752
  154.4017  135.6102  153.5955 H   0  0  0  0  0  0  0  0  0  0  0  0  # atno 10765 bound_to 10752
  141.1553  133.7729  156.9821 H   0  0  0  0  0  0  0  0  0  0  0  0  # atno 11005 bound_to 11000
  145.2380  140.9998  143.3952 LP  0  0  0  0  0  0  0  0  0  0  0  0  # atno 17320 bound_to 7965
  144.9475  139.4119  143.6418 LP  0  0  0  0  0  0  0  0  0  0  0  0  # atno 17321 bound_to 7965
  140.4615  144.1715  150.5907 LP  0  0  0  0  0  0  0  0  0  0  0  0  # atno 17342 bound_to 10162
  140.4479  143.2499  151.9387 LP  0  0  0  0  0  0  0  0  0  0  0  0  # atno 17343 bound_to 10162
  156.8425  130.9430  151.3631 LP  0  0  0  0  0  0  0  0  0  0  0  0  # atno 17370 bound_to 10713
  157.6372  130.8776  149.9380 LP  0  0  0  0  0  0  0  0  0  0  0  0  # atno 17371 bound_to 10713
  140.1059  134.9507  157.1993 LP  0  0  0  0  0  0  0  0  0  0  0  0  # atno 17394 bound_to 11000
  140.3257  134.2866  155.7237 LP  0  0  0  0  0  0  0  0  0  0  0  0  # atno 17395 bound_to 11000

$$$$
