AV-unprocessed.smi:38|AV-procd|sdf|346|dock2
  -GOLD-   2262016183D 1   1.00000     0.00000
 Structure written by MMmdl.
 27 28  0  0  0  0  0  0  0  0  2 V2000
  151.9266  134.5782  157.2295 O   0  0  0  0  0  0  0  0  0  0  0  0
  151.8793  135.7724  156.9377 C   0  0  0  0  0  0  0  0  0  0  0  0
  152.9719  136.4748  156.5202 N   0  5  0  0  0  0  0  0  0  0  0  0
  152.9176  137.8010  156.1993 C   0  0  0  0  0  0  0  0  0  0  0  0
  153.8984  138.4413  155.8197 O   0  0  0  0  0  0  0  0  0  0  0  0
  151.6760  138.4863  156.3067 N   0  0  0  0  0  0  0  0  0  0  0  0
  151.6236  139.9590  155.9482 C   0  0  2  0  0  0  0  0  0  0  0  0
  151.1344  140.7941  157.1461 C   0  0  0  0  0  0  0  0  0  0  0  0
  149.9970  141.6141  156.5630 C   0  0  1  0  0  0  0  0  0  0  0  0
  150.4630  142.8765  156.1238 O   0  0  0  0  0  0  0  0  0  0  0  0
  149.5165  140.7369  155.4011 C   0  0  1  0  0  0  0  0  0  0  0  0
  148.7295  141.4355  154.2785 C   0  0  0  0  0  0  0  0  0  0  0  0
  148.3364  140.5006  153.2957 O   0  0  0  0  0  0  0  0  0  0  0  0
  150.7186  140.1633  154.9006 O   0  0  0  0  0  0  0  0  0  0  0  0
  150.5483  137.7951  156.7212 C   0  0  0  0  0  0  0  0  0  0  0  0
  150.6068  136.4848  157.0358 C   0  0  0  0  0  0  0  0  0  0  0  0
  149.4954  135.8425  157.4351 F   0  0  0  0  0  0  0  0  0  0  0  0
  152.6279  140.2158  155.6071 H   0  0  0  0  0  0  0  0  0  0  0  0
  149.2051  141.7797  157.2940 H   0  0  0  0  0  0  0  0  0  0  0  0
  148.9109  139.9252  155.8078 H   0  0  0  0  0  0  0  0  0  0  0  0
  150.7543  140.1331  157.9265 H   0  0  0  0  0  0  0  0  0  0  0  0
  151.9439  141.3932  157.5650 H   0  0  0  0  0  0  0  0  0  0  0  0
  149.7261  143.4663  156.0755 H   0  0  0  0  0  0  0  0  0  0  0  0
  147.8517  141.9525  154.6660 H   0  0  0  0  0  0  0  0  0  0  0  0
  149.3561  142.1903  153.8025 H   0  0  0  0  0  0  0  0  0  0  0  0
  148.8571  140.6438  152.5202 H   0  0  0  0  0  0  0  0  0  0  0  0
  149.5953  138.2950  156.7987 H   0  0  0  0  0  0  0  0  0  0  0  0
  1  2  2  0  0  0  0
  2 16  1  0  0  0  0
  2  3  1  0  0  0  0
  3  4  1  0  0  0  0
  4  5  2  0  0  0  0
  4  6  1  0  0  0  0
  6  7  1  0  0  0  0
  6 15  1  0  0  0  0
  7 18  1  0  0  0  0
  7 14  1  0  0  0  0
  7  8  1  0  0  0  0
  8  9  1  0  0  0  0
  8 21  1  0  0  0  0
  8 22  1  0  0  0  0
  9 19  1  0  0  0  0
  9 10  1  0  0  0  0
  9 11  1  0  0  0  0
 10 23  1  0  0  0  0
 11 20  1  0  0  0  0
 11 12  1  0  0  0  0
 11 14  1  0  0  0  0
 12 13  1  0  0  0  0
 12 24  1  0  0  0  0
 12 25  1  0  0  0  0
 13 26  1  0  0  0  0
 15 16  2  0  0  0  0
 15 27  1  0  0  0  0
 16 17  1  0  0  0  0
M  CHG  1   3  -1
M  END
> <s_m_source_file>
AV-unprocessed.smi

> <i_m_source_file_index>
38

> <i_lp_mmshare_version>
43012

> <i_f3d_flags>
0

> <s_epik_input>
Tz1jMVtuSF1jKD1PKW4oW2NIXWMxRilbQ0BIXTJbQ0gyXVtDQEhdKFtPSF0pW0NASF0oTzIpW0NIMl1bT0hd

> <s_epik_cmdline>
J2VwaWtfcHl0aG9uJywgJy1waCcsICc3LjAnLCAnLXRuJywgJzgnLCAnLW1hJywgJzIwMCcsICctbWV0YWxfYmluZGluZycsICctaW1hZScsICc8aW5maWxlLm1hZT4nLCAnLW9tYWUnLCAnPG91dGZpbGUubWFlPic=

> <r_epik_Ionization_Penalty>
1.68146

> <r_epik_Ionization_Penalty_Charging>
3.4211e-08

> <r_epik_Ionization_Penalty_Neutral>
1.68146

> <r_epik_State_Penalty>
1.78593

> <r_epik_Charging_Adjusted_Penalty>
1.78593

> <i_epik_Tot_Q>
-1

> <i_epik_Tot_abs_Q>
1

> <r_epik_Metal_State_Penalty>
0.0113696

> <b_epik_Metal_Only>
0

> <s_epik_Chemistry_Notes>
This compound contains an acetal/aminal-like group ( X-CH(R)-Y where X, Y are N, S, or O) that may be acid/base labile, releasing an aldehyde.

> <s_lp_Force_Field>
OPLS_2005

> <r_lp_Energy>
41.2481

> <b_lp_Chiralities_Consistent>
1

> <s_lp_Variant>
AV-unprocessed.smi:38-12

> <Gold.Version>
5.8.1

> <Gold.Id.Protein>
6NUR|6NUR_protein|mol2

> <Gold.PLP.Fitness>
40.0189

> <Gold.PLP.PLP>
-23.3819

> <Gold.PLP.part.hbond>
-5.7595

> <Gold.PLP.part.metal>
0.0000

> <Gold.PLP.part.buried>
-4.3438

> <Gold.PLP.part.nonpolar>
-14.6728

> <Gold.PLP.part.repulsive>
0.0575

> <Gold.PLP.ligand.clash>
0.0000

> <Gold.PLP.ligand.torsion>
0.0036

> <Gold.PLP.Chemscore.Hbond>
5.5469

> <Gold.PLP.Chemscore.CHOScore>
0.0000

> <Gold.PLP.Chemscore.Metal>
0.0000

> <Gold.Chemscore.Hbonds>
donor molecule, donor type, donor heavy atom, donor atom, acceptor molecule, acceptor atom, score
      L1  H    10    23       P1  8028  1.00
      L1  H    13    26       P1  7957  1.00
      P1  H  7989  7998       L1    14  1.00
      P1  H  7997  8010       L1     5  0.59
      P1  H 10752 10763       L1     3  1.95

> <Gold.PLP.Chemscore.Internal.Correction>
0.0037

> <Gold.Rescore>
     Score         DG    S(hbond)    S(metal)    S(lipo)     H(rot)  DE(clash)    DE(int)     intcor
     15.43     -15.56       4.13        0.00      31.38       2.88       0.01       0.11       ----

> <Gold.Chemscore.Fitness>
15.4337

> <Gold.Chemscore.DG>
-15.5560

> <Gold.Chemscore.ZeroCoef>
-5.4800

> <Gold.Chemscore.Hbond>
4.1261

> <Gold.Chemscore.Metal>
0.0000

> <Gold.Chemscore.Lipo>
31.3790

> <Gold.Chemscore.Internal_Hbond>
0.0000

> <Gold.Chemscore.DEClash>
0.0126

> <Gold.Chemscore.DEInternal>
0.1098

> <Gold.Chemscore.Rot>
2.8815

> <Gold.Chemscore.Internal.Correction>
   9.000000E+99

> <Gold.Chemscore.Hbonds>
donor molecule, donor type, donor heavy atom, donor atom, acceptor molecule, acceptor atom, score
      L1  H    10    23       P1  8028  0.96
      L1  H    13    26       P1  7957  0.94
      P1  H  6896  6907       L1     1  0.01
      P1  H  7989  7998       L1    14  0.64
      P1  H  7997  8010       L1     5  0.58
      P1  H 10752 10763       L1     3  0.23

> <Gold.Chemscore.Hbond.Weighted>
-13.7812

> <Gold.Chemscore.Metal.Weighted>
-0.0000

> <Gold.Chemscore.Lipo.Weighted>
-3.6713

> <Gold.Chemscore.Internal_Hbond.Weighted>
0.0000

> <Gold.Chemscore.DEClash.Weighted>
0.0126

> <Gold.Chemscore.DEInternal.Weighted>
0.1098

> <Gold.Chemscore.Rot.Weighted>
7.3765

> <Gold.Chemscore.Internal.Correction.Weighted>
   9.000000E+99

> <Gold.Protein.RotatedTorsions>
[ 6907 6896 6895 6894 ] final -167.14 input  -60.11 | X-H torsion
[ 7974 7965 7964 7962 ] final -139.94 input  175.53 | X-H torsion
[ 8008 7997 7996 7995 ] final   85.71 input   59.86 | X-H torsion
[ 10167 10162 10161 10158 ] final   43.37 input  -65.29 | X-H torsion
[ 10718 10713 10712 10709 ] final  126.69 input   66.30 | X-H torsion
[ 10763 10752 10751 10750 ] final  122.39 input  -60.55 | X-H torsion
[ 11005 11000 10999 10996 ] final  139.17 input  -57.11 | X-H torsion

> <Gold.Protein.ActiveResidues>
 VAL166  LYS551  ARG553  GLY616  TRP617  ASP618  TYR619  PRO620  LYS621  CYS622 
 ASP623  PHE694  ASN695  SER759  ASP760  ASP761  ALA762  ILE779  LEU786  VAL792 
 PHE793  MET794  SER795  GLU796  ALA797  LYS798  CYS799  TRP800  GLU811  SER814 

> <Gold.Protein.RotatedAtoms>
  151.4547  133.3608  159.2800 H   0  0  0  0  0  0  0  0  0  0  0  0  # atno 6907 bound_to 6896
  150.9066  134.8483  159.7408 H   0  0  0  0  0  0  0  0  0  0  0  0  # atno 6908 bound_to 6896
  152.4909  134.4473  159.9615 H   0  0  0  0  0  0  0  0  0  0  0  0  # atno 6909 bound_to 6896
  144.8636  140.6258  143.5312 H   0  0  0  0  0  0  0  0  0  0  0  0  # atno 7974 bound_to 7965
  155.9535  140.3399  155.6428 H   0  0  0  0  0  0  0  0  0  0  0  0  # atno 8008 bound_to 7997
  155.6890  140.0746  157.2474 H   0  0  0  0  0  0  0  0  0  0  0  0  # atno 8009 bound_to 7997
  154.4127  140.1660  156.2053 H   0  0  0  0  0  0  0  0  0  0  0  0  # atno 8010 bound_to 7997
  140.3450  144.2422  150.6151 H   0  0  0  0  0  0  0  0  0  0  0  0  # atno 10167 bound_to 10162
  157.5397  131.1097  150.8878 H   0  0  0  0  0  0  0  0  0  0  0  0  # atno 10718 bound_to 10713
  153.6290  135.3399  155.3035 H   0  0  0  0  0  0  0  0  0  0  0  0  # atno 10763 bound_to 10752
  154.8584  135.4291  154.2126 H   0  0  0  0  0  0  0  0  0  0  0  0  # atno 10764 bound_to 10752
  153.3017  135.7025  153.7270 H   0  0  0  0  0  0  0  0  0  0  0  0  # atno 10765 bound_to 10752
  140.0236  134.9385  157.0523 H   0  0  0  0  0  0  0  0  0  0  0  0  # atno 11005 bound_to 11000
  145.4264  139.1556  143.4046 LP  0  0  0  0  0  0  0  0  0  0  0  0  # atno 17320 bound_to 7965
  146.2879  140.4378  142.8751 LP  0  0  0  0  0  0  0  0  0  0  0  0  # atno 17321 bound_to 7965
  140.5273  143.2251  151.8295 LP  0  0  0  0  0  0  0  0  0  0  0  0  # atno 17342 bound_to 10162
  139.4834  144.4764  151.9362 LP  0  0  0  0  0  0  0  0  0  0  0  0  # atno 17343 bound_to 10162
  156.9435  130.5393  149.5280 LP  0  0  0  0  0  0  0  0  0  0  0  0  # atno 17370 bound_to 10713
  156.0487  130.5559  150.8939 LP  0  0  0  0  0  0  0  0  0  0  0  0  # atno 17371 bound_to 10713
  140.4345  134.1745  155.7170 LP  0  0  0  0  0  0  0  0  0  0  0  0  # atno 17394 bound_to 11000
  141.1789  133.8456  157.1328 LP  0  0  0  0  0  0  0  0  0  0  0  0  # atno 17395 bound_to 11000

$$$$
