AV-unprocessed.smi:1207|AV-procd|sdf|5052|dock8
  -GOLD-   22720 4 83D 1   1.00000     0.00000
 Structure written by MMmdl.
 52 54  0  0  0  0  0  0  0  0  2 V2000
  152.4796  143.3614  160.5726 C   0  0  0  0  0  0  0  0  0  0  0  0
  152.2452  142.4262  159.3994 C   0  0  0  0  0  0  0  0  0  0  0  0
  152.5268  141.0496  159.5509 C   0  0  0  0  0  0  0  0  0  0  0  0
  152.3229  140.1471  158.4843 C   0  0  0  0  0  0  0  0  0  0  0  0
  152.5290  138.7802  158.4105 N   0  0  0  0  0  0  0  0  0  0  0  0
  152.1564  138.5192  157.1610 C   0  0  0  0  0  0  0  0  0  0  0  0
  151.7362  139.5580  156.4132 N   0  0  0  0  0  0  0  0  0  0  0  0
  151.2850  139.5232  155.0335 C   0  0  0  0  0  0  0  0  0  0  0  0
  150.1586  138.4960  154.8151 C   0  0  1  0  0  0  0  0  0  0  0  0
  149.6535  138.6236  153.4994 O   0  0  0  0  0  0  0  0  0  0  0  0
  150.6374  137.0465  155.0260 C   0  0  0  0  0  0  0  0  0  0  0  0
  149.5901  136.0658  154.6437 N   0  3  1  0  0  0  0  0  0  0  0  0
  150.0859  134.6704  154.6713 C   0  0  0  0  0  0  0  0  0  0  0  0
  148.3232  136.2378  155.4005 C   0  0  0  0  0  0  0  0  0  0  0  0
  148.5628  136.1153  156.8816 C   0  0  0  0  0  0  0  0  0  0  0  0
  148.5465  137.1611  157.8487 C   0  0  0  0  0  0  0  0  0  0  0  0
  148.2854  138.6254  157.6352 C   0  0  0  0  0  0  0  0  0  0  0  0
  148.7941  136.7111  159.0666 N   0  0  0  0  0  0  0  0  0  0  0  0
  148.9921  135.3337  158.9332 O   0  0  0  0  0  0  0  0  0  0  0  0
  148.8520  135.0028  157.6244 C   0  0  0  0  0  0  0  0  0  0  0  0
  149.0313  133.5616  157.2839 C   0  0  0  0  0  0  0  0  0  0  0  0
  151.8240  140.6634  157.2527 C   0  0  0  0  0  0  0  0  0  0  0  0
  151.5375  142.0306  157.0905 C   0  0  0  0  0  0  0  0  0  0  0  0
  151.7505  142.9191  158.1650 C   0  0  0  0  0  0  0  0  0  0  0  0
  151.4434  144.3944  157.9782 C   0  0  0  0  0  0  0  0  0  0  0  0
  152.8280  142.8183  161.4515 H   0  0  0  0  0  0  0  0  0  0  0  0
  151.5571  143.8759  160.8427 H   0  0  0  0  0  0  0  0  0  0  0  0
  153.2328  144.1083  160.3203 H   0  0  0  0  0  0  0  0  0  0  0  0
  152.9040  140.6739  160.4910 H   0  0  0  0  0  0  0  0  0  0  0  0
  152.1950  137.5147  156.7655 H   0  0  0  0  0  0  0  0  0  0  0  0
  150.9562  140.5224  154.7433 H   0  0  0  0  0  0  0  0  0  0  0  0
  152.1432  139.2806  154.4054 H   0  0  0  0  0  0  0  0  0  0  0  0
  149.3459  138.7227  155.5041 H   0  0  0  0  0  0  0  0  0  0  0  0
  149.5028  137.7600  153.1458 H   0  0  0  0  0  0  0  0  0  0  0  0
  151.5425  136.8875  154.4371 H   0  0  0  0  0  0  0  0  0  0  0  0
  150.9206  136.8784  156.0664 H   0  0  0  0  0  0  0  0  0  0  0  0
  150.3617  134.3732  155.6841 H   0  0  0  0  0  0  0  0  0  0  0  0
  150.9621  134.5590  154.0318 H   0  0  0  0  0  0  0  0  0  0  0  0
  149.3284  133.9776  154.3057 H   0  0  0  0  0  0  0  0  0  0  0  0
  147.8679  137.1939  155.1389 H   0  0  0  0  0  0  0  0  0  0  0  0
  147.5966  135.4869  155.0905 H   0  0  0  0  0  0  0  0  0  0  0  0
  148.9457  139.0329  156.8692 H   0  0  0  0  0  0  0  0  0  0  0  0
  148.4440  139.2026  158.5471 H   0  0  0  0  0  0  0  0  0  0  0  0
  147.2582  138.7944  157.3121 H   0  0  0  0  0  0  0  0  0  0  0  0
  148.9246  133.3918  156.2128 H   0  0  0  0  0  0  0  0  0  0  0  0
  148.2891  132.9496  157.7968 H   0  0  0  0  0  0  0  0  0  0  0  0
  150.0204  133.2145  157.5830 H   0  0  0  0  0  0  0  0  0  0  0  0
  151.1586  142.3932  156.1466 H   0  0  0  0  0  0  0  0  0  0  0  0
  151.1124  144.6067  156.9613 H   0  0  0  0  0  0  0  0  0  0  0  0
  152.3302  144.9980  158.1730 H   0  0  0  0  0  0  0  0  0  0  0  0
  150.6530  144.7085  158.6605 H   0  0  0  0  0  0  0  0  0  0  0  0
  149.3779  136.2681  153.6767 H   0  0  0  0  0  0  0  0  0  0  0  0
  1  2  1  0  0  0  0
  1 26  1  0  0  0  0
  1 27  1  0  0  0  0
  1 28  1  0  0  0  0
  2 24  1  0  0  0  0
  2  3  2  0  0  0  0
  3  4  1  0  0  0  0
  3 29  1  0  0  0  0
  4 22  2  0  0  0  0
  4  5  1  0  0  0  0
  5  6  2  0  0  0  0
  6  7  1  0  0  0  0
  6 30  1  0  0  0  0
  7  8  1  0  0  0  0
  7 22  1  0  0  0  0
  8  9  1  0  0  0  0
  8 31  1  0  0  0  0
  8 32  1  0  0  0  0
  9 10  1  0  0  0  0
  9 11  1  0  0  0  0
  9 33  1  0  0  0  0
 10 34  1  0  0  0  0
 11 12  1  0  0  0  0
 11 35  1  0  0  0  0
 11 36  1  0  0  0  0
 12 13  1  0  0  0  0
 12 14  1  0  0  0  0
 12 52  1  0  0  0  0
 13 37  1  0  0  0  0
 13 38  1  0  0  0  0
 13 39  1  0  0  0  0
 14 15  1  0  0  0  0
 14 40  1  0  0  0  0
 14 41  1  0  0  0  0
 15 20  2  0  0  0  0
 15 16  1  0  0  0  0
 16 17  1  0  0  0  0
 16 18  2  0  0  0  0
 17 42  1  0  0  0  0
 17 43  1  0  0  0  0
 17 44  1  0  0  0  0
 18 19  1  0  0  0  0
 19 20  1  0  0  0  0
 20 21  1  0  0  0  0
 21 45  1  0  0  0  0
 21 46  1  0  0  0  0
 21 47  1  0  0  0  0
 22 23  1  0  0  0  0
 23 24  2  0  0  0  0
 23 48  1  0  0  0  0
 24 25  1  0  0  0  0
 25 49  1  0  0  0  0
 25 50  1  0  0  0  0
 25 51  1  0  0  0  0
M  CHG  1  12   1
M  END
> <s_m_source_file>
AV-unprocessed.smi

> <i_m_source_file_index>
1207

> <i_lp_mmshare_version>
43012

> <i_f3d_flags>
0

> <s_epik_input>
W0NIM11jKFtjSF0xKWMoW0NIM10pW2NIXWMoYzEyKW4oW2NIXW4yKVtDSDJdW0NASF0oW09IXSlbQ0gyXU4oW0NIM10pW0NIMl1jM2MoW0NIM10pbm9jM1tDSDNd

> <s_epik_cmdline>
J2VwaWtfcHl0aG9uJywgJy1waCcsICc3LjAnLCAnLXRuJywgJzgnLCAnLW1hJywgJzIwMCcsICctbWV0YWxfYmluZGluZycsICctaW1hZScsICc8aW5maWxlLm1hZT4nLCAnLW9tYWUnLCAnPG91dGZpbGUubWFlPic=

> <r_epik_Ionization_Penalty>
0.646518

> <r_epik_Ionization_Penalty_Charging>
0.559419

> <r_epik_Ionization_Penalty_Neutral>
0.0870981

> <r_epik_State_Penalty>
0.661677

> <r_epik_Charging_Adjusted_Penalty>
1.2211

> <i_epik_Tot_Q>
1

> <i_epik_Tot_abs_Q>
1

> <r_epik_Metal_State_Penalty>
0.649158

> <b_epik_Metal_Only>
0

> <s_lp_Force_Field>
OPLS_2005

> <r_lp_Energy>
8.27883

> <b_lp_Chiralities_Consistent>
1

> <s_lp_Variant>
AV-unprocessed.smi:1207-4

> <Gold.Version>
5.8.1

> <Gold.Id.Protein>
6NUR|6NUR_protein|mol2

> <Gold.PLP.Fitness>
51.3385

> <Gold.PLP.PLP>
-39.7110

> <Gold.PLP.part.hbond>
-4.0000

> <Gold.PLP.part.metal>
0.0000

> <Gold.PLP.part.buried>
-5.7106

> <Gold.PLP.part.nonpolar>
-30.2490

> <Gold.PLP.part.repulsive>
0.0324

> <Gold.PLP.ligand.clash>
0.0000

> <Gold.PLP.ligand.torsion>
0.2694

> <Gold.PLP.Chemscore.Hbond>
4.0000

> <Gold.PLP.Chemscore.CHOScore>
0.0000

> <Gold.PLP.Chemscore.Metal>
0.0000

> <Gold.Chemscore.Hbonds>
donor molecule, donor type, donor heavy atom, donor atom, acceptor molecule, acceptor atom, score
      L1  H    10    34       P1  7948  0.99
      L1  H    12    52       P1  7948  2.00
      P1  H  6896  6908       L1    19  1.00

> <Gold.PLP.Chemscore.Internal.Correction>
0.1663

> <Gold.Rescore>
     Score         DG    S(hbond)    S(metal)    S(lipo)     H(rot)  DE(clash)    DE(int)     intcor
     19.74     -21.14       2.75        0.00     108.94       2.46       0.07       1.33       ----

> <Gold.Chemscore.Fitness>
19.7357

> <Gold.Chemscore.DG>
-21.1370

> <Gold.Chemscore.ZeroCoef>
-5.4800

> <Gold.Chemscore.Hbond>
2.7545

> <Gold.Chemscore.Metal>
0.0000

> <Gold.Chemscore.Lipo>
108.9365

> <Gold.Chemscore.Internal_Hbond>
0.0000

> <Gold.Chemscore.DEClash>
0.0710

> <Gold.Chemscore.DEInternal>
1.3304

> <Gold.Chemscore.Rot>
2.4565

> <Gold.Chemscore.Internal.Correction>
   9.000000E+99

> <Gold.Chemscore.Hbonds>
donor molecule, donor type, donor heavy atom, donor atom, acceptor molecule, acceptor atom, score
      L1  H    10    34       P1  7948  0.81
      L1  H    12    52       P1  7948  0.78
      P1  H  6896  6908       L1    19  0.63

> <Gold.Chemscore.Hbond.Weighted>
-9.2002

> <Gold.Chemscore.Metal.Weighted>
-0.0000

> <Gold.Chemscore.Lipo.Weighted>
-12.7456

> <Gold.Chemscore.Internal_Hbond.Weighted>
0.0000

> <Gold.Chemscore.DEClash.Weighted>
0.0710

> <Gold.Chemscore.DEInternal.Weighted>
1.3304

> <Gold.Chemscore.Rot.Weighted>
6.2887

> <Gold.Chemscore.Internal.Correction.Weighted>
   9.000000E+99

> <Gold.Protein.RotatedTorsions>
[ 6907 6896 6895 6894 ] final  169.16 input  -60.11 | X-H torsion
[ 7974 7965 7964 7962 ] final -154.68 input  175.53 | X-H torsion
[ 8008 7997 7996 7995 ] final   29.94 input   59.86 | X-H torsion
[ 10167 10162 10161 10158 ] final   47.94 input  -65.29 | X-H torsion
[ 10718 10713 10712 10709 ] final -100.58 input   66.30 | X-H torsion
[ 10763 10752 10751 10750 ] final  162.24 input  -60.55 | X-H torsion
[ 11005 11000 10999 10996 ] final   74.09 input  -57.11 | X-H torsion

> <Gold.Protein.ActiveResidues>
 VAL166  LYS551  ARG553  GLY616  TRP617  ASP618  TYR619  PRO620  LYS621  CYS622 
 ASP623  PHE694  ASN695  SER759  ASP760  ASP761  ALA762  ILE779  LEU786  VAL792 
 PHE793  MET794  SER795  GLU796  ALA797  LYS798  CYS799  TRP800  GLU811  SER814 

> <Gold.Protein.RotatedAtoms>
  151.8363  133.3416  159.3628 H   0  0  0  0  0  0  0  0  0  0  0  0  # atno 6907 bound_to 6896
  150.7248  134.5434  159.5768 H   0  0  0  0  0  0  0  0  0  0  0  0  # atno 6908 bound_to 6896
  152.2898  134.7735  160.0431 H   0  0  0  0  0  0  0  0  0  0  0  0  # atno 6909 bound_to 6896
  144.7677  140.4354  143.5930 H   0  0  0  0  0  0  0  0  0  0  0  0  # atno 7974 bound_to 7965
  155.0824  140.3211  155.4597 H   0  0  0  0  0  0  0  0  0  0  0  0  # atno 8008 bound_to 7997
  156.2764  140.2092  156.5898 H   0  0  0  0  0  0  0  0  0  0  0  0  # atno 8009 bound_to 7997
  154.6968  140.0511  157.0406 H   0  0  0  0  0  0  0  0  0  0  0  0  # atno 8010 bound_to 7997
  140.2985  144.2962  150.6224 H   0  0  0  0  0  0  0  0  0  0  0  0  # atno 10167 bound_to 10162
  156.0167  130.5334  150.6837 H   0  0  0  0  0  0  0  0  0  0  0  0  # atno 10718 bound_to 10713
  154.2754  135.2764  155.2720 H   0  0  0  0  0  0  0  0  0  0  0  0  # atno 10763 bound_to 10752
  154.5265  135.5741  153.6727 H   0  0  0  0  0  0  0  0  0  0  0  0  # atno 10764 bound_to 10752
  152.9938  135.6217  154.2910 H   0  0  0  0  0  0  0  0  0  0  0  0  # atno 10765 bound_to 10752
  139.9408  134.7403  156.1106 H   0  0  0  0  0  0  0  0  0  0  0  0  # atno 11005 bound_to 11000
  145.6419  139.1551  143.2911 LP  0  0  0  0  0  0  0  0  0  0  0  0  # atno 17320 bound_to 7965
  146.1798  140.6515  142.9194 LP  0  0  0  0  0  0  0  0  0  0  0  0  # atno 17321 bound_to 7965
  140.5672  143.2185  151.7663 LP  0  0  0  0  0  0  0  0  0  0  0  0  # atno 17342 bound_to 10162
  139.4921  144.4268  151.9917 LP  0  0  0  0  0  0  0  0  0  0  0  0  # atno 17343 bound_to 10162
  157.4534  131.0875  151.0822 LP  0  0  0  0  0  0  0  0  0  0  0  0  # atno 17370 bound_to 10713
  157.1331  130.6111  149.5535 LP  0  0  0  0  0  0  0  0  0  0  0  0  # atno 17371 bound_to 10713
  141.1041  133.6666  156.2823 LP  0  0  0  0  0  0  0  0  0  0  0  0  # atno 17394 bound_to 11000
  140.5958  134.5605  157.5508 LP  0  0  0  0  0  0  0  0  0  0  0  0  # atno 17395 bound_to 11000

$$$$
