AV-unprocessed.smi:1128|AV-procd|sdf|4842|dock2
  -GOLD-   22720 3403D 1   1.00000     0.00000
 Structure written by MMmdl.
 38 39  0  0  0  0  0  0  0  0  1 V2000
  151.1181  137.0031  159.7101 O   0  0  0  0  0  0  0  0  0  0  0  0
  150.4415  137.6857  158.9419 C   0  0  0  0  0  0  0  0  0  0  0  0
  150.8719  138.8386  158.4093 N   0  0  0  0  0  0  0  0  0  0  0  0
  152.1719  139.4577  158.6530 C   0  0  0  0  0  0  0  0  0  0  0  0
  152.0521  140.7713  159.4521 C   0  0  2  0  0  0  0  0  0  0  0  0
  151.7280  141.9897  158.5546 C   0  0  0  0  0  0  0  0  0  0  0  0
  151.8884  143.3132  159.2812 C   0  0  0  0  0  0  0  0  0  0  0  0
  152.5341  143.4416  160.4522 C   0  0  0  0  0  0  0  0  0  0  0  0
  153.1840  142.2780  161.1768 C   0  0  0  0  0  0  0  0  0  0  0  0
  153.3266  141.0368  160.2764 C   0  0  0  0  0  0  0  0  0  0  0  0
  149.1931  137.4061  158.5234 N   0  0  0  0  0  0  0  0  0  0  0  0
  148.3588  136.3168  158.8313 C   0  0  0  0  0  0  0  0  0  0  0  0
  147.9826  135.9431  160.0830 C   0  0  0  0  0  0  0  0  0  0  0  0
  147.1113  134.8039  160.3192 C   0  0  0  0  0  0  0  0  0  0  0  0
  146.7433  134.3642  161.7279 C   0  0  0  0  0  0  0  0  0  0  0  0
  147.2631  135.1825  162.6439 F   0  0  0  0  0  0  0  0  0  0  0  0
  145.4203  134.3416  161.8896 F   0  0  0  0  0  0  0  0  0  0  0  0
  147.2091  133.1371  161.9550 F   0  0  0  0  0  0  0  0  0  0  0  0
  146.7136  134.1162  159.2333 C   0  0  0  0  0  0  0  0  0  0  0  0
  147.0918  134.4949  157.9437 N   0  0  0  0  0  0  0  0  0  0  0  0
  147.8892  135.5500  157.6647 C   0  0  0  0  0  0  0  0  0  0  0  0
  148.1787  135.8164  156.4987 O   0  0  0  0  0  0  0  0  0  0  0  0
  146.7428  133.9343  157.1797 H   0  0  0  0  0  0  0  0  0  0  0  0
  150.2474  139.3331  157.7892 H   0  0  0  0  0  0  0  0  0  0  0  0
  152.7695  138.7403  159.2160 H   0  0  0  0  0  0  0  0  0  0  0  0
  152.7102  139.6287  157.7190 H   0  0  0  0  0  0  0  0  0  0  0  0
  151.2307  140.6522  160.1610 H   0  0  0  0  0  0  0  0  0  0  0  0
  152.3814  142.0059  157.6816 H   0  0  0  0  0  0  0  0  0  0  0  0
  150.7051  141.9208  158.1834 H   0  0  0  0  0  0  0  0  0  0  0  0
  151.4597  144.1837  158.8068 H   0  0  0  0  0  0  0  0  0  0  0  0
  152.5990  144.4096  160.9271 H   0  0  0  0  0  0  0  0  0  0  0  0
  154.1640  142.5838  161.5442 H   0  0  0  0  0  0  0  0  0  0  0  0
  152.5762  142.0424  162.0509 H   0  0  0  0  0  0  0  0  0  0  0  0
  153.5710  140.1704  160.8919 H   0  0  0  0  0  0  0  0  0  0  0  0
  154.1689  141.1766  159.5973 H   0  0  0  0  0  0  0  0  0  0  0  0
  148.7717  138.0863  157.9075 H   0  0  0  0  0  0  0  0  0  0  0  0
  148.3188  136.4800  160.9536 H   0  0  0  0  0  0  0  0  0  0  0  0
  146.0880  133.2362  159.2648 H   0  0  0  0  0  0  0  0  0  0  0  0
  1  2  2  0  0  0  0
  2  3  1  0  0  0  0
  2 11  1  0  0  0  0
  3  4  1  0  0  0  0
  3 24  1  0  0  0  0
  4  5  1  0  0  0  0
  4 25  1  0  0  0  0
  4 26  1  0  0  0  0
  5 10  1  0  0  0  0
  5  6  1  0  0  0  0
  5 27  1  0  0  0  0
  6  7  1  0  0  0  0
  6 28  1  0  0  0  0
  6 29  1  0  0  0  0
  7  8  2  0  0  0  0
  7 30  1  0  0  0  0
  8  9  1  0  0  0  0
  8 31  1  0  0  0  0
  9 10  1  0  0  0  0
  9 32  1  0  0  0  0
  9 33  1  0  0  0  0
 10 34  1  0  0  0  0
 10 35  1  0  0  0  0
 11 12  1  0  0  0  0
 11 36  1  0  0  0  0
 12 21  1  0  0  0  0
 12 13  2  0  0  0  0
 13 14  1  0  0  0  0
 13 37  1  0  0  0  0
 14 15  1  0  0  0  0
 14 19  2  0  0  0  0
 15 16  1  0  0  0  0
 15 17  1  0  0  0  0
 15 18  1  0  0  0  0
 19 20  1  0  0  0  0
 19 38  1  0  0  0  0
 20 23  1  0  0  0  0
 20 21  1  0  0  0  0
 21 22  2  0  0  0  0
M  END
> <s_m_source_file>
AV-unprocessed.smi

> <i_m_source_file_index>
1128

> <i_lp_mmshare_version>
43012

> <i_f3d_flags>
0

> <s_epik_input>
Tz1jMVtuSF1bY0hdYyhDKEYpKEYpRilbY0hdYzFbTkhdQyg9TylbTkhdW0NIMl1bQ0BASF0yW0NIMl1bQ0hdPVtDSF1bQ0gyXVtDSDJdMg==

> <s_epik_cmdline>
J2VwaWtfcHl0aG9uJywgJy1waCcsICc3LjAnLCAnLXRuJywgJzgnLCAnLW1hJywgJzIwMCcsICctbWV0YWxfYmluZGluZycsICctaW1hZScsICc8aW5maWxlLm1hZT4nLCAnLW9tYWUnLCAnPG91dGZpbGUubWFlPic=

> <r_lp_tautomer_probability>
1

> <r_epik_Ionization_Penalty>
0.00381734

> <r_epik_Ionization_Penalty_Charging>
0.00379608

> <r_epik_Ionization_Penalty_Neutral>
2.12611e-05

> <r_epik_State_Penalty>
-0

> <r_epik_Charging_Adjusted_Penalty>
0.00379608

> <i_epik_Tot_Q>
0

> <i_epik_Tot_abs_Q>
0

> <r_epik_Metal_State_Penalty>
0.371155

> <b_epik_Metal_Only>
0

> <s_lp_Force_Field>
OPLS_2005

> <r_lp_Energy>
20.2087

> <b_lp_Chiralities_Consistent>
1

> <s_lp_Variant>
AV-unprocessed.smi:1128-1

> <Gold.Version>
5.8.1

> <Gold.Id.Protein>
6NUR|6NUR_protein|mol2

> <Gold.PLP.Fitness>
44.4886

> <Gold.PLP.PLP>
-43.1841

> <Gold.PLP.part.hbond>
-0.9791

> <Gold.PLP.part.metal>
0.0000

> <Gold.PLP.part.buried>
-5.9145

> <Gold.PLP.part.nonpolar>
-37.9120

> <Gold.PLP.part.repulsive>
0.2634

> <Gold.PLP.ligand.clash>
0.0000

> <Gold.PLP.ligand.torsion>
0.8655

> <Gold.PLP.Chemscore.Hbond>
1.0000

> <Gold.PLP.Chemscore.CHOScore>
0.0000

> <Gold.PLP.Chemscore.Metal>
0.0000

> <Gold.Chemscore.Hbonds>
donor molecule, donor type, donor heavy atom, donor atom, acceptor molecule, acceptor atom, score
      P1  H  6896  6908       L1     1  1.00

> <Gold.PLP.Chemscore.Internal.Correction>
0.0354

> <Gold.Rescore>
     Score         DG    S(hbond)    S(metal)    S(lipo)     H(rot)  DE(clash)    DE(int)     intcor
     15.39     -16.49       0.99        0.00      94.38       1.30       0.05       1.05       ----

> <Gold.Chemscore.Fitness>
15.3873

> <Gold.Chemscore.DG>
-16.4879

> <Gold.Chemscore.ZeroCoef>
-5.4800

> <Gold.Chemscore.Hbond>
0.9890

> <Gold.Chemscore.Metal>
0.0000

> <Gold.Chemscore.Lipo>
94.3800

> <Gold.Chemscore.Internal_Hbond>
0.0000

> <Gold.Chemscore.DEClash>
0.0466

> <Gold.Chemscore.DEInternal>
1.0540

> <Gold.Chemscore.Rot>
1.3038

> <Gold.Chemscore.Internal.Correction>
   9.000000E+99

> <Gold.Chemscore.Hbonds>
donor molecule, donor type, donor heavy atom, donor atom, acceptor molecule, acceptor atom, score
      P1  H  6896  6908       L1     1  1.00

> <Gold.Chemscore.Hbond.Weighted>
-3.3031

> <Gold.Chemscore.Metal.Weighted>
-0.0000

> <Gold.Chemscore.Lipo.Weighted>
-11.0425

> <Gold.Chemscore.Internal_Hbond.Weighted>
0.0000

> <Gold.Chemscore.DEClash.Weighted>
0.0466

> <Gold.Chemscore.DEInternal.Weighted>
1.0540

> <Gold.Chemscore.Rot.Weighted>
3.3377

> <Gold.Chemscore.Internal.Correction.Weighted>
   9.000000E+99

> <Gold.Protein.RotatedTorsions>
[ 6907 6896 6895 6894 ] final -130.07 input  -60.11 | X-H torsion
[ 7974 7965 7964 7962 ] final -140.26 input  175.53 | X-H torsion
[ 8008 7997 7996 7995 ] final  -65.25 input   59.86 | X-H torsion
[ 10167 10162 10161 10158 ] final  133.08 input  -65.29 | X-H torsion
[ 10718 10713 10712 10709 ] final  159.58 input   66.30 | X-H torsion
[ 10763 10752 10751 10750 ] final  -55.37 input  -60.55 | X-H torsion
[ 11005 11000 10999 10996 ] final   98.39 input  -57.11 | X-H torsion

> <Gold.Protein.ActiveResidues>
 VAL166  LYS551  ARG553  GLY616  TRP617  ASP618  TYR619  PRO620  LYS621  CYS622 
 ASP623  PHE694  ASN695  SER759  ASP760  ASP761  ALA762  ILE779  LEU786  VAL792 
 PHE793  MET794  SER795  GLU796  ALA797  LYS798  CYS799  TRP800  GLU811  SER814 

> <Gold.Protein.RotatedAtoms>
  150.9357  133.6715  159.2801 H   0  0  0  0  0  0  0  0  0  0  0  0  # atno 6907 bound_to 6896
  151.4122  135.0985  159.9598 H   0  0  0  0  0  0  0  0  0  0  0  0  # atno 6908 bound_to 6896
  152.5046  133.8827  159.7409 H   0  0  0  0  0  0  0  0  0  0  0  0  # atno 6909 bound_to 6896
  144.8611  140.6221  143.5327 H   0  0  0  0  0  0  0  0  0  0  0  0  # atno 7974 bound_to 7965
  154.4660  140.0937  156.7022 H   0  0  0  0  0  0  0  0  0  0  0  0  # atno 8008 bound_to 7997
  155.4856  140.3469  155.4328 H   0  0  0  0  0  0  0  0  0  0  0  0  # atno 8009 bound_to 7997
  156.0957  140.1409  156.9522 H   0  0  0  0  0  0  0  0  0  0  0  0  # atno 8010 bound_to 7997
  139.5312  144.6632  151.4944 H   0  0  0  0  0  0  0  0  0  0  0  0  # atno 10167 bound_to 10162
  157.1622  131.0590  151.2226 H   0  0  0  0  0  0  0  0  0  0  0  0  # atno 10718 bound_to 10713
  154.1897  135.6429  153.5056 H   0  0  0  0  0  0  0  0  0  0  0  0  # atno 10763 bound_to 10752
  153.0038  135.5426  154.6428 H   0  0  0  0  0  0  0  0  0  0  0  0  # atno 10764 bound_to 10752
  154.5813  135.2925  155.0702 H   0  0  0  0  0  0  0  0  0  0  0  0  # atno 10765 bound_to 10752
  139.8772  134.9046  156.4448 H   0  0  0  0  0  0  0  0  0  0  0  0  # atno 11005 bound_to 11000
  145.4310  139.1549  143.4022 LP  0  0  0  0  0  0  0  0  0  0  0  0  # atno 17320 bound_to 7965
  146.2861  140.4426  142.8757 LP  0  0  0  0  0  0  0  0  0  0  0  0  # atno 17321 bound_to 7965
  140.6491  143.8733  150.6767 LP  0  0  0  0  0  0  0  0  0  0  0  0  # atno 17342 bound_to 10162
  140.2092  143.3897  152.1731 LP  0  0  0  0  0  0  0  0  0  0  0  0  # atno 17343 bound_to 10162
  157.4121  130.7391  149.6847 LP  0  0  0  0  0  0  0  0  0  0  0  0  # atno 17370 bound_to 10713
  155.9752  130.4092  150.3868 LP  0  0  0  0  0  0  0  0  0  0  0  0  # atno 17371 bound_to 10713
  140.8973  133.7804  155.9640 LP  0  0  0  0  0  0  0  0  0  0  0  0  # atno 17394 bound_to 11000
  140.8689  134.2751  157.5200 LP  0  0  0  0  0  0  0  0  0  0  0  0  # atno 17395 bound_to 11000

$$$$
