AV-unprocessed.smi:2140|AV-procd|sdf|8716|dock1
  -GOLD-   2272011483D 1   1.00000     0.00000
 Structure written by MMmdl.
 40 41  0  0  0  0  0  0  0  0  2 V2000
  148.1263  131.3360  155.2692 C   0  0  0  0  0  0  0  0  0  0  0  0
  148.0893  132.4682  154.2137 C   0  0  2  0  0  0  0  0  0  0  0  0
  147.5022  133.7613  154.8418 C   0  0  0  0  0  0  0  0  0  0  0  0
  148.2728  134.9577  154.5145 N   0  0  0  0  0  0  0  0  0  0  0  0
  148.8094  135.7917  155.4166 C   0  0  0  0  0  0  0  0  0  0  0  0
  148.7085  135.6249  156.6317 O   0  0  0  0  0  0  0  0  0  0  0  0
  149.4372  136.8175  154.8166 N   0  0  0  0  0  0  0  0  0  0  0  0
  150.1063  137.9239  155.4080 C   0  0  0  0  0  0  0  0  0  0  0  0
  150.2543  138.1231  156.8026 C   0  0  0  0  0  0  0  0  0  0  0  0
  150.9531  139.2582  157.2568 C   0  0  0  0  0  0  0  0  0  0  0  0
  151.4848  140.1480  156.3035 C   0  0  0  0  0  0  0  0  0  0  0  0
  151.3618  139.9651  154.9722 N   0  0  0  0  0  0  0  0  0  0  0  0
  150.6904  138.8749  154.5441 C   0  0  0  0  0  0  0  0  0  0  0  0
  147.3355  132.0998  152.9704 N   0  3  0  0  0  0  0  0  0  0  0  0
  146.0388  131.4306  153.2671 C   0  0  0  0  0  0  0  0  0  0  0  0
  145.3345  130.9882  151.9746 C   0  0  0  0  0  0  0  0  0  0  0  0
  145.1219  132.1188  151.1429 O   0  0  0  0  0  0  0  0  0  0  0  0
  146.3494  132.7209  150.7601 C   0  0  0  0  0  0  0  0  0  0  0  0
  147.1065  133.2119  152.0064 C   0  0  0  0  0  0  0  0  0  0  0  0
  148.6500  131.6433  156.1740 H   0  0  0  0  0  0  0  0  0  0  0  0
  148.6599  130.4568  154.9080 H   0  0  0  0  0  0  0  0  0  0  0  0
  147.1214  131.0310  155.5626 H   0  0  0  0  0  0  0  0  0  0  0  0
  149.1234  132.6556  153.9203 H   0  0  0  0  0  0  0  0  0  0  0  0
  146.4717  133.9368  154.5363 H   0  0  0  0  0  0  0  0  0  0  0  0
  147.4809  133.6649  155.9277 H   0  0  0  0  0  0  0  0  0  0  0  0
  148.3993  135.1675  153.5348 H   0  0  0  0  0  0  0  0  0  0  0  0
  149.3806  136.8412  153.8089 H   0  0  0  0  0  0  0  0  0  0  0  0
  149.8622  137.4308  157.5306 H   0  0  0  0  0  0  0  0  0  0  0  0
  151.0826  139.4403  158.3134 H   0  0  0  0  0  0  0  0  0  0  0  0
  152.0273  141.0269  156.6187 H   0  0  0  0  0  0  0  0  0  0  0  0
  150.6142  138.7604  153.4726 H   0  0  0  0  0  0  0  0  0  0  0  0
  146.1786  130.5553  153.8979 H   0  0  0  0  0  0  0  0  0  0  0  0
  145.3935  132.1154  153.8199 H   0  0  0  0  0  0  0  0  0  0  0  0
  145.9197  130.2325  151.4480 H   0  0  0  0  0  0  0  0  0  0  0  0
  144.3696  130.5376  152.2085 H   0  0  0  0  0  0  0  0  0  0  0  0
  146.9540  132.0128  150.1911 H   0  0  0  0  0  0  0  0  0  0  0  0
  146.1365  133.5595  150.0969 H   0  0  0  0  0  0  0  0  0  0  0  0
  146.5459  134.0106  152.4950 H   0  0  0  0  0  0  0  0  0  0  0  0
  148.0517  133.6342  151.6664 H   0  0  0  0  0  0  0  0  0  0  0  0
  147.9086  131.4273  152.4812 H   0  0  0  0  0  0  0  0  0  0  0  0
  1  2  1  0  0  0  0
  1 20  1  0  0  0  0
  1 21  1  0  0  0  0
  1 22  1  0  0  0  0
  2  3  1  0  0  0  0
  2 14  1  0  0  0  0
  2 23  1  0  0  0  0
  3  4  1  0  0  0  0
  3 24  1  0  0  0  0
  3 25  1  0  0  0  0
  4  5  1  0  0  0  0
  4 26  1  0  0  0  0
  5  6  2  0  0  0  0
  5  7  1  0  0  0  0
  7  8  1  0  0  0  0
  7 27  1  0  0  0  0
  8 13  1  0  0  0  0
  8  9  2  0  0  0  0
  9 10  1  0  0  0  0
  9 28  1  0  0  0  0
 10 11  2  0  0  0  0
 10 29  1  0  0  0  0
 11 12  1  0  0  0  0
 11 30  1  0  0  0  0
 12 13  2  0  0  0  0
 13 31  1  0  0  0  0
 14 19  1  0  0  0  0
 14 15  1  0  0  0  0
 14 40  1  0  0  0  0
 15 16  1  0  0  0  0
 15 32  1  0  0  0  0
 15 33  1  0  0  0  0
 16 17  1  0  0  0  0
 16 34  1  0  0  0  0
 16 35  1  0  0  0  0
 17 18  1  0  0  0  0
 18 19  1  0  0  0  0
 18 36  1  0  0  0  0
 18 37  1  0  0  0  0
 19 38  1  0  0  0  0
 19 39  1  0  0  0  0
M  CHG  1  14   1
M  END
> <s_m_source_file>
AV-unprocessed.smi

> <i_m_source_file_index>
2140

> <i_lp_mmshare_version>
43012

> <i_f3d_flags>
0

> <s_epik_input>
W0NIMl0xW0NIMl1PW0NIMl1bQ0gyXU4xW0NASF0oW0NIM10pW0NIMl1bTkhdQyg9TylbTkhdYzJbY0hdW2NIXVtjSF1uW2NIXTI=

> <s_epik_cmdline>
J2VwaWtfcHl0aG9uJywgJy1waCcsICc3LjAnLCAnLXRuJywgJzgnLCAnLW1hJywgJzIwMCcsICctbWV0YWxfYmluZGluZycsICctaW1hZScsICc8aW5maWxlLm1hZT4nLCAnLW9tYWUnLCAnPG91dGZpbGUubWFlPic=

> <r_epik_Ionization_Penalty>
0.60672

> <r_epik_Ionization_Penalty_Charging>
0.602531

> <r_epik_Ionization_Penalty_Neutral>
0.00418997

> <r_epik_State_Penalty>
0.607459

> <r_epik_Charging_Adjusted_Penalty>
1.20999

> <i_epik_Tot_Q>
1

> <i_epik_Tot_abs_Q>
1

> <r_epik_Metal_State_Penalty>
0.604586

> <b_epik_Metal_Only>
0

> <s_lp_Force_Field>
OPLS_2005

> <r_lp_Energy>
23.5262

> <b_lp_Chiralities_Consistent>
1

> <s_lp_Variant>
AV-unprocessed.smi:2140-3

> <Gold.Version>
5.8.1

> <Gold.Id.Protein>
6NUR|6NUR_protein|mol2

> <Gold.PLP.Fitness>
46.5064

> <Gold.PLP.PLP>
-33.0558

> <Gold.PLP.part.hbond>
-4.1887

> <Gold.PLP.part.metal>
0.0000

> <Gold.PLP.part.buried>
-6.7104

> <Gold.PLP.part.nonpolar>
-23.5677

> <Gold.PLP.part.repulsive>
0.2815

> <Gold.PLP.ligand.clash>
0.0000

> <Gold.PLP.ligand.torsion>
0.7992

> <Gold.PLP.Chemscore.Hbond>
3.9920

> <Gold.PLP.Chemscore.CHOScore>
1.0000

> <Gold.PLP.Chemscore.Metal>
0.0000

> <Gold.Chemscore.Hbonds>
donor molecule, donor type, donor heavy atom, donor atom, acceptor molecule, acceptor atom, score
      L1  H     4    26       P1  7948  0.99
      L1  H     7    27       P1  7948  0.93
      P1  H  7989  7998       L1    12  1.00
      L1  C    13    31       P1  7957  0.30

> <Gold.PLP.Chemscore.Internal.Correction>
0.0730

> <Gold.Rescore>
     Score         DG    S(hbond)    S(metal)    S(lipo)     H(rot)  DE(clash)    DE(int)     intcor
     19.54     -21.36       3.35        0.00      73.20       1.52       0.02       1.80       ----

> <Gold.Chemscore.Fitness>
19.5358

> <Gold.Chemscore.DG>
-21.3580

> <Gold.Chemscore.ZeroCoef>
-5.4800

> <Gold.Chemscore.Hbond>
3.3533

> <Gold.Chemscore.Metal>
0.0000

> <Gold.Chemscore.Lipo>
73.1953

> <Gold.Chemscore.Internal_Hbond>
0.0000

> <Gold.Chemscore.DEClash>
0.0202

> <Gold.Chemscore.DEInternal>
1.8019

> <Gold.Chemscore.Rot>
1.5179

> <Gold.Chemscore.Internal.Correction>
   9.000000E+99

> <Gold.Chemscore.Hbonds>
donor molecule, donor type, donor heavy atom, donor atom, acceptor molecule, acceptor atom, score
      L1  H     4    26       P1  7948  0.88
      L1  H     7    27       P1  7948  0.83
      L1  H    14    40       P1 10747  0.01
      P1  H  7989  7998       L1    12  0.45

> <Gold.Chemscore.Hbond.Weighted>
-11.2000

> <Gold.Chemscore.Metal.Weighted>
-0.0000

> <Gold.Chemscore.Lipo.Weighted>
-8.5639

> <Gold.Chemscore.Internal_Hbond.Weighted>
0.0000

> <Gold.Chemscore.DEClash.Weighted>
0.0202

> <Gold.Chemscore.DEInternal.Weighted>
1.8019

> <Gold.Chemscore.Rot.Weighted>
3.8859

> <Gold.Chemscore.Internal.Correction.Weighted>
   9.000000E+99

> <Gold.Protein.RotatedTorsions>
[ 6907 6896 6895 6894 ] final -128.07 input  -60.11 | X-H torsion
[ 7974 7965 7964 7962 ] final   41.18 input  175.53 | X-H torsion
[ 8008 7997 7996 7995 ] final -179.85 input   59.86 | X-H torsion
[ 10167 10162 10161 10158 ] final  172.11 input  -65.29 | X-H torsion
[ 10718 10713 10712 10709 ] final  140.80 input   66.30 | X-H torsion
[ 10763 10752 10751 10750 ] final  141.68 input  -60.55 | X-H torsion
[ 11005 11000 10999 10996 ] final    2.64 input  -57.11 | X-H torsion

> <Gold.Protein.ActiveResidues>
 VAL166  LYS551  ARG553  GLY616  TRP617  ASP618  TYR619  PRO620  LYS621  CYS622 
 ASP623  PHE694  ASN695  SER759  ASP760  ASP761  ALA762  ILE779  LEU786  VAL792 
 PHE793  MET794  SER795  GLU796  ALA797  LYS798  CYS799  TRP800  GLU811  SER814 

> <Gold.Protein.RotatedAtoms>
  150.9140  133.6962  159.2847 H   0  0  0  0  0  0  0  0  0  0  0  0  # atno 6907 bound_to 6896
  151.4439  135.1022  159.9688 H   0  0  0  0  0  0  0  0  0  0  0  0  # atno 6908 bound_to 6896
  152.4945  133.8541  159.7272 H   0  0  0  0  0  0  0  0  0  0  0  0  # atno 6909 bound_to 6896
  146.0845  139.5446  142.9516 H   0  0  0  0  0  0  0  0  0  0  0  0  # atno 7974 bound_to 7965
  156.0352  140.1291  157.0215 H   0  0  0  0  0  0  0  0  0  0  0  0  # atno 8008 bound_to 7997
  154.4367  140.1041  156.6228 H   0  0  0  0  0  0  0  0  0  0  0  0  # atno 8009 bound_to 7997
  155.5748  140.3467  155.4527 H   0  0  0  0  0  0  0  0  0  0  0  0  # atno 8010 bound_to 7997
  139.5066  144.3411  152.0017 H   0  0  0  0  0  0  0  0  0  0  0  0  # atno 10167 bound_to 10162
  157.3992  131.1014  151.0568 H   0  0  0  0  0  0  0  0  0  0  0  0  # atno 10718 bound_to 10713
  153.9433  135.2977  155.3442 H   0  0  0  0  0  0  0  0  0  0  0  0  # atno 10763 bound_to 10752
  154.7465  135.5000  153.9217 H   0  0  0  0  0  0  0  0  0  0  0  0  # atno 10764 bound_to 10752
  153.1031  135.6739  153.9743 H   0  0  0  0  0  0  0  0  0  0  0  0  # atno 10765 bound_to 10752
  140.6021  133.9826  155.8137 H   0  0  0  0  0  0  0  0  0  0  0  0  # atno 11005 bound_to 11000
  145.6156  141.0332  143.1942 LP  0  0  0  0  0  0  0  0  0  0  0  0  # atno 17320 bound_to 7965
  144.7316  139.7709  143.7345 LP  0  0  0  0  0  0  0  0  0  0  0  0  # atno 17321 bound_to 7965
  140.2849  144.3818  150.6107 LP  0  0  0  0  0  0  0  0  0  0  0  0  # atno 17342 bound_to 10162
  140.5990  143.2167  151.7108 LP  0  0  0  0  0  0  0  0  0  0  0  0  # atno 17343 bound_to 10162
  157.1573  130.6210  149.5600 LP  0  0  0  0  0  0  0  0  0  0  0  0  # atno 17370 bound_to 10713
  155.9819  130.4829  150.6851 LP  0  0  0  0  0  0  0  0  0  0  0  0  # atno 17371 bound_to 10713
  141.0865  133.9982  157.3305 LP  0  0  0  0  0  0  0  0  0  0  0  0  # atno 17394 bound_to 11000
  139.9228  135.0201  156.8126 LP  0  0  0  0  0  0  0  0  0  0  0  0  # atno 17395 bound_to 11000

$$$$
