AV-unprocessed.smi:9|AV-procd|sdf|52|dock6
  -GOLD-   2262015173D 1   1.00000     0.00000
 Structure written by MMmdl.
 35 37  0  0  0  0  0  0  0  0  1 V2000
  152.3848  137.3991  154.4691 O   0  0  0  0  0  0  0  0  0  0  0  0
  152.1539  138.0661  155.4753 C   0  0  0  0  0  0  0  0  0  0  0  0
  152.6736  137.7891  156.6959 N   0  0  0  0  0  0  0  0  0  0  0  0
  152.4049  138.5638  157.8535 C   0  0  0  0  0  0  0  0  0  0  0  0
  153.1302  138.0060  159.0680 C   0  0  0  0  0  0  0  0  0  0  0  0
  153.9588  138.9105  159.5920 F   0  0  0  0  0  0  0  0  0  0  0  0
  152.2560  137.6501  160.0096 F   0  0  0  0  0  0  0  0  0  0  0  0
  153.8479  136.9337  158.7316 F   0  0  0  0  0  0  0  0  0  0  0  0
  151.6397  139.6238  157.9082 N   0  0  0  0  0  0  0  0  0  0  0  0
  151.0958  139.9199  156.6742 C   0  0  0  0  0  0  0  0  0  0  0  0
  151.2751  139.2616  155.4855 C   0  0  0  0  0  0  0  0  0  0  0  0
  150.5645  139.8707  154.4586 N   0  0  0  0  0  0  0  0  0  0  0  0
  149.9753  140.8867  155.0857 C   0  0  0  0  0  0  0  0  0  0  0  0
  150.2327  140.9771  156.4051 N   0  0  0  0  0  0  0  0  0  0  0  0
  149.7245  141.9794  157.3318 C   0  0  0  0  0  0  0  0  0  0  0  0
  150.7963  142.9736  157.8488 C   0  0  2  0  0  0  0  0  0  0  0  0
  151.3547  143.6191  156.7193 O   0  0  0  0  0  0  0  0  0  0  0  0
  151.9193  142.2613  158.6351 C   0  0  0  0  0  0  0  0  0  0  0  0
  152.8243  143.2596  159.3642 C   0  0  0  0  0  0  0  0  0  0  0  0
  151.9791  144.2237  160.2038 C   0  0  0  0  0  0  0  0  0  0  0  0
  151.0752  144.9126  159.3511 O   0  0  0  0  0  0  0  0  0  0  0  0
  150.1221  144.0653  158.7139 C   0  0  0  0  0  0  0  0  0  0  0  0
  153.2841  136.9893  156.7796 H   0  0  0  0  0  0  0  0  0  0  0  0
  149.3305  141.5841  154.5710 H   0  0  0  0  0  0  0  0  0  0  0  0
  148.9100  142.5175  156.8447 H   0  0  0  0  0  0  0  0  0  0  0  0
  149.2731  141.4534  158.1742 H   0  0  0  0  0  0  0  0  0  0  0  0
  150.6565  144.0421  156.2431 H   0  0  0  0  0  0  0  0  0  0  0  0
  151.4715  141.5960  159.3746 H   0  0  0  0  0  0  0  0  0  0  0  0
  152.5199  141.6308  157.9785 H   0  0  0  0  0  0  0  0  0  0  0  0
  153.5326  142.7275  159.9998 H   0  0  0  0  0  0  0  0  0  0  0  0
  153.4154  143.8238  158.6421 H   0  0  0  0  0  0  0  0  0  0  0  0
  151.4345  143.6935  160.9866 H   0  0  0  0  0  0  0  0  0  0  0  0
  152.6218  144.9524  160.6980 H   0  0  0  0  0  0  0  0  0  0  0  0
  149.4517  144.6781  158.1097 H   0  0  0  0  0  0  0  0  0  0  0  0
  149.5041  143.6047  159.4863 H   0  0  0  0  0  0  0  0  0  0  0  0
  1  2  2  0  0  0  0
  2 11  1  0  0  0  0
  2  3  1  0  0  0  0
  3 23  1  0  0  0  0
  3  4  1  0  0  0  0
  4  5  1  0  0  0  0
  4  9  2  0  0  0  0
  5  6  1  0  0  0  0
  5  7  1  0  0  0  0
  5  8  1  0  0  0  0
  9 10  1  0  0  0  0
 10 14  1  0  0  0  0
 10 11  2  0  0  0  0
 11 12  1  0  0  0  0
 12 13  2  0  0  0  0
 13 14  1  0  0  0  0
 13 24  1  0  0  0  0
 14 15  1  0  0  0  0
 15 16  1  0  0  0  0
 15 25  1  0  0  0  0
 15 26  1  0  0  0  0
 16 22  1  0  0  0  0
 16 17  1  0  0  0  0
 16 18  1  0  0  0  0
 17 27  1  0  0  0  0
 18 19  1  0  0  0  0
 18 28  1  0  0  0  0
 18 29  1  0  0  0  0
 19 20  1  0  0  0  0
 19 30  1  0  0  0  0
 19 31  1  0  0  0  0
 20 21  1  0  0  0  0
 20 32  1  0  0  0  0
 20 33  1  0  0  0  0
 21 22  1  0  0  0  0
 22 34  1  0  0  0  0
 22 35  1  0  0  0  0
M  END
> <s_m_source_file>
AV-unprocessed.smi

> <i_m_source_file_index>
9

> <i_lp_mmshare_version>
43012

> <i_f3d_flags>
0

> <s_epik_input>
RkMoRikoRiljKG4xKVtuSF1jKD1PKWMoYzEyKW5bY0hdbjJbQ0gyXVtDQEBdMyhbT0hdKVtDSDJdW0NIMl1bQ0gyXU9bQ0gyXTM=

> <s_epik_cmdline>
J2VwaWtfcHl0aG9uJywgJy1waCcsICc3LjAnLCAnLXRuJywgJzgnLCAnLW1hJywgJzIwMCcsICctbWV0YWxfYmluZGluZycsICctaW1hZScsICc8aW5maWxlLm1hZT4nLCAnLW9tYWUnLCAnPG91dGZpbGUubWFlPic=

> <r_lp_tautomer_probability>
0.85571

> <r_epik_Ionization_Penalty>
0.770127

> <r_epik_Ionization_Penalty_Charging>
0.770101

> <r_epik_Ionization_Penalty_Neutral>
2.64604e-05

> <r_epik_State_Penalty>
2.30539

> <r_epik_Charging_Adjusted_Penalty>
3.07549

> <i_epik_Tot_Q>
0

> <i_epik_Tot_abs_Q>
0

> <r_epik_Metal_State_Penalty>
2.4903

> <b_epik_Metal_Only>
0

> <s_lp_Force_Field>
OPLS_2005

> <r_lp_Energy>
27.1686

> <b_lp_Chiralities_Consistent>
1

> <s_lp_Variant>
AV-unprocessed.smi:9-4

> <Gold.Version>
5.8.1

> <Gold.Id.Protein>
6NUR|6NUR_protein|mol2

> <Gold.PLP.Fitness>
45.0110

> <Gold.PLP.PLP>
-36.9962

> <Gold.PLP.part.hbond>
-3.0000

> <Gold.PLP.part.metal>
0.0000

> <Gold.PLP.part.buried>
-6.2764

> <Gold.PLP.part.nonpolar>
-29.0514

> <Gold.PLP.part.repulsive>
0.5177

> <Gold.PLP.ligand.clash>
0.0000

> <Gold.PLP.ligand.torsion>
0.0896

> <Gold.PLP.Chemscore.Hbond>
2.7296

> <Gold.PLP.Chemscore.CHOScore>
0.0000

> <Gold.PLP.Chemscore.Metal>
0.0000

> <Gold.Chemscore.Hbonds>
donor molecule, donor type, donor heavy atom, donor atom, acceptor molecule, acceptor atom, score
      L1  H    17    27       P1  8028  1.00
      P1  H  7989  7998       L1    12  0.80
      P1  H 10752 10764       L1     1  0.67

> <Gold.PLP.Chemscore.Internal.Correction>
0.0054

> <Gold.Rescore>
     Score         DG    S(hbond)    S(metal)    S(lipo)     H(rot)  DE(clash)    DE(int)     intcor
     13.94     -15.22       2.28        0.00      64.95       2.14       0.85       0.43       ----

> <Gold.Chemscore.Fitness>
13.9450

> <Gold.Chemscore.DG>
-15.2245

> <Gold.Chemscore.ZeroCoef>
-5.4800

> <Gold.Chemscore.Hbond>
2.2806

> <Gold.Chemscore.Metal>
0.0000

> <Gold.Chemscore.Lipo>
64.9470

> <Gold.Chemscore.Internal_Hbond>
0.0000

> <Gold.Chemscore.DEClash>
0.8504

> <Gold.Chemscore.DEInternal>
0.4291

> <Gold.Chemscore.Rot>
2.1373

> <Gold.Chemscore.Internal.Correction>
   9.000000E+99

> <Gold.Chemscore.Hbonds>
donor molecule, donor type, donor heavy atom, donor atom, acceptor molecule, acceptor atom, score
      L1  H    17    27       P1  8028  0.99
      P1  H  7989  7998       L1    12  0.09
      P1  H 10752 10764       L1     1  0.68

> <Gold.Chemscore.Hbond.Weighted>
-7.6171

> <Gold.Chemscore.Metal.Weighted>
-0.0000

> <Gold.Chemscore.Lipo.Weighted>
-7.5988

> <Gold.Chemscore.Internal_Hbond.Weighted>
0.0000

> <Gold.Chemscore.DEClash.Weighted>
0.8504

> <Gold.Chemscore.DEInternal.Weighted>
0.4291

> <Gold.Chemscore.Rot.Weighted>
5.4714

> <Gold.Chemscore.Internal.Correction.Weighted>
   9.000000E+99

> <Gold.Protein.RotatedTorsions>
[ 6907 6896 6895 6894 ] final  -36.99 input  -60.11 | X-H torsion
[ 7974 7965 7964 7962 ] final  -64.44 input  175.53 | X-H torsion
[ 8008 7997 7996 7995 ] final   65.55 input   59.86 | X-H torsion
[ 10167 10162 10161 10158 ] final  109.74 input  -65.29 | X-H torsion
[ 10718 10713 10712 10709 ] final  -70.42 input   66.30 | X-H torsion
[ 10763 10752 10751 10750 ] final  -87.67 input  -60.55 | X-H torsion
[ 11005 11000 10999 10996 ] final   65.92 input  -57.11 | X-H torsion

> <Gold.Protein.ActiveResidues>
 VAL166  LYS551  ARG553  GLY616  TRP617  ASP618  TYR619  PRO620  LYS621  CYS622 
 ASP623  PHE694  ASN695  SER759  ASP760  ASP761  ALA762  ILE779  LEU786  VAL792 
 PHE793  MET794  SER795  GLU796  ALA797  LYS798  CYS799  TRP800  GLU811  SER814 

> <Gold.Protein.RotatedAtoms>
  151.0203  134.9464  159.8055 H   0  0  0  0  0  0  0  0  0  0  0  0  # atno 6907 bound_to 6896
  152.5323  134.2913  159.9054 H   0  0  0  0  0  0  0  0  0  0  0  0  # atno 6908 bound_to 6896
  151.2920  133.4119  159.2668 H   0  0  0  0  0  0  0  0  0  0  0  0  # atno 6909 bound_to 6896
  145.7667  140.8834  143.0401 H   0  0  0  0  0  0  0  0  0  0  0  0  # atno 7974 bound_to 7965
  155.6635  140.3497  155.4791 H   0  0  0  0  0  0  0  0  0  0  0  0  # atno 8008 bound_to 7997
  155.9749  140.1163  157.0802 H   0  0  0  0  0  0  0  0  0  0  0  0  # atno 8009 bound_to 7997
  154.4176  140.1150  156.5342 H   0  0  0  0  0  0  0  0  0  0  0  0  # atno 8010 bound_to 7997
  139.6743  144.7123  151.1631 H   0  0  0  0  0  0  0  0  0  0  0  0  # atno 10167 bound_to 10162
  156.0409  130.4331  150.2292 H   0  0  0  0  0  0  0  0  0  0  0  0  # atno 10718 bound_to 10713
  154.6361  135.5405  153.7736 H   0  0  0  0  0  0  0  0  0  0  0  0  # atno 10763 bound_to 10752
  153.0309  135.6448  154.1229 H   0  0  0  0  0  0  0  0  0  0  0  0  # atno 10764 bound_to 10752
  154.1156  135.2924  155.3200 H   0  0  0  0  0  0  0  0  0  0  0  0  # atno 10765 bound_to 10752
  139.9864  134.6661  156.0168 H   0  0  0  0  0  0  0  0  0  0  0  0  # atno 11005 bound_to 11000
  144.6820  139.9798  143.7483 LP  0  0  0  0  0  0  0  0  0  0  0  0  # atno 17320 bound_to 7965
  146.0211  139.3251  143.0812 LP  0  0  0  0  0  0  0  0  0  0  0  0  # atno 17321 bound_to 7965
  140.7629  143.5796  150.8909 LP  0  0  0  0  0  0  0  0  0  0  0  0  # atno 17342 bound_to 10162
  139.9464  143.6323  152.3040 LP  0  0  0  0  0  0  0  0  0  0  0  0  # atno 17343 bound_to 10162
  157.0387  131.0029  151.3290 LP  0  0  0  0  0  0  0  0  0  0  0  0  # atno 17370 bound_to 10713
  157.5225  130.8007  149.7825 LP  0  0  0  0  0  0  0  0  0  0  0  0  # atno 17371 bound_to 10713
  141.1528  133.6546  156.4067 LP  0  0  0  0  0  0  0  0  0  0  0  0  # atno 17394 bound_to 11000
  140.4994  134.6500  157.5242 LP  0  0  0  0  0  0  0  0  0  0  0  0  # atno 17395 bound_to 11000

$$$$
