AV-unprocessed.smi:1620|AV-procd|sdf|6492|dock2
  -GOLD-   22720 7153D 1   1.00000     0.00000
 Structure written by MMmdl.
 40 40  0  0  0  0  0  0  0  0  1 V2000
  152.4707  144.6826  158.0225 C   0  0  0  0  0  0  0  0  0  0  0  0
  151.9830  144.3026  159.4339 C   0  0  0  0  0  0  0  0  0  0  0  0
  151.8785  145.5719  160.2987 C   0  0  0  0  0  0  0  0  0  0  0  0
  152.8650  143.2082  160.1022 C   0  0  1  0  0  0  0  0  0  0  0  0
  152.5448  142.9517  161.5906 C   0  0  0  0  0  0  0  0  0  0  0  0
  152.8523  141.9324  159.3393 N   0  0  0  0  0  0  0  0  0  0  0  0
  151.7167  141.7480  158.4256 C   0  0  0  0  0  0  0  0  0  0  0  0
  153.7292  140.9043  159.4951 C   0  0  0  0  0  0  0  0  0  0  0  0
  153.7079  139.9027  158.7777 O   0  0  0  0  0  0  0  0  0  0  0  0
  154.6670  141.1056  160.4412 N   0  0  0  0  0  0  0  0  0  0  0  0
  155.7168  140.2354  160.8289 C   0  0  0  0  0  0  0  0  0  0  0  0
  155.7243  139.4620  162.0185 C   0  0  0  0  0  0  0  0  0  0  0  0
  156.8343  138.7468  162.1182 N   0  0  0  0  0  0  0  0  0  0  0  0
  157.5493  139.0493  161.0052 N   0  0  0  0  0  0  0  0  0  0  0  0
  158.8480  138.4339  160.7949 C   0  0  0  0  0  0  0  0  0  0  0  0
  159.9541  139.4872  160.7046 C   0  0  0  0  0  0  0  0  0  0  0  0
  159.8406  140.4107  159.7462 N   0  0  0  0  0  0  0  0  0  0  0  0
  160.8969  139.4700  161.4929 O   0  0  0  0  0  0  0  0  0  0  0  0
  156.8940  139.9556  160.1944 C   0  0  0  0  0  0  0  0  0  0  0  0
  153.4958  145.0538  158.0441 H   0  0  0  0  0  0  0  0  0  0  0  0
  151.8457  145.4634  157.5881 H   0  0  0  0  0  0  0  0  0  0  0  0
  152.4361  143.8343  157.3389 H   0  0  0  0  0  0  0  0  0  0  0  0
  150.9712  143.9113  159.3258 H   0  0  0  0  0  0  0  0  0  0  0  0
  152.8620  145.9987  160.4983 H   0  0  0  0  0  0  0  0  0  0  0  0
  151.3985  145.3712  161.2560 H   0  0  0  0  0  0  0  0  0  0  0  0
  151.2818  146.3372  159.8018 H   0  0  0  0  0  0  0  0  0  0  0  0
  153.8747  143.6174  160.1293 H   0  0  0  0  0  0  0  0  0  0  0  0
  152.7810  143.8206  162.2043 H   0  0  0  0  0  0  0  0  0  0  0  0
  153.1366  142.1221  161.9792 H   0  0  0  0  0  0  0  0  0  0  0  0
  151.4930  142.7159  161.7522 H   0  0  0  0  0  0  0  0  0  0  0  0
  152.0392  141.3169  157.4763 H   0  0  0  0  0  0  0  0  0  0  0  0
  151.2146  142.6840  158.1842 H   0  0  0  0  0  0  0  0  0  0  0  0
  150.9782  141.0792  158.8696 H   0  0  0  0  0  0  0  0  0  0  0  0
  154.6112  141.9780  160.9464 H   0  0  0  0  0  0  0  0  0  0  0  0
  154.9780  139.3966  162.7965 H   0  0  0  0  0  0  0  0  0  0  0  0
  159.0608  137.7365  161.6069 H   0  0  0  0  0  0  0  0  0  0  0  0
  158.8123  137.8514  159.8734 H   0  0  0  0  0  0  0  0  0  0  0  0
  160.5426  141.1314  159.6568 H   0  0  0  0  0  0  0  0  0  0  0  0
  159.0477  140.3909  159.1213 H   0  0  0  0  0  0  0  0  0  0  0  0
  157.3219  140.3076  159.2673 H   0  0  0  0  0  0  0  0  0  0  0  0
  1  2  1  0  0  0  0
  1 20  1  0  0  0  0
  1 21  1  0  0  0  0
  1 22  1  0  0  0  0
  2  3  1  0  0  0  0
  2  4  1  0  0  0  0
  2 23  1  0  0  0  0
  3 24  1  0  0  0  0
  3 25  1  0  0  0  0
  3 26  1  0  0  0  0
  4  5  1  0  0  0  0
  4  6  1  0  0  0  0
  4 27  1  0  0  0  0
  5 28  1  0  0  0  0
  5 29  1  0  0  0  0
  5 30  1  0  0  0  0
  6  7  1  0  0  0  0
  6  8  1  0  0  0  0
  7 31  1  0  0  0  0
  7 32  1  0  0  0  0
  7 33  1  0  0  0  0
  8  9  2  0  0  0  0
  8 10  1  0  0  0  0
 10 11  1  0  0  0  0
 10 34  1  0  0  0  0
 11 19  2  0  0  0  0
 11 12  1  0  0  0  0
 12 13  2  0  0  0  0
 12 35  1  0  0  0  0
 13 14  1  0  0  0  0
 14 15  1  0  0  0  0
 14 19  1  0  0  0  0
 15 16  1  0  0  0  0
 15 36  1  0  0  0  0
 15 37  1  0  0  0  0
 16 17  1  0  0  0  0
 16 18  2  0  0  0  0
 17 38  1  0  0  0  0
 17 39  1  0  0  0  0
 19 40  1  0  0  0  0
M  END
> <s_m_source_file>
AV-unprocessed.smi

> <i_m_source_file_index>
1620

> <i_lp_mmshare_version>
43012

> <i_f3d_flags>
0

> <s_epik_input>
W0NIM11bQ0hdKFtDSDNdKVtDQEhdKFtDSDNdKU4oW0NIM10pQyg9TylbTkhdYzFbY0hdbm4oW2NIXTEpW0NIMl1DKD1PKVtOSDJd

> <s_epik_cmdline>
J2VwaWtfcHl0aG9uJywgJy1waCcsICc3LjAnLCAnLXRuJywgJzgnLCAnLW1hJywgJzIwMCcsICctbWV0YWxfYmluZGluZycsICctaW1hZScsICc8aW5maWxlLm1hZT4nLCAnLW9tYWUnLCAnPG91dGZpbGUubWFlPic=

> <r_lp_tautomer_probability>
1

> <r_epik_Ionization_Penalty>
4.85642e-05

> <r_epik_Ionization_Penalty_Charging>
0

> <r_epik_Ionization_Penalty_Neutral>
4.85642e-05

> <r_epik_State_Penalty>
-0

> <r_epik_Charging_Adjusted_Penalty>
0

> <i_epik_Tot_Q>
0

> <i_epik_Tot_abs_Q>
0

> <r_epik_Metal_State_Penalty>
-0

> <b_epik_Metal_Only>
0

> <s_lp_Force_Field>
OPLS_2005

> <r_lp_Energy>
32.9866

> <b_lp_Chiralities_Consistent>
1

> <s_lp_Variant>
AV-unprocessed.smi:1620-2

> <Gold.Version>
5.8.1

> <Gold.Id.Protein>
6NUR|6NUR_protein|mol2

> <Gold.PLP.Fitness>
39.5701

> <Gold.PLP.PLP>
-38.5007

> <Gold.PLP.part.hbond>
-2.0836

> <Gold.PLP.part.metal>
0.0000

> <Gold.PLP.part.buried>
-4.5907

> <Gold.PLP.part.nonpolar>
-31.6419

> <Gold.PLP.part.repulsive>
0.1302

> <Gold.PLP.ligand.clash>
0.0000

> <Gold.PLP.ligand.torsion>
1.1129

> <Gold.PLP.Chemscore.Hbond>
1.0000

> <Gold.PLP.Chemscore.CHOScore>
0.0000

> <Gold.PLP.Chemscore.Metal>
0.0000

> <Gold.Chemscore.Hbonds>
donor molecule, donor type, donor heavy atom, donor atom, acceptor molecule, acceptor atom, score
      P1  H  7997  8010       L1     9  1.00

> <Gold.PLP.Chemscore.Internal.Correction>
0.2951

> <Gold.Rescore>
     Score         DG    S(hbond)    S(metal)    S(lipo)     H(rot)  DE(clash)    DE(int)     intcor
     12.69     -13.95       0.94        0.00      91.64       2.10       0.01       1.24       ----

> <Gold.Chemscore.Fitness>
12.6948

> <Gold.Chemscore.DG>
-13.9520

> <Gold.Chemscore.ZeroCoef>
-5.4800

> <Gold.Chemscore.Hbond>
0.9389

> <Gold.Chemscore.Metal>
0.0000

> <Gold.Chemscore.Lipo>
91.6420

> <Gold.Chemscore.Internal_Hbond>
0.0000

> <Gold.Chemscore.DEClash>
0.0149

> <Gold.Chemscore.DEInternal>
1.2423

> <Gold.Chemscore.Rot>
2.1039

> <Gold.Chemscore.Internal.Correction>
   9.000000E+99

> <Gold.Chemscore.Hbonds>
donor molecule, donor type, donor heavy atom, donor atom, acceptor molecule, acceptor atom, score
      P1  H  7997  8010       L1     9  0.82

> <Gold.Chemscore.Hbond.Weighted>
-3.1359

> <Gold.Chemscore.Metal.Weighted>
-0.0000

> <Gold.Chemscore.Lipo.Weighted>
-10.7221

> <Gold.Chemscore.Internal_Hbond.Weighted>
0.0000

> <Gold.Chemscore.DEClash.Weighted>
0.0149

> <Gold.Chemscore.DEInternal.Weighted>
1.2423

> <Gold.Chemscore.Rot.Weighted>
5.3860

> <Gold.Chemscore.Internal.Correction.Weighted>
   9.000000E+99

> <Gold.Protein.RotatedTorsions>
[ 6907 6896 6895 6894 ] final   94.05 input  -60.11 | X-H torsion
[ 7974 7965 7964 7962 ] final  138.38 input  175.53 | X-H torsion
[ 8008 7997 7996 7995 ] final   13.17 input   59.86 | X-H torsion
[ 10167 10162 10161 10158 ] final    3.64 input  -65.29 | X-H torsion
[ 10718 10713 10712 10709 ] final  -84.78 input   66.30 | X-H torsion
[ 10763 10752 10751 10750 ] final  170.38 input  -60.55 | X-H torsion
[ 11005 11000 10999 10996 ] final -104.30 input  -57.11 | X-H torsion

> <Gold.Protein.ActiveResidues>
 VAL166  LYS551  ARG553  GLY616  TRP617  ASP618  TYR619  PRO620  LYS621  CYS622 
 ASP623  PHE694  ASN695  SER759  ASP760  ASP761  ALA762  ILE779  LEU786  VAL792 
 PHE793  MET794  SER795  GLU796  ALA797  LYS798  CYS799  TRP800  GLU811  SER814 

> <Gold.Protein.RotatedAtoms>
  152.5451  134.1253  159.8415 H   0  0  0  0  0  0  0  0  0  0  0  0  # atno 6907 bound_to 6896
  151.1304  133.5033  159.2607 H   0  0  0  0  0  0  0  0  0  0  0  0  # atno 6908 bound_to 6896
  151.1681  135.0315  159.8794 H   0  0  0  0  0  0  0  0  0  0  0  0  # atno 6909 bound_to 6896
  144.9377  139.4968  143.5587 H   0  0  0  0  0  0  0  0  0  0  0  0  # atno 7974 bound_to 7965
  154.8308  140.2899  155.5724 H   0  0  0  0  0  0  0  0  0  0  0  0  # atno 8008 bound_to 7997
  156.3005  140.2532  156.3164 H   0  0  0  0  0  0  0  0  0  0  0  0  # atno 8009 bound_to 7997
  154.9233  140.0385  157.1999 H   0  0  0  0  0  0  0  0  0  0  0  0  # atno 8010 bound_to 7997
  140.6575  143.7389  150.7680 H   0  0  0  0  0  0  0  0  0  0  0  0  # atno 10167 bound_to 10162
  156.0003  130.4709  150.4462 H   0  0  0  0  0  0  0  0  0  0  0  0  # atno 10718 bound_to 10713
  154.3968  135.2754  155.2121 H   0  0  0  0  0  0  0  0  0  0  0  0  # atno 10763 bound_to 10752
  154.4164  135.6010  153.5987 H   0  0  0  0  0  0  0  0  0  0  0  0  # atno 10764 bound_to 10752
  152.9831  135.5962  154.4231 H   0  0  0  0  0  0  0  0  0  0  0  0  # atno 10765 bound_to 10752
  141.1107  133.8712  157.1594 H   0  0  0  0  0  0  0  0  0  0  0  0  # atno 11005 bound_to 11000
  146.3273  139.8374  142.8897 LP  0  0  0  0  0  0  0  0  0  0  0  0  # atno 17320 bound_to 7965
  145.3040  141.0202  143.3592 LP  0  0  0  0  0  0  0  0  0  0  0  0  # atno 17321 bound_to 7965
  140.1051  143.4751  152.2403 LP  0  0  0  0  0  0  0  0  0  0  0  0  # atno 17342 bound_to 10162
  139.5801  144.7506  151.3662 LP  0  0  0  0  0  0  0  0  0  0  0  0  # atno 17343 bound_to 10162
  157.2499  131.0544  151.2386 LP  0  0  0  0  0  0  0  0  0  0  0  0  # atno 17370 bound_to 10713
  157.3539  130.7096  149.6458 LP  0  0  0  0  0  0  0  0  0  0  0  0  # atno 17371 bound_to 10713
  139.9999  135.0032  157.0166 LP  0  0  0  0  0  0  0  0  0  0  0  0  # atno 17394 bound_to 11000
  140.4783  134.1315  155.7213 LP  0  0  0  0  0  0  0  0  0  0  0  0  # atno 17395 bound_to 11000

$$$$
