AV-unprocessed.smi:2923|AV-procd|sdf|11216|dock1
  -GOLD-   2272016103D 1   1.00000     0.00000
 Structure written by MMmdl.
 46 48  0  0  0  0  0  0  0  0  1 V2000
  152.6957  144.7622  157.9289 C   0  0  0  0  0  0  0  0  0  0  0  0
  152.2121  144.6380  159.2982 N   0  0  0  0  0  0  0  0  0  0  0  0
  151.2316  145.5888  159.8124 C   0  0  0  0  0  0  0  0  0  0  0  0
  152.7141  143.6197  160.1407 C   0  0  0  0  0  0  0  0  0  0  0  0
  152.4841  143.6357  161.5387 C   0  0  0  0  0  0  0  0  0  0  0  0
  153.0010  142.5968  162.3364 C   0  0  0  0  0  0  0  0  0  0  0  0
  153.7454  141.5642  161.7213 C   0  0  0  0  0  0  0  0  0  0  0  0
  154.2966  140.4494  162.4096 N   0  0  0  0  0  0  0  0  0  0  0  0
  154.7896  139.3074  161.9007 C   0  0  0  0  0  0  0  0  0  0  0  0
  154.7795  138.9930  160.7108 O   0  0  0  0  0  0  0  0  0  0  0  0
  155.2917  138.5253  162.8650 N   0  0  0  0  0  0  0  0  0  0  0  0
  155.9230  137.2321  162.6301 C   0  0  2  0  0  0  0  0  0  0  0  0
  155.1961  136.4107  161.5652 C   0  0  1  0  0  0  0  0  0  0  0  0
  155.5390  135.9320  160.1998 C   0  0  0  0  0  0  0  0  0  0  0  0
  155.0605  134.4644  160.3632 C   0  0  0  0  0  0  0  0  0  0  0  0
  154.8010  134.2860  161.7771 O   0  0  0  0  0  0  0  0  0  0  0  0
  155.6532  135.2276  162.3959 C   0  0  2  0  0  0  0  0  0  0  0  0
  155.4672  136.1145  163.6429 C   0  0  0  0  0  0  0  0  0  0  0  0
  156.4384  135.8365  164.7907 C   0  0  0  0  0  0  0  0  0  0  0  0
  154.0608  136.1805  164.2732 C   0  0  0  0  0  0  0  0  0  0  0  0
  153.9139  141.6277  160.3245 C   0  0  0  0  0  0  0  0  0  0  0  0
  153.4207  142.6213  159.5567 N   0  0  0  0  0  0  0  0  0  0  0  0
  153.7730  144.9296  157.9168 H   0  0  0  0  0  0  0  0  0  0  0  0
  152.2241  145.5999  157.4148 H   0  0  0  0  0  0  0  0  0  0  0  0
  152.4757  143.8577  157.3610 H   0  0  0  0  0  0  0  0  0  0  0  0
  151.6414  146.1416  160.6583 H   0  0  0  0  0  0  0  0  0  0  0  0
  150.3305  145.0693  160.1403 H   0  0  0  0  0  0  0  0  0  0  0  0
  150.9402  146.3126  159.0512 H   0  0  0  0  0  0  0  0  0  0  0  0
  151.9172  144.4199  162.0166 H   0  0  0  0  0  0  0  0  0  0  0  0
  152.8007  142.6090  163.3961 H   0  0  0  0  0  0  0  0  0  0  0  0
  154.2957  140.5215  163.4165 H   0  0  0  0  0  0  0  0  0  0  0  0
  155.2539  138.8518  163.8194 H   0  0  0  0  0  0  0  0  0  0  0  0
  157.0040  137.2819  162.4695 H   0  0  0  0  0  0  0  0  0  0  0  0
  154.1189  136.5841  161.6228 H   0  0  0  0  0  0  0  0  0  0  0  0
  154.9999  136.4635  159.4155 H   0  0  0  0  0  0  0  0  0  0  0  0
  156.6102  135.9937  160.0023 H   0  0  0  0  0  0  0  0  0  0  0  0
  154.1491  134.2678  159.7982 H   0  0  0  0  0  0  0  0  0  0  0  0
  155.8267  133.7658  160.0247 H   0  0  0  0  0  0  0  0  0  0  0  0
  156.7039  134.9569  162.2406 H   0  0  0  0  0  0  0  0  0  0  0  0
  156.2279  134.8800  165.2696 H   0  0  0  0  0  0  0  0  0  0  0  0
  156.3857  136.6097  165.5577 H   0  0  0  0  0  0  0  0  0  0  0  0
  157.4711  135.8026  164.4423 H   0  0  0  0  0  0  0  0  0  0  0  0
  153.7993  135.2339  164.7468 H   0  0  0  0  0  0  0  0  0  0  0  0
  153.2692  136.3988  163.5592 H   0  0  0  0  0  0  0  0  0  0  0  0
  154.0075  136.9512  165.0429 H   0  0  0  0  0  0  0  0  0  0  0  0
  154.4631  140.8578  159.8026 H   0  0  0  0  0  0  0  0  0  0  0  0
  1  2  1  0  0  0  0
  1 23  1  0  0  0  0
  1 24  1  0  0  0  0
  1 25  1  0  0  0  0
  2  3  1  0  0  0  0
  2  4  1  0  0  0  0
  3 26  1  0  0  0  0
  3 27  1  0  0  0  0
  3 28  1  0  0  0  0
  4 22  1  0  0  0  0
  4  5  2  0  0  0  0
  5  6  1  0  0  0  0
  5 29  1  0  0  0  0
  6  7  2  0  0  0  0
  6 30  1  0  0  0  0
  7  8  1  0  0  0  0
  7 21  1  0  0  0  0
  8  9  1  0  0  0  0
  8 31  1  0  0  0  0
  9 10  2  0  0  0  0
  9 11  1  0  0  0  0
 11 12  1  0  0  0  0
 11 32  1  0  0  0  0
 12 18  1  0  0  0  0
 12 13  1  0  0  0  0
 12 33  1  0  0  0  0
 13 17  1  0  0  0  0
 13 14  1  0  0  0  0
 13 34  1  0  0  0  0
 14 15  1  0  0  0  0
 14 35  1  0  0  0  0
 14 36  1  0  0  0  0
 15 16  1  0  0  0  0
 15 37  1  0  0  0  0
 15 38  1  0  0  0  0
 16 17  1  0  0  0  0
 17 18  1  0  0  0  0
 17 39  1  0  0  0  0
 18 19  1  0  0  0  0
 18 20  1  0  0  0  0
 19 40  1  0  0  0  0
 19 41  1  0  0  0  0
 19 42  1  0  0  0  0
 20 43  1  0  0  0  0
 20 44  1  0  0  0  0
 20 45  1  0  0  0  0
 21 22  2  0  0  0  0
 21 46  1  0  0  0  0
M  END
> <s_m_source_file>
AV-unprocessed.smi

> <i_m_source_file_index>
2923

> <i_lp_mmshare_version>
43012

> <i_f3d_flags>
0

> <s_epik_input>
W0NIM11OKFtDSDNdKWMxW2NIXVtjSF1jKFtjSF1uMSlbTkhdQyg9TylbTkhdW0NASF0yQyhbQ0gzXSkoW0NIM10pW0NAQEhdKFtDQEhdMjMpT1tDSDJdW0NIMl0z

> <s_epik_cmdline>
J2VwaWtfcHl0aG9uJywgJy1waCcsICc3LjAnLCAnLXRuJywgJzgnLCAnLW1hJywgJzIwMCcsICctbWV0YWxfYmluZGluZycsICctaW1hZScsICc8aW5maWxlLm1hZT4nLCAnLW9tYWUnLCAnPG91dGZpbGUubWFlPic=

> <r_lp_tautomer_probability>
1

> <r_epik_Ionization_Penalty>
0.628785

> <r_epik_Ionization_Penalty_Charging>
0

> <r_epik_Ionization_Penalty_Neutral>
0.628785

> <r_epik_State_Penalty>
0.644286

> <r_epik_Charging_Adjusted_Penalty>
0.644286

> <i_epik_Tot_Q>
0

> <i_epik_Tot_abs_Q>
0

> <r_epik_Metal_State_Penalty>
0.308404

> <b_epik_Metal_Only>
0

> <s_lp_Force_Field>
OPLS_2005

> <r_lp_Energy>
62.6556

> <b_lp_Chiralities_Consistent>
1

> <s_lp_Variant>
AV-unprocessed.smi:2923-15

> <Gold.Version>
5.8.1

> <Gold.Id.Protein>
6NUR|6NUR_protein|mol2

> <Gold.PLP.Fitness>
44.7992

> <Gold.PLP.PLP>
-45.2253

> <Gold.PLP.part.hbond>
0.0000

> <Gold.PLP.part.metal>
0.0000

> <Gold.PLP.part.buried>
-4.5563

> <Gold.PLP.part.nonpolar>
-39.6992

> <Gold.PLP.part.repulsive>
0.0000

> <Gold.PLP.ligand.clash>
0.0000

> <Gold.PLP.ligand.torsion>
0.3494

> <Gold.PLP.Chemscore.Hbond>
0.0000

> <Gold.PLP.Chemscore.CHOScore>
0.0000

> <Gold.PLP.Chemscore.Metal>
0.0000

> <Gold.PLP.Chemscore.Internal.Correction>
0.2728

> <Gold.Rescore>
     Score         DG    S(hbond)    S(metal)    S(lipo)     H(rot)  DE(clash)    DE(int)     intcor
     12.73     -15.95       0.00        0.00     111.41       1.00       0.03       3.19       ----

> <Gold.Chemscore.Fitness>
12.7348

> <Gold.Chemscore.DG>
-15.9549

> <Gold.Chemscore.ZeroCoef>
-5.4800

> <Gold.Chemscore.Hbond>
0.0000

> <Gold.Chemscore.Metal>
0.0000

> <Gold.Chemscore.Lipo>
111.4092

> <Gold.Chemscore.Internal_Hbond>
0.0000

> <Gold.Chemscore.DEClash>
0.0324

> <Gold.Chemscore.DEInternal>
3.1877

> <Gold.Chemscore.Rot>
1.0000

> <Gold.Chemscore.Internal.Correction>
   9.000000E+99

> <Gold.Chemscore.Hbond.Weighted>
-0.0000

> <Gold.Chemscore.Metal.Weighted>
-0.0000

> <Gold.Chemscore.Lipo.Weighted>
-13.0349

> <Gold.Chemscore.Internal_Hbond.Weighted>
0.0000

> <Gold.Chemscore.DEClash.Weighted>
0.0324

> <Gold.Chemscore.DEInternal.Weighted>
3.1877

> <Gold.Chemscore.Rot.Weighted>
2.5600

> <Gold.Chemscore.Internal.Correction.Weighted>
   9.000000E+99

> <Gold.Protein.RotatedTorsions>
[ 6907 6896 6895 6894 ] final   67.58 input  -60.11 | X-H torsion
[ 7974 7965 7964 7962 ] final  113.90 input  175.53 | X-H torsion
[ 8008 7997 7996 7995 ] final -128.81 input   59.86 | X-H torsion
[ 10167 10162 10161 10158 ] final  152.38 input  -65.29 | X-H torsion
[ 10718 10713 10712 10709 ] final   76.81 input   66.30 | X-H torsion
[ 10763 10752 10751 10750 ] final   38.49 input  -60.55 | X-H torsion
[ 11005 11000 10999 10996 ] final   -4.86 input  -57.11 | X-H torsion

> <Gold.Protein.ActiveResidues>
 VAL166  LYS551  ARG553  GLY616  TRP617  ASP618  TYR619  PRO620  LYS621  CYS622 
 ASP623  PHE694  ASN695  SER759  ASP760  ASP761  ALA762  ILE779  LEU786  VAL792 
 PHE793  MET794  SER795  GLU796  ALA797  LYS798  CYS799  TRP800  GLU811  SER814 

> <Gold.Protein.RotatedAtoms>
  152.4562  134.5287  159.9804 H   0  0  0  0  0  0  0  0  0  0  0  0  # atno 6907 bound_to 6896
  151.5347  133.3437  159.2932 H   0  0  0  0  0  0  0  0  0  0  0  0  # atno 6908 bound_to 6896
  150.8507  134.7861  159.7069 H   0  0  0  0  0  0  0  0  0  0  0  0  # atno 6909 bound_to 6896
  145.2112  139.2905  143.4267 H   0  0  0  0  0  0  0  0  0  0  0  0  # atno 7974 bound_to 7965
  155.2688  140.0439  157.3005 H   0  0  0  0  0  0  0  0  0  0  0  0  # atno 8008 bound_to 7997
  154.5665  140.2361  155.8224 H   0  0  0  0  0  0  0  0  0  0  0  0  # atno 8009 bound_to 7997
  156.2089  140.3004  155.9697 H   0  0  0  0  0  0  0  0  0  0  0  0  # atno 8010 bound_to 7997
  139.4833  144.5362  151.7640 H   0  0  0  0  0  0  0  0  0  0  0  0  # atno 10167 bound_to 10162
  157.6687  130.9792  150.1551 H   0  0  0  0  0  0  0  0  0  0  0  0  # atno 10718 bound_to 10713
  152.9999  135.6248  154.2313 H   0  0  0  0  0  0  0  0  0  0  0  0  # atno 10763 bound_to 10752
  154.2055  135.2802  155.2978 H   0  0  0  0  0  0  0  0  0  0  0  0  # atno 10764 bound_to 10752
  154.5649  135.5694  153.7100 H   0  0  0  0  0  0  0  0  0  0  0  0  # atno 10765 bound_to 10752
  140.6849  133.9122  155.8579 H   0  0  0  0  0  0  0  0  0  0  0  0  # atno 11005 bound_to 11000
  146.3397  140.2388  142.8595 LP  0  0  0  0  0  0  0  0  0  0  0  0  # atno 17320 bound_to 7965
  144.9854  140.8498  143.5371 LP  0  0  0  0  0  0  0  0  0  0  0  0  # atno 17321 bound_to 7965
  140.4895  144.1331  150.5947 LP  0  0  0  0  0  0  0  0  0  0  0  0  # atno 17342 bound_to 10162
  140.4187  143.2622  151.9743 LP  0  0  0  0  0  0  0  0  0  0  0  0  # atno 17343 bound_to 10162
  156.2340  130.3684  149.8412 LP  0  0  0  0  0  0  0  0  0  0  0  0  # atno 17370 bound_to 10713
  156.6230  130.8634  151.3479 LP  0  0  0  0  0  0  0  0  0  0  0  0  # atno 17371 bound_to 10713
  141.0288  134.0785  157.4038 LP  0  0  0  0  0  0  0  0  0  0  0  0  # atno 17394 bound_to 11000
  139.8941  135.0134  156.6931 LP  0  0  0  0  0  0  0  0  0  0  0  0  # atno 17395 bound_to 11000

$$$$
