AV-unprocessed.smi:1899|AV-procd|sdf|7706|dock6
  -GOLD-   22720 9443D 1   1.00000     0.00000
 Structure written by MMmdl.
 34 35  0  0  0  0  0  0  0  0  2 V2000
  151.5471  140.7917  157.3517 O   0  0  0  0  0  0  0  0  0  0  0  0
  150.9413  141.8617  157.2925 C   0  0  0  0  0  0  0  0  0  0  0  0
  150.1322  142.1921  156.2741 N   0  0  0  0  0  0  0  0  0  0  0  0
  149.8420  141.3489  155.1178 C   0  0  0  0  0  0  0  0  0  0  0  0
  148.3920  141.4978  154.6156 C   0  0  0  0  0  0  0  0  0  0  0  0
  147.9528  140.3543  153.8103 N   0  0  0  0  0  0  0  0  0  0  0  0
  146.8050  140.2523  153.0673 C   0  0  0  0  0  0  0  0  0  0  0  0
  146.8212  139.0070  152.4933 C   0  0  0  0  0  0  0  0  0  0  0  0
  147.9772  138.4025  152.9099 N   0  3  0  0  0  0  0  0  0  0  0  0
  148.6651  139.2243  153.7089 C   0  0  0  0  0  0  0  0  0  0  0  0
  151.0760  142.8915  158.4214 C   0  0  1  0  0  0  0  0  0  0  0  0
  151.9413  142.3356  159.5759 C   0  0  0  0  0  0  0  0  0  0  0  0
  152.3041  143.4085  160.5873 C   0  0  0  0  0  0  0  0  0  0  0  0
  152.1907  144.7250  160.3410 C   0  0  0  0  0  0  0  0  0  0  0  0
  151.6921  145.2894  159.0223 C   0  0  0  0  0  0  0  0  0  0  0  0
  151.6542  144.2260  157.9083 C   0  0  0  0  0  0  0  0  0  0  0  0
  149.6830  143.0962  156.3030 H   0  0  0  0  0  0  0  0  0  0  0  0
  150.5393  141.6112  154.3217 H   0  0  0  0  0  0  0  0  0  0  0  0
  150.0433  140.3067  155.3709 H   0  0  0  0  0  0  0  0  0  0  0  0
  147.7111  141.5818  155.4634 H   0  0  0  0  0  0  0  0  0  0  0  0
  148.2668  142.4066  154.0254 H   0  0  0  0  0  0  0  0  0  0  0  0
  146.0812  141.0520  153.0045 H   0  0  0  0  0  0  0  0  0  0  0  0
  146.1153  138.5188  151.8371 H   0  0  0  0  0  0  0  0  0  0  0  0
  149.6076  139.0150  154.1837 H   0  0  0  0  0  0  0  0  0  0  0  0
  150.0785  143.0969  158.8151 H   0  0  0  0  0  0  0  0  0  0  0  0
  151.4012  141.5407  160.0916 H   0  0  0  0  0  0  0  0  0  0  0  0
  152.8689  141.8990  159.2029 H   0  0  0  0  0  0  0  0  0  0  0  0
  152.6827  143.0718  161.5413 H   0  0  0  0  0  0  0  0  0  0  0  0
  152.4536  145.4391  161.1079 H   0  0  0  0  0  0  0  0  0  0  0  0
  150.6954  145.7000  159.1861 H   0  0  0  0  0  0  0  0  0  0  0  0
  152.3323  146.1190  158.7211 H   0  0  0  0  0  0  0  0  0  0  0  0
  152.6678  144.0653  157.5369 H   0  0  0  0  0  0  0  0  0  0  0  0
  151.0741  144.6011  157.0639 H   0  0  0  0  0  0  0  0  0  0  0  0
  148.2716  137.4690  152.6513 H   0  0  0  0  0  0  0  0  0  0  0  0
  1  2  2  0  0  0  0
  2  3  1  0  0  0  0
  2 11  1  0  0  0  0
  3  4  1  0  0  0  0
  3 17  1  0  0  0  0
  4  5  1  0  0  0  0
  4 18  1  0  0  0  0
  4 19  1  0  0  0  0
  5  6  1  0  0  0  0
  5 20  1  0  0  0  0
  5 21  1  0  0  0  0
  6 10  1  0  0  0  0
  6  7  1  0  0  0  0
  7  8  2  0  0  0  0
  7 22  1  0  0  0  0
  8  9  1  0  0  0  0
  8 23  1  0  0  0  0
  9 10  2  0  0  0  0
  9 34  1  0  0  0  0
 10 24  1  0  0  0  0
 11 16  1  0  0  0  0
 11 12  1  0  0  0  0
 11 25  1  0  0  0  0
 12 13  1  0  0  0  0
 12 26  1  0  0  0  0
 12 27  1  0  0  0  0
 13 14  2  0  0  0  0
 13 28  1  0  0  0  0
 14 15  1  0  0  0  0
 14 29  1  0  0  0  0
 15 16  1  0  0  0  0
 15 30  1  0  0  0  0
 15 31  1  0  0  0  0
 16 32  1  0  0  0  0
 16 33  1  0  0  0  0
M  CHG  1   9   1
M  END
> <s_m_source_file>
AV-unprocessed.smi

> <i_m_source_file_index>
1899

> <i_lp_mmshare_version>
43012

> <i_f3d_flags>
0

> <s_epik_input>
W0NIMl0xW0NIMl1bQ0hdPVtDSF1bQ0gyXVtDQEhdMUMoPU8pW05IXVtDSDJdW0NIMl1uMltjSF1bY0hdbltjSF0y

> <s_epik_cmdline>
J2VwaWtfcHl0aG9uJywgJy1waCcsICc3LjAnLCAnLXRuJywgJzgnLCAnLW1hJywgJzIwMCcsICctbWV0YWxfYmluZGluZycsICctaW1hZScsICc8aW5maWxlLm1hZT4nLCAnLW9tYWUnLCAnPG91dGZpbGUubWFlPic=

> <r_lp_tautomer_probability>
1

> <r_epik_Ionization_Penalty>
0.268283

> <r_epik_Ionization_Penalty_Charging>
0

> <r_epik_Ionization_Penalty_Neutral>
0.268283

> <r_epik_State_Penalty>
0.260312

> <r_epik_Charging_Adjusted_Penalty>
0.260312

> <i_epik_Tot_Q>
1

> <i_epik_Tot_abs_Q>
1

> <r_epik_Metal_State_Penalty>
0.545819

> <b_epik_Metal_Only>
0

> <s_lp_Force_Field>
OPLS_2005

> <r_lp_Energy>
11.7263

> <b_lp_Chiralities_Consistent>
1

> <s_lp_Variant>
AV-unprocessed.smi:1899-2

> <Gold.Version>
5.8.1

> <Gold.Id.Protein>
6NUR|6NUR_protein|mol2

> <Gold.PLP.Fitness>
50.3998

> <Gold.PLP.PLP>
-39.7335

> <Gold.PLP.part.hbond>
-3.0000

> <Gold.PLP.part.metal>
0.0000

> <Gold.PLP.part.buried>
-0.4724

> <Gold.PLP.part.nonpolar>
-36.6259

> <Gold.PLP.part.repulsive>
0.1449

> <Gold.PLP.ligand.clash>
0.0000

> <Gold.PLP.ligand.torsion>
0.3825

> <Gold.PLP.Chemscore.Hbond>
3.0000

> <Gold.PLP.Chemscore.CHOScore>
0.8051

> <Gold.PLP.Chemscore.Metal>
0.0000

> <Gold.Chemscore.Hbonds>
donor molecule, donor type, donor heavy atom, donor atom, acceptor molecule, acceptor atom, score
      L1  H     3    17       P1  8028  1.00
      L1  H     9    34       P1  7948  2.00
      L1  C     7    22       P1 10175  0.79

> <Gold.PLP.Chemscore.Internal.Correction>
0.0159

> <Gold.Rescore>
     Score         DG    S(hbond)    S(metal)    S(lipo)     H(rot)  DE(clash)    DE(int)     intcor
     18.01     -19.17       1.98        0.00     101.55       1.87       0.69       0.46       ----

> <Gold.Chemscore.Fitness>
18.0150

> <Gold.Chemscore.DG>
-19.1682

> <Gold.Chemscore.ZeroCoef>
-5.4800

> <Gold.Chemscore.Hbond>
1.9776

> <Gold.Chemscore.Metal>
0.0000

> <Gold.Chemscore.Lipo>
101.5495

> <Gold.Chemscore.Internal_Hbond>
0.0000

> <Gold.Chemscore.DEClash>
0.6939

> <Gold.Chemscore.DEInternal>
0.4593

> <Gold.Chemscore.Rot>
1.8743

> <Gold.Chemscore.Internal.Correction>
   9.000000E+99

> <Gold.Chemscore.Hbonds>
donor molecule, donor type, donor heavy atom, donor atom, acceptor molecule, acceptor atom, score
      L1  H     3    17       P1  8028  0.99
      L1  H     9    34       P1  7948  0.98

> <Gold.Chemscore.Hbond.Weighted>
-6.6052

> <Gold.Chemscore.Metal.Weighted>
-0.0000

> <Gold.Chemscore.Lipo.Weighted>
-11.8813

> <Gold.Chemscore.Internal_Hbond.Weighted>
0.0000

> <Gold.Chemscore.DEClash.Weighted>
0.6939

> <Gold.Chemscore.DEInternal.Weighted>
0.4593

> <Gold.Chemscore.Rot.Weighted>
4.7983

> <Gold.Chemscore.Internal.Correction.Weighted>
   9.000000E+99

> <Gold.Protein.RotatedTorsions>
[ 6907 6896 6895 6894 ] final  136.43 input  -60.11 | X-H torsion
[ 7974 7965 7964 7962 ] final  -14.17 input  175.53 | X-H torsion
[ 8008 7997 7996 7995 ] final  -35.81 input   59.86 | X-H torsion
[ 10167 10162 10161 10158 ] final -128.79 input  -65.29 | X-H torsion
[ 10718 10713 10712 10709 ] final  -21.26 input   66.30 | X-H torsion
[ 10763 10752 10751 10750 ] final -141.30 input  -60.55 | X-H torsion
[ 11005 11000 10999 10996 ] final -161.25 input  -57.11 | X-H torsion

> <Gold.Protein.ActiveResidues>
 VAL166  LYS551  ARG553  GLY616  TRP617  ASP618  TYR619  PRO620  LYS621  CYS622 
 ASP623  PHE694  ASN695  SER759  ASP760  ASP761  ALA762  ILE779  LEU786  VAL792 
 PHE793  MET794  SER795  GLU796  ALA797  LYS798  CYS799  TRP800  GLU811  SER814 

> <Gold.Protein.RotatedAtoms>
  152.2895  133.5547  159.5548 H   0  0  0  0  0  0  0  0  0  0  0  0  # atno 6907 bound_to 6896
  150.7229  134.0449  159.3787 H   0  0  0  0  0  0  0  0  0  0  0  0  # atno 6908 bound_to 6896
  151.8356  135.0607  160.0493 H   0  0  0  0  0  0  0  0  0  0  0  0  # atno 6909 bound_to 6896
  146.2085  140.3310  142.8399 H   0  0  0  0  0  0  0  0  0  0  0  0  # atno 7974 bound_to 7965
  154.4087  140.1647  156.2272 H   0  0  0  0  0  0  0  0  0  0  0  0  # atno 8008 bound_to 7997
  155.9313  140.3414  155.6229 H   0  0  0  0  0  0  0  0  0  0  0  0  # atno 8009 bound_to 7997
  155.7102  140.0756  157.2365 H   0  0  0  0  0  0  0  0  0  0  0  0  # atno 8010 bound_to 7997
  139.9466  143.6103  152.2488 H   0  0  0  0  0  0  0  0  0  0  0  0  # atno 10167 bound_to 10162
  156.5206  130.4631  149.6599 H   0  0  0  0  0  0  0  0  0  0  0  0  # atno 10718 bound_to 10713
  154.8550  135.3528  154.5845 H   0  0  0  0  0  0  0  0  0  0  0  0  # atno 10763 bound_to 10752
  153.6456  135.6996  153.5231 H   0  0  0  0  0  0  0  0  0  0  0  0  # atno 10764 bound_to 10752
  153.2936  135.4227  155.1147 H   0  0  0  0  0  0  0  0  0  0  0  0  # atno 10765 bound_to 10752
  140.6224  134.4736  157.5224 H   0  0  0  0  0  0  0  0  0  0  0  0  # atno 11005 bound_to 11000
  144.8853  140.7453  143.5961 LP  0  0  0  0  0  0  0  0  0  0  0  0  # atno 17320 bound_to 7965
  145.3231  139.1782  143.4577 LP  0  0  0  0  0  0  0  0  0  0  0  0  # atno 17321 bound_to 7965
  139.6662  144.7662  151.1869 LP  0  0  0  0  0  0  0  0  0  0  0  0  # atno 17342 bound_to 10162
  140.7595  143.5935  150.8772 LP  0  0  0  0  0  0  0  0  0  0  0  0  # atno 17343 bound_to 10162
  156.3153  130.7251  151.2152 LP  0  0  0  0  0  0  0  0  0  0  0  0  # atno 17370 bound_to 10713
  157.7437  131.0470  150.4922 LP  0  0  0  0  0  0  0  0  0  0  0  0  # atno 17371 bound_to 10713
  139.9148  134.8269  156.1404 LP  0  0  0  0  0  0  0  0  0  0  0  0  # atno 17394 bound_to 11000
  141.0733  133.6787  156.2184 LP  0  0  0  0  0  0  0  0  0  0  0  0  # atno 17395 bound_to 11000

$$$$
