AV-unprocessed.smi:35|AV-procd|sdf|273|dock5
  -GOLD-   2262016 43D 1   1.00000     0.00000
 Structure written by MMmdl.
 28 29  0  0  0  0  0  0  0  0  2 V2000
  153.0168  140.4054  158.3759 O   0  0  0  0  0  0  0  0  0  0  0  0
  151.9578  140.5893  157.7784 C   0  0  0  0  0  0  0  0  0  0  0  0
  151.2869  139.5900  157.1352 N   0  5  0  0  0  0  0  0  0  0  0  0
  150.1129  139.7996  156.4695 C   0  0  0  0  0  0  0  0  0  0  0  0
  149.4844  138.8997  155.9123 O   0  0  0  0  0  0  0  0  0  0  0  0
  149.5751  141.1145  156.4250 N   0  0  0  0  0  0  0  0  0  0  0  0
  148.2756  141.3661  155.6916 C   0  0  2  0  0  0  0  0  0  0  0  0
  147.3504  140.3990  156.0756 O   0  0  0  0  0  0  0  0  0  0  0  0
  146.4403  140.2006  155.0060 C   0  0  2  0  0  0  0  0  0  0  0  0
  145.7193  138.8540  155.1728 C   0  0  0  0  0  0  0  0  0  0  0  0
  145.1156  138.4707  153.9555 O   0  0  0  0  0  0  0  0  0  0  0  0
  147.3523  140.2569  153.7753 C   0  0  1  0  0  0  0  0  0  0  0  0
  146.6171  140.6810  152.6441 O   0  0  0  0  0  0  0  0  0  0  0  0
  148.4093  141.2922  154.1536 C   0  0  2  0  0  0  0  0  0  0  0  0
  149.6868  140.8864  153.6956 O   0  0  0  0  0  0  0  0  0  0  0  0
  150.2215  142.1453  157.0854 C   0  0  0  0  0  0  0  0  0  0  0  0
  151.3754  141.9287  157.7485 C   0  0  0  0  0  0  0  0  0  0  0  0
  152.1901  143.4927  158.6523 Br  0  0  0  0  0  0  0  0  0  0  0  0
  147.9013  142.3313  156.0373 H   0  0  0  0  0  0  0  0  0  0  0  0
  145.7312  141.0314  154.9838 H   0  0  0  0  0  0  0  0  0  0  0  0
  146.4355  138.0764  155.4401 H   0  0  0  0  0  0  0  0  0  0  0  0
  144.9768  138.8980  155.9704 H   0  0  0  0  0  0  0  0  0  0  0  0
  144.7739  139.2439  153.5332 H   0  0  0  0  0  0  0  0  0  0  0  0
  147.8064  139.2803  153.5964 H   0  0  0  0  0  0  0  0  0  0  0  0
  145.7049  140.4806  152.7886 H   0  0  0  0  0  0  0  0  0  0  0  0
  148.1774  142.2805  153.7532 H   0  0  0  0  0  0  0  0  0  0  0  0
  149.6069  140.6202  152.7918 H   0  0  0  0  0  0  0  0  0  0  0  0
  149.7967  143.1381  157.0809 H   0  0  0  0  0  0  0  0  0  0  0  0
  1  2  2  0  0  0  0
  2 17  1  0  0  0  0
  2  3  1  0  0  0  0
  3  4  1  0  0  0  0
  4  5  2  0  0  0  0
  4  6  1  0  0  0  0
  6  7  1  0  0  0  0
  6 16  1  0  0  0  0
  7 14  1  0  0  0  0
  7  8  1  0  0  0  0
  7 19  1  0  0  0  0
  8  9  1  0  0  0  0
  9 10  1  0  0  0  0
  9 12  1  0  0  0  0
  9 20  1  0  0  0  0
 10 11  1  0  0  0  0
 10 21  1  0  0  0  0
 10 22  1  0  0  0  0
 11 23  1  0  0  0  0
 12 13  1  0  0  0  0
 12 14  1  0  0  0  0
 12 24  1  0  0  0  0
 13 25  1  0  0  0  0
 14 15  1  0  0  0  0
 14 26  1  0  0  0  0
 15 27  1  0  0  0  0
 16 17  2  0  0  0  0
 16 28  1  0  0  0  0
 17 18  1  0  0  0  0
M  CHG  1   3  -1
M  END
> <s_m_source_file>
AV-unprocessed.smi

> <i_m_source_file_index>
35

> <i_lp_mmshare_version>
43012

> <i_f3d_flags>
0

> <s_epik_input>
Tz1jMVtuSF1jKD1PKW4oW2NIXWMxQnIpW0NAQEhdMk9bQ0BASF0oW0NIMl1bT0hdKVtDQEBIXShbT0hdKVtDQEhdMltPSF0=

> <s_epik_cmdline>
J2VwaWtfcHl0aG9uJywgJy1waCcsICc3LjAnLCAnLXRuJywgJzgnLCAnLW1hJywgJzIwMCcsICctbWV0YWxfYmluZGluZycsICctaW1hZScsICc8aW5maWxlLm1hZT4nLCAnLW9tYWUnLCAnPG91dGZpbGUubWFlPic=

> <r_epik_Ionization_Penalty>
1.06112

> <r_epik_Ionization_Penalty_Charging>
2.1796e-09

> <r_epik_Ionization_Penalty_Neutral>
1.06112

> <r_epik_State_Penalty>
1.11484

> <r_epik_Charging_Adjusted_Penalty>
1.11484

> <i_epik_Tot_Q>
-1

> <i_epik_Tot_abs_Q>
1

> <r_epik_Metal_State_Penalty>
0.0032876

> <b_epik_Metal_Only>
0

> <s_epik_Chemistry_Notes>
This compound contains an acetal/aminal-like group ( X-CH(R)-Y where X, Y are N, S, or O) that may be acid/base labile, releasing an aldehyde.

> <s_lp_Force_Field>
OPLS_2005

> <r_lp_Energy>
42.5644

> <b_lp_Chiralities_Consistent>
1

> <s_lp_Variant>
AV-unprocessed.smi:35-27

> <Gold.Version>
5.8.1

> <Gold.Id.Protein>
6NUR|6NUR_protein|mol2

> <Gold.PLP.Fitness>
40.3493

> <Gold.PLP.PLP>
-25.1998

> <Gold.PLP.part.hbond>
-6.0000

> <Gold.PLP.part.metal>
0.0000

> <Gold.PLP.part.buried>
-3.0635

> <Gold.PLP.part.nonpolar>
-16.3764

> <Gold.PLP.part.repulsive>
0.0288

> <Gold.PLP.ligand.clash>
0.0000

> <Gold.PLP.ligand.torsion>
0.3365

> <Gold.PLP.Chemscore.Hbond>
4.2048

> <Gold.PLP.Chemscore.CHOScore>
1.0000

> <Gold.PLP.Chemscore.Metal>
0.0000

> <Gold.Chemscore.Hbonds>
donor molecule, donor type, donor heavy atom, donor atom, acceptor molecule, acceptor atom, score
      L1  H    11    23       P1 10175  1.00
      L1  H    13    25       P1 10175  0.98
      L1  H    15    27       P1  7957  1.00
      P1  H  7989  7998       L1    15  0.15
      P1  H  7997  8008       L1     1  0.72
      L1  C    16    28       P1  8028  1.00

> <Gold.PLP.Chemscore.Internal.Correction>
0.2081

> <Gold.Rescore>
     Score         DG    S(hbond)    S(metal)    S(lipo)     H(rot)  DE(clash)    DE(int)     intcor
     11.14     -13.52       3.71        0.00      42.13       3.63       0.01       2.37       ----

> <Gold.Chemscore.Fitness>
11.1445

> <Gold.Chemscore.DG>
-13.5214

> <Gold.Chemscore.ZeroCoef>
-5.4800

> <Gold.Chemscore.Hbond>
3.7112

> <Gold.Chemscore.Metal>
0.0000

> <Gold.Chemscore.Lipo>
42.1272

> <Gold.Chemscore.Internal_Hbond>
0.0000

> <Gold.Chemscore.DEClash>
0.0075

> <Gold.Chemscore.DEInternal>
2.3694

> <Gold.Chemscore.Rot>
3.6261

> <Gold.Chemscore.Internal.Correction>
   9.000000E+99

> <Gold.Chemscore.Hbonds>
donor molecule, donor type, donor heavy atom, donor atom, acceptor molecule, acceptor atom, score
      L1  H    11    23       P1 10175  0.99
      L1  H    13    25       P1 10175  0.68
      L1  H    15    27       P1  7957  1.00
      P1  H  7997  8008       L1     1  0.57

> <Gold.Chemscore.Hbond.Weighted>
-12.3952

> <Gold.Chemscore.Metal.Weighted>
-0.0000

> <Gold.Chemscore.Lipo.Weighted>
-4.9289

> <Gold.Chemscore.Internal_Hbond.Weighted>
0.0000

> <Gold.Chemscore.DEClash.Weighted>
0.0075

> <Gold.Chemscore.DEInternal.Weighted>
2.3694

> <Gold.Chemscore.Rot.Weighted>
9.2828

> <Gold.Chemscore.Internal.Correction.Weighted>
   9.000000E+99

> <Gold.Protein.RotatedTorsions>
[ 6907 6896 6895 6894 ] final  -27.68 input  -60.11 | X-H torsion
[ 7974 7965 7964 7962 ] final -126.40 input  175.53 | X-H torsion
[ 8008 7997 7996 7995 ] final  -86.78 input   59.86 | X-H torsion
[ 10167 10162 10161 10158 ] final   76.43 input  -65.29 | X-H torsion
[ 10718 10713 10712 10709 ] final  -31.46 input   66.30 | X-H torsion
[ 10763 10752 10751 10750 ] final   -4.60 input  -60.55 | X-H torsion
[ 11005 11000 10999 10996 ] final  -49.19 input  -57.11 | X-H torsion

> <Gold.Protein.ActiveResidues>
 VAL166  LYS551  ARG553  GLY616  TRP617  ASP618  TYR619  PRO620  LYS621  CYS622 
 ASP623  PHE694  ASN695  SER759  ASP760  ASP761  ALA762  ILE779  LEU786  VAL792 
 PHE793  MET794  SER795  GLU796  ALA797  LYS798  CYS799  TRP800  GLU811  SER814 

> <Gold.Protein.RotatedAtoms>
  151.1434  135.0191  159.8635 H   0  0  0  0  0  0  0  0  0  0  0  0  # atno 6907 bound_to 6896
  152.5452  134.1472  159.8513 H   0  0  0  0  0  0  0  0  0  0  0  0  # atno 6908 bound_to 6896
  151.1550  133.4837  159.2627 H   0  0  0  0  0  0  0  0  0  0  0  0  # atno 6909 bound_to 6896
  144.9877  140.7702  143.4573 H   0  0  0  0  0  0  0  0  0  0  0  0  # atno 7974 bound_to 7965
  154.6558  140.0574  157.0007 H   0  0  0  0  0  0  0  0  0  0  0  0  # atno 8008 bound_to 7997
  155.1303  140.3256  155.4457 H   0  0  0  0  0  0  0  0  0  0  0  0  # atno 8009 bound_to 7997
  156.2596  140.1982  156.6422 H   0  0  0  0  0  0  0  0  0  0  0  0  # atno 8010 bound_to 7997
  139.9924  144.5747  150.7807 H   0  0  0  0  0  0  0  0  0  0  0  0  # atno 10167 bound_to 10162
  156.3870  130.4366  149.7424 H   0  0  0  0  0  0  0  0  0  0  0  0  # atno 10718 bound_to 10713
  153.3871  135.7000  153.6522 H   0  0  0  0  0  0  0  0  0  0  0  0  # atno 10763 bound_to 10752
  153.5110  135.3632  155.2587 H   0  0  0  0  0  0  0  0  0  0  0  0  # atno 10764 bound_to 10752
  154.8698  135.4135  154.3180 H   0  0  0  0  0  0  0  0  0  0  0  0  # atno 10765 bound_to 10752
  141.0745  133.6669  156.3550 H   0  0  0  0  0  0  0  0  0  0  0  0  # atno 11005 bound_to 11000
  145.2330  139.2106  143.5032 LP  0  0  0  0  0  0  0  0  0  0  0  0  # atno 17320 bound_to 7965
  146.3424  140.2211  142.8591 LP  0  0  0  0  0  0  0  0  0  0  0  0  # atno 17321 bound_to 7965
  140.7450  143.2869  151.3440 LP  0  0  0  0  0  0  0  0  0  0  0  0  # atno 17342 bound_to 10162
  139.6330  144.0683  152.2493 LP  0  0  0  0  0  0  0  0  0  0  0  0  # atno 17343 bound_to 10162
  156.4493  130.7899  151.2920 LP  0  0  0  0  0  0  0  0  0  0  0  0  # atno 17370 bound_to 10713
  157.7496  131.0100  150.3291 LP  0  0  0  0  0  0  0  0  0  0  0  0  # atno 17371 bound_to 10713
  140.5603  134.5941  157.5432 LP  0  0  0  0  0  0  0  0  0  0  0  0  # atno 17394 bound_to 11000
  139.9557  134.7539  156.0347 LP  0  0  0  0  0  0  0  0  0  0  0  0  # atno 17395 bound_to 11000

$$$$
