#       Name:                AV-unprocessed.smi:3290
#       Creating user name   scv26
#       Creation time:       Fri Mar 27 18:54:31 2020


#       File generated by GOLD software.
#

@<TRIPOS>MOLECULE
AV-unprocessed.smi:3290
    46    47     1
SMALL
NO_CHARGES


@<TRIPOS>ATOM
      1 ****        -2.0418   3.3322   0.5435 C.3            1 S1                 0.0000
      2 ****        -2.4988   2.2548  -0.4611 C.3            1 S1                 0.0000
      3 ****        -4.0378   2.1790  -0.5510 C.3            1 S1                 0.0000
      4 ****        -4.6650   1.5305   0.6945 C.3            1 S1                 0.0000
      5 ****        -4.0646   0.1426   0.9605 C.3            1 S1                 0.0000
      6 ****        -2.5316   0.2007   1.0600 C.3            1 S1                 0.0000
      7 ****        -1.9045   0.8449  -0.1974 C.3            1 S1                 0.0000
      8 ****        -0.3632   0.8487  -0.1481 C.3            1 S1                 0.0000
      9 ****         0.1875  -0.5177  -0.2456 N.4            1 S1                 1.0000
     10 ****         1.6630  -0.5768  -0.2195 C.3            1 S1                 0.0000
     11 ****         2.1711  -2.0269  -0.3032 C.3            1 S1                 0.0000
     12 ****         1.7168  -2.7341   0.8343 O.3            1 S1                 0.0000
     13 ****         3.6860  -2.0750  -0.4241 C.ar           1 S1                 0.0000
     14 ****         4.2962  -2.4128  -1.6504 C.ar           1 S1                 0.0000
     15 ****         5.7037  -2.4427  -1.7171 C.ar           1 S1                 0.0000
     16 ****         6.5019  -2.1607  -0.6654 N.ar           1 S1                 0.0000
     17 ****         5.9134  -1.8361   0.5054 C.ar           1 S1                 0.0000
     18 ****         4.5161  -1.7782   0.6787 C.ar           1 S1                 0.0000
     19 ****        -2.2986   3.0750   1.5707 H              1 S1                 0.0000
     20 ****        -2.5099   4.2917   0.3214 H              1 S1                 0.0000
     21 ****        -0.9642   3.4890   0.5005 H              1 S1                 0.0000
     22 ****        -2.1430   2.5804  -1.4397 H              1 S1                 0.0000
     23 ****        -4.4579   3.1739  -0.7033 H              1 S1                 0.0000
     24 ****        -4.3177   1.5983  -1.4311 H              1 S1                 0.0000
     25 ****        -4.5137   2.1704   1.5644 H              1 S1                 0.0000
     26 ****        -5.7441   1.4470   0.5628 H              1 S1                 0.0000
     27 ****        -4.4817  -0.2725   1.8785 H              1 S1                 0.0000
     28 ****        -4.3514  -0.5370   0.1572 H              1 S1                 0.0000
     29 ****        -2.2420   0.7551   1.9531 H              1 S1                 0.0000
     30 ****        -2.1493  -0.8111   1.1967 H              1 S1                 0.0000
     31 ****        -2.1910   0.2283  -1.0513 H              1 S1                 0.0000
     32 ****         0.0320   1.4375  -0.9771 H              1 S1                 0.0000
     33 ****        -0.0099   1.3130   0.7735 H              1 S1                 0.0000
     34 ****        -0.1636  -1.0614   0.5303 H              1 S1                 0.0000
     35 ****         2.0469  -0.0037  -1.0646 H              1 S1                 0.0000
     36 ****         2.0319  -0.0950   0.6877 H              1 S1                 0.0000
     37 ****         1.7388  -2.5098  -1.1810 H              1 S1                 0.0000
     38 ****         1.9971  -3.6341   0.7592 H              1 S1                 0.0000
     39 ****         3.7048  -2.6463  -2.5236 H              1 S1                 0.0000
     40 ****         6.2011  -2.6996  -2.6406 H              1 S1                 0.0000
     41 ****         6.5759  -1.6152   1.3292 H              1 S1                 0.0000
     42 ****         4.0965  -1.5117   1.6378 H              1 S1                 0.0000
     43 ****        -0.1367  -0.9365  -1.1054 H              1 S1                 0.0000
     44 ****         0.7187  -2.6942   0.8800 LP             1 S1                 0.0000
     45 ****         2.1049  -2.3277   1.6615 LP             1 S1                 0.0000
     46 ****         7.4978  -2.1913  -0.7510 LP             1 S1                 0.0000
@<TRIPOS>BOND
    1    1    2 1     
    2    1   19 1     
    3    1   20 1     
    4    1   21 1     
    5    2    7 1     
    6    2    3 1     
    7    2   22 1     
    8    3    4 1     
    9    3   23 1     
   10    3   24 1     
   11    4    5 1     
   12    4   25 1     
   13    4   26 1     
   14    5    6 1     
   15    5   27 1     
   16    5   28 1     
   17    6    7 1     
   18    6   29 1     
   19    6   30 1     
   20    7    8 1     
   21    7   31 1     
   22    8    9 1     
   23    8   32 1     
   24    8   33 1     
   25    9   10 1     
   26    9   34 1     
   27    9   43 1     
   28   10   11 1     
   29   10   35 1     
   30   10   36 1     
   31   11   12 1     
   32   11   13 1     
   33   11   37 1     
   34   12   38 1     
   35   13   18 ar    
   36   13   14 ar    
   37   14   15 ar    
   38   14   39 1     
   39   15   16 ar    
   40   15   40 1     
   41   16   17 ar    
   42   17   18 ar    
   43   17   41 1     
   44   18   42 1     
   45   12   44 1     
   46   12   45 1     
   47   16   46 1     
@<TRIPOS>SUBSTRUCTURE
      1 S1             1
@<TRIPOS>SET
LONE_PAIRS      STATIC     ATOMS    <user>   **** ""
3 44 45 46
DONOR_HYDROGENS      STATIC     ATOMS    <user>   **** ""
3 34 43 38
ATOM$BLUE        STATIC     ATOMS    COLORGROUP SYSTEM
3 44 45 46
ATOM$RED        STATIC     ATOMS    COLORGROUP SYSTEM
3 34 43 38
