AV-unprocessed.smi:2220|AV-procd|sdf|8979|dock9
  -GOLD-   2272012193D 1   1.00000     0.00000
 Structure written by MMmdl.
 38 39  0  0  0  0  0  0  0  0  1 V2000
  146.7664  138.7898  153.3008 C   0  0  0  0  0  0  0  0  0  0  0  0
  147.2843  140.0261  153.8529 N   0  0  0  0  0  0  0  0  0  0  0  0
  146.6283  141.1889  153.9680 C   0  0  0  0  0  0  0  0  0  0  0  0
  147.3369  142.1699  154.5105 N   0  0  0  0  0  0  0  0  0  0  0  0
  148.5712  141.5813  154.7708 C   0  0  0  0  0  0  0  0  0  0  0  0
  148.5551  140.2627  154.3721 C   0  0  0  0  0  0  0  0  0  0  0  0
  149.6329  139.2292  154.4526 C   0  0  0  0  0  0  0  0  0  0  0  0
  149.9493  138.8009  155.8947 C   0  0  0  0  0  0  0  0  0  0  0  0
  150.1149  139.9538  156.7716 N   0  0  0  0  0  0  0  0  0  0  0  0
  151.2461  140.2750  157.4186 C   0  0  0  0  0  0  0  0  0  0  0  0
  152.2826  139.6157  157.3321 O   0  0  0  0  0  0  0  0  0  0  0  0
  151.1984  141.5305  158.2999 C   0  0  0  0  0  0  0  0  0  0  0  0
  150.7418  142.7593  157.4859 C   0  0  0  0  0  0  0  0  0  0  0  0
  150.6884  144.0189  158.3654 C   0  0  0  0  0  0  0  0  0  0  0  0
  152.0396  144.2827  159.0514 C   0  0  0  0  0  0  0  0  0  0  0  0
  152.9486  144.6033  158.1293 F   0  0  0  0  0  0  0  0  0  0  0  0
  151.9119  145.3149  159.8852 F   0  0  0  0  0  0  0  0  0  0  0  0
  152.5251  143.0549  159.8410 C   0  0  0  0  0  0  0  0  0  0  0  0
  152.5694  141.7993  158.9552 C   0  0  0  0  0  0  0  0  0  0  0  0
  145.7698  138.9491  152.8877 H   0  0  0  0  0  0  0  0  0  0  0  0
  146.7072  138.0329  154.0827 H   0  0  0  0  0  0  0  0  0  0  0  0
  147.4228  138.4352  152.5060 H   0  0  0  0  0  0  0  0  0  0  0  0
  145.6053  141.3209  153.6469 H   0  0  0  0  0  0  0  0  0  0  0  0
  149.3720  142.1469  155.2241 H   0  0  0  0  0  0  0  0  0  0  0  0
  149.3492  138.3567  153.8634 H   0  0  0  0  0  0  0  0  0  0  0  0
  150.5346  139.6233  153.9825 H   0  0  0  0  0  0  0  0  0  0  0  0
  149.1659  138.1451  156.2790 H   0  0  0  0  0  0  0  0  0  0  0  0
  150.8741  138.2250  155.9205 H   0  0  0  0  0  0  0  0  0  0  0  0
  149.3103  140.5507  156.8974 H   0  0  0  0  0  0  0  0  0  0  0  0
  150.4705  141.3616  159.0956 H   0  0  0  0  0  0  0  0  0  0  0  0
  151.4221  142.9329  156.6508 H   0  0  0  0  0  0  0  0  0  0  0  0
  149.7586  142.5782  157.0494 H   0  0  0  0  0  0  0  0  0  0  0  0
  150.3974  144.8812  157.7648 H   0  0  0  0  0  0  0  0  0  0  0  0
  149.9132  143.8951  159.1230 H   0  0  0  0  0  0  0  0  0  0  0  0
  153.5111  143.2472  160.2651 H   0  0  0  0  0  0  0  0  0  0  0  0
  151.8566  142.8761  160.6842 H   0  0  0  0  0  0  0  0  0  0  0  0
  152.8756  140.9412  159.5551 H   0  0  0  0  0  0  0  0  0  0  0  0
  153.3353  141.9282  158.1889 H   0  0  0  0  0  0  0  0  0  0  0  0
  1  2  1  0  0  0  0
  1 20  1  0  0  0  0
  1 21  1  0  0  0  0
  1 22  1  0  0  0  0
  2  6  1  0  0  0  0
  2  3  1  0  0  0  0
  3  4  2  0  0  0  0
  3 23  1  0  0  0  0
  4  5  1  0  0  0  0
  5  6  2  0  0  0  0
  5 24  1  0  0  0  0
  6  7  1  0  0  0  0
  7  8  1  0  0  0  0
  7 25  1  0  0  0  0
  7 26  1  0  0  0  0
  8  9  1  0  0  0  0
  8 27  1  0  0  0  0
  8 28  1  0  0  0  0
  9 10  1  0  0  0  0
  9 29  1  0  0  0  0
 10 11  2  0  0  0  0
 10 12  1  0  0  0  0
 12 19  1  0  0  0  0
 12 13  1  0  0  0  0
 12 30  1  0  0  0  0
 13 14  1  0  0  0  0
 13 31  1  0  0  0  0
 13 32  1  0  0  0  0
 14 15  1  0  0  0  0
 14 33  1  0  0  0  0
 14 34  1  0  0  0  0
 15 16  1  0  0  0  0
 15 17  1  0  0  0  0
 15 18  1  0  0  0  0
 18 19  1  0  0  0  0
 18 35  1  0  0  0  0
 18 36  1  0  0  0  0
 19 37  1  0  0  0  0
 19 38  1  0  0  0  0
M  END
> <s_m_source_file>
AV-unprocessed.smi

> <i_m_source_file_index>
2220

> <i_lp_mmshare_version>
43012

> <i_f3d_flags>
0

> <s_epik_input>
W0NIM11uMVtjSF1uW2NIXWMxW0NIMl1bQ0gyXVtOSF1DKD1PKVtDSF0oW0NIMl1bQ0gyXTIpW0NIMl1bQ0gyXUMyKEYpRg==

> <s_epik_cmdline>
J2VwaWtfcHl0aG9uJywgJy1waCcsICc3LjAnLCAnLXRuJywgJzgnLCAnLW1hJywgJzIwMCcsICctbWV0YWxfYmluZGluZycsICctaW1hZScsICc8aW5maWxlLm1hZT4nLCAnLW9tYWUnLCAnPG91dGZpbGUubWFlPic=

> <r_lp_tautomer_probability>
1

> <r_epik_Ionization_Penalty>
0.872556

> <r_epik_Ionization_Penalty_Charging>
0.872556

> <r_epik_Ionization_Penalty_Neutral>
1.72153e-08

> <r_epik_State_Penalty>
0.910028

> <r_epik_Charging_Adjusted_Penalty>
1.78258

> <i_epik_Tot_Q>
0

> <i_epik_Tot_abs_Q>
0

> <r_epik_Metal_State_Penalty>
0.360885

> <b_epik_Metal_Only>
0

> <s_lp_Force_Field>
OPLS_2005

> <r_lp_Energy>
9.62652

> <b_lp_Chiralities_Consistent>
1

> <s_lp_Variant>
AV-unprocessed.smi:2220-2

> <Gold.Version>
5.8.1

> <Gold.Id.Protein>
6NUR|6NUR_protein|mol2

> <Gold.PLP.Fitness>
51.7999

> <Gold.PLP.PLP>
-43.8502

> <Gold.PLP.part.hbond>
-1.0000

> <Gold.PLP.part.metal>
0.0000

> <Gold.PLP.part.buried>
-0.5762

> <Gold.PLP.part.nonpolar>
-42.0992

> <Gold.PLP.part.repulsive>
0.2971

> <Gold.PLP.ligand.clash>
0.0000

> <Gold.PLP.ligand.torsion>
0.1420

> <Gold.PLP.Chemscore.Hbond>
1.0000

> <Gold.PLP.Chemscore.CHOScore>
1.7367

> <Gold.PLP.Chemscore.Metal>
0.0000

> <Gold.Chemscore.Hbonds>
donor molecule, donor type, donor heavy atom, donor atom, acceptor molecule, acceptor atom, score
      P1  H  7997  8008       L1    11  0.44
      L1  C     3    23       P1 10175  1.00
      L1  C     5    24       P1  8028  0.50

> <Gold.PLP.Chemscore.Internal.Correction>
0.0238

> <Gold.Rescore>
     Score         DG    S(hbond)    S(metal)    S(lipo)     H(rot)  DE(clash)    DE(int)     intcor
     15.11     -15.58       0.99        0.00      97.44       1.80       0.26       0.21       ----

> <Gold.Chemscore.Fitness>
15.1088

> <Gold.Chemscore.DG>
-15.5762

> <Gold.Chemscore.ZeroCoef>
-5.4800

> <Gold.Chemscore.Hbond>
0.9915

> <Gold.Chemscore.Metal>
0.0000

> <Gold.Chemscore.Lipo>
97.4377

> <Gold.Chemscore.Internal_Hbond>
0.0000

> <Gold.Chemscore.DEClash>
0.2590

> <Gold.Chemscore.DEInternal>
0.2084

> <Gold.Chemscore.Rot>
1.8029

> <Gold.Chemscore.Internal.Correction>
   9.000000E+99

> <Gold.Chemscore.Hbonds>
donor molecule, donor type, donor heavy atom, donor atom, acceptor molecule, acceptor atom, score
      P1  H  7997  8008       L1    11  0.44

> <Gold.Chemscore.Hbond.Weighted>
-3.3115

> <Gold.Chemscore.Metal.Weighted>
-0.0000

> <Gold.Chemscore.Lipo.Weighted>
-11.4002

> <Gold.Chemscore.Internal_Hbond.Weighted>
0.0000

> <Gold.Chemscore.DEClash.Weighted>
0.2590

> <Gold.Chemscore.DEInternal.Weighted>
0.2084

> <Gold.Chemscore.Rot.Weighted>
4.6155

> <Gold.Chemscore.Internal.Correction.Weighted>
   9.000000E+99

> <Gold.Protein.RotatedTorsions>
[ 6907 6896 6895 6894 ] final  129.87 input  -60.11 | X-H torsion
[ 7974 7965 7964 7962 ] final   -5.20 input  175.53 | X-H torsion
[ 8008 7997 7996 7995 ] final  -58.60 input   59.86 | X-H torsion
[ 10167 10162 10161 10158 ] final -163.10 input  -65.29 | X-H torsion
[ 10718 10713 10712 10709 ] final   37.64 input   66.30 | X-H torsion
[ 10763 10752 10751 10750 ] final   39.94 input  -60.55 | X-H torsion
[ 11005 11000 10999 10996 ] final -122.10 input  -57.11 | X-H torsion

> <Gold.Protein.ActiveResidues>
 VAL166  LYS551  ARG553  GLY616  TRP617  ASP618  TYR619  PRO620  LYS621  CYS622 
 ASP623  PHE694  ASN695  SER759  ASP760  ASP761  ALA762  ILE779  LEU786  VAL792 
 PHE793  MET794  SER795  GLU796  ALA797  LYS798  CYS799  TRP800  GLU811  SER814 

> <Gold.Protein.RotatedAtoms>
  152.3582  133.6263  159.5994 H   0  0  0  0  0  0  0  0  0  0  0  0  # atno 6907 bound_to 6896
  150.7583  133.9466  159.3481 H   0  0  0  0  0  0  0  0  0  0  0  0  # atno 6908 bound_to 6896
  151.7308  135.0876  160.0351 H   0  0  0  0  0  0  0  0  0  0  0  0  # atno 6909 bound_to 6896
  146.2357  140.1985  142.8333 H   0  0  0  0  0  0  0  0  0  0  0  0  # atno 7974 bound_to 7965
  154.4316  140.1080  156.5983 H   0  0  0  0  0  0  0  0  0  0  0  0  # atno 8008 bound_to 7997
  155.5938  140.3492  155.4555 H   0  0  0  0  0  0  0  0  0  0  0  0  # atno 8009 bound_to 7997
  156.0226  140.1243  157.0331 H   0  0  0  0  0  0  0  0  0  0  0  0  # atno 8010 bound_to 7997
  139.6345  144.0377  152.2043 H   0  0  0  0  0  0  0  0  0  0  0  0  # atno 10167 bound_to 10162
  157.3493  130.7590  149.6967 H   0  0  0  0  0  0  0  0  0  0  0  0  # atno 10718 bound_to 10713
  152.9951  135.6206  154.2545 H   0  0  0  0  0  0  0  0  0  0  0  0  # atno 10763 bound_to 10752
  154.2283  135.2793  155.2901 H   0  0  0  0  0  0  0  0  0  0  0  0  # atno 10764 bound_to 10752
  154.5471  135.5744  153.6947 H   0  0  0  0  0  0  0  0  0  0  0  0  # atno 10765 bound_to 10752
  141.0021  134.0388  157.3524 H   0  0  0  0  0  0  0  0  0  0  0  0  # atno 11005 bound_to 11000
  144.9801  140.8451  143.5402 LP  0  0  0  0  0  0  0  0  0  0  0  0  # atno 17320 bound_to 7965
  145.1977  139.2268  143.5209 LP  0  0  0  0  0  0  0  0  0  0  0  0  # atno 17321 bound_to 7965
  140.0050  144.6265  150.7696 LP  0  0  0  0  0  0  0  0  0  0  0  0  # atno 17342 bound_to 10162
  140.7457  143.2880  151.3409 LP  0  0  0  0  0  0  0  0  0  0  0  0  # atno 17343 bound_to 10162
  155.9719  130.4145  150.4135 LP  0  0  0  0  0  0  0  0  0  0  0  0  # atno 17370 bound_to 10713
  157.2196  131.0479  151.2554 LP  0  0  0  0  0  0  0  0  0  0  0  0  # atno 17371 bound_to 10713
  139.9044  135.0175  156.7418 LP  0  0  0  0  0  0  0  0  0  0  0  0  # atno 17394 bound_to 11000
  140.6873  133.9421  155.7945 LP  0  0  0  0  0  0  0  0  0  0  0  0  # atno 17395 bound_to 11000

$$$$
