AV-unprocessed.smi:937|AV-procd|sdf|4210|dock5
  -GOLD-   22720 2113D 1   1.00000     0.00000
 Structure written by MMmdl.
 45 46  0  0  0  0  0  0  0  0  1 V2000
  143.1751  144.4819  155.9898 C   0  0  0  0  0  0  0  0  0  0  0  0
  144.4337  143.7761  155.5302 C   0  0  0  0  0  0  0  0  0  0  0  0
  144.8456  143.8429  154.1825 C   0  0  0  0  0  0  0  0  0  0  0  0
  146.0271  143.1741  153.8083 C   0  0  0  0  0  0  0  0  0  0  0  0
  146.7488  142.4680  154.7924 C   0  0  0  0  0  0  0  0  0  0  0  0
  148.0256  141.7295  154.4435 C   0  0  0  0  0  0  0  0  0  0  0  0
  148.7507  141.2053  155.6931 C   0  0  0  0  0  0  0  0  0  0  0  0
  149.7448  142.1594  156.1690 N   0  0  0  0  0  0  0  0  0  0  0  0
  150.4086  142.0635  157.3335 C   0  0  0  0  0  0  0  0  0  0  0  0
  150.2582  141.1330  158.1232 O   0  0  0  0  0  0  0  0  0  0  0  0
  151.2625  143.0726  157.5829 N   0  0  0  0  0  0  0  0  0  0  0  0
  152.1278  143.2676  158.7480 C   0  0  1  0  0  0  0  0  0  0  0  0
  151.3011  143.7056  159.9742 C   0  0  0  0  0  0  0  0  0  0  0  0
  152.1842  143.8350  161.2236 C   0  0  0  0  0  0  0  0  0  0  0  0
  152.9381  142.5275  161.5112 C   0  0  0  0  0  0  0  0  0  0  0  0
  153.7785  142.0754  160.2983 C   0  0  1  0  0  0  0  0  0  0  0  0
  154.5466  140.7683  160.5841 C   0  0  0  0  0  0  0  0  0  0  0  0
  155.5439  140.6039  159.7145 F   0  0  0  0  0  0  0  0  0  0  0  0
  155.0506  140.7949  161.8178 F   0  0  0  0  0  0  0  0  0  0  0  0
  153.7215  139.7251  160.4952 F   0  0  0  0  0  0  0  0  0  0  0  0
  152.8831  141.9582  159.0456 C   0  0  0  0  0  0  0  0  0  0  0  0
  146.2503  142.4629  156.1124 C   0  0  0  0  0  0  0  0  0  0  0  0
  145.1189  143.1018  156.4804 N   0  0  0  0  0  0  0  0  0  0  0  0
  142.4750  144.6069  155.1633 H   0  0  0  0  0  0  0  0  0  0  0  0
  143.4205  145.4683  156.3840 H   0  0  0  0  0  0  0  0  0  0  0  0
  142.6731  143.9135  156.7737 H   0  0  0  0  0  0  0  0  0  0  0  0
  144.2717  144.3937  153.4517 H   0  0  0  0  0  0  0  0  0  0  0  0
  146.3705  143.2033  152.7846 H   0  0  0  0  0  0  0  0  0  0  0  0
  147.7869  140.9021  153.7736 H   0  0  0  0  0  0  0  0  0  0  0  0
  148.6757  142.4019  153.8818 H   0  0  0  0  0  0  0  0  0  0  0  0
  148.0351  140.9827  156.4867 H   0  0  0  0  0  0  0  0  0  0  0  0
  149.2607  140.2694  155.4631 H   0  0  0  0  0  0  0  0  0  0  0  0
  149.9338  142.9556  155.5780 H   0  0  0  0  0  0  0  0  0  0  0  0
  151.3303  143.7826  156.8681 H   0  0  0  0  0  0  0  0  0  0  0  0
  152.8711  144.0349  158.5240 H   0  0  0  0  0  0  0  0  0  0  0  0
  150.8047  144.6572  159.7811 H   0  0  0  0  0  0  0  0  0  0  0  0
  150.5097  142.9790  160.1646 H   0  0  0  0  0  0  0  0  0  0  0  0
  152.8988  144.6471  161.0837 H   0  0  0  0  0  0  0  0  0  0  0  0
  151.5722  144.1070  162.0842 H   0  0  0  0  0  0  0  0  0  0  0  0
  153.5795  142.6650  162.3819 H   0  0  0  0  0  0  0  0  0  0  0  0
  152.2227  141.7482  161.7764 H   0  0  0  0  0  0  0  0  0  0  0  0
  154.5202  142.8517  160.1026 H   0  0  0  0  0  0  0  0  0  0  0  0
  152.1676  141.1461  159.1845 H   0  0  0  0  0  0  0  0  0  0  0  0
  153.4909  141.6863  158.1818 H   0  0  0  0  0  0  0  0  0  0  0  0
  146.7718  141.9312  156.8948 H   0  0  0  0  0  0  0  0  0  0  0  0
  1  2  1  0  0  0  0
  1 24  1  0  0  0  0
  1 25  1  0  0  0  0
  1 26  1  0  0  0  0
  2 23  1  0  0  0  0
  2  3  2  0  0  0  0
  3  4  1  0  0  0  0
  3 27  1  0  0  0  0
  4  5  2  0  0  0  0
  4 28  1  0  0  0  0
  5  6  1  0  0  0  0
  5 22  1  0  0  0  0
  6  7  1  0  0  0  0
  6 29  1  0  0  0  0
  6 30  1  0  0  0  0
  7  8  1  0  0  0  0
  7 31  1  0  0  0  0
  7 32  1  0  0  0  0
  8  9  1  0  0  0  0
  8 33  1  0  0  0  0
  9 10  2  0  0  0  0
  9 11  1  0  0  0  0
 11 12  1  0  0  0  0
 11 34  1  0  0  0  0
 12 21  1  0  0  0  0
 12 13  1  0  0  0  0
 12 35  1  0  0  0  0
 13 14  1  0  0  0  0
 13 36  1  0  0  0  0
 13 37  1  0  0  0  0
 14 15  1  0  0  0  0
 14 38  1  0  0  0  0
 14 39  1  0  0  0  0
 15 16  1  0  0  0  0
 15 40  1  0  0  0  0
 15 41  1  0  0  0  0
 16 17  1  0  0  0  0
 16 21  1  0  0  0  0
 16 42  1  0  0  0  0
 17 18  1  0  0  0  0
 17 19  1  0  0  0  0
 17 20  1  0  0  0  0
 21 43  1  0  0  0  0
 21 44  1  0  0  0  0
 22 23  2  0  0  0  0
 22 45  1  0  0  0  0
M  END
> <s_m_source_file>
AV-unprocessed.smi

> <i_m_source_file_index>
937

> <i_lp_mmshare_version>
43012

> <i_f3d_flags>
0

> <s_epik_input>
W0NIM11jMVtjSF1bY0hdYyhbY0hdbjEpW0NIMl1bQ0gyXVtOSF1DKD1PKVtOSF1bQ0BASF0yW0NIMl1bQ0gyXVtDSDJdW0NAQEhdKEMoRikoRilGKVtDSDJdMg==

> <s_epik_cmdline>
J2VwaWtfcHl0aG9uJywgJy1waCcsICc3LjAnLCAnLXRuJywgJzgnLCAnLW1hJywgJzIwMCcsICctbWV0YWxfYmluZGluZycsICctaW1hZScsICc8aW5maWxlLm1hZT4nLCAnLW9tYWUnLCAnPG91dGZpbGUubWFlPic=

> <r_epik_Ionization_Penalty>
0.0563445

> <r_epik_Ionization_Penalty_Charging>
0

> <r_epik_Ionization_Penalty_Neutral>
0.0563445

> <r_epik_State_Penalty>
0.0485409

> <r_epik_Charging_Adjusted_Penalty>
0.0485409

> <i_epik_Tot_Q>
0

> <i_epik_Tot_abs_Q>
0

> <r_epik_Metal_State_Penalty>
0.0443056

> <b_epik_Metal_Only>
0

> <s_lp_Force_Field>
OPLS_2005

> <r_lp_Energy>
17.7613

> <b_lp_Chiralities_Consistent>
1

> <s_lp_Variant>
AV-unprocessed.smi:937-2

> <Gold.Version>
5.8.1

> <Gold.Id.Protein>
6NUR|6NUR_protein|mol2

> <Gold.PLP.Fitness>
47.9933

> <Gold.PLP.PLP>
-48.6800

> <Gold.PLP.part.hbond>
-1.0000

> <Gold.PLP.part.metal>
0.0000

> <Gold.PLP.part.buried>
-4.5711

> <Gold.PLP.part.nonpolar>
-44.6689

> <Gold.PLP.part.repulsive>
0.2327

> <Gold.PLP.ligand.clash>
0.0246

> <Gold.PLP.ligand.torsion>
0.8583

> <Gold.PLP.Chemscore.Hbond>
0.3380

> <Gold.PLP.Chemscore.CHOScore>
0.0000

> <Gold.PLP.Chemscore.Metal>
0.0000

> <Gold.Chemscore.Hbonds>
donor molecule, donor type, donor heavy atom, donor atom, acceptor molecule, acceptor atom, score
      L1  H     8    33       P1  8028  0.47

> <Gold.PLP.Chemscore.Internal.Correction>
0.0406

> <Gold.Rescore>
     Score         DG    S(hbond)    S(metal)    S(lipo)     H(rot)  DE(clash)    DE(int)     intcor
     14.70     -16.75       0.43        0.00     118.56       1.58       0.28       1.76       ----

> <Gold.Chemscore.Fitness>
14.7008

> <Gold.Chemscore.DG>
-16.7452

> <Gold.Chemscore.ZeroCoef>
-5.4800

> <Gold.Chemscore.Hbond>
0.4344

> <Gold.Chemscore.Metal>
0.0000

> <Gold.Chemscore.Lipo>
118.5612

> <Gold.Chemscore.Internal_Hbond>
0.0000

> <Gold.Chemscore.DEClash>
0.2801

> <Gold.Chemscore.DEInternal>
1.7643

> <Gold.Chemscore.Rot>
1.5849

> <Gold.Chemscore.Internal.Correction>
   9.000000E+99

> <Gold.Chemscore.Hbonds>
donor molecule, donor type, donor heavy atom, donor atom, acceptor molecule, acceptor atom, score
      L1  H     8    33       P1  8028  0.45

> <Gold.Chemscore.Hbond.Weighted>
-1.4509

> <Gold.Chemscore.Metal.Weighted>
-0.0000

> <Gold.Chemscore.Lipo.Weighted>
-13.8717

> <Gold.Chemscore.Internal_Hbond.Weighted>
0.0000

> <Gold.Chemscore.DEClash.Weighted>
0.2801

> <Gold.Chemscore.DEInternal.Weighted>
1.7643

> <Gold.Chemscore.Rot.Weighted>
4.0574

> <Gold.Chemscore.Internal.Correction.Weighted>
   9.000000E+99

> <Gold.Protein.RotatedTorsions>
[ 6907 6896 6895 6894 ] final  149.38 input  -60.11 | X-H torsion
[ 7974 7965 7964 7962 ] final  123.20 input  175.53 | X-H torsion
[ 8008 7997 7996 7995 ] final  -65.25 input   59.86 | X-H torsion
[ 10167 10162 10161 10158 ] final  134.39 input  -65.29 | X-H torsion
[ 10718 10713 10712 10709 ] final  122.98 input   66.30 | X-H torsion
[ 10763 10752 10751 10750 ] final   57.03 input  -60.55 | X-H torsion
[ 11005 11000 10999 10996 ] final  -83.69 input  -57.11 | X-H torsion

> <Gold.Protein.ActiveResidues>
 VAL166  LYS551  ARG553  GLY616  TRP617  ASP618  TYR619  PRO620  LYS621  CYS622 
 ASP623  PHE694  ASN695  SER759  ASP760  ASP761  ALA762  ILE779  LEU786  VAL792 
 PHE793  MET794  SER795  GLU796  ALA797  LYS798  CYS799  TRP800  GLU811  SER814 

> <Gold.Protein.RotatedAtoms>
  152.1287  133.4395  159.4710 H   0  0  0  0  0  0  0  0  0  0  0  0  # atno 6907 bound_to 6896
  150.6876  134.2447  159.4495 H   0  0  0  0  0  0  0  0  0  0  0  0  # atno 6908 bound_to 6896
  152.0329  134.9757  160.0623 H   0  0  0  0  0  0  0  0  0  0  0  0  # atno 6909 bound_to 6896
  145.0987  139.3534  143.4823 H   0  0  0  0  0  0  0  0  0  0  0  0  # atno 7974 bound_to 7965
  154.4660  140.0937  156.7022 H   0  0  0  0  0  0  0  0  0  0  0  0  # atno 8008 bound_to 7997
  155.4856  140.3469  155.4328 H   0  0  0  0  0  0  0  0  0  0  0  0  # atno 8009 bound_to 7997
  156.0957  140.1409  156.9522 H   0  0  0  0  0  0  0  0  0  0  0  0  # atno 8010 bound_to 7997
  139.5258  144.6570  151.5132 H   0  0  0  0  0  0  0  0  0  0  0  0  # atno 10167 bound_to 10162
  157.5700  131.1084  150.8384 H   0  0  0  0  0  0  0  0  0  0  0  0  # atno 10718 bound_to 10713
  152.9842  135.5656  154.5324 H   0  0  0  0  0  0  0  0  0  0  0  0  # atno 10763 bound_to 10752
  154.4793  135.2788  155.1585 H   0  0  0  0  0  0  0  0  0  0  0  0  # atno 10764 bound_to 10752
  154.3100  135.6290  153.5514 H   0  0  0  0  0  0  0  0  0  0  0  0  # atno 10765 bound_to 10752
  141.1656  133.7307  156.8757 H   0  0  0  0  0  0  0  0  0  0  0  0  # atno 11005 bound_to 11000
  146.3530  140.0854  142.8615 LP  0  0  0  0  0  0  0  0  0  0  0  0  # atno 17320 bound_to 7965
  145.0981  140.9328  143.4729 LP  0  0  0  0  0  0  0  0  0  0  0  0  # atno 17321 bound_to 7965
  140.6400  143.8908  150.6683 LP  0  0  0  0  0  0  0  0  0  0  0  0  # atno 17342 bound_to 10162
  140.2240  143.3787  152.1620 LP  0  0  0  0  0  0  0  0  0  0  0  0  # atno 17343 bound_to 10162
  156.8858  130.5195  149.5288 LP  0  0  0  0  0  0  0  0  0  0  0  0  # atno 17370 bound_to 10713
  156.0746  130.5771  150.9449 LP  0  0  0  0  0  0  0  0  0  0  0  0  # atno 17371 bound_to 10713
  140.1750  134.9073  157.2880 LP  0  0  0  0  0  0  0  0  0  0  0  0  # atno 17394 bound_to 11000
  140.2459  134.3741  155.7462 LP  0  0  0  0  0  0  0  0  0  0  0  0  # atno 17395 bound_to 11000

$$$$
