AV-unprocessed.smi:1032|AV-procd|sdf|4483|dock10
  -GOLD-   22720 2463D 1   1.00000     0.00000
 Structure written by MMmdl.
 46 47  0  0  0  0  0  0  0  0  2 V2000
  142.6875  146.5057  155.1199 C   0  0  0  0  0  0  0  0  0  0  0  0
  144.0196  145.8089  154.8103 C   0  0  2  0  0  0  0  0  0  0  0  0
  144.2585  145.6795  153.2964 C   0  0  0  0  0  0  0  0  0  0  0  0
  145.5812  144.9527  152.9982 C   0  0  0  0  0  0  0  0  0  0  0  0
  145.6178  143.6161  153.6451 N   0  3  1  0  0  0  0  0  0  0  0  0
  146.8228  142.8347  153.2636 C   0  0  0  0  0  0  0  0  0  0  0  0
  146.8601  141.4469  153.9354 C   0  0  1  0  0  0  0  0  0  0  0  0
  146.2866  140.5254  153.0282 O   0  0  0  0  0  0  0  0  0  0  0  0
  148.3040  141.0038  154.2441 C   0  0  0  0  0  0  0  0  0  0  0  0
  148.9733  141.9359  155.1459 N   0  0  0  0  0  0  0  0  0  0  0  0
  149.8752  141.5913  156.0763 C   0  0  0  0  0  0  0  0  0  0  0  0
  150.2577  140.4344  156.2480 O   0  0  0  0  0  0  0  0  0  0  0  0
  150.2947  142.6668  156.7659 N   0  0  0  0  0  0  0  0  0  0  0  0
  151.2115  142.7416  157.8513 C   0  0  0  0  0  0  0  0  0  0  0  0
  151.7478  144.0089  158.1612 C   0  0  0  0  0  0  0  0  0  0  0  0
  152.6483  144.1225  159.2389 C   0  0  0  0  0  0  0  0  0  0  0  0
  153.0264  143.0765  160.0028 N   0  0  0  0  0  0  0  0  0  0  0  0
  152.5058  141.8658  159.7119 C   0  0  0  0  0  0  0  0  0  0  0  0
  151.5978  141.6427  158.6574 C   0  0  0  0  0  0  0  0  0  0  0  0
  145.4246  143.7169  155.1161 C   0  0  0  0  0  0  0  0  0  0  0  0
  144.0967  144.4146  155.4546 C   0  0  0  0  0  0  0  0  0  0  0  0
  141.8420  145.9432  154.7223 H   0  0  0  0  0  0  0  0  0  0  0  0
  142.6566  147.5050  154.6844 H   0  0  0  0  0  0  0  0  0  0  0  0
  142.5406  146.6114  156.1952 H   0  0  0  0  0  0  0  0  0  0  0  0
  144.8188  146.4218  155.2299 H   0  0  0  0  0  0  0  0  0  0  0  0
  143.4329  145.1345  152.8362 H   0  0  0  0  0  0  0  0  0  0  0  0
  144.2713  146.6670  152.8339 H   0  0  0  0  0  0  0  0  0  0  0  0
  145.6896  144.8425  151.9185 H   0  0  0  0  0  0  0  0  0  0  0  0
  146.4271  145.5495  153.3434 H   0  0  0  0  0  0  0  0  0  0  0  0
  146.8516  142.6963  152.1814 H   0  0  0  0  0  0  0  0  0  0  0  0
  147.7148  143.4103  153.5156 H   0  0  0  0  0  0  0  0  0  0  0  0
  146.2770  141.4540  154.8561 H   0  0  0  0  0  0  0  0  0  0  0  0
  145.3681  140.7271  152.9290 H   0  0  0  0  0  0  0  0  0  0  0  0
  148.3380  139.9795  154.6204 H   0  0  0  0  0  0  0  0  0  0  0  0
  148.8872  141.0040  153.3229 H   0  0  0  0  0  0  0  0  0  0  0  0
  148.7214  142.9101  155.0648 H   0  0  0  0  0  0  0  0  0  0  0  0
  149.9256  143.5549  156.4598 H   0  0  0  0  0  0  0  0  0  0  0  0
  151.4786  144.8821  157.5851 H   0  0  0  0  0  0  0  0  0  0  0  0
  153.0746  145.0811  159.4955 H   0  0  0  0  0  0  0  0  0  0  0  0
  152.8183  141.0474  160.3435 H   0  0  0  0  0  0  0  0  0  0  0  0
  151.2180  140.6455  158.5033 H   0  0  0  0  0  0  0  0  0  0  0  0
  145.4282  142.7263  155.5693 H   0  0  0  0  0  0  0  0  0  0  0  0
  146.2573  144.2671  155.5571 H   0  0  0  0  0  0  0  0  0  0  0  0
  143.9924  144.4971  156.5370 H   0  0  0  0  0  0  0  0  0  0  0  0
  143.2639  143.7996  155.1101 H   0  0  0  0  0  0  0  0  0  0  0  0
  144.8268  143.1058  153.2775 H   0  0  0  0  0  0  0  0  0  0  0  0
  1  2  1  0  0  0  0
  1 22  1  0  0  0  0
  1 23  1  0  0  0  0
  1 24  1  0  0  0  0
  2 21  1  0  0  0  0
  2  3  1  0  0  0  0
  2 25  1  0  0  0  0
  3  4  1  0  0  0  0
  3 26  1  0  0  0  0
  3 27  1  0  0  0  0
  4  5  1  0  0  0  0
  4 28  1  0  0  0  0
  4 29  1  0  0  0  0
  5  6  1  0  0  0  0
  5 20  1  0  0  0  0
  5 46  1  0  0  0  0
  6  7  1  0  0  0  0
  6 30  1  0  0  0  0
  6 31  1  0  0  0  0
  7  8  1  0  0  0  0
  7  9  1  0  0  0  0
  7 32  1  0  0  0  0
  8 33  1  0  0  0  0
  9 10  1  0  0  0  0
  9 34  1  0  0  0  0
  9 35  1  0  0  0  0
 10 11  1  0  0  0  0
 10 36  1  0  0  0  0
 11 12  2  0  0  0  0
 11 13  1  0  0  0  0
 13 14  1  0  0  0  0
 13 37  1  0  0  0  0
 14 19  1  0  0  0  0
 14 15  2  0  0  0  0
 15 16  1  0  0  0  0
 15 38  1  0  0  0  0
 16 17  2  0  0  0  0
 16 39  1  0  0  0  0
 17 18  1  0  0  0  0
 18 19  2  0  0  0  0
 18 40  1  0  0  0  0
 19 41  1  0  0  0  0
 20 21  1  0  0  0  0
 20 42  1  0  0  0  0
 20 43  1  0  0  0  0
 21 44  1  0  0  0  0
 21 45  1  0  0  0  0
M  CHG  1   5   1
M  END
> <s_m_source_file>
AV-unprocessed.smi

> <i_m_source_file_index>
1032

> <i_lp_mmshare_version>
43012

> <i_f3d_flags>
0

> <s_epik_input>
W0NIM11bQ0hdMVtDSDJdW0NIMl1OKFtDSDJdW0NIMl0xKVtDSDJdW0NASF0oW09IXSlbQ0gyXVtOSF1DKD1PKVtOSF1jMltjSF1bY0hdbltjSF1bY0hdMg==

> <s_epik_cmdline>
J2VwaWtfcHl0aG9uJywgJy1waCcsICc3LjAnLCAnLXRuJywgJzgnLCAnLW1hJywgJzIwMCcsICctbWV0YWxfYmluZGluZycsICctaW1hZScsICc8aW5maWxlLm1hZT4nLCAnLW9tYWUnLCAnPG91dGZpbGUubWFlPic=

> <r_epik_Ionization_Penalty>
0.11743

> <r_epik_Ionization_Penalty_Charging>
0.00147689

> <r_epik_Ionization_Penalty_Neutral>
0.115954

> <r_epik_State_Penalty>
0.105552

> <r_epik_Charging_Adjusted_Penalty>
0.107029

> <i_epik_Tot_Q>
1

> <i_epik_Tot_abs_Q>
1

> <r_epik_Metal_State_Penalty>
0.0881315

> <b_epik_Metal_Only>
0

> <s_lp_Force_Field>
OPLS_2005

> <r_lp_Energy>
24.2585

> <b_lp_Chiralities_Consistent>
1

> <s_lp_Variant>
AV-unprocessed.smi:1032-2

> <Gold.Version>
5.8.1

> <Gold.Id.Protein>
6NUR|6NUR_protein|mol2

> <Gold.PLP.Fitness>
51.9702

> <Gold.PLP.PLP>
-44.4324

> <Gold.PLP.part.hbond>
-3.0000

> <Gold.PLP.part.metal>
0.0000

> <Gold.PLP.part.buried>
-8.9970

> <Gold.PLP.part.nonpolar>
-33.0302

> <Gold.PLP.part.repulsive>
0.3263

> <Gold.PLP.ligand.clash>
0.0000

> <Gold.PLP.ligand.torsion>
0.7092

> <Gold.PLP.Chemscore.Hbond>
2.9600

> <Gold.PLP.Chemscore.CHOScore>
0.0000

> <Gold.PLP.Chemscore.Metal>
0.0000

> <Gold.Chemscore.Hbonds>
donor molecule, donor type, donor heavy atom, donor atom, acceptor molecule, acceptor atom, score
      L1  H     8    33       P1 10175  1.00
      L1  H    10    36       P1  8028  1.00
      L1  H    13    37       P1  8028  1.00

> <Gold.PLP.Chemscore.Internal.Correction>
0.0762

> <Gold.Rescore>
     Score         DG    S(hbond)    S(metal)    S(lipo)     H(rot)  DE(clash)    DE(int)     intcor
     19.73     -21.68       2.91        0.00     105.52       2.29       0.20       1.74       ----

> <Gold.Chemscore.Fitness>
19.7340

> <Gold.Chemscore.DG>
-21.6826

> <Gold.Chemscore.ZeroCoef>
-5.4800

> <Gold.Chemscore.Hbond>
2.9071

> <Gold.Chemscore.Metal>
0.0000

> <Gold.Chemscore.Lipo>
105.5242

> <Gold.Chemscore.Internal_Hbond>
0.0000

> <Gold.Chemscore.DEClash>
0.2047

> <Gold.Chemscore.DEInternal>
1.7438

> <Gold.Chemscore.Rot>
2.2865

> <Gold.Chemscore.Internal.Correction>
   9.000000E+99

> <Gold.Chemscore.Hbonds>
donor molecule, donor type, donor heavy atom, donor atom, acceptor molecule, acceptor atom, score
      L1  H     8    33       P1 10175  0.60
      L1  H    10    36       P1  8028  0.95
      L1  H    13    37       P1  8028  1.00

> <Gold.Chemscore.Hbond.Weighted>
-9.7098

> <Gold.Chemscore.Metal.Weighted>
-0.0000

> <Gold.Chemscore.Lipo.Weighted>
-12.3463

> <Gold.Chemscore.Internal_Hbond.Weighted>
0.0000

> <Gold.Chemscore.DEClash.Weighted>
0.2047

> <Gold.Chemscore.DEInternal.Weighted>
1.7438

> <Gold.Chemscore.Rot.Weighted>
5.8536

> <Gold.Chemscore.Internal.Correction.Weighted>
   9.000000E+99

> <Gold.Protein.RotatedTorsions>
[ 6907 6896 6895 6894 ] final   37.03 input  -60.11 | X-H torsion
[ 7974 7965 7964 7962 ] final -164.68 input  175.53 | X-H torsion
[ 8008 7997 7996 7995 ] final  -64.72 input   59.86 | X-H torsion
[ 10167 10162 10161 10158 ] final  165.98 input  -65.29 | X-H torsion
[ 10718 10713 10712 10709 ] final -142.75 input   66.30 | X-H torsion
[ 10763 10752 10751 10750 ] final   74.68 input  -60.55 | X-H torsion
[ 11005 11000 10999 10996 ] final   98.94 input  -57.11 | X-H torsion

> <Gold.Protein.ActiveResidues>
 VAL166  LYS551  ARG553  GLY616  TRP617  ASP618  TYR619  PRO620  LYS621  CYS622 
 ASP623  PHE694  ASN695  SER759  ASP760  ASP761  ALA762  ILE779  LEU786  VAL792 
 PHE793  MET794  SER795  GLU796  ALA797  LYS798  CYS799  TRP800  GLU811  SER814 

> <Gold.Protein.RotatedAtoms>
  152.1377  134.9086  160.0555 H   0  0  0  0  0  0  0  0  0  0  0  0  # atno 6907 bound_to 6896
  152.0166  133.3877  159.4249 H   0  0  0  0  0  0  0  0  0  0  0  0  # atno 6908 bound_to 6896
  150.6862  134.3593  159.4987 H   0  0  0  0  0  0  0  0  0  0  0  0  # atno 6909 bound_to 6896
  144.7290  140.2925  143.6218 H   0  0  0  0  0  0  0  0  0  0  0  0  # atno 7974 bound_to 7965
  154.4628  140.0948  156.6940 H   0  0  0  0  0  0  0  0  0  0  0  0  # atno 8008 bound_to 7997
  155.4943  140.3471  155.4342 H   0  0  0  0  0  0  0  0  0  0  0  0  # atno 8009 bound_to 7997
  156.0902  140.1395  156.9590 H   0  0  0  0  0  0  0  0  0  0  0  0  # atno 8010 bound_to 7997
  139.4916  144.4076  151.9337 H   0  0  0  0  0  0  0  0  0  0  0  0  # atno 10167 bound_to 10162
  156.3496  130.7681  151.1832 H   0  0  0  0  0  0  0  0  0  0  0  0  # atno 10718 bound_to 10713
  153.0603  135.5016  154.8079 H   0  0  0  0  0  0  0  0  0  0  0  0  # atno 10763 bound_to 10752
  154.6873  135.2978  154.9532 H   0  0  0  0  0  0  0  0  0  0  0  0  # atno 10764 bound_to 10752
  154.0299  135.6731  153.4832 H   0  0  0  0  0  0  0  0  0  0  0  0  # atno 10765 bound_to 10752
  139.8771  134.9072  156.4531 H   0  0  0  0  0  0  0  0  0  0  0  0  # atno 11005 bound_to 11000
  145.7841  139.1902  143.2140 LP  0  0  0  0  0  0  0  0  0  0  0  0  # atno 17320 bound_to 7965
  146.0809  140.7764  142.9642 LP  0  0  0  0  0  0  0  0  0  0  0  0  # atno 17321 bound_to 7965
  140.3516  144.3082  150.5948 LP  0  0  0  0  0  0  0  0  0  0  0  0  # atno 17342 bound_to 10162
  140.5480  143.2211  151.7975 LP  0  0  0  0  0  0  0  0  0  0  0  0  # atno 17343 bound_to 10162
  157.7459  131.0431  150.4728 LP  0  0  0  0  0  0  0  0  0  0  0  0  # atno 17370 bound_to 10713
  156.4921  130.4097  149.6401 LP  0  0  0  0  0  0  0  0  0  0  0  0  # atno 17371 bound_to 10713
  140.8917  133.7843  155.9579 LP  0  0  0  0  0  0  0  0  0  0  0  0  # atno 17394 bound_to 11000
  140.8746  134.2685  157.5174 LP  0  0  0  0  0  0  0  0  0  0  0  0  # atno 17395 bound_to 11000

$$$$
