#       Name:                AV-unprocessed.smi:3335
#       Creating user name   scv26
#       Creation time:       Fri Mar 27 19:24:29 2020


#       File generated by GOLD software.
#

@<TRIPOS>MOLECULE
AV-unprocessed.smi:3335
    50    51     1
SMALL
NO_CHARGES


@<TRIPOS>ATOM
      1 ****        -4.8968  -3.0426   3.0997 C.3            1 S1                 0.0000
      2 ****        -3.9810  -2.0849   2.3937 C.2            1 S1                 0.0000
      3 ****        -3.1829  -1.0534   2.9649 C.2            1 S1                 0.0000
      4 ****        -2.4861  -0.3834   2.0622 N.2            1 S1                 0.0000
      5 ****        -2.8100  -0.9619   0.8838 N.pl3          1 S1                 0.0000
      6 ****        -2.2247  -0.4778  -0.3606 C.3            1 S1                 0.0000
      7 ****        -2.6670   0.9765  -0.6170 C.3            1 S1                 0.0000
      8 ****        -0.6808  -0.6434  -0.3879 C.3            1 S1                 0.0000
      9 ****        -0.2101  -2.0501   0.0396 C.3            1 S1                 0.0000
     10 ****        -0.2238  -0.3884  -1.7562 N.3            1 S1                 0.0000
     11 ****         1.1755   0.0636  -1.8889 C.3            1 S1                 0.0000
     12 ****         1.5568   0.1076  -3.3766 C.3            1 S1                 0.0000
     13 ****         1.4303   1.4455  -1.2453 C.2            1 S1                 0.0000
     14 ****         0.5605   2.3134  -1.3419 O.2            1 S1                 0.0000
     15 ****         2.5916   1.6728  -0.5941 N.am           1 S1                 0.0000
     16 ****         2.9031   2.9416   0.0624 C.3            1 S1                 0.0000
     17 ****         4.1866   2.6978   0.8561 C.3            1 S1                 0.0000
     18 ****         4.8657   1.5521   0.1198 C.3            1 S1                 0.0000
     19 ****         3.7061   0.7358  -0.4511 C.3            1 S1                 0.0000
     20 ****        -3.7128  -1.9903   1.0576 C.2            1 S1                 0.0000
     21 ****        -4.8514  -2.9244   4.1827 H              1 S1                 0.0000
     22 ****        -4.6414  -4.0791   2.8790 H              1 S1                 0.0000
     23 ****        -5.9357  -2.8969   2.8036 H              1 S1                 0.0000
     24 ****        -3.0902  -0.7730   4.0038 H              1 S1                 0.0000
     25 ****        -2.6452  -1.0946  -1.1569 H              1 S1                 0.0000
     26 ****        -2.3502   1.3248  -1.6000 H              1 S1                 0.0000
     27 ****        -2.2490   1.6587   0.1240 H              1 S1                 0.0000
     28 ****        -3.7530   1.0674  -0.5769 H              1 S1                 0.0000
     29 ****        -0.2597   0.0837   0.3067 H              1 S1                 0.0000
     30 ****        -0.4949  -2.2746   1.0673 H              1 S1                 0.0000
     31 ****         0.8738  -2.1498  -0.0066 H              1 S1                 0.0000
     32 ****        -0.6415  -2.8217  -0.5988 H              1 S1                 0.0000
     33 ****        -0.8515   0.2702  -2.1953 H              1 S1                 0.0000
     34 ****         1.8063  -0.6866  -1.4166 H              1 S1                 0.0000
     35 ****         2.5972   0.4050  -3.5128 H              1 S1                 0.0000
     36 ****         0.9349   0.8130  -3.9296 H              1 S1                 0.0000
     37 ****         1.4361  -0.8725  -3.8391 H              1 S1                 0.0000
     38 ****         3.0635   3.7059  -0.6996 H              1 S1                 0.0000
     39 ****         2.0935   3.2764   0.7133 H              1 S1                 0.0000
     40 ****         4.8146   3.5862   0.9289 H              1 S1                 0.0000
     41 ****         3.9360   2.3819   1.8696 H              1 S1                 0.0000
     42 ****         5.4689   1.9501  -0.6972 H              1 S1                 0.0000
     43 ****         5.5208   0.9637   0.7626 H              1 S1                 0.0000
     44 ****         3.4199  -0.0549   0.2440 H              1 S1                 0.0000
     45 ****         3.9855   0.2752  -1.3996 H              1 S1                 0.0000
     46 ****        -4.0861  -2.5661   0.2237 H              1 S1                 0.0000
     47 ****        -1.8596   0.3805   2.2167 LP             1 S1                 0.0000
     48 ****        -0.2402  -1.2746  -2.2191 LP             1 S1                 0.0000
     49 ****        -0.2901   2.1168  -1.8295 LP             1 S1                 0.0000
     50 ****         0.7054   3.2143  -0.9327 LP             1 S1                 0.0000
@<TRIPOS>BOND
    1    1    2 1     
    2    1   21 1     
    3    1   22 1     
    4    1   23 1     
    5    2   20 2     
    6    2    3 1     
    7    3    4 2     
    8    3   24 1     
    9    4    5 1     
   10    5    6 1     
   11    5   20 1     
   12    6    7 1     
   13    6    8 1     
   14    6   25 1     
   15    7   26 1     
   16    7   27 1     
   17    7   28 1     
   18    8    9 1     
   19    8   10 1     
   20    8   29 1     
   21    9   30 1     
   22    9   31 1     
   23    9   32 1     
   24   10   11 1     
   25   10   33 1     
   26   11   12 1     
   27   11   13 1     
   28   11   34 1     
   29   12   35 1     
   30   12   36 1     
   31   12   37 1     
   32   13   14 2     
   33   13   15 am    
   34   15   19 1     
   35   15   16 1     
   36   16   17 1     
   37   16   38 1     
   38   16   39 1     
   39   17   18 1     
   40   17   40 1     
   41   17   41 1     
   42   18   19 1     
   43   18   42 1     
   44   18   43 1     
   45   19   44 1     
   46   19   45 1     
   47   20   46 1     
   48    4   47 1     
   49   10   48 1     
   50   14   49 1     
   51   14   50 1     
@<TRIPOS>SUBSTRUCTURE
      1 S1             1
@<TRIPOS>SET
LONE_PAIRS      STATIC     ATOMS    <user>   **** ""
4 47 48 49 50
DONOR_HYDROGENS      STATIC     ATOMS    <user>   **** ""
1 33
ATOM$BLUE        STATIC     ATOMS    COLORGROUP SYSTEM
4 47 48 49 50
ATOM$RED        STATIC     ATOMS    COLORGROUP SYSTEM
1 33
