#       Name:                AV-unprocessed.smi:2533
#       Creating user name   scv26
#       Creation time:       Fri Mar 27 14:02:08 2020


#       File generated by GOLD software.
#

@<TRIPOS>MOLECULE
AV-unprocessed.smi:2533
    42    43     1
SMALL
NO_CHARGES


@<TRIPOS>ATOM
      1 ****        -4.3658  -1.4626   1.1445 C.3            1 S1                 0.0000
      2 ****        -3.5428  -0.3806   1.5545 O.3            1 S1                 0.0000
      3 ****        -2.1753  -0.5396   1.4795 C.ar           1 S1                 0.0000
      4 ****        -1.5367  -1.7206   1.0244 C.ar           1 S1                 0.0000
      5 ****        -0.1317  -1.7979   0.9725 C.ar           1 S1                 0.0000
      6 ****         0.6589  -0.7013   1.3747 C.ar           1 S1                 0.0000
      7 ****         2.1780  -0.7616   1.2745 C.3            1 S1                 0.0000
      8 ****         2.7031  -1.9520   1.8251 O.3            1 S1                 0.0000
      9 ****         2.6873  -0.6276  -0.1802 C.3            1 S1                 0.0000
     10 ****         2.1044   0.5247  -0.8819 N.am           1 S1                 0.0000
     11 ****         1.0473   0.2070  -1.7183 N.2            1 S1                 0.0000
     12 ****         0.3897   1.1246  -2.3500 C.2            1 S1                 0.0000
     13 ****        -0.7660   0.6803  -3.2114 C.3            1 S1                 0.0000
     14 ****        -1.3602   1.7228  -3.7926 F              1 S1                 0.0000
     15 ****        -0.3360  -0.1477  -4.1640 F              1 S1                 0.0000
     16 ****        -1.6686   0.0380  -2.4687 F              1 S1                 0.0000
     17 ****         0.7908   2.5129  -2.1951 C.2            1 S1                 0.0000
     18 ****         1.8320   2.8186  -1.3916 C.2            1 S1                 0.0000
     19 ****         2.5676   1.7890  -0.6618 C.2            1 S1                 0.0000
     20 ****         3.5080   2.0365   0.0923 O.2            1 S1                 0.0000
     21 ****         0.0274   0.4729   1.8323 C.ar           1 S1                 0.0000
     22 ****        -1.3772   0.5517   1.8824 C.ar           1 S1                 0.0000
     23 ****        -1.9645   1.6920   2.3174 F              1 S1                 0.0000
     24 ****        -5.4126  -1.1809   1.2584 H              1 S1                 0.0000
     25 ****        -4.1940  -2.3484   1.7572 H              1 S1                 0.0000
     26 ****        -4.2036  -1.7112   0.0948 H              1 S1                 0.0000
     27 ****        -2.1028  -2.5815   0.7035 H              1 S1                 0.0000
     28 ****         0.3380  -2.7006   0.6099 H              1 S1                 0.0000
     29 ****         2.5891   0.0575   1.8659 H              1 S1                 0.0000
     30 ****         2.4881  -1.9763   2.7452 H              1 S1                 0.0000
     31 ****         3.7771  -0.5669  -0.1947 H              1 S1                 0.0000
     32 ****         2.4442  -1.5387  -0.7311 H              1 S1                 0.0000
     33 ****         0.2592   3.2915  -2.7218 H              1 S1                 0.0000
     34 ****         2.1274   3.8516  -1.2803 H              1 S1                 0.0000
     35 ****         0.6186   1.3255   2.1329 H              1 S1                 0.0000
     36 ****        -3.7667  -0.1824   2.5088 LP             1 S1                 0.0000
     37 ****        -3.7818   0.4063   0.9856 LP             1 S1                 0.0000
     38 ****         3.6964  -1.9677   1.7101 LP             1 S1                 0.0000
     39 ****         2.3016  -2.7431   1.3637 LP             1 S1                 0.0000
     40 ****         0.7871  -0.7513  -1.8363 LP             1 S1                 0.0000
     41 ****         3.9694   1.2932   0.5769 LP             1 S1                 0.0000
     42 ****         3.8109   2.9808   0.2207 LP             1 S1                 0.0000
@<TRIPOS>BOND
    1    1    2 1     
    2    1   24 1     
    3    1   25 1     
    4    1   26 1     
    5    2    3 1     
    6    3   22 ar    
    7    3    4 ar    
    8    4    5 ar    
    9    4   27 1     
   10    5    6 ar    
   11    5   28 1     
   12    6    7 1     
   13    6   21 ar    
   14    7    8 1     
   15    7    9 1     
   16    7   29 1     
   17    8   30 1     
   18    9   10 1     
   19    9   31 1     
   20    9   32 1     
   21   10   19 am    
   22   10   11 1     
   23   11   12 2     
   24   12   13 1     
   25   12   17 1     
   26   13   14 1     
   27   13   15 1     
   28   13   16 1     
   29   17   18 2     
   30   17   33 1     
   31   18   19 1     
   32   18   34 1     
   33   19   20 2     
   34   21   22 ar    
   35   21   35 1     
   36   22   23 1     
   37    2   36 1     
   38    2   37 1     
   39    8   38 1     
   40    8   39 1     
   41   11   40 1     
   42   20   41 1     
   43   20   42 1     
@<TRIPOS>SUBSTRUCTURE
      1 S1             1
@<TRIPOS>SET
LONE_PAIRS      STATIC     ATOMS    <user>   **** ""
7 36 37 38 39 40 41 42
DONOR_HYDROGENS      STATIC     ATOMS    <user>   **** ""
1 30
ATOM$BLUE        STATIC     ATOMS    COLORGROUP SYSTEM
7 36 37 38 39 40 41 42
ATOM$RED        STATIC     ATOMS    COLORGROUP SYSTEM
1 30
