AV-unprocessed.smi:1884|AV-procd|sdf|7646|dock1
  -GOLD-   22720 9373D 1   1.00000     0.00000
 Structure written by MMmdl.
 40 42  0  0  0  0  0  0  0  0  1 V2000
  152.1028  138.5748  154.4399 C   0  0  0  0  0  0  0  0  0  0  0  0
  151.8828  139.5719  155.5327 C   0  0  0  0  0  0  0  0  0  0  0  0
  152.6972  139.6662  156.5841 N   0  0  0  0  0  0  0  0  0  0  0  0
  152.1228  140.6837  157.3215 C   0  0  0  0  0  0  0  0  0  0  0  0
  152.5135  141.2603  158.5513 C   0  0  0  0  0  0  0  0  0  0  0  0
  151.7581  142.3056  159.1218 C   0  0  0  0  0  0  0  0  0  0  0  0
  150.6038  142.7890  158.4722 C   0  0  0  0  0  0  0  0  0  0  0  0
  150.1974  142.2296  157.2455 C   0  0  0  0  0  0  0  0  0  0  0  0
  150.9546  141.1858  156.6804 C   0  0  0  0  0  0  0  0  0  0  0  0
  150.8373  140.4346  155.5146 N   0  0  0  0  0  0  0  0  0  0  0  0
  149.7983  140.5618  154.5015 C   0  0  0  0  0  0  0  0  0  0  0  0
  148.8330  139.3589  154.4816 C   0  0  2  0  0  0  0  0  0  0  0  0
  149.2534  138.4187  153.5132 O   0  0  0  0  0  0  0  0  0  0  0  0
  147.3893  139.7699  154.1580 C   0  0  0  0  0  0  0  0  0  0  0  0
  146.8654  140.5249  155.2426 O   0  0  0  0  0  0  0  0  0  0  0  0
  146.1628  141.6757  154.9561 C   0  0  0  0  0  0  0  0  0  0  0  0
  146.4700  142.3286  153.7447 C   0  0  0  0  0  0  0  0  0  0  0  0
  145.8028  143.5115  153.3721 C   0  0  0  0  0  0  0  0  0  0  0  0
  144.8146  144.0582  154.2142 C   0  0  0  0  0  0  0  0  0  0  0  0
  144.1259  145.2805  153.8349 C   0  0  0  0  0  0  0  0  0  0  0  0
  143.5779  146.2538  153.5332 N   0  0  0  0  0  0  0  0  0  0  0  0
  144.4973  143.4148  155.4267 C   0  0  0  0  0  0  0  0  0  0  0  0
  145.1657  142.2317  155.7973 C   0  0  0  0  0  0  0  0  0  0  0  0
  153.0087  137.9971  154.6269 H   0  0  0  0  0  0  0  0  0  0  0  0
  152.2110  139.0795  153.4802 H   0  0  0  0  0  0  0  0  0  0  0  0
  151.2617  137.8837  154.3845 H   0  0  0  0  0  0  0  0  0  0  0  0
  153.3964  140.8976  159.0568 H   0  0  0  0  0  0  0  0  0  0  0  0
  152.0655  142.7384  160.0626 H   0  0  0  0  0  0  0  0  0  0  0  0
  150.0309  143.5900  158.9160 H   0  0  0  0  0  0  0  0  0  0  0  0
  149.3155  142.6002  156.7445 H   0  0  0  0  0  0  0  0  0  0  0  0
  149.2495  141.4872  154.6768 H   0  0  0  0  0  0  0  0  0  0  0  0
  150.2768  140.6776  153.5282 H   0  0  0  0  0  0  0  0  0  0  0  0
  148.8482  138.8569  155.4493 H   0  0  0  0  0  0  0  0  0  0  0  0
  149.3024  138.8540  152.6756 H   0  0  0  0  0  0  0  0  0  0  0  0
  147.3632  140.3514  153.2346 H   0  0  0  0  0  0  0  0  0  0  0  0
  146.7797  138.8762  154.0128 H   0  0  0  0  0  0  0  0  0  0  0  0
  147.2263  141.9173  153.0924 H   0  0  0  0  0  0  0  0  0  0  0  0
  146.0546  143.9943  152.4386 H   0  0  0  0  0  0  0  0  0  0  0  0
  143.7403  143.8244  156.0803 H   0  0  0  0  0  0  0  0  0  0  0  0
  144.8948  141.7705  156.7348 H   0  0  0  0  0  0  0  0  0  0  0  0
  1  2  1  0  0  0  0
  1 24  1  0  0  0  0
  1 25  1  0  0  0  0
  1 26  1  0  0  0  0
  2 10  1  0  0  0  0
  2  3  2  0  0  0  0
  3  4  1  0  0  0  0
  4  9  2  0  0  0  0
  4  5  1  0  0  0  0
  5  6  2  0  0  0  0
  5 27  1  0  0  0  0
  6  7  1  0  0  0  0
  6 28  1  0  0  0  0
  7  8  2  0  0  0  0
  7 29  1  0  0  0  0
  8  9  1  0  0  0  0
  8 30  1  0  0  0  0
  9 10  1  0  0  0  0
 10 11  1  0  0  0  0
 11 12  1  0  0  0  0
 11 31  1  0  0  0  0
 11 32  1  0  0  0  0
 12 13  1  0  0  0  0
 12 14  1  0  0  0  0
 12 33  1  0  0  0  0
 13 34  1  0  0  0  0
 14 15  1  0  0  0  0
 14 35  1  0  0  0  0
 14 36  1  0  0  0  0
 15 16  1  0  0  0  0
 16 23  1  0  0  0  0
 16 17  2  0  0  0  0
 17 18  1  0  0  0  0
 17 37  1  0  0  0  0
 18 19  2  0  0  0  0
 18 38  1  0  0  0  0
 19 20  1  0  0  0  0
 19 22  1  0  0  0  0
 20 21  3  0  0  0  0
 22 23  2  0  0  0  0
 22 39  1  0  0  0  0
 23 40  1  0  0  0  0
M  END
> <s_m_source_file>
AV-unprocessed.smi

> <i_m_source_file_index>
1884

> <i_lp_mmshare_version>
43012

> <i_f3d_flags>
0

> <s_epik_input>
W2NIXTFbY0hdW2NIXVtjSF1jKGMxMiluKGMobjIpW0NIM10pW0NIMl1bQ0BIXShbT0hdKVtDSDJdT2MzW2NIXVtjSF1jKEMjTilbY0hdW2NIXTM=

> <s_epik_cmdline>
J2VwaWtfcHl0aG9uJywgJy1waCcsICc3LjAnLCAnLXRuJywgJzgnLCAnLW1hJywgJzIwMCcsICctbWV0YWxfYmluZGluZycsICctaW1hZScsICc8aW5maWxlLm1hZT4nLCAnLW9tYWUnLCAnPG91dGZpbGUubWFlPic=

> <r_epik_Ionization_Penalty>
0.110799

> <r_epik_Ionization_Penalty_Charging>
0

> <r_epik_Ionization_Penalty_Neutral>
0.110799

> <r_epik_State_Penalty>
0.100537

> <r_epik_Charging_Adjusted_Penalty>
0.100537

> <i_epik_Tot_Q>
0

> <i_epik_Tot_abs_Q>
0

> <r_epik_Metal_State_Penalty>
0.000109561

> <b_epik_Metal_Only>
0

> <s_lp_Force_Field>
OPLS_2005

> <r_lp_Energy>
14.1942

> <b_lp_Chiralities_Consistent>
1

> <s_lp_Variant>
AV-unprocessed.smi:1884-1

> <Gold.Version>
5.8.1

> <Gold.Id.Protein>
6NUR|6NUR_protein|mol2

> <Gold.PLP.Fitness>
51.5755

> <Gold.PLP.PLP>
-48.0248

> <Gold.PLP.part.hbond>
-5.0000

> <Gold.PLP.part.metal>
0.0000

> <Gold.PLP.part.buried>
-5.2091

> <Gold.PLP.part.nonpolar>
-36.2218

> <Gold.PLP.part.repulsive>
0.1300

> <Gold.PLP.ligand.clash>
0.0000

> <Gold.PLP.ligand.torsion>
1.2921

> <Gold.PLP.Chemscore.Hbond>
2.0000

> <Gold.PLP.Chemscore.CHOScore>
0.0000

> <Gold.PLP.Chemscore.Metal>
0.0000

> <Gold.Chemscore.Hbonds>
donor molecule, donor type, donor heavy atom, donor atom, acceptor molecule, acceptor atom, score
      L1  H    13    34       P1  7957  1.00
      P1  H  7997  8010       L1     3  1.00

> <Gold.PLP.Chemscore.Internal.Correction>
0.1349

> <Gold.Rescore>
     Score         DG    S(hbond)    S(metal)    S(lipo)     H(rot)  DE(clash)    DE(int)     intcor
     14.90     -17.13       1.84        0.00      97.63       2.31       0.83       1.41       ----

> <Gold.Chemscore.Fitness>
14.8969

> <Gold.Chemscore.DG>
-17.1333

> <Gold.Chemscore.ZeroCoef>
-5.4800

> <Gold.Chemscore.Hbond>
1.8398

> <Gold.Chemscore.Metal>
0.0000

> <Gold.Chemscore.Lipo>
97.6273

> <Gold.Chemscore.Internal_Hbond>
0.0000

> <Gold.Chemscore.DEClash>
0.8265

> <Gold.Chemscore.DEInternal>
1.4099

> <Gold.Chemscore.Rot>
2.3102

> <Gold.Chemscore.Internal.Correction>
   9.000000E+99

> <Gold.Chemscore.Hbonds>
donor molecule, donor type, donor heavy atom, donor atom, acceptor molecule, acceptor atom, score
      L1  H    13    34       P1  7957  0.94
      P1  H  7997  8010       L1     3  0.54

> <Gold.Chemscore.Hbond.Weighted>
-6.1451

> <Gold.Chemscore.Metal.Weighted>
-0.0000

> <Gold.Chemscore.Lipo.Weighted>
-11.4224

> <Gold.Chemscore.Internal_Hbond.Weighted>
0.0000

> <Gold.Chemscore.DEClash.Weighted>
0.8265

> <Gold.Chemscore.DEInternal.Weighted>
1.4099

> <Gold.Chemscore.Rot.Weighted>
5.9141

> <Gold.Chemscore.Internal.Correction.Weighted>
   9.000000E+99

> <Gold.Protein.RotatedTorsions>
[ 6907 6896 6895 6894 ] final  137.11 input  -60.11 | X-H torsion
[ 7974 7965 7964 7962 ] final  -28.91 input  175.53 | X-H torsion
[ 8008 7997 7996 7995 ] final   86.01 input   59.86 | X-H torsion
[ 10167 10162 10161 10158 ] final  -63.54 input  -65.29 | X-H torsion
[ 10718 10713 10712 10709 ] final  -43.07 input   66.30 | X-H torsion
[ 10763 10752 10751 10750 ] final  -52.76 input  -60.55 | X-H torsion
[ 11005 11000 10999 10996 ] final  156.74 input  -57.11 | X-H torsion

> <Gold.Protein.ActiveResidues>
 VAL166  LYS551  ARG553  GLY616  TRP617  ASP618  TYR619  PRO620  LYS621  CYS622 
 ASP623  PHE694  ASN695  SER759  ASP760  ASP761  ALA762  ILE779  LEU786  VAL792 
 PHE793  MET794  SER795  GLU796  ALA797  LYS798  CYS799  TRP800  GLU811  SER814 

> <Gold.Protein.RotatedAtoms>
  152.2818  133.5478  159.5502 H   0  0  0  0  0  0  0  0  0  0  0  0  # atno 6907 bound_to 6896
  150.7199  134.0553  159.3821 H   0  0  0  0  0  0  0  0  0  0  0  0  # atno 6908 bound_to 6896
  151.8463  135.0573  160.0505 H   0  0  0  0  0  0  0  0  0  0  0  0  # atno 6909 bound_to 6896
  146.1255  140.5344  142.8716 H   0  0  0  0  0  0  0  0  0  0  0  0  # atno 7974 bound_to 7965
  155.9573  140.3396  155.6460 H   0  0  0  0  0  0  0  0  0  0  0  0  # atno 8008 bound_to 7997
  155.6843  140.0741  157.2491 H   0  0  0  0  0  0  0  0  0  0  0  0  # atno 8009 bound_to 7997
  154.4135  140.1668  156.2004 H   0  0  0  0  0  0  0  0  0  0  0  0  # atno 8010 bound_to 7997
  140.5863  143.2334  151.6235 H   0  0  0  0  0  0  0  0  0  0  0  0  # atno 10167 bound_to 10162
  156.2528  130.4189  149.8630 H   0  0  0  0  0  0  0  0  0  0  0  0  # atno 10718 bound_to 10713
  154.1479  135.6495  153.4957 H   0  0  0  0  0  0  0  0  0  0  0  0  # atno 10763 bound_to 10752
  153.0146  135.5331  154.6838 H   0  0  0  0  0  0  0  0  0  0  0  0  # atno 10764 bound_to 10752
  154.6118  135.2954  155.0395 H   0  0  0  0  0  0  0  0  0  0  0  0  # atno 10765 bound_to 10752
  140.1704  134.8547  157.2683 H   0  0  0  0  0  0  0  0  0  0  0  0  # atno 11005 bound_to 11000
  144.7638  140.5483  143.6717 LP  0  0  0  0  0  0  0  0  0  0  0  0  # atno 17320 bound_to 7965
  145.5375  139.1475  143.3465 LP  0  0  0  0  0  0  0  0  0  0  0  0  # atno 17321 bound_to 7965
  139.5200  144.3237  152.0888 LP  0  0  0  0  0  0  0  0  0  0  0  0  # atno 17342 bound_to 10162
  140.2394  144.4285  150.6266 LP  0  0  0  0  0  0  0  0  0  0  0  0  # atno 17343 bound_to 10162
  156.6172  130.8611  151.3467 LP  0  0  0  0  0  0  0  0  0  0  0  0  # atno 17370 bound_to 10713
  157.7221  130.9572  150.1481 LP  0  0  0  0  0  0  0  0  0  0  0  0  # atno 17371 bound_to 10713
  140.2384  134.3825  155.7491 LP  0  0  0  0  0  0  0  0  0  0  0  0  # atno 17394 bound_to 11000
  141.2217  133.7252  156.8751 LP  0  0  0  0  0  0  0  0  0  0  0  0  # atno 17395 bound_to 11000

$$$$
