AV-unprocessed.smi:2710|AV-procd|sdf|10467|dock1
  -GOLD-   2272014503D 1   1.00000     0.00000
 Structure written by MMmdl.
 53 54  0  0  0  0  0  0  0  0  2 V2000
  146.4646  138.2719  151.6283 C   0  0  0  0  0  0  0  0  0  0  0  0
  145.8872  137.2523  152.6215 C   0  0  0  0  0  0  0  0  0  0  0  0
  146.3054  135.8523  152.3396 N   0  3  1  0  0  0  0  0  0  0  0  0
  146.0361  134.9468  153.4889 C   0  0  0  0  0  0  0  0  0  0  0  0
  146.6632  133.5599  153.2724 C   0  0  0  0  0  0  0  0  0  0  0  0
  146.1731  132.9279  151.9619 C   0  0  2  0  0  0  0  0  0  0  0  0
  146.8351  131.6441  151.7478 N   0  0  0  0  0  0  0  0  0  0  0  0
  146.7718  130.5968  152.5831 C   0  0  0  0  0  0  0  0  0  0  0  0
  146.1283  130.6072  153.6316 O   0  0  0  0  0  0  0  0  0  0  0  0
  147.5011  129.5660  152.1229 N   0  0  0  0  0  0  0  0  0  0  0  0
  147.6974  128.2810  152.6986 C   0  0  0  0  0  0  0  0  0  0  0  0
  146.8486  127.6606  153.6474 C   0  0  0  0  0  0  0  0  0  0  0  0
  147.1128  126.4298  154.1359 N   0  0  0  0  0  0  0  0  0  0  0  0
  148.1915  125.7882  153.6682 C   0  0  0  0  0  0  0  0  0  0  0  0
  148.5642  124.4554  154.3409 C   0  0  0  0  0  0  0  0  0  0  0  0
  148.6711  123.3166  153.2990 C   0  0  0  0  0  0  0  0  0  0  0  0
  147.4732  124.0145  155.3449 C   0  0  0  0  0  0  0  0  0  0  0  0
  149.9084  124.6103  155.0754 C   0  0  0  0  0  0  0  0  0  0  0  0
  149.0736  126.3003  152.8002 N   0  0  0  0  0  0  0  0  0  0  0  0
  148.8215  127.5287  152.3026 C   0  0  0  0  0  0  0  0  0  0  0  0
  146.4551  133.8946  150.7962 C   0  0  0  0  0  0  0  0  0  0  0  0
  145.8412  135.2908  151.0321 C   0  0  1  0  0  0  0  0  0  0  0  0
  144.3057  135.2852  150.8688 C   0  0  0  0  0  0  0  0  0  0  0  0
  146.2368  139.2885  151.9502 H   0  0  0  0  0  0  0  0  0  0  0  0
  146.0453  138.1528  150.6293 H   0  0  0  0  0  0  0  0  0  0  0  0
  147.5489  138.1844  151.5560 H   0  0  0  0  0  0  0  0  0  0  0  0
  146.2447  137.5233  153.6158 H   0  0  0  0  0  0  0  0  0  0  0  0
  144.8008  137.3303  152.6640 H   0  0  0  0  0  0  0  0  0  0  0  0
  146.4507  135.3800  154.3998 H   0  0  0  0  0  0  0  0  0  0  0  0
  144.9615  134.8570  153.6514 H   0  0  0  0  0  0  0  0  0  0  0  0
  147.7502  133.6531  153.2566 H   0  0  0  0  0  0  0  0  0  0  0  0
  146.4206  132.9115  154.1151 H   0  0  0  0  0  0  0  0  0  0  0  0
  145.0982  132.7567  152.0435 H   0  0  0  0  0  0  0  0  0  0  0  0
  147.3877  131.5484  150.9082 H   0  0  0  0  0  0  0  0  0  0  0  0
  148.0026  129.7299  151.2622 H   0  0  0  0  0  0  0  0  0  0  0  0
  145.9525  128.1227  154.0292 H   0  0  0  0  0  0  0  0  0  0  0  0
  148.8865  122.3602  153.7767 H   0  0  0  0  0  0  0  0  0  0  0  0
  149.4704  123.4940  152.5786 H   0  0  0  0  0  0  0  0  0  0  0  0
  147.7418  123.2013  152.7399 H   0  0  0  0  0  0  0  0  0  0  0  0
  146.5004  123.9240  154.8602 H   0  0  0  0  0  0  0  0  0  0  0  0
  147.3675  124.7193  156.1704 H   0  0  0  0  0  0  0  0  0  0  0  0
  147.7095  123.0464  155.7879 H   0  0  0  0  0  0  0  0  0  0  0  0
  150.2039  123.6820  155.5654 H   0  0  0  0  0  0  0  0  0  0  0  0
  149.8536  125.3841  155.8420 H   0  0  0  0  0  0  0  0  0  0  0  0
  150.7068  124.8871  154.3858 H   0  0  0  0  0  0  0  0  0  0  0  0
  149.5316  127.9172  151.5873 H   0  0  0  0  0  0  0  0  0  0  0  0
  147.5340  133.9991  150.6701 H   0  0  0  0  0  0  0  0  0  0  0  0
  146.0828  133.4794  149.8586 H   0  0  0  0  0  0  0  0  0  0  0  0
  146.2401  135.9245  150.2409 H   0  0  0  0  0  0  0  0  0  0  0  0
  144.0235  134.8401  149.9141 H   0  0  0  0  0  0  0  0  0  0  0  0
  143.8933  136.2938  150.8768 H   0  0  0  0  0  0  0  0  0  0  0  0
  143.8055  134.7144  151.6505 H   0  0  0  0  0  0  0  0  0  0  0  0
  147.3123  135.8897  152.2685 H   0  0  0  0  0  0  0  0  0  0  0  0
  1  2  1  0  0  0  0
  1 24  1  0  0  0  0
  1 25  1  0  0  0  0
  1 26  1  0  0  0  0
  2  3  1  0  0  0  0
  2 27  1  0  0  0  0
  2 28  1  0  0  0  0
  3 22  1  0  0  0  0
  3  4  1  0  0  0  0
  3 53  1  0  0  0  0
  4  5  1  0  0  0  0
  4 29  1  0  0  0  0
  4 30  1  0  0  0  0
  5  6  1  0  0  0  0
  5 31  1  0  0  0  0
  5 32  1  0  0  0  0
  6  7  1  0  0  0  0
  6 21  1  0  0  0  0
  6 33  1  0  0  0  0
  7  8  1  0  0  0  0
  7 34  1  0  0  0  0
  8  9  2  0  0  0  0
  8 10  1  0  0  0  0
 10 11  1  0  0  0  0
 10 35  1  0  0  0  0
 11 20  1  0  0  0  0
 11 12  2  0  0  0  0
 12 13  1  0  0  0  0
 12 36  1  0  0  0  0
 13 14  2  0  0  0  0
 14 15  1  0  0  0  0
 14 19  1  0  0  0  0
 15 16  1  0  0  0  0
 15 17  1  0  0  0  0
 15 18  1  0  0  0  0
 16 37  1  0  0  0  0
 16 38  1  0  0  0  0
 16 39  1  0  0  0  0
 17 40  1  0  0  0  0
 17 41  1  0  0  0  0
 17 42  1  0  0  0  0
 18 43  1  0  0  0  0
 18 44  1  0  0  0  0
 18 45  1  0  0  0  0
 19 20  2  0  0  0  0
 20 46  1  0  0  0  0
 21 22  1  0  0  0  0
 21 47  1  0  0  0  0
 21 48  1  0  0  0  0
 22 23  1  0  0  0  0
 22 49  1  0  0  0  0
 23 50  1  0  0  0  0
 23 51  1  0  0  0  0
 23 52  1  0  0  0  0
M  CHG  1   3   1
M  END
> <s_m_source_file>
AV-unprocessed.smi

> <i_m_source_file_index>
2710

> <i_lp_mmshare_version>
43012

> <i_f3d_flags>
0

> <s_epik_input>
W0NIM11bQ0gyXU4xW0NIMl1bQ0gyXVtDQEhdKFtDSDJdW0NASF0xW0NIM10pW05IXUMoPU8pW05IXWMyW2NIXW5jKEMoW0NIM10pKFtDSDNdKVtDSDNdKW5bY0hdMg==

> <s_epik_cmdline>
J2VwaWtfcHl0aG9uJywgJy1waCcsICc3LjAnLCAnLXRuJywgJzgnLCAnLW1hJywgJzIwMCcsICctbWV0YWxfYmluZGluZycsICctaW1hZScsICc8aW5maWxlLm1hZT4nLCAnLW9tYWUnLCAnPG91dGZpbGUubWFlPic=

> <r_lp_tautomer_probability>
1

> <r_epik_Ionization_Penalty>
0.00396003

> <r_epik_Ionization_Penalty_Charging>
0.0039379

> <r_epik_Ionization_Penalty_Neutral>
2.21316e-05

> <r_epik_State_Penalty>
0.00281651

> <r_epik_Charging_Adjusted_Penalty>
0.00675441

> <i_epik_Tot_Q>
1

> <i_epik_Tot_abs_Q>
1

> <r_epik_Metal_State_Penalty>
-0

> <b_epik_Metal_Only>
0

> <s_lp_Force_Field>
OPLS_2005

> <r_lp_Energy>
21.0802

> <b_lp_Chiralities_Consistent>
1

> <s_lp_Variant>
AV-unprocessed.smi:2710-4

> <Gold.Version>
5.8.1

> <Gold.Id.Protein>
6NUR|6NUR_protein|mol2

> <Gold.PLP.Fitness>
44.5113

> <Gold.PLP.PLP>
-30.1387

> <Gold.PLP.part.hbond>
-4.0000

> <Gold.PLP.part.metal>
0.0000

> <Gold.PLP.part.buried>
-3.9598

> <Gold.PLP.part.nonpolar>
-22.8148

> <Gold.PLP.part.repulsive>
0.3161

> <Gold.PLP.ligand.clash>
0.0000

> <Gold.PLP.ligand.torsion>
0.2294

> <Gold.PLP.Chemscore.Hbond>
3.8960

> <Gold.PLP.Chemscore.CHOScore>
0.9883

> <Gold.PLP.Chemscore.Metal>
0.0000

> <Gold.Chemscore.Hbonds>
donor molecule, donor type, donor heavy atom, donor atom, acceptor molecule, acceptor atom, score
      L1  H     3    53       P1  7948  2.00
      L1  H     7    34       P1 10747  0.85
      L1  H    10    35       P1 10747  0.98
      L1  C    20    46       P1 10737  0.95

> <Gold.PLP.Chemscore.Internal.Correction>
0.1784

> <Gold.Rescore>
     Score         DG    S(hbond)    S(metal)    S(lipo)     H(rot)  DE(clash)    DE(int)     intcor
     17.06     -19.18       2.82        0.00      65.26       1.31       0.19       1.93       ----

> <Gold.Chemscore.Fitness>
17.0570

> <Gold.Chemscore.DG>
-19.1756

> <Gold.Chemscore.ZeroCoef>
-5.4800

> <Gold.Chemscore.Hbond>
2.8172

> <Gold.Chemscore.Metal>
0.0000

> <Gold.Chemscore.Lipo>
65.2555

> <Gold.Chemscore.Internal_Hbond>
0.0000

> <Gold.Chemscore.DEClash>
0.1903

> <Gold.Chemscore.DEInternal>
1.9283

> <Gold.Chemscore.Rot>
1.3081

> <Gold.Chemscore.Internal.Correction>
   9.000000E+99

> <Gold.Chemscore.Hbonds>
donor molecule, donor type, donor heavy atom, donor atom, acceptor molecule, acceptor atom, score
      L1  H     3    53       P1  7948  1.00
      L1  H     7    34       P1 10747  0.85
      L1  H    10    35       P1 10747  0.82

> <Gold.Chemscore.Hbond.Weighted>
-9.4095

> <Gold.Chemscore.Metal.Weighted>
-0.0000

> <Gold.Chemscore.Lipo.Weighted>
-7.6349

> <Gold.Chemscore.Internal_Hbond.Weighted>
0.0000

> <Gold.Chemscore.DEClash.Weighted>
0.1903

> <Gold.Chemscore.DEInternal.Weighted>
1.9283

> <Gold.Chemscore.Rot.Weighted>
3.3488

> <Gold.Chemscore.Internal.Correction.Weighted>
   9.000000E+99

> <Gold.Protein.RotatedTorsions>
[ 6907 6896 6895 6894 ] final -135.35 input  -60.11 | X-H torsion
[ 7974 7965 7964 7962 ] final   27.01 input  175.53 | X-H torsion
[ 8008 7997 7996 7995 ] final -177.98 input   59.86 | X-H torsion
[ 10167 10162 10161 10158 ] final  -63.95 input  -65.29 | X-H torsion
[ 10718 10713 10712 10709 ] final -161.53 input   66.30 | X-H torsion
[ 10763 10752 10751 10750 ] final   27.98 input  -60.55 | X-H torsion
[ 11005 11000 10999 10996 ] final -175.23 input  -57.11 | X-H torsion

> <Gold.Protein.ActiveResidues>
 VAL166  LYS551  ARG553  GLY616  TRP617  ASP618  TYR619  PRO620  LYS621  CYS622 
 ASP623  PHE694  ASN695  SER759  ASP760  ASP761  ALA762  ILE779  LEU786  VAL792 
 PHE793  MET794  SER795  GLU796  ALA797  LYS798  CYS799  TRP800  GLU811  SER814 

> <Gold.Protein.RotatedAtoms>
  150.9968  133.6095  159.2700 H   0  0  0  0  0  0  0  0  0  0  0  0  # atno 6907 bound_to 6896
  151.3296  135.0837  159.9344 H   0  0  0  0  0  0  0  0  0  0  0  0  # atno 6908 bound_to 6896
  152.5262  133.9600  159.7767 H   0  0  0  0  0  0  0  0  0  0  0  0  # atno 6909 bound_to 6896
  146.1807  139.7250  142.8902 H   0  0  0  0  0  0  0  0  0  0  0  0  # atno 7974 bound_to 7965
  156.0134  140.1245  157.0431 H   0  0  0  0  0  0  0  0  0  0  0  0  # atno 8008 bound_to 7997
  154.4284  140.1083  156.5931 H   0  0  0  0  0  0  0  0  0  0  0  0  # atno 8009 bound_to 7997
  155.6047  140.3471  155.4606 H   0  0  0  0  0  0  0  0  0  0  0  0  # atno 8010 bound_to 7997
  140.5835  143.2330  151.6293 H   0  0  0  0  0  0  0  0  0  0  0  0  # atno 10167 bound_to 10162
  156.5976  130.8797  151.2906 H   0  0  0  0  0  0  0  0  0  0  0  0  # atno 10718 bound_to 10713
  153.0521  135.6524  154.0668 H   0  0  0  0  0  0  0  0  0  0  0  0  # atno 10763 bound_to 10752
  154.0354  135.2908  155.3364 H   0  0  0  0  0  0  0  0  0  0  0  0  # atno 10764 bound_to 10752
  154.6815  135.5318  153.8336 H   0  0  0  0  0  0  0  0  0  0  0  0  # atno 10765 bound_to 10752
  140.4656  134.6213  157.4861 H   0  0  0  0  0  0  0  0  0  0  0  0  # atno 11005 bound_to 11000
  145.4083  141.0393  143.3031 LP  0  0  0  0  0  0  0  0  0  0  0  0  # atno 17320 bound_to 7965
  144.8311  139.5627  143.6943 LP  0  0  0  0  0  0  0  0  0  0  0  0  # atno 17321 bound_to 7965
  139.5183  144.3287  152.0846 LP  0  0  0  0  0  0  0  0  0  0  0  0  # atno 17342 bound_to 10162
  140.2440  144.4239  150.6248 LP  0  0  0  0  0  0  0  0  0  0  0  0  # atno 17343 bound_to 10162
  157.7288  130.9661  150.1757 LP  0  0  0  0  0  0  0  0  0  0  0  0  # atno 17370 bound_to 10713
  156.2496  130.3699  149.8247 LP  0  0  0  0  0  0  0  0  0  0  0  0  # atno 17371 bound_to 10713
  139.9917  134.6974  155.9678 LP  0  0  0  0  0  0  0  0  0  0  0  0  # atno 17394 bound_to 11000
  141.1601  133.6539  156.4290 LP  0  0  0  0  0  0  0  0  0  0  0  0  # atno 17395 bound_to 11000

$$$$
