AV-unprocessed.smi:1734|AV-procd|sdf|6987|dock1
  -GOLD-   22720 8203D 1   1.00000     0.00000
 Structure written by MMmdl.
 51 53  0  0  0  0  0  0  0  0  2 V2000
  147.6932  133.1296  152.6294 C   0  0  0  0  0  0  0  0  0  0  0  0
  146.3635  133.1440  151.8928 C   0  0  0  0  0  0  0  0  0  0  0  0
  145.6991  131.9242  151.6438 C   0  0  0  0  0  0  0  0  0  0  0  0
  144.4708  131.9393  150.9615 C   0  0  0  0  0  0  0  0  0  0  0  0
  143.9546  133.1819  150.5556 C   0  0  0  0  0  0  0  0  0  0  0  0
  144.5824  134.3524  150.7899 N   0  0  0  0  0  0  0  0  0  0  0  0
  145.7702  134.3550  151.4460 C   0  0  0  0  0  0  0  0  0  0  0  0
  146.4901  135.5507  151.7249 N   0  0  0  0  0  0  0  0  0  0  0  0
  146.0263  136.7075  152.2292 C   0  0  0  0  0  0  0  0  0  0  0  0
  144.8572  136.9352  152.5421 O   0  0  0  0  0  0  0  0  0  0  0  0
  147.0121  137.6050  152.3714 N   0  0  0  0  0  0  0  0  0  0  0  0
  146.8412  138.9429  152.9261 C   0  0  0  0  0  0  0  0  0  0  0  0
  147.9108  139.3162  153.9928 C   0  0  1  0  0  0  0  0  0  0  0  0
  147.3249  139.5397  155.4161 C   0  0  1  0  0  0  0  0  0  0  0  0
  148.3152  140.1203  156.4134 C   0  0  0  0  0  0  0  0  0  0  0  0
  147.3999  140.6289  157.5201 C   0  0  0  0  0  0  0  0  0  0  0  0
  146.2212  141.0698  156.8589 O   0  0  0  0  0  0  0  0  0  0  0  0
  146.2000  140.5786  155.5225 C   0  0  0  0  0  0  0  0  0  0  0  0
  149.0143  138.3105  154.0464 N   0  3  0  0  0  0  0  0  0  0  0  0
  150.3904  138.8553  154.1690 C   0  0  0  0  0  0  0  0  0  0  0  0
  151.4158  137.7186  154.0261 C   0  0  0  0  0  0  0  0  0  0  0  0
  151.1645  136.7244  155.0125 O   0  0  0  0  0  0  0  0  0  0  0  0
  149.8753  136.1390  154.8690 C   0  0  0  0  0  0  0  0  0  0  0  0
  148.7932  137.2204  155.0281 C   0  0  0  0  0  0  0  0  0  0  0  0
  147.9811  132.1157  152.9090 H   0  0  0  0  0  0  0  0  0  0  0  0
  147.6320  133.7237  153.5418 H   0  0  0  0  0  0  0  0  0  0  0  0
  148.4822  133.5407  151.9989 H   0  0  0  0  0  0  0  0  0  0  0  0
  146.1232  130.9858  151.9700 H   0  0  0  0  0  0  0  0  0  0  0  0
  143.9383  131.0227  150.7549 H   0  0  0  0  0  0  0  0  0  0  0  0
  143.0135  133.2382  150.0288 H   0  0  0  0  0  0  0  0  0  0  0  0
  147.4784  135.5143  151.5236 H   0  0  0  0  0  0  0  0  0  0  0  0
  147.9445  137.3417  152.0870 H   0  0  0  0  0  0  0  0  0  0  0  0
  146.8805  139.6424  152.0910 H   0  0  0  0  0  0  0  0  0  0  0  0
  145.8336  139.0163  153.3365 H   0  0  0  0  0  0  0  0  0  0  0  0
  148.3745  140.2585  153.6972 H   0  0  0  0  0  0  0  0  0  0  0  0
  146.9508  138.5958  155.8149 H   0  0  0  0  0  0  0  0  0  0  0  0
  149.0400  139.3915  156.7773 H   0  0  0  0  0  0  0  0  0  0  0  0
  148.8621  140.9534  155.9690 H   0  0  0  0  0  0  0  0  0  0  0  0
  147.1357  139.8170  158.1986 H   0  0  0  0  0  0  0  0  0  0  0  0
  147.8540  141.4283  158.1062 H   0  0  0  0  0  0  0  0  0  0  0  0
  146.3811  141.4194  154.8515 H   0  0  0  0  0  0  0  0  0  0  0  0
  145.2211  140.1614  155.2863 H   0  0  0  0  0  0  0  0  0  0  0  0
  150.5747  139.6083  153.4035 H   0  0  0  0  0  0  0  0  0  0  0  0
  150.5222  139.3389  155.1376 H   0  0  0  0  0  0  0  0  0  0  0  0
  151.3739  137.2786  153.0281 H   0  0  0  0  0  0  0  0  0  0  0  0
  152.4266  138.1037  154.1623 H   0  0  0  0  0  0  0  0  0  0  0  0
  149.7933  135.6447  153.8996 H   0  0  0  0  0  0  0  0  0  0  0  0
  149.7509  135.3684  155.6302 H   0  0  0  0  0  0  0  0  0  0  0  0
  148.8166  137.6160  156.0439 H   0  0  0  0  0  0  0  0  0  0  0  0
  147.8087  136.7751  154.8798 H   0  0  0  0  0  0  0  0  0  0  0  0
  148.9842  137.8538  153.1460 H   0  0  0  0  0  0  0  0  0  0  0  0
  1  2  1  0  0  0  0
  1 25  1  0  0  0  0
  1 26  1  0  0  0  0
  1 27  1  0  0  0  0
  2  7  1  0  0  0  0
  2  3  2  0  0  0  0
  3  4  1  0  0  0  0
  3 28  1  0  0  0  0
  4  5  2  0  0  0  0
  4 29  1  0  0  0  0
  5  6  1  0  0  0  0
  5 30  1  0  0  0  0
  6  7  2  0  0  0  0
  7  8  1  0  0  0  0
  8  9  1  0  0  0  0
  8 31  1  0  0  0  0
  9 10  2  0  0  0  0
  9 11  1  0  0  0  0
 11 12  1  0  0  0  0
 11 32  1  0  0  0  0
 12 13  1  0  0  0  0
 12 33  1  0  0  0  0
 12 34  1  0  0  0  0
 13 14  1  0  0  0  0
 13 19  1  0  0  0  0
 13 35  1  0  0  0  0
 14 18  1  0  0  0  0
 14 15  1  0  0  0  0
 14 36  1  0  0  0  0
 15 16  1  0  0  0  0
 15 37  1  0  0  0  0
 15 38  1  0  0  0  0
 16 17  1  0  0  0  0
 16 39  1  0  0  0  0
 16 40  1  0  0  0  0
 17 18  1  0  0  0  0
 18 41  1  0  0  0  0
 18 42  1  0  0  0  0
 19 24  1  0  0  0  0
 19 20  1  0  0  0  0
 19 51  1  0  0  0  0
 20 21  1  0  0  0  0
 20 43  1  0  0  0  0
 20 44  1  0  0  0  0
 21 22  1  0  0  0  0
 21 45  1  0  0  0  0
 21 46  1  0  0  0  0
 22 23  1  0  0  0  0
 23 24  1  0  0  0  0
 23 47  1  0  0  0  0
 23 48  1  0  0  0  0
 24 49  1  0  0  0  0
 24 50  1  0  0  0  0
M  CHG  1  19   1
M  END
> <s_m_source_file>
AV-unprocessed.smi

> <i_m_source_file_index>
1734

> <i_lp_mmshare_version>
43012

> <i_f3d_flags>
0

> <s_epik_input>
W0NIM11jMVtjSF1bY0hdW2NIXW5jMVtOSF1DKD1PKVtOSF1bQ0gyXVtDQEhdKFtDQEBIXTJbQ0gyXVtDSDJdT1tDSDJdMilOM1tDSDJdW0NIMl1PW0NIMl1bQ0gyXTM=

> <s_epik_cmdline>
J2VwaWtfcHl0aG9uJywgJy1waCcsICc3LjAnLCAnLXRuJywgJzgnLCAnLW1hJywgJzIwMCcsICctbWV0YWxfYmluZGluZycsICctaW1hZScsICc8aW5maWxlLm1hZT4nLCAnLW9tYWUnLCAnPG91dGZpbGUubWFlPic=

> <r_epik_Ionization_Penalty>
0.983302

> <r_epik_Ionization_Penalty_Charging>
0.98326

> <r_epik_Ionization_Penalty_Neutral>
4.21967e-05

> <r_epik_State_Penalty>
1.0303

> <r_epik_Charging_Adjusted_Penalty>
2.01356

> <i_epik_Tot_Q>
1

> <i_epik_Tot_abs_Q>
1

> <r_epik_Metal_State_Penalty>
1.03031

> <b_epik_Metal_Only>
0

> <s_lp_Force_Field>
OPLS_2005

> <r_lp_Energy>
38.82

> <b_lp_Chiralities_Consistent>
1

> <s_lp_Variant>
AV-unprocessed.smi:1734-8

> <Gold.Version>
5.8.1

> <Gold.Id.Protein>
6NUR|6NUR_protein|mol2

> <Gold.PLP.Fitness>
44.1193

> <Gold.PLP.PLP>
-31.1440

> <Gold.PLP.part.hbond>
-3.2631

> <Gold.PLP.part.metal>
0.0000

> <Gold.PLP.part.buried>
-2.9917

> <Gold.PLP.part.nonpolar>
-25.9911

> <Gold.PLP.part.repulsive>
0.6900

> <Gold.PLP.ligand.clash>
0.0000

> <Gold.PLP.ligand.torsion>
2.0855

> <Gold.PLP.Chemscore.Hbond>
4.5156

> <Gold.PLP.Chemscore.CHOScore>
1.0000

> <Gold.PLP.Chemscore.Metal>
0.0000

> <Gold.Chemscore.Hbonds>
donor molecule, donor type, donor heavy atom, donor atom, acceptor molecule, acceptor atom, score
      L1  H     8    31       P1  7948  0.91
      L1  H    11    32       P1  7948  0.89
      L1  H    19    51       P1  7948  1.92
      P1  H 10752 10764       L1    22  0.60
      L1  C     5    30       P1 10186  1.00

> <Gold.PLP.Chemscore.Internal.Correction>
0.5996

> <Gold.Rescore>
     Score         DG    S(hbond)    S(metal)    S(lipo)     H(rot)  DE(clash)    DE(int)     intcor
     17.43     -21.03       3.31        0.00      75.69       1.70       1.47       2.13       ----

> <Gold.Chemscore.Fitness>
17.4335

> <Gold.Chemscore.DG>
-21.0301

> <Gold.Chemscore.ZeroCoef>
-5.4800

> <Gold.Chemscore.Hbond>
3.3063

> <Gold.Chemscore.Metal>
0.0000

> <Gold.Chemscore.Lipo>
75.6874

> <Gold.Chemscore.Internal_Hbond>
0.0000

> <Gold.Chemscore.DEClash>
1.4704

> <Gold.Chemscore.DEInternal>
2.1262

> <Gold.Chemscore.Rot>
1.6986

> <Gold.Chemscore.Internal.Correction>
   9.000000E+99

> <Gold.Chemscore.Hbonds>
donor molecule, donor type, donor heavy atom, donor atom, acceptor molecule, acceptor atom, score
      L1  H     8    31       P1  7948  0.84
      L1  H    11    32       P1  7948  0.83
      L1  H    19    51       P1  7948  0.90
      P1  H 10752 10764       L1    22  0.12

> <Gold.Chemscore.Hbond.Weighted>
-11.0431

> <Gold.Chemscore.Metal.Weighted>
-0.0000

> <Gold.Chemscore.Lipo.Weighted>
-8.8554

> <Gold.Chemscore.Internal_Hbond.Weighted>
0.0000

> <Gold.Chemscore.DEClash.Weighted>
1.4704

> <Gold.Chemscore.DEInternal.Weighted>
2.1262

> <Gold.Chemscore.Rot.Weighted>
4.3485

> <Gold.Chemscore.Internal.Correction.Weighted>
   9.000000E+99

> <Gold.Protein.RotatedTorsions>
[ 6907 6896 6895 6894 ] final -173.92 input  -60.11 | X-H torsion
[ 7974 7965 7964 7962 ] final  142.71 input  175.53 | X-H torsion
[ 8008 7997 7996 7995 ] final   82.67 input   59.86 | X-H torsion
[ 10167 10162 10161 10158 ] final  -47.15 input  -65.29 | X-H torsion
[ 10718 10713 10712 10709 ] final   -9.29 input   66.30 | X-H torsion
[ 10763 10752 10751 10750 ] final  -50.19 input  -60.55 | X-H torsion
[ 11005 11000 10999 10996 ] final -122.02 input  -57.11 | X-H torsion

> <Gold.Protein.ActiveResidues>
 VAL166  LYS551  ARG553  GLY616  TRP617  ASP618  TYR619  PRO620  LYS621  CYS622 
 ASP623  PHE694  ASN695  SER759  ASP760  ASP761  ALA762  ILE779  LEU786  VAL792 
 PHE793  MET794  SER795  GLU796  ALA797  LYS798  CYS799  TRP800  GLU811  SER814 

> <Gold.Protein.RotatedAtoms>
  151.5639  133.3399  159.2976 H   0  0  0  0  0  0  0  0  0  0  0  0  # atno 6907 bound_to 6896
  150.8406  134.7700  159.6940 H   0  0  0  0  0  0  0  0  0  0  0  0  # atno 6908 bound_to 6896
  152.4474  134.5472  159.9908 H   0  0  0  0  0  0  0  0  0  0  0  0  # atno 6909 bound_to 6896
  144.8984  139.5458  143.5765 H   0  0  0  0  0  0  0  0  0  0  0  0  # atno 7974 bound_to 7965
  155.9137  140.3426  155.6118 H   0  0  0  0  0  0  0  0  0  0  0  0  # atno 8008 bound_to 7997
  155.7357  140.0801  157.2287 H   0  0  0  0  0  0  0  0  0  0  0  0  # atno 8009 bound_to 7997
  154.4059  140.1580  156.2546 H   0  0  0  0  0  0  0  0  0  0  0  0  # atno 8010 bound_to 7997
  140.6787  143.2797  151.3886 H   0  0  0  0  0  0  0  0  0  0  0  0  # atno 10167 bound_to 10162
  156.6902  130.5062  149.5946 H   0  0  0  0  0  0  0  0  0  0  0  0  # atno 10718 bound_to 10713
  154.1063  135.6556  153.4877 H   0  0  0  0  0  0  0  0  0  0  0  0  # atno 10763 bound_to 10752
  153.0271  135.5237  154.7236 H   0  0  0  0  0  0  0  0  0  0  0  0  # atno 10764 bound_to 10752
  154.6403  135.2987  155.0080 H   0  0  0  0  0  0  0  0  0  0  0  0  # atno 10765 bound_to 10752
  141.0026  134.0380  157.3517 H   0  0  0  0  0  0  0  0  0  0  0  0  # atno 11005 bound_to 11000
  146.3094  139.7694  142.9031 LP  0  0  0  0  0  0  0  0  0  0  0  0  # atno 17320 bound_to 7965
  145.3660  141.0334  143.3258 LP  0  0  0  0  0  0  0  0  0  0  0  0  # atno 17321 bound_to 7965
  139.6095  144.1127  152.2284 LP  0  0  0  0  0  0  0  0  0  0  0  0  # atno 17342 bound_to 10162
  140.0536  144.5912  150.7316 LP  0  0  0  0  0  0  0  0  0  0  0  0  # atno 17343 bound_to 10162
  156.1803  130.6495  151.0944 LP  0  0  0  0  0  0  0  0  0  0  0  0  # atno 17370 bound_to 10713
  157.7012  131.0775  150.6815 LP  0  0  0  0  0  0  0  0  0  0  0  0  # atno 17371 bound_to 10713
  139.9047  135.0176  156.7430 LP  0  0  0  0  0  0  0  0  0  0  0  0  # atno 17394 bound_to 11000
  140.6864  133.9429  155.7940 LP  0  0  0  0  0  0  0  0  0  0  0  0  # atno 17395 bound_to 11000

$$$$
