AV-unprocessed.smi:110|AV-procd|sdf|1067|dock5
  -GOLD-   2262018143D 1   1.00000     0.00000
 Structure written by MMmdl.
 46 50  0  0  0  0  0  0  0  0  1 V2000
  145.0555  143.7644  153.3674 O   0  0  0  0  0  0  0  0  0  0  0  0
  145.6428  142.8255  154.2423 C   0  0  0  0  0  0  0  0  0  0  0  0
  146.9155  142.2407  153.6096 C   0  0  1  0  0  0  0  0  0  0  0  0
  148.0196  142.5415  154.4600 O   0  0  0  0  0  0  0  0  0  0  0  0
  148.8988  141.4686  154.4623 C   0  0  1  0  0  0  0  0  0  0  0  0
  149.7334  141.5257  155.6985 N   0  0  0  0  0  0  0  0  0  0  0  0
  149.5882  142.3237  156.8116 C   0  0  0  0  0  0  0  0  0  0  0  0
  150.4817  142.1391  157.7459 N   0  0  0  0  0  0  0  0  0  0  0  0
  151.3133  141.1472  157.2367 C   0  0  0  0  0  0  0  0  0  0  0  0
  152.4712  140.4666  157.7114 C   0  0  0  0  0  0  0  0  0  0  0  0
  153.0635  140.6946  158.9073 N   0  0  0  0  0  0  0  0  0  0  0  0
  153.8045  139.6111  159.5687 C   0  0  0  0  0  0  0  0  0  0  0  0
  153.9682  139.9987  161.0504 C   0  0  0  0  0  0  0  0  0  0  0  0
  153.4110  141.3857  161.0447 C   0  0  0  0  0  0  0  0  0  0  0  0
  153.3777  142.2941  162.1169 C   0  0  0  0  0  0  0  0  0  0  0  0
  152.8265  143.5729  161.8878 C   0  0  0  0  0  0  0  0  0  0  0  0
  152.3344  143.9201  160.6081 C   0  0  0  0  0  0  0  0  0  0  0  0
  152.3798  142.9913  159.5452 C   0  0  0  0  0  0  0  0  0  0  0  0
  152.9120  141.7079  159.7862 C   0  0  0  0  0  0  0  0  0  0  0  0
  152.9861  139.4835  156.9287 N   0  0  0  0  0  0  0  0  0  0  0  0
  152.4355  139.2088  155.7429 C   0  0  0  0  0  0  0  0  0  0  0  0
  151.3762  139.7763  155.1633 N   0  0  0  0  0  0  0  0  0  0  0  0
  150.8368  140.7456  155.9569 C   0  0  0  0  0  0  0  0  0  0  0  0
  148.0221  140.2179  154.3940 C   0  0  1  0  0  0  0  0  0  0  0  0
  147.5372  139.8132  155.6618 O   0  0  0  0  0  0  0  0  0  0  0  0
  146.8833  140.6989  153.5017 C   0  0  2  0  0  0  0  0  0  0  0  0
  147.1317  140.3177  152.1618 O   0  0  0  0  0  0  0  0  0  0  0  0
  147.0899  142.6867  152.6281 H   0  0  0  0  0  0  0  0  0  0  0  0
  149.5979  141.5536  153.6289 H   0  0  0  0  0  0  0  0  0  0  0  0
  148.5873  139.3905  153.9627 H   0  0  0  0  0  0  0  0  0  0  0  0
  145.9247  140.2722  153.8012 H   0  0  0  0  0  0  0  0  0  0  0  0
  144.1728  143.4866  153.1761 H   0  0  0  0  0  0  0  0  0  0  0  0
  145.8532  143.2837  155.2094 H   0  0  0  0  0  0  0  0  0  0  0  0
  144.9082  142.0371  154.4087 H   0  0  0  0  0  0  0  0  0  0  0  0
  148.7932  143.0481  156.9134 H   0  0  0  0  0  0  0  0  0  0  0  0
  153.2812  138.6594  159.4667 H   0  0  0  0  0  0  0  0  0  0  0  0
  154.7809  139.5080  159.0935 H   0  0  0  0  0  0  0  0  0  0  0  0
  153.3791  139.3576  161.7068 H   0  0  0  0  0  0  0  0  0  0  0  0
  155.0102  139.9880  161.3709 H   0  0  0  0  0  0  0  0  0  0  0  0
  153.7681  142.0236  163.0867 H   0  0  0  0  0  0  0  0  0  0  0  0
  152.7886  144.2931  162.6918 H   0  0  0  0  0  0  0  0  0  0  0  0
  151.9258  144.9056  160.4403 H   0  0  0  0  0  0  0  0  0  0  0  0
  152.0185  143.2708  158.5668 H   0  0  0  0  0  0  0  0  0  0  0  0
  152.9119  138.4215  155.1778 H   0  0  0  0  0  0  0  0  0  0  0  0
  146.5930  139.8003  155.6303 H   0  0  0  0  0  0  0  0  0  0  0  0
  148.0563  140.1504  152.0616 H   0  0  0  0  0  0  0  0  0  0  0  0
  1  2  1  0  0  0  0
  1 32  1  0  0  0  0
  2  3  1  0  0  0  0
  2 33  1  0  0  0  0
  2 34  1  0  0  0  0
  3 28  1  0  0  0  0
  3 26  1  0  0  0  0
  3  4  1  0  0  0  0
  4  5  1  0  0  0  0
  5 29  1  0  0  0  0
  5  6  1  0  0  0  0
  5 24  1  0  0  0  0
  6 23  1  0  0  0  0
  6  7  1  0  0  0  0
  7  8  2  0  0  0  0
  7 35  1  0  0  0  0
  8  9  1  0  0  0  0
  9 23  2  0  0  0  0
  9 10  1  0  0  0  0
 10 11  1  0  0  0  0
 10 20  2  0  0  0  0
 11 19  1  0  0  0  0
 11 12  1  0  0  0  0
 12 13  1  0  0  0  0
 12 36  1  0  0  0  0
 12 37  1  0  0  0  0
 13 14  1  0  0  0  0
 13 38  1  0  0  0  0
 13 39  1  0  0  0  0
 14 19  2  0  0  0  0
 14 15  1  0  0  0  0
 15 16  2  0  0  0  0
 15 40  1  0  0  0  0
 16 17  1  0  0  0  0
 16 41  1  0  0  0  0
 17 18  2  0  0  0  0
 17 42  1  0  0  0  0
 18 19  1  0  0  0  0
 18 43  1  0  0  0  0
 20 21  1  0  0  0  0
 21 22  2  0  0  0  0
 21 44  1  0  0  0  0
 22 23  1  0  0  0  0
 24 30  1  0  0  0  0
 24 25  1  0  0  0  0
 24 26  1  0  0  0  0
 25 45  1  0  0  0  0
 26 31  1  0  0  0  0
 26 27  1  0  0  0  0
 27 46  1  0  0  0  0
M  END
> <s_m_source_file>
AV-unprocessed.smi

> <i_m_source_file_index>
110

> <i_lp_mmshare_version>
43012

> <i_f3d_flags>
0

> <s_epik_input>
W09IXVtDSDJdW0NASF0xT1tDQEhdKFtDQEhdKFtPSF0pW0NAQEhdMVtPSF0pbihbY0hdbjIpYyhjMjMpbltjSF1uYzNOKFtDSDJdW0NIMl00KWMoYzQ1KVtjSF1bY0hdW2NIXVtjSF01

> <s_epik_cmdline>
J2VwaWtfcHl0aG9uJywgJy1waCcsICc3LjAnLCAnLXRuJywgJzgnLCAnLW1hJywgJzIwMCcsICctbWV0YWxfYmluZGluZycsICctaW1hZScsICc8aW5maWxlLm1hZT4nLCAnLW9tYWUnLCAnPG91dGZpbGUubWFlPic=

> <r_lp_tautomer_probability>
1

> <r_epik_Ionization_Penalty>
0.00068475

> <r_epik_Ionization_Penalty_Charging>
0

> <r_epik_Ionization_Penalty_Neutral>
0.00068475

> <r_epik_State_Penalty>
0.000417442

> <r_epik_Charging_Adjusted_Penalty>
0.000417442

> <i_epik_Tot_Q>
0

> <i_epik_Tot_abs_Q>
0

> <r_epik_Metal_State_Penalty>
-0

> <b_epik_Metal_Only>
0

> <s_epik_Chemistry_Notes>
This compound contains an acetal/aminal-like group ( X-CH(R)-Y where X, Y are N, S, or O) that may be acid/base labile, releasing an aldehyde.

> <s_lp_Force_Field>
OPLS_2005

> <r_lp_Energy>
58.5768

> <b_lp_Chiralities_Consistent>
1

> <s_lp_Variant>
AV-unprocessed.smi:110-5

> <Gold.Version>
5.8.1

> <Gold.Id.Protein>
6NUR|6NUR_protein|mol2

> <Gold.PLP.Fitness>
61.8032

> <Gold.PLP.PLP>
-50.2994

> <Gold.PLP.part.hbond>
-4.3387

> <Gold.PLP.part.metal>
0.0000

> <Gold.PLP.part.buried>
-1.9460

> <Gold.PLP.part.nonpolar>
-45.7031

> <Gold.PLP.part.repulsive>
3.5192

> <Gold.PLP.ligand.clash>
0.0000

> <Gold.PLP.ligand.torsion>
1.1837

> <Gold.PLP.Chemscore.Hbond>
3.8775

> <Gold.PLP.Chemscore.CHOScore>
0.7247

> <Gold.PLP.Chemscore.Metal>
0.0000

> <Gold.Chemscore.Hbonds>
donor molecule, donor type, donor heavy atom, donor atom, acceptor molecule, acceptor atom, score
      L1  H     1    32       P1 10174  0.80
      L1  H    27    46       P1  7957  1.00
      P1  H  7989  7998       L1    22  0.95
      P1  H  7997  8010       L1    20  1.00
      L1  C     7    35       P1  8028  0.75

> <Gold.PLP.Chemscore.Internal.Correction>
0.0647

> <Gold.Rescore>
     Score         DG    S(hbond)    S(metal)    S(lipo)     H(rot)  DE(clash)    DE(int)     intcor
     10.25     -15.99       1.85        0.00     111.12       3.38       3.10       2.65       ----

> <Gold.Chemscore.Fitness>
10.2463

> <Gold.Chemscore.DG>
-15.9894

> <Gold.Chemscore.ZeroCoef>
-5.4800

> <Gold.Chemscore.Hbond>
1.8475

> <Gold.Chemscore.Metal>
0.0000

> <Gold.Chemscore.Lipo>
111.1188

> <Gold.Chemscore.Internal_Hbond>
0.0000

> <Gold.Chemscore.DEClash>
3.0966

> <Gold.Chemscore.DEInternal>
2.6465

> <Gold.Chemscore.Rot>
3.3837

> <Gold.Chemscore.Internal.Correction>
   9.000000E+99

> <Gold.Chemscore.Hbonds>
donor molecule, donor type, donor heavy atom, donor atom, acceptor molecule, acceptor atom, score
      L1  H     1    32       P1 10174  0.15
      L1  H    27    46       P1  7957  0.98
      P1  H  7989  7998       L1    22  0.20
      P1  H  7997  8010       L1    20  0.10
      P1  H  8022  8030       L1     4  0.01

> <Gold.Chemscore.Hbond.Weighted>
-6.1707

> <Gold.Chemscore.Metal.Weighted>
-0.0000

> <Gold.Chemscore.Lipo.Weighted>
-13.0009

> <Gold.Chemscore.Internal_Hbond.Weighted>
0.0000

> <Gold.Chemscore.DEClash.Weighted>
3.0966

> <Gold.Chemscore.DEInternal.Weighted>
2.6465

> <Gold.Chemscore.Rot.Weighted>
8.6622

> <Gold.Chemscore.Internal.Correction.Weighted>
   9.000000E+99

> <Gold.Protein.RotatedTorsions>
[ 6907 6896 6895 6894 ] final -158.07 input  -60.11 | X-H torsion
[ 7974 7965 7964 7962 ] final  105.29 input  175.53 | X-H torsion
[ 8008 7997 7996 7995 ] final   72.10 input   59.86 | X-H torsion
[ 10167 10162 10161 10158 ] final   84.93 input  -65.29 | X-H torsion
[ 10718 10713 10712 10709 ] final -103.33 input   66.30 | X-H torsion
[ 10763 10752 10751 10750 ] final  -51.54 input  -60.55 | X-H torsion
[ 11005 11000 10999 10996 ] final  -81.95 input  -57.11 | X-H torsion

> <Gold.Protein.ActiveResidues>
 VAL166  LYS551  ARG553  GLY616  TRP617  ASP618  TYR619  PRO620  LYS621  CYS622 
 ASP623  PHE694  ASN695  SER759  ASP760  ASP761  ALA762  ILE779  LEU786  VAL792 
 PHE793  MET794  SER795  GLU796  ALA797  LYS798  CYS799  TRP800  GLU811  SER814 

> <Gold.Protein.RotatedAtoms>
  151.3125  133.4074  159.2647 H   0  0  0  0  0  0  0  0  0  0  0  0  # atno 6907 bound_to 6896
  151.0103  134.9392  159.8013 H   0  0  0  0  0  0  0  0  0  0  0  0  # atno 6908 bound_to 6896
  152.5299  134.3089  159.9158 H   0  0  0  0  0  0  0  0  0  0  0  0  # atno 6909 bound_to 6896
  145.3216  139.2511  143.3709 H   0  0  0  0  0  0  0  0  0  0  0  0  # atno 7974 bound_to 7965
  155.7638  140.3486  155.5211 H   0  0  0  0  0  0  0  0  0  0  0  0  # atno 8008 bound_to 7997
  155.8888  140.1014  157.1454 H   0  0  0  0  0  0  0  0  0  0  0  0  # atno 8009 bound_to 7997
  154.4031  140.1308  156.4277 H   0  0  0  0  0  0  0  0  0  0  0  0  # atno 8010 bound_to 7997
  139.9029  144.6318  150.8618 H   0  0  0  0  0  0  0  0  0  0  0  0  # atno 10167 bound_to 10162
  156.0261  130.5462  150.7237 H   0  0  0  0  0  0  0  0  0  0  0  0  # atno 10718 bound_to 10713
  154.1283  135.6524  153.4917 H   0  0  0  0  0  0  0  0  0  0  0  0  # atno 10763 bound_to 10752
  153.0203  135.5286  154.7027 H   0  0  0  0  0  0  0  0  0  0  0  0  # atno 10764 bound_to 10752
  154.6255  135.2969  155.0248 H   0  0  0  0  0  0  0  0  0  0  0  0  # atno 10765 bound_to 10752
  141.1665  133.7221  156.8499 H   0  0  0  0  0  0  0  0  0  0  0  0  # atno 11005 bound_to 11000
  146.3080  140.3774  142.8680 LP  0  0  0  0  0  0  0  0  0  0  0  0  # atno 17320 bound_to 7965
  144.8935  140.7553  143.5912 LP  0  0  0  0  0  0  0  0  0  0  0  0  # atno 17321 bound_to 7965
  140.7703  143.3423  151.2183 LP  0  0  0  0  0  0  0  0  0  0  0  0  # atno 17342 bound_to 10162
  139.7009  143.9534  152.2905 LP  0  0  0  0  0  0  0  0  0  0  0  0  # atno 17343 bound_to 10162
  157.4846  131.0905  151.0496 LP  0  0  0  0  0  0  0  0  0  0  0  0  # atno 17370 bound_to 10713
  157.0920  130.5946  149.5442 LP  0  0  0  0  0  0  0  0  0  0  0  0  # atno 17371 bound_to 10713
  140.1923  134.8957  157.3074 LP  0  0  0  0  0  0  0  0  0  0  0  0  # atno 17394 bound_to 11000
  140.2277  134.3947  155.7536 LP  0  0  0  0  0  0  0  0  0  0  0  0  # atno 17395 bound_to 11000

$$$$
