AV-unprocessed.smi:3214|AV-procd|sdf|12283|dock9
  -GOLD-   2272018123D 1   1.00000     0.00000
 Structure written by MMmdl.
 37 37  0  0  0  0  0  0  0  0  2 V2000
  150.9022  130.4497  156.8395 C   0  0  0  0  0  0  0  0  0  0  0  0
  149.6634  131.2049  157.3385 C   0  0  0  0  0  0  0  0  0  0  0  0
  149.3931  132.3848  156.5249 N   0  0  0  0  0  0  0  0  0  0  0  0
  149.3168  133.6417  156.9890 C   0  0  0  0  0  0  0  0  0  0  0  0
  149.4741  133.9347  158.1744 O   0  0  0  0  0  0  0  0  0  0  0  0
  149.0097  134.7269  155.9516 C   0  0  0  0  0  0  0  0  0  0  0  0
  148.5613  134.1578  154.5941 C   0  0  0  0  0  0  0  0  0  0  0  0
  147.7098  135.1279  153.8736 N   0  3  0  0  0  0  0  0  0  0  0  0
  146.5126  134.5591  153.2142 C   0  0  2  0  0  0  0  0  0  0  0  0
  145.4571  134.2276  154.2828 C   0  0  0  0  0  0  0  0  0  0  0  0
  146.8820  133.3325  152.3464 C   0  0  0  0  0  0  0  0  0  0  0  0
  145.8349  132.9572  151.4129 N   0  0  0  0  0  0  0  0  0  0  0  0
  145.8375  131.9387  150.4828 C   0  0  0  0  0  0  0  0  0  0  0  0
  144.6398  131.9831  149.8288 C   0  0  0  0  0  0  0  0  0  0  0  0
  143.9659  133.0822  150.4312 C   0  0  0  0  0  0  0  0  0  0  0  0
  144.6858  133.6656  151.3761 N   0  0  0  0  0  0  0  0  0  0  0  0
  151.1090  129.5862  157.4718 H   0  0  0  0  0  0  0  0  0  0  0  0
  151.7857  131.0890  156.8529 H   0  0  0  0  0  0  0  0  0  0  0  0
  150.7645  130.0878  155.8198 H   0  0  0  0  0  0  0  0  0  0  0  0
  148.7954  130.5435  157.3518 H   0  0  0  0  0  0  0  0  0  0  0  0
  149.8207  131.5294  158.3674 H   0  0  0  0  0  0  0  0  0  0  0  0
  149.2473  132.2315  155.5375 H   0  0  0  0  0  0  0  0  0  0  0  0
  148.2323  135.3825  156.3469 H   0  0  0  0  0  0  0  0  0  0  0  0
  149.9026  135.3397  155.8230 H   0  0  0  0  0  0  0  0  0  0  0  0
  149.4313  133.9242  153.9782 H   0  0  0  0  0  0  0  0  0  0  0  0
  148.0127  133.2281  154.7468 H   0  0  0  0  0  0  0  0  0  0  0  0
  147.4179  135.8545  154.5116 H   0  0  0  0  0  0  0  0  0  0  0  0
  146.0888  135.3323  152.5715 H   0  0  0  0  0  0  0  0  0  0  0  0
  144.5190  133.8986  153.8347 H   0  0  0  0  0  0  0  0  0  0  0  0
  145.2296  135.1019  154.8935 H   0  0  0  0  0  0  0  0  0  0  0  0
  145.8023  133.4367  154.9495 H   0  0  0  0  0  0  0  0  0  0  0  0
  147.7865  133.5210  151.7678 H   0  0  0  0  0  0  0  0  0  0  0  0
  147.0941  132.4731  152.9842 H   0  0  0  0  0  0  0  0  0  0  0  0
  146.6802  131.2733  150.3651 H   0  0  0  0  0  0  0  0  0  0  0  0
  144.2977  131.3315  149.0384 H   0  0  0  0  0  0  0  0  0  0  0  0
  142.9829  133.4712  150.2105 H   0  0  0  0  0  0  0  0  0  0  0  0
  148.2809  135.5464  153.1533 H   0  0  0  0  0  0  0  0  0  0  0  0
  1  2  1  0  0  0  0
  1 17  1  0  0  0  0
  1 18  1  0  0  0  0
  1 19  1  0  0  0  0
  2  3  1  0  0  0  0
  2 20  1  0  0  0  0
  2 21  1  0  0  0  0
  3  4  1  0  0  0  0
  3 22  1  0  0  0  0
  4  5  2  0  0  0  0
  4  6  1  0  0  0  0
  6  7  1  0  0  0  0
  6 23  1  0  0  0  0
  6 24  1  0  0  0  0
  7  8  1  0  0  0  0
  7 25  1  0  0  0  0
  7 26  1  0  0  0  0
  8  9  1  0  0  0  0
  8 27  1  0  0  0  0
  8 37  1  0  0  0  0
  9 10  1  0  0  0  0
  9 11  1  0  0  0  0
  9 28  1  0  0  0  0
 10 29  1  0  0  0  0
 10 30  1  0  0  0  0
 10 31  1  0  0  0  0
 11 12  1  0  0  0  0
 11 32  1  0  0  0  0
 11 33  1  0  0  0  0
 12 16  1  0  0  0  0
 12 13  1  0  0  0  0
 13 14  2  0  0  0  0
 13 34  1  0  0  0  0
 14 15  1  0  0  0  0
 14 35  1  0  0  0  0
 15 16  2  0  0  0  0
 15 36  1  0  0  0  0
M  CHG  1   8   1
M  END
> <s_m_source_file>
AV-unprocessed.smi

> <i_m_source_file_index>
3214

> <i_lp_mmshare_version>
43012

> <i_f3d_flags>
0

> <s_epik_input>
W0NIM11bQ0gyXVtOSF1DKD1PKVtDSDJdW0NIMl1bTkhdW0NASF0oW0NIM10pW0NIMl1uMVtjSF1bY0hdW2NIXW4x

> <s_epik_cmdline>
J2VwaWtfcHl0aG9uJywgJy1waCcsICc3LjAnLCAnLXRuJywgJzgnLCAnLW1hJywgJzIwMCcsICctbWV0YWxfYmluZGluZycsICctaW1hZScsICc8aW5maWxlLm1hZT4nLCAnLW9tYWUnLCAnPG91dGZpbGUubWFlPic=

> <r_lp_tautomer_probability>
1

> <r_epik_Ionization_Penalty>
0.00598156

> <r_epik_Ionization_Penalty_Charging>
0.00597743

> <r_epik_Ionization_Penalty_Neutral>
4.12922e-06

> <r_epik_State_Penalty>
0.00439883

> <r_epik_Charging_Adjusted_Penalty>
0.0103763

> <i_epik_Tot_Q>
1

> <i_epik_Tot_abs_Q>
1

> <r_epik_Metal_State_Penalty>
-0

> <b_epik_Metal_Only>
0

> <s_lp_Force_Field>
OPLS_2005

> <r_lp_Energy>
5.54296

> <b_lp_Chiralities_Consistent>
1

> <s_lp_Variant>
AV-unprocessed.smi:3214-1

> <Gold.Version>
5.8.1

> <Gold.Id.Protein>
6NUR|6NUR_protein|mol2

> <Gold.PLP.Fitness>
43.3636

> <Gold.PLP.PLP>
-29.7295

> <Gold.PLP.part.hbond>
-2.0000

> <Gold.PLP.part.metal>
0.0000

> <Gold.PLP.part.buried>
-4.5350

> <Gold.PLP.part.nonpolar>
-23.3599

> <Gold.PLP.part.repulsive>
0.1009

> <Gold.PLP.ligand.clash>
0.0000

> <Gold.PLP.ligand.torsion>
0.7582

> <Gold.PLP.Chemscore.Hbond>
3.0000

> <Gold.PLP.Chemscore.CHOScore>
2.0000

> <Gold.PLP.Chemscore.Metal>
0.0000

> <Gold.Chemscore.Hbonds>
donor molecule, donor type, donor heavy atom, donor atom, acceptor molecule, acceptor atom, score
      L1  H     8    37       P1  7948  2.00
      P1  H  6896  6907       L1     5  0.62
      L1  C    13    34       P1 10747  1.00
      L1  C    15    36       P1 10186  1.00

> <Gold.PLP.Chemscore.Internal.Correction>
0.1505

> <Gold.Rescore>
     Score         DG    S(hbond)    S(metal)    S(lipo)     H(rot)  DE(clash)    DE(int)     intcor
     12.52     -13.56       1.96        0.00      65.53       2.39       0.04       1.00       ----

> <Gold.Chemscore.Fitness>
12.5208

> <Gold.Chemscore.DG>
-13.5604

> <Gold.Chemscore.ZeroCoef>
-5.4800

> <Gold.Chemscore.Hbond>
1.9594

> <Gold.Chemscore.Metal>
0.0000

> <Gold.Chemscore.Lipo>
65.5275

> <Gold.Chemscore.Internal_Hbond>
0.0000

> <Gold.Chemscore.DEClash>
0.0359

> <Gold.Chemscore.DEInternal>
1.0037

> <Gold.Chemscore.Rot>
2.3948

> <Gold.Chemscore.Internal.Correction>
   9.000000E+99

> <Gold.Chemscore.Hbonds>
donor molecule, donor type, donor heavy atom, donor atom, acceptor molecule, acceptor atom, score
      L1  H     8    37       P1  7948  0.98
      P1  H  6896  6907       L1     5  0.62

> <Gold.Chemscore.Hbond.Weighted>
-6.5443

> <Gold.Chemscore.Metal.Weighted>
-0.0000

> <Gold.Chemscore.Lipo.Weighted>
-7.6667

> <Gold.Chemscore.Internal_Hbond.Weighted>
0.0000

> <Gold.Chemscore.DEClash.Weighted>
0.0359

> <Gold.Chemscore.DEInternal.Weighted>
1.0037

> <Gold.Chemscore.Rot.Weighted>
6.1306

> <Gold.Chemscore.Internal.Correction.Weighted>
   9.000000E+99

> <Gold.Protein.RotatedTorsions>
[ 6907 6896 6895 6894 ] final -141.01 input  -60.11 | X-H torsion
[ 7974 7965 7964 7962 ] final   95.66 input  175.53 | X-H torsion
[ 8008 7997 7996 7995 ] final  -29.07 input   59.86 | X-H torsion
[ 10167 10162 10161 10158 ] final   46.35 input  -65.29 | X-H torsion
[ 10718 10713 10712 10709 ] final  141.84 input   66.30 | X-H torsion
[ 10763 10752 10751 10750 ] final   76.64 input  -60.55 | X-H torsion
[ 11005 11000 10999 10996 ] final   70.52 input  -57.11 | X-H torsion

> <Gold.Protein.ActiveResidues>
 VAL166  LYS551  ARG553  GLY616  TRP617  ASP618  TYR619  PRO620  LYS621  CYS622 
 ASP623  PHE694  ASN695  SER759  ASP760  ASP761  ALA762  ILE779  LEU786  VAL792 
 PHE793  MET794  SER795  GLU796  ALA797  LYS798  CYS799  TRP800  GLU811  SER814 

> <Gold.Protein.RotatedAtoms>
  151.0681  133.5488  159.2628 H   0  0  0  0  0  0  0  0  0  0  0  0  # atno 6907 bound_to 6896
  151.2438  135.0597  159.9045 H   0  0  0  0  0  0  0  0  0  0  0  0  # atno 6908 bound_to 6896
  152.5407  134.0452  159.8139 H   0  0  0  0  0  0  0  0  0  0  0  0  # atno 6909 bound_to 6896
  145.4492  139.2294  143.3049 H   0  0  0  0  0  0  0  0  0  0  0  0  # atno 7974 bound_to 7965
  154.4305  140.1828  156.1189 H   0  0  0  0  0  0  0  0  0  0  0  0  # atno 8008 bound_to 7997
  156.0159  140.3346  155.6963 H   0  0  0  0  0  0  0  0  0  0  0  0  # atno 8009 bound_to 7997
  155.6046  140.0644  157.2714 H   0  0  0  0  0  0  0  0  0  0  0  0  # atno 8010 bound_to 7997
  140.3148  144.2777  150.6193 H   0  0  0  0  0  0  0  0  0  0  0  0  # atno 10167 bound_to 10162
  157.3874  131.1000  151.0680 H   0  0  0  0  0  0  0  0  0  0  0  0  # atno 10718 bound_to 10713
  153.0740  135.4944  154.8365 H   0  0  0  0  0  0  0  0  0  0  0  0  # atno 10763 bound_to 10752
  154.7062  135.3011  154.9270 H   0  0  0  0  0  0  0  0  0  0  0  0  # atno 10764 bound_to 10752
  153.9978  135.6770  153.4810 H   0  0  0  0  0  0  0  0  0  0  0  0  # atno 10765 bound_to 10752
  139.9593  134.7089  156.0682 H   0  0  0  0  0  0  0  0  0  0  0  0  # atno 11005 bound_to 11000
  146.2514  140.5249  142.8892 LP  0  0  0  0  0  0  0  0  0  0  0  0  # atno 17320 bound_to 7965
  144.8072  140.6321  143.6439 LP  0  0  0  0  0  0  0  0  0  0  0  0  # atno 17321 bound_to 7965
  140.5536  143.2202  151.7885 LP  0  0  0  0  0  0  0  0  0  0  0  0  # atno 17342 bound_to 10162
  139.4886  144.4443  151.9728 LP  0  0  0  0  0  0  0  0  0  0  0  0  # atno 17343 bound_to 10162
  157.1726  130.6274  149.5645 LP  0  0  0  0  0  0  0  0  0  0  0  0  # atno 17370 bound_to 10713
  155.9790  130.4780  150.6689 LP  0  0  0  0  0  0  0  0  0  0  0  0  # atno 17371 bound_to 10713
  141.1268  133.6597  156.3359 LP  0  0  0  0  0  0  0  0  0  0  0  0  # atno 17394 bound_to 11000
  140.5537  134.6003  157.5415 LP  0  0  0  0  0  0  0  0  0  0  0  0  # atno 17395 bound_to 11000

$$$$
