AV-unprocessed.smi:160|AV-procd|sdf|1365|dock10
  -GOLD-   2262019 83D 1   1.00000     0.00000
 Structure written by MMmdl.
 28 29  0  0  0  0  0  0  0  0  2 V2000
  148.3091  137.0606  160.9148 N   0  5  0  0  0  0  0  0  0  0  0  0
  148.7744  136.4868  159.7839 C   0  0  0  0  0  0  0  0  0  0  0  0
  148.3381  135.4660  159.2531 O   0  0  0  0  0  0  0  0  0  0  0  0
  149.9394  137.2082  159.1490 C   0  0  0  0  0  0  0  0  0  0  0  0
  151.1739  137.1917  159.7369 N   0  0  0  0  0  0  0  0  0  0  0  0
  151.8385  137.9249  158.8541 C   0  0  0  0  0  0  0  0  0  0  0  0
  151.1047  138.3389  157.8170 N   0  0  0  0  0  0  0  0  0  0  0  0
  151.5054  139.2127  156.6626 C   0  0  2  0  0  0  0  0  0  0  0  0
  150.3481  139.6245  156.0090 O   0  0  0  0  0  0  0  0  0  0  0  0
  149.9956  138.6624  155.0237 C   0  0  1  0  0  0  0  0  0  0  0  0
  149.0966  139.3120  153.9608 C   0  0  0  0  0  0  0  0  0  0  0  0
  149.6617  140.5286  153.5207 O   0  0  0  0  0  0  0  0  0  0  0  0
  151.3601  138.2113  154.4747 C   0  0  2  0  0  0  0  0  0  0  0  0
  151.3157  136.8369  154.1476 O   0  0  0  0  0  0  0  0  0  0  0  0
  152.3496  138.4598  155.6186 C   0  0  1  0  0  0  0  0  0  0  0  0
  153.4343  139.2512  155.1758 O   0  0  0  0  0  0  0  0  0  0  0  0
  149.8374  137.8905  158.0044 N   0  0  0  0  0  0  0  0  0  0  0  0
  152.0203  140.0515  157.1331 H   0  0  0  0  0  0  0  0  0  0  0  0
  149.4820  137.8258  155.5010 H   0  0  0  0  0  0  0  0  0  0  0  0
  151.6312  138.7927  153.5915 H   0  0  0  0  0  0  0  0  0  0  0  0
  152.7606  137.5413  156.0401 H   0  0  0  0  0  0  0  0  0  0  0  0
  147.3260  137.3564  160.9441 H   0  0  0  0  0  0  0  0  0  0  0  0
  152.8846  138.1682  158.9674 H   0  0  0  0  0  0  0  0  0  0  0  0
  148.9307  138.6412  153.1171 H   0  0  0  0  0  0  0  0  0  0  0  0
  148.1207  139.5426  154.3889 H   0  0  0  0  0  0  0  0  0  0  0  0
  149.0354  141.2211  153.6647 H   0  0  0  0  0  0  0  0  0  0  0  0
  151.2139  136.7541  153.2119 H   0  0  0  0  0  0  0  0  0  0  0  0
  153.7701  138.8761  154.3760 H   0  0  0  0  0  0  0  0  0  0  0  0
  1  2  1  0  0  0  0
  1 22  1  0  0  0  0
  2  3  2  0  0  0  0
  2  4  1  0  0  0  0
  4 17  2  0  0  0  0
  4  5  1  0  0  0  0
  5  6  2  0  0  0  0
  6  7  1  0  0  0  0
  6 23  1  0  0  0  0
  7  8  1  0  0  0  0
  7 17  1  0  0  0  0
  8 18  1  0  0  0  0
  8 15  1  0  0  0  0
  8  9  1  0  0  0  0
  9 10  1  0  0  0  0
 10 19  1  0  0  0  0
 10 11  1  0  0  0  0
 10 13  1  0  0  0  0
 11 12  1  0  0  0  0
 11 24  1  0  0  0  0
 11 25  1  0  0  0  0
 12 26  1  0  0  0  0
 13 20  1  0  0  0  0
 13 14  1  0  0  0  0
 13 15  1  0  0  0  0
 14 27  1  0  0  0  0
 15 21  1  0  0  0  0
 15 16  1  0  0  0  0
 16 28  1  0  0  0  0
M  CHG  1   1  -1
M  END
> <s_m_source_file>
AV-unprocessed.smi

> <i_m_source_file_index>
160

> <i_lp_mmshare_version>
43012

> <i_f3d_flags>
0

> <s_epik_input>
W05IMl1DKD1PKWMxbltjSF1uKG4xKVtDQEBIXTJPW0NASF0oW0NIMl1bT0hdKVtDQEBIXShbT0hdKVtDQEhdMltPSF0=

> <s_epik_cmdline>
J2VwaWtfcHl0aG9uJywgJy1waCcsICc3LjAnLCAnLXRuJywgJzgnLCAnLW1hJywgJzIwMCcsICctbWV0YWxfYmluZGluZycsICctaW1hZScsICc8aW5maWxlLm1hZT4nLCAnLW9tYWUnLCAnPG91dGZpbGUubWFlPic=

> <r_lp_tautomer_probability>
1

> <r_epik_Ionization_Penalty>
6.6993

> <r_epik_Ionization_Penalty_Charging>
6.6993

> <r_epik_Ionization_Penalty_Neutral>
6.01698e-06

> <r_epik_State_Penalty>
6.69929

> <r_epik_Charging_Adjusted_Penalty>
13.3986

> <i_epik_Tot_Q>
-1

> <i_epik_Tot_abs_Q>
1

> <r_epik_Metal_State_Penalty>
2.62798

> <b_epik_Metal_Only>
1

> <s_epik_Chemistry_Notes>
This compound contains an acetal/aminal-like group ( X-CH(R)-Y where X, Y are N, S, or O) that may be acid/base labile, releasing an aldehyde.

> <s_lp_Force_Field>
OPLS_2005

> <r_lp_Energy>
36.7288

> <b_lp_Chiralities_Consistent>
1

> <s_lp_Variant>
AV-unprocessed.smi:160-23

> <Gold.Version>
5.8.1

> <Gold.Id.Protein>
6NUR|6NUR_protein|mol2

> <Gold.PLP.Fitness>
42.9623

> <Gold.PLP.PLP>
-26.9802

> <Gold.PLP.part.hbond>
-8.1177

> <Gold.PLP.part.metal>
0.0000

> <Gold.PLP.part.buried>
-4.5577

> <Gold.PLP.part.nonpolar>
-15.4228

> <Gold.PLP.part.repulsive>
0.0006

> <Gold.PLP.ligand.clash>
0.0000

> <Gold.PLP.ligand.torsion>
1.6845

> <Gold.PLP.Chemscore.Hbond>
6.4393

> <Gold.PLP.Chemscore.CHOScore>
0.0000

> <Gold.PLP.Chemscore.Metal>
0.0000

> <Gold.Chemscore.Hbonds>
donor molecule, donor type, donor heavy atom, donor atom, acceptor molecule, acceptor atom, score
      L1  H    14    27       P1  7949  1.00
      P1  H  6896  6909       L1     5  0.91
      P1  H  6931  6943       L1     1  1.98
      P1  H  7989  7998       L1    12  0.46
      P1  H  7997  8008       L1    16  1.00
      P1  H 10752 10763       L1    14  0.99

> <Gold.PLP.Chemscore.Internal.Correction>
0.0333

> <Gold.Rescore>
     Score         DG    S(hbond)    S(metal)    S(lipo)     H(rot)  DE(clash)    DE(int)     intcor
      7.68      -9.45       3.35        0.00      26.72       4.04       0.15       1.62       ----

> <Gold.Chemscore.Fitness>
7.6843

> <Gold.Chemscore.DG>
-9.4504

> <Gold.Chemscore.ZeroCoef>
-5.4800

> <Gold.Chemscore.Hbond>
3.3496

> <Gold.Chemscore.Metal>
0.0000

> <Gold.Chemscore.Lipo>
26.7174

> <Gold.Chemscore.Internal_Hbond>
0.0000

> <Gold.Chemscore.DEClash>
0.1499

> <Gold.Chemscore.DEInternal>
1.6162

> <Gold.Chemscore.Rot>
4.0403

> <Gold.Chemscore.Internal.Correction>
   9.000000E+99

> <Gold.Chemscore.Hbonds>
donor molecule, donor type, donor heavy atom, donor atom, acceptor molecule, acceptor atom, score
      L1  H    14    27       P1  7949  0.55
      P1  H  6896  6909       L1     5  0.19
      P1  H  6931  6943       L1     1  0.28
      P1  H  7989  7998       L1    12  0.44
      P1  H  7997  8008       L1    16  0.84
      P1  H 10752 10763       L1    14  0.23

> <Gold.Chemscore.Hbond.Weighted>
-11.1875

> <Gold.Chemscore.Metal.Weighted>
-0.0000

> <Gold.Chemscore.Lipo.Weighted>
-3.1259

> <Gold.Chemscore.Internal_Hbond.Weighted>
0.0000

> <Gold.Chemscore.DEClash.Weighted>
0.1499

> <Gold.Chemscore.DEInternal.Weighted>
1.6162

> <Gold.Chemscore.Rot.Weighted>
10.3431

> <Gold.Chemscore.Internal.Correction.Weighted>
   9.000000E+99

> <Gold.Protein.RotatedTorsions>
[ 6907 6896 6895 6894 ] final  109.40 input  -60.11 | X-H torsion
[ 7974 7965 7964 7962 ] final -170.96 input  175.53 | X-H torsion
[ 8008 7997 7996 7995 ] final  -17.38 input   59.86 | X-H torsion
[ 10167 10162 10161 10158 ] final  -22.25 input  -65.29 | X-H torsion
[ 10718 10713 10712 10709 ] final  113.19 input   66.30 | X-H torsion
[ 10763 10752 10751 10750 ] final   51.60 input  -60.55 | X-H torsion
[ 11005 11000 10999 10996 ] final  -15.24 input  -57.11 | X-H torsion

> <Gold.Protein.ActiveResidues>
 VAL166  LYS551  ARG553  GLY616  TRP617  ASP618  TYR619  PRO620  LYS621  CYS622 
 ASP623  PHE694  ASN695  SER759  ASP760  ASP761  ALA762  ILE779  LEU786  VAL792 
 PHE793  MET794  SER795  GLU796  ALA797  LYS798  CYS799  TRP800  GLU811  SER814 

> <Gold.Protein.RotatedAtoms>
  152.5069  133.8950  159.7412 H   0  0  0  0  0  0  0  0  0  0  0  0  # atno 6907 bound_to 6896
  150.9379  133.6681  159.2803 H   0  0  0  0  0  0  0  0  0  0  0  0  # atno 6908 bound_to 6896
  151.4003  135.0975  159.9606 H   0  0  0  0  0  0  0  0  0  0  0  0  # atno 6909 bound_to 6896
  144.7163  140.1994  143.6340 H   0  0  0  0  0  0  0  0  0  0  0  0  # atno 7974 bound_to 7965
  154.4983  140.2144  155.9401 H   0  0  0  0  0  0  0  0  0  0  0  0  # atno 8008 bound_to 7997
  156.1399  140.3181  155.8447 H   0  0  0  0  0  0  0  0  0  0  0  0  # atno 8009 bound_to 7997
  155.4139  140.0492  157.3021 H   0  0  0  0  0  0  0  0  0  0  0  0  # atno 8010 bound_to 7997
  140.7285  143.4552  151.0458 H   0  0  0  0  0  0  0  0  0  0  0  0  # atno 10167 bound_to 10162
  157.6352  131.0979  150.7004 H   0  0  0  0  0  0  0  0  0  0  0  0  # atno 10718 bound_to 10713
  152.9786  135.5840  154.4442 H   0  0  0  0  0  0  0  0  0  0  0  0  # atno 10763 bound_to 10752
  154.4039  135.2769  155.2081 H   0  0  0  0  0  0  0  0  0  0  0  0  # atno 10764 bound_to 10752
  154.3900  135.6127  153.5892 H   0  0  0  0  0  0  0  0  0  0  0  0  # atno 10765 bound_to 10752
  140.7946  133.8261  155.9412 H   0  0  0  0  0  0  0  0  0  0  0  0  # atno 11005 bound_to 11000
  145.8694  139.2264  143.1670 LP  0  0  0  0  0  0  0  0  0  0  0  0  # atno 17320 bound_to 7965
  146.0099  140.8445  142.9976 LP  0  0  0  0  0  0  0  0  0  0  0  0  # atno 17321 bound_to 7965
  139.8232  143.7791  152.3177 LP  0  0  0  0  0  0  0  0  0  0  0  0  # atno 17342 bound_to 10162
  139.7881  144.7420  150.9993 LP  0  0  0  0  0  0  0  0  0  0  0  0  # atno 17343 bound_to 10162
  156.7337  130.4717  149.5493 LP  0  0  0  0  0  0  0  0  0  0  0  0  # atno 17370 bound_to 10713
  156.1585  130.6358  151.0689 LP  0  0  0  0  0  0  0  0  0  0  0  0  # atno 17371 bound_to 10713
  140.9355  134.1967  157.4834 LP  0  0  0  0  0  0  0  0  0  0  0  0  # atno 17394 bound_to 11000
  139.8727  134.9851  156.5266 LP  0  0  0  0  0  0  0  0  0  0  0  0  # atno 17395 bound_to 11000

$$$$
