AV-unprocessed.smi:2174|AV-procd|sdf|8842|dock1
  -GOLD-   2272012 33D 1   1.00000     0.00000
 Structure written by MMmdl.
 46 47  0  0  0  0  0  0  0  0  2 V2000
  150.0307  137.9744  154.6725 C   0  0  0  0  0  0  0  0  0  0  0  0
  149.4698  139.3347  154.3714 C   0  0  0  0  0  0  0  0  0  0  0  0
  150.2804  140.3079  153.9910 N   0  0  0  0  0  0  0  0  0  0  0  0
  149.4669  141.4261  153.7837 O   0  0  0  0  0  0  0  0  0  0  0  0
  148.1822  141.0769  154.0468 C   0  0  0  0  0  0  0  0  0  0  0  0
  147.1487  142.1382  153.8745 C   0  0  0  0  0  0  0  0  0  0  0  0
  148.1123  139.7636  154.4229 C   0  0  0  0  0  0  0  0  0  0  0  0
  146.8938  138.9552  154.7976 C   0  0  0  0  0  0  0  0  0  0  0  0
  146.5435  137.9339  153.7096 C   0  0  0  0  0  0  0  0  0  0  0  0
  146.7389  138.2108  152.5270 O   0  0  0  0  0  0  0  0  0  0  0  0
  146.0545  136.7495  154.1118 N   0  0  0  0  0  0  0  0  0  0  0  0
  145.6810  135.6475  153.2306 C   0  0  0  0  0  0  0  0  0  0  0  0
  145.1742  134.4100  154.0020 C   0  0  0  0  0  0  0  0  0  0  0  0
  144.6350  133.3370  153.1216 N   0  3  0  0  0  0  0  0  0  0  0  0
  145.6814  132.3620  152.7053 C   0  0  0  0  0  0  0  0  0  0  0  0
  146.4440  132.7450  151.4227 C   0  0  0  0  0  0  0  0  0  0  0  0
  145.7834  132.1843  150.1529 C   0  0  0  0  0  0  0  0  0  0  0  0
  144.4537  132.8563  149.7853 C   0  0  0  0  0  0  0  0  0  0  0  0
  143.4145  132.8677  150.9189 C   0  0  0  0  0  0  0  0  0  0  0  0
  143.7614  133.8695  152.0369 C   0  0  0  0  0  0  0  0  0  0  0  0
  149.6214  137.5795  155.6026 H   0  0  0  0  0  0  0  0  0  0  0  0
  151.1163  137.9979  154.7742 H   0  0  0  0  0  0  0  0  0  0  0  0
  149.7863  137.2697  153.8773 H   0  0  0  0  0  0  0  0  0  0  0  0
  146.2665  141.7413  153.3714 H   0  0  0  0  0  0  0  0  0  0  0  0
  147.5318  142.9670  153.2786 H   0  0  0  0  0  0  0  0  0  0  0  0
  146.8375  142.5324  154.8421 H   0  0  0  0  0  0  0  0  0  0  0  0
  147.0522  138.4281  155.7394 H   0  0  0  0  0  0  0  0  0  0  0  0
  146.0256  139.5959  154.9545 H   0  0  0  0  0  0  0  0  0  0  0  0
  145.9110  136.6126  155.1021 H   0  0  0  0  0  0  0  0  0  0  0  0
  144.9053  136.0101  152.5561 H   0  0  0  0  0  0  0  0  0  0  0  0
  146.5257  135.3751  152.5957 H   0  0  0  0  0  0  0  0  0  0  0  0
  145.9678  134.0093  154.6340 H   0  0  0  0  0  0  0  0  0  0  0  0
  144.3877  134.7438  154.6799 H   0  0  0  0  0  0  0  0  0  0  0  0
  146.3933  132.2243  153.5198 H   0  0  0  0  0  0  0  0  0  0  0  0
  145.2167  131.3831  152.5828 H   0  0  0  0  0  0  0  0  0  0  0  0
  146.5931  133.8230  151.3508 H   0  0  0  0  0  0  0  0  0  0  0  0
  147.4435  132.3134  151.4861 H   0  0  0  0  0  0  0  0  0  0  0  0
  146.4720  132.2998  149.3152 H   0  0  0  0  0  0  0  0  0  0  0  0
  145.6316  131.1099  150.2633 H   0  0  0  0  0  0  0  0  0  0  0  0
  144.6398  133.8768  149.4477 H   0  0  0  0  0  0  0  0  0  0  0  0
  144.0324  132.3342  148.9254 H   0  0  0  0  0  0  0  0  0  0  0  0
  142.4650  133.1780  150.4811 H   0  0  0  0  0  0  0  0  0  0  0  0
  143.2388  131.8666  151.3143 H   0  0  0  0  0  0  0  0  0  0  0  0
  142.8292  134.1935  152.4999 H   0  0  0  0  0  0  0  0  0  0  0  0
  144.2063  134.7663  151.6032 H   0  0  0  0  0  0  0  0  0  0  0  0
  144.0247  132.7981  153.7194 H   0  0  0  0  0  0  0  0  0  0  0  0
  1  2  1  0  0  0  0
  1 21  1  0  0  0  0
  1 22  1  0  0  0  0
  1 23  1  0  0  0  0
  2  7  1  0  0  0  0
  2  3  2  0  0  0  0
  3  4  1  0  0  0  0
  4  5  1  0  0  0  0
  5  6  1  0  0  0  0
  5  7  2  0  0  0  0
  6 24  1  0  0  0  0
  6 25  1  0  0  0  0
  6 26  1  0  0  0  0
  7  8  1  0  0  0  0
  8  9  1  0  0  0  0
  8 27  1  0  0  0  0
  8 28  1  0  0  0  0
  9 10  2  0  0  0  0
  9 11  1  0  0  0  0
 11 12  1  0  0  0  0
 11 29  1  0  0  0  0
 12 13  1  0  0  0  0
 12 30  1  0  0  0  0
 12 31  1  0  0  0  0
 13 14  1  0  0  0  0
 13 32  1  0  0  0  0
 13 33  1  0  0  0  0
 14 20  1  0  0  0  0
 14 15  1  0  0  0  0
 14 46  1  0  0  0  0
 15 16  1  0  0  0  0
 15 34  1  0  0  0  0
 15 35  1  0  0  0  0
 16 17  1  0  0  0  0
 16 36  1  0  0  0  0
 16 37  1  0  0  0  0
 17 18  1  0  0  0  0
 17 38  1  0  0  0  0
 17 39  1  0  0  0  0
 18 19  1  0  0  0  0
 18 40  1  0  0  0  0
 18 41  1  0  0  0  0
 19 20  1  0  0  0  0
 19 42  1  0  0  0  0
 19 43  1  0  0  0  0
 20 44  1  0  0  0  0
 20 45  1  0  0  0  0
M  CHG  1  14   1
M  END
> <s_m_source_file>
AV-unprocessed.smi

> <i_m_source_file_index>
2174

> <i_lp_mmshare_version>
43012

> <i_f3d_flags>
0

> <s_epik_input>
W0NIM11jMW5vYyhbQ0gzXSljMVtDSDJdQyg9TylbTkhdW0NIMl1bQ0gyXU4yW0NIMl1bQ0gyXVtDSDJdW0NIMl1bQ0gyXVtDSDJdMg==

> <s_epik_cmdline>
J2VwaWtfcHl0aG9uJywgJy1waCcsICc3LjAnLCAnLXRuJywgJzgnLCAnLW1hJywgJzIwMCcsICctbWV0YWxfYmluZGluZycsICctaW1hZScsICc8aW5maWxlLm1hZT4nLCAnLW9tYWUnLCAnPG91dGZpbGUubWFlPic=

> <r_epik_Ionization_Penalty>
0.0024041

> <r_epik_Ionization_Penalty_Charging>
0.00240401

> <r_epik_Ionization_Penalty_Neutral>
9.67143e-08

> <r_epik_State_Penalty>
0.00166275

> <r_epik_Charging_Adjusted_Penalty>
0.00406676

> <i_epik_Tot_Q>
1

> <i_epik_Tot_abs_Q>
1

> <r_epik_Metal_State_Penalty>
-0

> <b_epik_Metal_Only>
0

> <s_lp_Force_Field>
OPLS_2005

> <r_lp_Energy>
23.9456

> <b_lp_Chiralities_Consistent>
1

> <s_lp_Variant>
AV-unprocessed.smi:2174-1

> <Gold.Version>
5.8.1

> <Gold.Id.Protein>
6NUR|6NUR_protein|mol2

> <Gold.PLP.Fitness>
42.0816

> <Gold.PLP.PLP>
-33.0740

> <Gold.PLP.part.hbond>
-3.9637

> <Gold.PLP.part.metal>
0.0000

> <Gold.PLP.part.buried>
-6.7117

> <Gold.PLP.part.nonpolar>
-24.1105

> <Gold.PLP.part.repulsive>
2.1271

> <Gold.PLP.ligand.clash>
0.0000

> <Gold.PLP.ligand.torsion>
0.7344

> <Gold.PLP.Chemscore.Hbond>
3.4560

> <Gold.PLP.Chemscore.CHOScore>
0.0000

> <Gold.PLP.Chemscore.Metal>
0.0000

> <Gold.Chemscore.Hbonds>
donor molecule, donor type, donor heavy atom, donor atom, acceptor molecule, acceptor atom, score
      L1  H    14    46       P1 10957  2.00
      P1  H  7989  7998       L1     3  0.84
      P1  H  8011  8017       L1     4  0.78

> <Gold.PLP.Chemscore.Internal.Correction>
0.1084

> <Gold.Rescore>
     Score         DG    S(hbond)    S(metal)    S(lipo)     H(rot)  DE(clash)    DE(int)     intcor
     15.42     -16.42       1.77        0.00      79.74       1.69       0.19       0.82       ----

> <Gold.Chemscore.Fitness>
15.4170

> <Gold.Chemscore.DG>
-16.4190

> <Gold.Chemscore.ZeroCoef>
-5.4800

> <Gold.Chemscore.Hbond>
1.7746

> <Gold.Chemscore.Metal>
0.0000

> <Gold.Chemscore.Lipo>
79.7360

> <Gold.Chemscore.Internal_Hbond>
0.0000

> <Gold.Chemscore.DEClash>
0.1865

> <Gold.Chemscore.DEInternal>
0.8155

> <Gold.Chemscore.Rot>
1.6865

> <Gold.Chemscore.Internal.Correction>
   9.000000E+99

> <Gold.Chemscore.Hbonds>
donor molecule, donor type, donor heavy atom, donor atom, acceptor molecule, acceptor atom, score
      L1  H    14    46       P1 10957  0.75
      P1  H  7989  7998       L1     3  0.17
      P1  H  8011  8017       L1     4  0.71

> <Gold.Chemscore.Hbond.Weighted>
-5.9272

> <Gold.Chemscore.Metal.Weighted>
-0.0000

> <Gold.Chemscore.Lipo.Weighted>
-9.3291

> <Gold.Chemscore.Internal_Hbond.Weighted>
0.0000

> <Gold.Chemscore.DEClash.Weighted>
0.1865

> <Gold.Chemscore.DEInternal.Weighted>
0.8155

> <Gold.Chemscore.Rot.Weighted>
4.3174

> <Gold.Chemscore.Internal.Correction.Weighted>
   9.000000E+99

> <Gold.Protein.RotatedTorsions>
[ 6907 6896 6895 6894 ] final   22.67 input  -60.11 | X-H torsion
[ 7974 7965 7964 7962 ] final  153.03 input  175.53 | X-H torsion
[ 8008 7997 7996 7995 ] final    0.91 input   59.86 | X-H torsion
[ 10167 10162 10161 10158 ] final  110.24 input  -65.29 | X-H torsion
[ 10718 10713 10712 10709 ] final   47.52 input   66.30 | X-H torsion
[ 10763 10752 10751 10750 ] final -176.62 input  -60.55 | X-H torsion
[ 11005 11000 10999 10996 ] final  164.59 input  -57.11 | X-H torsion

> <Gold.Protein.ActiveResidues>
 VAL166  LYS551  ARG553  GLY616  TRP617  ASP618  TYR619  PRO620  LYS621  CYS622 
 ASP623  PHE694  ASN695  SER759  ASP760  ASP761  ALA762  ILE779  LEU786  VAL792 
 PHE793  MET794  SER795  GLU796  ALA797  LYS798  CYS799  TRP800  GLU811  SER814 

> <Gold.Protein.RotatedAtoms>
  151.9306  135.0258  160.0528 H   0  0  0  0  0  0  0  0  0  0  0  0  # atno 6907 bound_to 6896
  152.2122  133.4915  159.5124 H   0  0  0  0  0  0  0  0  0  0  0  0  # atno 6908 bound_to 6896
  150.6979  134.1370  159.4133 H   0  0  0  0  0  0  0  0  0  0  0  0  # atno 6909 bound_to 6896
  144.8182  139.6747  143.6112 H   0  0  0  0  0  0  0  0  0  0  0  0  # atno 7974 bound_to 7965
  154.6736  140.2617  155.6981 H   0  0  0  0  0  0  0  0  0  0  0  0  # atno 8008 bound_to 7997
  156.2669  140.2824  156.1176 H   0  0  0  0  0  0  0  0  0  0  0  0  # atno 8009 bound_to 7997
  155.1133  140.0376  157.2720 H   0  0  0  0  0  0  0  0  0  0  0  0  # atno 8010 bound_to 7997
  139.6704  144.7125  151.1698 H   0  0  0  0  0  0  0  0  0  0  0  0  # atno 10167 bound_to 10162
  157.4593  130.8187  149.7870 H   0  0  0  0  0  0  0  0  0  0  0  0  # atno 10718 bound_to 10713
  154.5702  135.2827  155.0835 H   0  0  0  0  0  0  0  0  0  0  0  0  # atno 10763 bound_to 10752
  154.2210  135.6391  153.5148 H   0  0  0  0  0  0  0  0  0  0  0  0  # atno 10764 bound_to 10752
  153.0055  135.5514  154.6323 H   0  0  0  0  0  0  0  0  0  0  0  0  # atno 10765 bound_to 10752
  140.2475  134.8003  157.3470 H   0  0  0  0  0  0  0  0  0  0  0  0  # atno 11005 bound_to 11000
  146.2486  139.6151  142.9442 LP  0  0  0  0  0  0  0  0  0  0  0  0  # atno 17320 bound_to 7965
  145.5166  141.0433  143.2458 LP  0  0  0  0  0  0  0  0  0  0  0  0  # atno 17321 bound_to 7965
  140.7616  143.5853  150.8852 LP  0  0  0  0  0  0  0  0  0  0  0  0  # atno 17342 bound_to 10162
  139.9518  143.6263  152.3027 LP  0  0  0  0  0  0  0  0  0  0  0  0  # atno 17343 bound_to 10162
  156.0021  130.3874  150.2565 LP  0  0  0  0  0  0  0  0  0  0  0  0  # atno 17370 bound_to 10713
  157.0741  131.0125  151.3180 LP  0  0  0  0  0  0  0  0  0  0  0  0  # atno 17371 bound_to 10713
  140.1591  134.4751  155.7907 LP  0  0  0  0  0  0  0  0  0  0  0  0  # atno 17394 bound_to 11000
  141.2205  133.6894  156.7513 LP  0  0  0  0  0  0  0  0  0  0  0  0  # atno 17395 bound_to 11000

$$$$
