AV-unprocessed.smi:741|AV-procd|sdf|3554|dock3
  -GOLD-   22720 0553D 1   1.00000     0.00000
 Structure written by MMmdl.
 42 43  0  0  0  0  0  0  0  0  2 V2000
  147.1705  140.7646  153.4063 C   0  0  0  0  0  0  0  0  0  0  0  0
  146.9727  139.5134  152.5382 C   0  0  0  0  0  0  0  0  0  0  0  0
  146.5800  138.2569  153.3392 C   0  0  2  0  0  0  0  0  0  0  0  0
  147.4062  138.1456  154.6403 C   0  0  0  0  0  0  0  0  0  0  0  0
  148.8525  137.9329  154.3901 N   0  3  0  0  0  0  0  0  0  0  0  0
  149.6728  139.1659  154.4187 C   0  0  0  0  0  0  0  0  0  0  0  0
  151.0159  138.7936  155.0642 C   0  0  0  0  0  0  0  0  0  0  0  0
  150.9932  137.2711  155.1741 C   0  0  0  0  0  0  0  0  0  0  0  0
  149.5064  136.9538  155.2823 C   0  0  0  0  0  0  0  0  0  0  0  0
  146.7587  137.0649  152.5063 N   0  0  0  0  0  0  0  0  0  0  0  0
  145.8189  136.1518  152.2195 C   0  0  0  0  0  0  0  0  0  0  0  0
  144.6754  136.1944  152.6710 O   0  0  0  0  0  0  0  0  0  0  0  0
  146.3047  135.1929  151.4123 N   0  0  0  0  0  0  0  0  0  0  0  0
  145.6440  134.0461  150.8930 C   0  0  0  0  0  0  0  0  0  0  0  0
  146.4324  132.9150  150.5958 C   0  0  0  0  0  0  0  0  0  0  0  0
  145.8053  131.7689  150.0678 C   0  0  0  0  0  0  0  0  0  0  0  0
  144.4808  131.6962  149.8203 N   0  0  0  0  0  0  0  0  0  0  0  0
  143.7297  132.7844  150.0906 C   0  0  0  0  0  0  0  0  0  0  0  0
  144.2561  133.9794  150.6209 C   0  0  0  0  0  0  0  0  0  0  0  0
  147.4935  141.6095  152.7976 H   0  0  0  0  0  0  0  0  0  0  0  0
  147.9306  140.5971  154.1698 H   0  0  0  0  0  0  0  0  0  0  0  0
  146.2482  141.0565  153.9088 H   0  0  0  0  0  0  0  0  0  0  0  0
  146.2190  139.7188  151.7769 H   0  0  0  0  0  0  0  0  0  0  0  0
  147.9006  139.3189  151.9992 H   0  0  0  0  0  0  0  0  0  0  0  0
  145.5257  138.3623  153.6018 H   0  0  0  0  0  0  0  0  0  0  0  0
  147.2805  139.0678  155.2102 H   0  0  0  0  0  0  0  0  0  0  0  0
  147.0267  137.3419  155.2730 H   0  0  0  0  0  0  0  0  0  0  0  0
  149.8055  139.5318  153.4002 H   0  0  0  0  0  0  0  0  0  0  0  0
  149.1881  139.9554  154.9956 H   0  0  0  0  0  0  0  0  0  0  0  0
  151.8706  139.1540  154.4909 H   0  0  0  0  0  0  0  0  0  0  0  0
  151.0775  139.2328  156.0606 H   0  0  0  0  0  0  0  0  0  0  0  0
  151.4003  136.8266  154.2647 H   0  0  0  0  0  0  0  0  0  0  0  0
  151.5705  136.8975  156.0202 H   0  0  0  0  0  0  0  0  0  0  0  0
  149.1728  137.1055  156.3101 H   0  0  0  0  0  0  0  0  0  0  0  0
  149.2804  135.9250  155.0035 H   0  0  0  0  0  0  0  0  0  0  0  0
  147.6718  136.9419  152.0928 H   0  0  0  0  0  0  0  0  0  0  0  0
  147.2856  135.2620  151.1833 H   0  0  0  0  0  0  0  0  0  0  0  0
  147.4984  132.9178  150.7710 H   0  0  0  0  0  0  0  0  0  0  0  0
  146.3845  130.8872  149.8363 H   0  0  0  0  0  0  0  0  0  0  0  0
  142.6753  132.7035  149.8717 H   0  0  0  0  0  0  0  0  0  0  0  0
  143.5915  134.8120  150.7917 H   0  0  0  0  0  0  0  0  0  0  0  0
  148.9432  137.5654  153.4534 H   0  0  0  0  0  0  0  0  0  0  0  0
  1  2  1  0  0  0  0
  1 20  1  0  0  0  0
  1 21  1  0  0  0  0
  1 22  1  0  0  0  0
  2  3  1  0  0  0  0
  2 23  1  0  0  0  0
  2 24  1  0  0  0  0
  3  4  1  0  0  0  0
  3 10  1  0  0  0  0
  3 25  1  0  0  0  0
  4  5  1  0  0  0  0
  4 26  1  0  0  0  0
  4 27  1  0  0  0  0
  5  9  1  0  0  0  0
  5  6  1  0  0  0  0
  5 42  1  0  0  0  0
  6  7  1  0  0  0  0
  6 28  1  0  0  0  0
  6 29  1  0  0  0  0
  7  8  1  0  0  0  0
  7 30  1  0  0  0  0
  7 31  1  0  0  0  0
  8  9  1  0  0  0  0
  8 32  1  0  0  0  0
  8 33  1  0  0  0  0
  9 34  1  0  0  0  0
  9 35  1  0  0  0  0
 10 11  1  0  0  0  0
 10 36  1  0  0  0  0
 11 12  2  0  0  0  0
 11 13  1  0  0  0  0
 13 14  1  0  0  0  0
 13 37  1  0  0  0  0
 14 19  1  0  0  0  0
 14 15  2  0  0  0  0
 15 16  1  0  0  0  0
 15 38  1  0  0  0  0
 16 17  2  0  0  0  0
 16 39  1  0  0  0  0
 17 18  1  0  0  0  0
 18 19  2  0  0  0  0
 18 40  1  0  0  0  0
 19 41  1  0  0  0  0
M  CHG  1   5   1
M  END
> <s_m_source_file>
AV-unprocessed.smi

> <i_m_source_file_index>
741

> <i_lp_mmshare_version>
43012

> <i_f3d_flags>
0

> <s_epik_input>
W0NIMl0xW0NIMl1bQ0gyXVtDSDJdTjFbQ0gyXVtDQEBIXShbQ0gyXVtDSDNdKVtOSF1DKD1PKVtOSF1jMltjSF1bY0hdbltjSF1bY0hdMg==

> <s_epik_cmdline>
J2VwaWtfcHl0aG9uJywgJy1waCcsICc3LjAnLCAnLXRuJywgJzgnLCAnLW1hJywgJzIwMCcsICctbWV0YWxfYmluZGluZycsICctaW1hZScsICc8aW5maWxlLm1hZT4nLCAnLW9tYWUnLCAnPG91dGZpbGUubWFlPic=

> <r_epik_Ionization_Penalty>
0.101421

> <r_epik_Ionization_Penalty_Charging>
0.00180027

> <r_epik_Ionization_Penalty_Neutral>
0.0996204

> <r_epik_State_Penalty>
0.0910414

> <r_epik_Charging_Adjusted_Penalty>
0.0928416

> <i_epik_Tot_Q>
1

> <i_epik_Tot_abs_Q>
1

> <r_epik_Metal_State_Penalty>
0.076772

> <b_epik_Metal_Only>
0

> <s_lp_Force_Field>
OPLS_2005

> <r_lp_Energy>
40.6164

> <b_lp_Chiralities_Consistent>
1

> <s_lp_Variant>
AV-unprocessed.smi:741-1

> <Gold.Version>
5.8.1

> <Gold.Id.Protein>
6NUR|6NUR_protein|mol2

> <Gold.PLP.Fitness>
49.6632

> <Gold.PLP.PLP>
-34.7237

> <Gold.PLP.part.hbond>
-3.5642

> <Gold.PLP.part.metal>
0.0000

> <Gold.PLP.part.buried>
-1.4917

> <Gold.PLP.part.nonpolar>
-30.2414

> <Gold.PLP.part.repulsive>
0.4083

> <Gold.PLP.ligand.clash>
0.0000

> <Gold.PLP.ligand.torsion>
0.8825

> <Gold.PLP.Chemscore.Hbond>
3.7312

> <Gold.PLP.Chemscore.CHOScore>
1.7997

> <Gold.PLP.Chemscore.Metal>
0.0000

> <Gold.Chemscore.Hbonds>
donor molecule, donor type, donor heavy atom, donor atom, acceptor molecule, acceptor atom, score
      L1  H     5    42       P1  7948  1.85
      L1  H    10    36       P1  7948  0.84
      L1  H    13    37       P1  7948  0.82
      P1  H 10785 10796       L1    17  0.20
      L1  C    16    39       P1 10747  0.66
      L1  C    18    40       P1 10186  1.00

> <Gold.PLP.Chemscore.Internal.Correction>
0.1117

> <Gold.Rescore>
     Score         DG    S(hbond)    S(metal)    S(lipo)     H(rot)  DE(clash)    DE(int)     intcor
     19.98     -20.94       2.64        0.00      91.54       1.59       0.22       0.74       ----

> <Gold.Chemscore.Fitness>
19.9813

> <Gold.Chemscore.DG>
-20.9422

> <Gold.Chemscore.ZeroCoef>
-5.4800

> <Gold.Chemscore.Hbond>
2.6381

> <Gold.Chemscore.Metal>
0.0000

> <Gold.Chemscore.Lipo>
91.5436

> <Gold.Chemscore.Internal_Hbond>
0.0000

> <Gold.Chemscore.DEClash>
0.2174

> <Gold.Chemscore.DEInternal>
0.7435

> <Gold.Chemscore.Rot>
1.5858

> <Gold.Chemscore.Internal.Correction>
   9.000000E+99

> <Gold.Chemscore.Hbonds>
donor molecule, donor type, donor heavy atom, donor atom, acceptor molecule, acceptor atom, score
      L1  H     5    42       P1  7948  0.88
      L1  H    10    36       P1  7948  0.81
      L1  H    13    37       P1  7948  0.51
      P1  H 10785 10796       L1    17  0.15

> <Gold.Chemscore.Hbond.Weighted>
-8.8112

> <Gold.Chemscore.Metal.Weighted>
-0.0000

> <Gold.Chemscore.Lipo.Weighted>
-10.7106

> <Gold.Chemscore.Internal_Hbond.Weighted>
0.0000

> <Gold.Chemscore.DEClash.Weighted>
0.2174

> <Gold.Chemscore.DEInternal.Weighted>
0.7435

> <Gold.Chemscore.Rot.Weighted>
4.0596

> <Gold.Chemscore.Internal.Correction.Weighted>
   9.000000E+99

> <Gold.Protein.RotatedTorsions>
[ 6907 6896 6895 6894 ] final -121.89 input  -60.11 | X-H torsion
[ 7974 7965 7964 7962 ] final  152.34 input  175.53 | X-H torsion
[ 8008 7997 7996 7995 ] final  146.88 input   59.86 | X-H torsion
[ 10167 10162 10161 10158 ] final  -76.70 input  -65.29 | X-H torsion
[ 10718 10713 10712 10709 ] final  -17.61 input   66.30 | X-H torsion
[ 10763 10752 10751 10750 ] final  158.22 input  -60.55 | X-H torsion
[ 11005 11000 10999 10996 ] final -121.05 input  -57.11 | X-H torsion

> <Gold.Protein.ActiveResidues>
 VAL166  LYS551  ARG553  GLY616  TRP617  ASP618  TYR619  PRO620  LYS621  CYS622 
 ASP623  PHE694  ASN695  SER759  ASP760  ASP761  ALA762  ILE779  LEU786  VAL792 
 PHE793  MET794  SER795  GLU796  ALA797  LYS798  CYS799  TRP800  GLU811  SER814 

> <Gold.Protein.RotatedAtoms>
  150.8525  133.7765  159.3020 H   0  0  0  0  0  0  0  0  0  0  0  0  # atno 6907 bound_to 6896
  151.5433  135.1066  159.9941 H   0  0  0  0  0  0  0  0  0  0  0  0  # atno 6908 bound_to 6896
  152.4564  133.7688  159.6843 H   0  0  0  0  0  0  0  0  0  0  0  0  # atno 6909 bound_to 6896
  144.8229  139.6655  143.6092 H   0  0  0  0  0  0  0  0  0  0  0  0  # atno 7974 bound_to 7965
  156.2842  140.2170  156.5447 H   0  0  0  0  0  0  0  0  0  0  0  0  # atno 8008 bound_to 7997
  154.7340  140.0493  157.0774 H   0  0  0  0  0  0  0  0  0  0  0  0  # atno 8009 bound_to 7997
  155.0316  140.3135  155.4759 H   0  0  0  0  0  0  0  0  0  0  0  0  # atno 8010 bound_to 7997
  140.4834  143.2397  151.8022 H   0  0  0  0  0  0  0  0  0  0  0  0  # atno 10167 bound_to 10162
  156.5711  130.4750  149.6362 H   0  0  0  0  0  0  0  0  0  0  0  0  # atno 10718 bound_to 10713
  154.2126  135.2785  155.2953 H   0  0  0  0  0  0  0  0  0  0  0  0  # atno 10763 bound_to 10752
  154.5766  135.5602  153.7148 H   0  0  0  0  0  0  0  0  0  0  0  0  # atno 10764 bound_to 10752
  153.0060  135.6334  154.2266 H   0  0  0  0  0  0  0  0  0  0  0  0  # atno 10765 bound_to 10752
  141.0099  134.0280  157.3428 H   0  0  0  0  0  0  0  0  0  0  0  0  # atno 11005 bound_to 11000
  146.2535  139.6251  142.9411 LP  0  0  0  0  0  0  0  0  0  0  0  0  # atno 17320 bound_to 7965
  145.5064  141.0436  143.2512 LP  0  0  0  0  0  0  0  0  0  0  0  0  # atno 17321 bound_to 7965
  139.4837  144.4743  151.9386 LP  0  0  0  0  0  0  0  0  0  0  0  0  # atno 17342 bound_to 10162
  140.3829  144.2713  150.5907 LP  0  0  0  0  0  0  0  0  0  0  0  0  # atno 17343 bound_to 10162
  156.2713  130.7019  151.1817 LP  0  0  0  0  0  0  0  0  0  0  0  0  # atno 17370 bound_to 10713
  157.7348  131.0578  150.5506 LP  0  0  0  0  0  0  0  0  0  0  0  0  # atno 17371 bound_to 10713
  139.9084  135.0185  156.7585 LP  0  0  0  0  0  0  0  0  0  0  0  0  # atno 17394 bound_to 11000
  140.6751  133.9524  155.7878 LP  0  0  0  0  0  0  0  0  0  0  0  0  # atno 17395 bound_to 11000

$$$$
