AV-unprocessed.smi:444|AV-procd|sdf|2587|dock6
  -GOLD-   2262022583D 1   1.00000     0.00000
 Structure written by MMmdl.
 45 46  0  0  0  0  0  0  0  0  1 V2000
  145.8955  143.7526  159.4398 C   0  0  0  0  0  0  0  0  0  0  0  0
  146.0763  143.3029  158.0045 C   0  0  0  0  0  0  0  0  0  0  0  0
  145.2741  143.8472  156.9833 C   0  0  0  0  0  0  0  0  0  0  0  0
  145.4496  143.4261  155.6530 C   0  0  0  0  0  0  0  0  0  0  0  0
  146.4267  142.4599  155.3352 C   0  0  0  0  0  0  0  0  0  0  0  0
  146.6023  142.0173  153.8947 C   0  0  0  0  0  0  0  0  0  0  0  0
  147.2399  141.9054  156.3508 C   0  0  0  0  0  0  0  0  0  0  0  0
  148.1766  140.9654  155.9722 O   0  0  0  0  0  0  0  0  0  0  0  0
  149.2547  140.6853  156.8555 C   0  0  0  0  0  0  0  0  0  0  0  0
  150.5745  141.0736  156.1664 C   0  0  2  0  0  0  0  0  0  0  0  0
  150.5590  140.4759  154.8845 O   0  0  0  0  0  0  0  0  0  0  0  0
  151.8046  140.5376  156.9327 C   0  0  0  0  0  0  0  0  0  0  0  0
  152.0940  141.3348  158.1315 N   0  0  0  0  0  0  0  0  0  0  0  0
  151.3425  142.4898  158.2337 N   0  0  0  0  0  0  0  0  0  0  0  0
  151.4840  143.2994  159.2312 C   0  0  0  0  0  0  0  0  0  0  0  0
  150.6126  144.5265  159.2353 C   0  0  0  0  0  0  0  0  0  0  0  0
  152.4541  142.9939  160.2778 C   0  0  0  0  0  0  0  0  0  0  0  0
  152.5747  143.9806  161.4311 C   0  0  0  0  0  0  0  0  0  0  0  0
  153.1918  141.8615  160.1616 C   0  0  0  0  0  0  0  0  0  0  0  0
  154.1685  141.4842  161.1319 C   0  0  0  0  0  0  0  0  0  0  0  0
  154.9650  141.1981  161.9217 N   0  0  0  0  0  0  0  0  0  0  0  0
  153.0412  140.9433  159.0305 C   0  0  0  0  0  0  0  0  0  0  0  0
  153.7038  139.9145  158.8906 O   0  0  0  0  0  0  0  0  0  0  0  0
  147.0546  142.3385  157.6889 C   0  0  0  0  0  0  0  0  0  0  0  0
  144.9449  144.2694  159.5757 H   0  0  0  0  0  0  0  0  0  0  0  0
  146.6990  144.4319  159.7251 H   0  0  0  0  0  0  0  0  0  0  0  0
  145.9134  142.8959  160.1140 H   0  0  0  0  0  0  0  0  0  0  0  0
  144.5229  144.5880  157.2154 H   0  0  0  0  0  0  0  0  0  0  0  0
  144.8293  143.8493  154.8763 H   0  0  0  0  0  0  0  0  0  0  0  0
  146.4512  140.9408  153.8078 H   0  0  0  0  0  0  0  0  0  0  0  0
  147.6087  142.2528  153.5472 H   0  0  0  0  0  0  0  0  0  0  0  0
  145.8907  142.5134  153.2337 H   0  0  0  0  0  0  0  0  0  0  0  0
  149.1194  141.2908  157.7530 H   0  0  0  0  0  0  0  0  0  0  0  0
  149.2686  139.6367  157.1591 H   0  0  0  0  0  0  0  0  0  0  0  0
  150.6312  142.1593  156.0743 H   0  0  0  0  0  0  0  0  0  0  0  0
  149.6613  140.3081  154.6410 H   0  0  0  0  0  0  0  0  0  0  0  0
  151.6090  139.5154  157.2620 H   0  0  0  0  0  0  0  0  0  0  0  0
  152.6725  140.4509  156.2758 H   0  0  0  0  0  0  0  0  0  0  0  0
  151.2167  145.4315  159.3052 H   0  0  0  0  0  0  0  0  0  0  0  0
  149.9267  144.5101  160.0825 H   0  0  0  0  0  0  0  0  0  0  0  0
  150.0126  144.6024  158.3269 H   0  0  0  0  0  0  0  0  0  0  0  0
  153.2652  143.6347  162.1998 H   0  0  0  0  0  0  0  0  0  0  0  0
  151.6069  144.1343  161.9099 H   0  0  0  0  0  0  0  0  0  0  0  0
  152.9378  144.9439  161.0712 H   0  0  0  0  0  0  0  0  0  0  0  0
  147.6544  141.9437  158.4946 H   0  0  0  0  0  0  0  0  0  0  0  0
  1  2  1  0  0  0  0
  1 25  1  0  0  0  0
  1 26  1  0  0  0  0
  1 27  1  0  0  0  0
  2 24  1  0  0  0  0
  2  3  2  0  0  0  0
  3  4  1  0  0  0  0
  3 28  1  0  0  0  0
  4  5  2  0  0  0  0
  4 29  1  0  0  0  0
  5  6  1  0  0  0  0
  5  7  1  0  0  0  0
  6 30  1  0  0  0  0
  6 31  1  0  0  0  0
  6 32  1  0  0  0  0
  7  8  1  0  0  0  0
  7 24  2  0  0  0  0
  8  9  1  0  0  0  0
  9 10  1  0  0  0  0
  9 33  1  0  0  0  0
  9 34  1  0  0  0  0
 10 11  1  0  0  0  0
 10 12  1  0  0  0  0
 10 35  1  0  0  0  0
 11 36  1  0  0  0  0
 12 13  1  0  0  0  0
 12 37  1  0  0  0  0
 12 38  1  0  0  0  0
 13 22  1  0  0  0  0
 13 14  1  0  0  0  0
 14 15  2  0  0  0  0
 15 16  1  0  0  0  0
 15 17  1  0  0  0  0
 16 39  1  0  0  0  0
 16 40  1  0  0  0  0
 16 41  1  0  0  0  0
 17 18  1  0  0  0  0
 17 19  2  0  0  0  0
 18 42  1  0  0  0  0
 18 43  1  0  0  0  0
 18 44  1  0  0  0  0
 19 20  1  0  0  0  0
 19 22  1  0  0  0  0
 20 21  3  0  0  0  0
 22 23  2  0  0  0  0
 24 45  1  0  0  0  0
M  END
> <s_m_source_file>
AV-unprocessed.smi

> <i_m_source_file_index>
444

> <i_lp_mmshare_version>
43012

> <i_f3d_flags>
0

> <s_epik_input>
W0NIM11jMVtjSF1bY0hdYyhbQ0gzXSljKFtjSF0xKU9bQ0gyXVtDQEhdKFtPSF0pW0NIMl1uMm5jKFtDSDNdKWMoW0NIM10pYyhDI04pYzI9Tw==

> <s_epik_cmdline>
J2VwaWtfcHl0aG9uJywgJy1waCcsICc3LjAnLCAnLXRuJywgJzgnLCAnLW1hJywgJzIwMCcsICctbWV0YWxfYmluZGluZycsICctaW1hZScsICc8aW5maWxlLm1hZT4nLCAnLW9tYWUnLCAnPG91dGZpbGUubWFlPic=

> <r_lp_tautomer_probability>
1

> <r_epik_Ionization_Penalty>
1.17331e-07

> <r_epik_Ionization_Penalty_Charging>
1.57223e-10

> <r_epik_Ionization_Penalty_Neutral>
1.17174e-07

> <r_epik_State_Penalty>
-0

> <r_epik_Charging_Adjusted_Penalty>
1.57223e-10

> <i_epik_Tot_Q>
0

> <i_epik_Tot_abs_Q>
0

> <r_epik_Metal_State_Penalty>
-0

> <b_epik_Metal_Only>
0

> <s_lp_Force_Field>
OPLS_2005

> <r_lp_Energy>
32.4723

> <b_lp_Chiralities_Consistent>
1

> <s_lp_Variant>
AV-unprocessed.smi:444-1

> <Gold.Version>
5.8.1

> <Gold.Id.Protein>
6NUR|6NUR_protein|mol2

> <Gold.PLP.Fitness>
49.7126

> <Gold.PLP.PLP>
-45.4290

> <Gold.PLP.part.hbond>
-3.0000

> <Gold.PLP.part.metal>
0.0000

> <Gold.PLP.part.buried>
-7.3965

> <Gold.PLP.part.nonpolar>
-34.0912

> <Gold.PLP.part.repulsive>
0.0964

> <Gold.PLP.ligand.clash>
0.0000

> <Gold.PLP.ligand.torsion>
0.8647

> <Gold.PLP.Chemscore.Hbond>
2.0000

> <Gold.PLP.Chemscore.CHOScore>
0.0000

> <Gold.PLP.Chemscore.Metal>
0.0000

> <Gold.Chemscore.Hbonds>
donor molecule, donor type, donor heavy atom, donor atom, acceptor molecule, acceptor atom, score
      P1  H  7989  7998       L1    11  1.00
      P1  H  7997  8008       L1    23  1.00

> <Gold.PLP.Chemscore.Internal.Correction>
0.0129

> <Gold.Rescore>
     Score         DG    S(hbond)    S(metal)    S(lipo)     H(rot)  DE(clash)    DE(int)     intcor
     14.56     -15.61       1.67        0.00      89.06       2.29       0.24       0.81       ----

> <Gold.Chemscore.Fitness>
14.5636

> <Gold.Chemscore.DG>
-15.6113

> <Gold.Chemscore.ZeroCoef>
-5.4800

> <Gold.Chemscore.Hbond>
1.6692

> <Gold.Chemscore.Metal>
0.0000

> <Gold.Chemscore.Lipo>
89.0577

> <Gold.Chemscore.Internal_Hbond>
0.0000

> <Gold.Chemscore.DEClash>
0.2386

> <Gold.Chemscore.DEInternal>
0.8091

> <Gold.Chemscore.Rot>
2.2905

> <Gold.Chemscore.Internal.Correction>
   9.000000E+99

> <Gold.Chemscore.Hbonds>
donor molecule, donor type, donor heavy atom, donor atom, acceptor molecule, acceptor atom, score
      P1  H  7989  7998       L1    11  0.85
      P1  H  7997  8008       L1    23  0.72

> <Gold.Chemscore.Hbond.Weighted>
-5.5751

> <Gold.Chemscore.Metal.Weighted>
-0.0000

> <Gold.Chemscore.Lipo.Weighted>
-10.4197

> <Gold.Chemscore.Internal_Hbond.Weighted>
0.0000

> <Gold.Chemscore.DEClash.Weighted>
0.2386

> <Gold.Chemscore.DEInternal.Weighted>
0.8091

> <Gold.Chemscore.Rot.Weighted>
5.8636

> <Gold.Chemscore.Internal.Correction.Weighted>
   9.000000E+99

> <Gold.Protein.RotatedTorsions>
[ 6907 6896 6895 6894 ] final  -80.83 input  -60.11 | X-H torsion
[ 7974 7965 7964 7962 ] final -154.10 input  175.53 | X-H torsion
[ 8008 7997 7996 7995 ] final -107.96 input   59.86 | X-H torsion
[ 10167 10162 10161 10158 ] final   -5.58 input  -65.29 | X-H torsion
[ 10718 10713 10712 10709 ] final   81.12 input   66.30 | X-H torsion
[ 10763 10752 10751 10750 ] final   86.71 input  -60.55 | X-H torsion
[ 11005 11000 10999 10996 ] final   24.79 input  -57.11 | X-H torsion

> <Gold.Protein.ActiveResidues>
 VAL166  LYS551  ARG553  GLY616  TRP617  ASP618  TYR619  PRO620  LYS621  CYS622 
 ASP623  PHE694  ASN695  SER759  ASP760  ASP761  ALA762  ILE779  LEU786  VAL792 
 PHE793  MET794  SER795  GLU796  ALA797  LYS798  CYS799  TRP800  GLU811  SER814 

> <Gold.Protein.RotatedAtoms>
  150.6922  134.3911  159.5076 H   0  0  0  0  0  0  0  0  0  0  0  0  # atno 6907 bound_to 6896
  152.1699  134.8840  160.0544 H   0  0  0  0  0  0  0  0  0  0  0  0  # atno 6908 bound_to 6896
  151.9870  133.3743  159.4166 H   0  0  0  0  0  0  0  0  0  0  0  0  # atno 6909 bound_to 6896
  144.7706  140.4435  143.5909 H   0  0  0  0  0  0  0  0  0  0  0  0  # atno 7974 bound_to 7965
  154.9372  140.0403  157.2078 H   0  0  0  0  0  0  0  0  0  0  0  0  # atno 8008 bound_to 7997
  154.8104  140.2867  155.5835 H   0  0  0  0  0  0  0  0  0  0  0  0  # atno 8009 bound_to 7997
  156.2971  140.2538  156.2991 H   0  0  0  0  0  0  0  0  0  0  0  0  # atno 8010 bound_to 7997
  140.6968  143.6292  150.8538 H   0  0  0  0  0  0  0  0  0  0  0  0  # atno 10167 bound_to 10162
  157.6824  130.9990  150.2180 H   0  0  0  0  0  0  0  0  0  0  0  0  # atno 10718 bound_to 10713
  153.1597  135.4570  154.9755 H   0  0  0  0  0  0  0  0  0  0  0  0  # atno 10763 bound_to 10752
  154.7888  135.3213  154.7827 H   0  0  0  0  0  0  0  0  0  0  0  0  # atno 10764 bound_to 10752
  153.8319  135.6938  153.4868 H   0  0  0  0  0  0  0  0  0  0  0  0  # atno 10765 bound_to 10752
  140.3549  134.2188  155.7677 H   0  0  0  0  0  0  0  0  0  0  0  0  # atno 11005 bound_to 11000
  145.6334  139.1539  143.2956 LP  0  0  0  0  0  0  0  0  0  0  0  0  # atno 17320 bound_to 7965
  146.1850  140.6436  142.9172 LP  0  0  0  0  0  0  0  0  0  0  0  0  # atno 17321 bound_to 7965
  140.0011  143.5743  152.2875 LP  0  0  0  0  0  0  0  0  0  0  0  0  # atno 17342 bound_to 10162
  139.6433  144.7656  151.2295 LP  0  0  0  0  0  0  0  0  0  0  0  0  # atno 17343 bound_to 10162
  156.2837  130.3736  149.7910 LP  0  0  0  0  0  0  0  0  0  0  0  0  # atno 17370 bound_to 10713
  156.5590  130.8375  151.3323 LP  0  0  0  0  0  0  0  0  0  0  0  0  # atno 17371 bound_to 10713
  141.2001  133.7995  157.0504 LP  0  0  0  0  0  0  0  0  0  0  0  0  # atno 17394 bound_to 11000
  140.0673  134.9722  157.1408 LP  0  0  0  0  0  0  0  0  0  0  0  0  # atno 17395 bound_to 11000

$$$$
