AV-unprocessed.smi:1872|AV-procd|sdf|7604|dock3
  -GOLD-   22720 9323D 1   1.00000     0.00000
 Structure written by MMmdl.
 39 41  0  0  0  0  0  0  0  0  1 V2000
  149.8009  140.2332  154.5415 C   0  0  0  0  0  0  0  0  0  0  0  0
  150.4917  140.7207  155.7758 C   0  0  0  0  0  0  0  0  0  0  0  0
  150.2363  141.9156  156.3087 N   0  0  0  0  0  0  0  0  0  0  0  0
  151.0722  141.9413  157.4087 C   0  0  0  0  0  0  0  0  0  0  0  0
  151.2697  142.9402  158.3891 C   0  0  0  0  0  0  0  0  0  0  0  0
  152.1918  142.7396  159.4371 C   0  0  0  0  0  0  0  0  0  0  0  0
  152.9287  141.5405  159.5198 C   0  0  0  0  0  0  0  0  0  0  0  0
  152.7472  140.5323  158.5538 C   0  0  0  0  0  0  0  0  0  0  0  0
  151.8248  140.7368  157.5100 C   0  0  0  0  0  0  0  0  0  0  0  0
  151.4158  139.9692  156.4234 N   0  0  0  0  0  0  0  0  0  0  0  0
  151.8916  138.6373  156.0752 C   0  0  0  0  0  0  0  0  0  0  0  0
  150.7498  137.6141  155.9111 C   0  0  1  0  0  0  0  0  0  0  0  0
  151.2656  136.3772  155.4570 O   0  0  0  0  0  0  0  0  0  0  0  0
  149.9542  137.4732  157.1998 C   0  0  0  0  0  0  0  0  0  0  0  0
  150.6027  137.0645  158.3835 C   0  0  0  0  0  0  0  0  0  0  0  0
  149.8733  136.9173  159.5788 C   0  0  0  0  0  0  0  0  0  0  0  0
  148.4862  137.1650  159.6091 C   0  0  0  0  0  0  0  0  0  0  0  0
  147.8324  137.0137  160.8110 O   0  0  0  0  0  0  0  0  0  0  0  0
  147.9092  135.8251  161.4671 C   0  0  0  0  0  0  0  0  0  0  0  0
  147.4708  135.9754  162.7403 F   0  0  0  0  0  0  0  0  0  0  0  0
  147.1176  134.9015  160.8681 F   0  0  0  0  0  0  0  0  0  0  0  0
  147.8376  137.5831  158.4224 C   0  0  0  0  0  0  0  0  0  0  0  0
  148.5661  137.7295  157.2262 C   0  0  0  0  0  0  0  0  0  0  0  0
  149.1119  140.9901  154.1650 H   0  0  0  0  0  0  0  0  0  0  0  0
  149.2305  139.3298  154.7580 H   0  0  0  0  0  0  0  0  0  0  0  0
  150.5276  140.0153  153.7594 H   0  0  0  0  0  0  0  0  0  0  0  0
  150.7103  143.8625  158.3344 H   0  0  0  0  0  0  0  0  0  0  0  0
  152.3346  143.5100  160.1808 H   0  0  0  0  0  0  0  0  0  0  0  0
  153.6341  141.3954  160.3248 H   0  0  0  0  0  0  0  0  0  0  0  0
  153.3123  139.6140  158.6121 H   0  0  0  0  0  0  0  0  0  0  0  0
  152.4706  138.7062  155.1534 H   0  0  0  0  0  0  0  0  0  0  0  0
  152.5898  138.3040  156.8434 H   0  0  0  0  0  0  0  0  0  0  0  0
  150.0696  137.9633  155.1340 H   0  0  0  0  0  0  0  0  0  0  0  0
  150.5561  135.8750  155.0863 H   0  0  0  0  0  0  0  0  0  0  0  0
  151.6634  136.8599  158.3789 H   0  0  0  0  0  0  0  0  0  0  0  0
  150.3817  136.6062  160.4796 H   0  0  0  0  0  0  0  0  0  0  0  0
  148.9332  135.4532  161.5101 H   0  0  0  0  0  0  0  0  0  0  0  0
  146.7795  137.7988  158.4155 H   0  0  0  0  0  0  0  0  0  0  0  0
  148.0522  138.0400  156.3282 H   0  0  0  0  0  0  0  0  0  0  0  0
  1  2  1  0  0  0  0
  1 24  1  0  0  0  0
  1 25  1  0  0  0  0
  1 26  1  0  0  0  0
  2 10  1  0  0  0  0
  2  3  2  0  0  0  0
  3  4  1  0  0  0  0
  4  9  2  0  0  0  0
  4  5  1  0  0  0  0
  5  6  2  0  0  0  0
  5 27  1  0  0  0  0
  6  7  1  0  0  0  0
  6 28  1  0  0  0  0
  7  8  2  0  0  0  0
  7 29  1  0  0  0  0
  8  9  1  0  0  0  0
  8 30  1  0  0  0  0
  9 10  1  0  0  0  0
 10 11  1  0  0  0  0
 11 12  1  0  0  0  0
 11 31  1  0  0  0  0
 11 32  1  0  0  0  0
 12 13  1  0  0  0  0
 12 14  1  0  0  0  0
 12 33  1  0  0  0  0
 13 34  1  0  0  0  0
 14 23  1  0  0  0  0
 14 15  2  0  0  0  0
 15 16  1  0  0  0  0
 15 35  1  0  0  0  0
 16 17  2  0  0  0  0
 16 36  1  0  0  0  0
 17 18  1  0  0  0  0
 17 22  1  0  0  0  0
 18 19  1  0  0  0  0
 19 20  1  0  0  0  0
 19 21  1  0  0  0  0
 19 37  1  0  0  0  0
 22 23  2  0  0  0  0
 22 38  1  0  0  0  0
 23 39  1  0  0  0  0
M  END
> <s_m_source_file>
AV-unprocessed.smi

> <i_m_source_file_index>
1872

> <i_lp_mmshare_version>
43012

> <i_f3d_flags>
0

> <s_epik_input>
W2NIXTFbY0hdW2NIXVtjSF1jKGMxMiluKGMobjIpW0NIM10pW0NIMl1bQ0BIXShbT0hdKWMzW2NIXVtjSF1jKE9bQ0hdKEYpRilbY0hdW2NIXTM=

> <s_epik_cmdline>
J2VwaWtfcHl0aG9uJywgJy1waCcsICc3LjAnLCAnLXRuJywgJzgnLCAnLW1hJywgJzIwMCcsICctbWV0YWxfYmluZGluZycsICctaW1hZScsICc8aW5maWxlLm1hZT4nLCAnLW9tYWUnLCAnPG91dGZpbGUubWFlPic=

> <r_lp_tautomer_probability>
1

> <r_epik_Ionization_Penalty>
0.129663

> <r_epik_Ionization_Penalty_Charging>
0

> <r_epik_Ionization_Penalty_Neutral>
0.129663

> <r_epik_State_Penalty>
0.119073

> <r_epik_Charging_Adjusted_Penalty>
0.119073

> <i_epik_Tot_Q>
0

> <i_epik_Tot_abs_Q>
0

> <r_epik_Metal_State_Penalty>
0.000131867

> <b_epik_Metal_Only>
0

> <s_lp_Force_Field>
OPLS_2005

> <r_lp_Energy>
11.3105

> <b_lp_Chiralities_Consistent>
1

> <s_lp_Variant>
AV-unprocessed.smi:1872-2

> <Gold.Version>
5.8.1

> <Gold.Id.Protein>
6NUR|6NUR_protein|mol2

> <Gold.PLP.Fitness>
47.3473

> <Gold.PLP.PLP>
-39.7881

> <Gold.PLP.part.hbond>
-3.0000

> <Gold.PLP.part.metal>
0.0000

> <Gold.PLP.part.buried>
-2.4667

> <Gold.PLP.part.nonpolar>
-35.2286

> <Gold.PLP.part.repulsive>
0.3944

> <Gold.PLP.ligand.clash>
0.0000

> <Gold.PLP.ligand.torsion>
0.1992

> <Gold.PLP.Chemscore.Hbond>
2.6365

> <Gold.PLP.Chemscore.CHOScore>
0.0000

> <Gold.PLP.Chemscore.Metal>
0.0000

> <Gold.Chemscore.Hbonds>
donor molecule, donor type, donor heavy atom, donor atom, acceptor molecule, acceptor atom, score
      P1  H  6931  6943       L1    18  0.77
      P1  H  6934  6947       L1    18  0.52
      P1  H 10752 10765       L1    13  1.00

> <Gold.PLP.Chemscore.Internal.Correction>
0.0481

> <Gold.Rescore>
     Score         DG    S(hbond)    S(metal)    S(lipo)     H(rot)  DE(clash)    DE(int)     intcor
     13.72     -14.09       1.02        0.00      93.79       2.25       0.13       0.23       ----

> <Gold.Chemscore.Fitness>
13.7200

> <Gold.Chemscore.DG>
-14.0881

> <Gold.Chemscore.ZeroCoef>
-5.4800

> <Gold.Chemscore.Hbond>
1.0191

> <Gold.Chemscore.Metal>
0.0000

> <Gold.Chemscore.Lipo>
93.7939

> <Gold.Chemscore.Internal_Hbond>
0.0000

> <Gold.Chemscore.DEClash>
0.1341

> <Gold.Chemscore.DEInternal>
0.2339

> <Gold.Chemscore.Rot>
2.2538

> <Gold.Chemscore.Internal.Correction>
   9.000000E+99

> <Gold.Chemscore.Hbonds>
donor molecule, donor type, donor heavy atom, donor atom, acceptor molecule, acceptor atom, score
      P1  H  6931  6943       L1    18  0.06
      P1  H  6934  6947       L1    18  0.06
      P1  H 10752 10765       L1    13  0.47

> <Gold.Chemscore.Hbond.Weighted>
-3.4039

> <Gold.Chemscore.Metal.Weighted>
-0.0000

> <Gold.Chemscore.Lipo.Weighted>
-10.9739

> <Gold.Chemscore.Internal_Hbond.Weighted>
0.0000

> <Gold.Chemscore.DEClash.Weighted>
0.1341

> <Gold.Chemscore.DEInternal.Weighted>
0.2339

> <Gold.Chemscore.Rot.Weighted>
5.7697

> <Gold.Chemscore.Internal.Correction.Weighted>
   9.000000E+99

> <Gold.Protein.RotatedTorsions>
[ 6907 6896 6895 6894 ] final  115.35 input  -60.11 | X-H torsion
[ 7974 7965 7964 7962 ] final  160.94 input  175.53 | X-H torsion
[ 8008 7997 7996 7995 ] final -151.63 input   59.86 | X-H torsion
[ 10167 10162 10161 10158 ] final   -8.98 input  -65.29 | X-H torsion
[ 10718 10713 10712 10709 ] final  151.17 input   66.30 | X-H torsion
[ 10763 10752 10751 10750 ] final -178.37 input  -60.55 | X-H torsion
[ 11005 11000 10999 10996 ] final  -61.75 input  -57.11 | X-H torsion

> <Gold.Protein.ActiveResidues>
 VAL166  LYS551  ARG553  GLY616  TRP617  ASP618  TYR619  PRO620  LYS621  CYS622 
 ASP623  PHE694  ASN695  SER759  ASP760  ASP761  ALA762  ILE779  LEU786  VAL792 
 PHE793  MET794  SER795  GLU796  ALA797  LYS798  CYS799  TRP800  GLU811  SER814 

> <Gold.Protein.RotatedAtoms>
  152.4747  133.8110  159.7003 H   0  0  0  0  0  0  0  0  0  0  0  0  # atno 6907 bound_to 6896
  150.8757  133.7433  159.2954 H   0  0  0  0  0  0  0  0  0  0  0  0  # atno 6908 bound_to 6896
  151.4954  135.1063  159.9867 H   0  0  0  0  0  0  0  0  0  0  0  0  # atno 6909 bound_to 6896
  144.7711  139.7827  143.6296 H   0  0  0  0  0  0  0  0  0  0  0  0  # atno 7974 bound_to 7965
  155.6425  140.0703  157.2614 H   0  0  0  0  0  0  0  0  0  0  0  0  # atno 8008 bound_to 7997
  154.4180  140.1748  156.1637 H   0  0  0  0  0  0  0  0  0  0  0  0  # atno 8009 bound_to 7997
  155.9844  140.3351  155.6696 H   0  0  0  0  0  0  0  0  0  0  0  0  # atno 8010 bound_to 7997
  140.7075  143.5908  150.8896 H   0  0  0  0  0  0  0  0  0  0  0  0  # atno 10167 bound_to 10162
  157.2741  131.0823  151.1578 H   0  0  0  0  0  0  0  0  0  0  0  0  # atno 10718 bound_to 10713
  154.5485  135.2811  155.1030 H   0  0  0  0  0  0  0  0  0  0  0  0  # atno 10763 bound_to 10752
  154.2485  135.6344  153.5235 H   0  0  0  0  0  0  0  0  0  0  0  0  # atno 10764 bound_to 10752
  152.9997  135.5577  154.6045 H   0  0  0  0  0  0  0  0  0  0  0  0  # atno 10765 bound_to 10752
  141.1335  133.6633  156.5423 H   0  0  0  0  0  0  0  0  0  0  0  0  # atno 11005 bound_to 11000
  146.1858  139.5073  142.9837 LP  0  0  0  0  0  0  0  0  0  0  0  0  # atno 17320 bound_to 7965
  145.6321  141.0302  143.1857 LP  0  0  0  0  0  0  0  0  0  0  0  0  # atno 17321 bound_to 7965
  139.9633  143.6139  152.2996 LP  0  0  0  0  0  0  0  0  0  0  0  0  # atno 17342 bound_to 10162
  139.6699  144.7661  151.1802 LP  0  0  0  0  0  0  0  0  0  0  0  0  # atno 17343 bound_to 10162
  157.3039  130.6856  149.6178 LP  0  0  0  0  0  0  0  0  0  0  0  0  # atno 17370 bound_to 10713
  155.9663  130.4384  150.5215 LP  0  0  0  0  0  0  0  0  0  0  0  0  # atno 17371 bound_to 10713
  140.4130  134.7255  157.4847 LP  0  0  0  0  0  0  0  0  0  0  0  0  # atno 17394 bound_to 11000
  140.0414  134.6262  155.8976 LP  0  0  0  0  0  0  0  0  0  0  0  0  # atno 17395 bound_to 11000

$$$$
