AV-unprocessed.smi:1492|AV-procd|sdf|6047|dock4
  -GOLD-   22720 6163D 1   1.00000     0.00000
 Structure written by MMmdl.
 52 53  0  0  0  0  0  0  0  0  3 V2000
  147.0416  139.8273  152.9181 C   0  0  0  0  0  0  0  0  0  0  0  0
  147.2485  140.2076  154.3947 C   0  0  0  0  0  0  0  0  0  0  0  0
  146.4566  141.4599  154.8876 C   0  0  2  0  0  0  0  0  0  0  0  0
  146.6315  142.5640  153.8114 C   0  0  0  0  0  0  0  0  0  0  0  0
  147.0617  141.9535  156.2396 C   0  0  0  0  0  0  0  0  0  0  0  0
  148.4849  142.2572  156.1356 N   0  0  0  0  0  0  0  0  0  0  0  0
  149.4988  141.4996  156.5820 C   0  0  0  0  0  0  0  0  0  0  0  0
  149.3549  140.3529  157.0040 O   0  0  0  0  0  0  0  0  0  0  0  0
  150.8842  142.1533  156.5888 C   0  0  0  0  0  0  0  0  0  0  0  0
  151.5884  142.1766  157.9476 C   0  0  0  0  0  0  0  0  0  0  0  0
  151.8922  143.3234  158.6207 C   0  0  0  0  0  0  0  0  0  0  0  0
  151.6031  144.7084  158.0692 C   0  0  0  0  0  0  0  0  0  0  0  0
  152.4834  143.2825  159.8946 N   0  0  0  0  0  0  0  0  0  0  0  0
  152.7256  142.1521  160.4406 C   0  0  0  0  0  0  0  0  0  0  0  0
  153.3563  142.1131  161.8160 C   0  0  0  0  0  0  0  0  0  0  0  0
  152.4472  140.9394  159.8519 N   0  5  0  0  0  0  0  0  0  0  0  0
  151.8917  140.8947  158.6083 C   0  0  0  0  0  0  0  0  0  0  0  0
  151.6306  139.8321  158.0457 O   0  0  0  0  0  0  0  0  0  0  0  0
  144.9935  141.1308  155.0468 N   0  3  0  0  0  0  0  0  0  0  0  0
  144.6804  139.9430  155.8913 C   0  0  0  0  0  0  0  0  0  0  0  0
  143.1853  139.5985  155.8000 C   0  0  0  0  0  0  0  0  0  0  0  0
  142.4133  140.7176  156.2119 O   0  0  0  0  0  0  0  0  0  0  0  0
  142.6298  141.8426  155.3721 C   0  0  0  0  0  0  0  0  0  0  0  0
  144.1077  142.2644  155.4379 C   0  0  0  0  0  0  0  0  0  0  0  0
  147.6277  138.9425  152.6696 H   0  0  0  0  0  0  0  0  0  0  0  0
  147.3631  140.6234  152.2470 H   0  0  0  0  0  0  0  0  0  0  0  0
  145.9993  139.5988  152.6967 H   0  0  0  0  0  0  0  0  0  0  0  0
  147.0253  139.3434  155.0197 H   0  0  0  0  0  0  0  0  0  0  0  0
  148.3182  140.3697  154.5352 H   0  0  0  0  0  0  0  0  0  0  0  0
  147.6691  142.6533  153.4893 H   0  0  0  0  0  0  0  0  0  0  0  0
  146.3417  143.5478  154.1809 H   0  0  0  0  0  0  0  0  0  0  0  0
  146.0387  142.3589  152.9199 H   0  0  0  0  0  0  0  0  0  0  0  0
  146.5231  142.8218  156.6191 H   0  0  0  0  0  0  0  0  0  0  0  0
  146.9720  141.1850  157.0061 H   0  0  0  0  0  0  0  0  0  0  0  0
  148.7197  143.1797  155.7973 H   0  0  0  0  0  0  0  0  0  0  0  0
  151.5199  141.6491  155.8595 H   0  0  0  0  0  0  0  0  0  0  0  0
  150.7732  143.1683  156.2086 H   0  0  0  0  0  0  0  0  0  0  0  0
  152.1987  144.8929  157.1749 H   0  0  0  0  0  0  0  0  0  0  0  0
  151.8449  145.4824  158.7986 H   0  0  0  0  0  0  0  0  0  0  0  0
  150.5489  144.8099  157.8123 H   0  0  0  0  0  0  0  0  0  0  0  0
  154.3294  141.6234  161.7703 H   0  0  0  0  0  0  0  0  0  0  0  0
  152.7213  141.5588  162.5082 H   0  0  0  0  0  0  0  0  0  0  0  0
  153.4980  143.1192  162.2132 H   0  0  0  0  0  0  0  0  0  0  0  0
  145.2443  139.0666  155.5790 H   0  0  0  0  0  0  0  0  0  0  0  0
  144.9395  140.1379  156.9321 H   0  0  0  0  0  0  0  0  0  0  0  0
  142.9133  139.3031  154.7852 H   0  0  0  0  0  0  0  0  0  0  0  0
  142.9547  138.7541  156.4499 H   0  0  0  0  0  0  0  0  0  0  0  0
  142.3357  141.6107  154.3471 H   0  0  0  0  0  0  0  0  0  0  0  0
  141.9917  142.6599  155.7084 H   0  0  0  0  0  0  0  0  0  0  0  0
  144.3433  142.5962  156.4493 H   0  0  0  0  0  0  0  0  0  0  0  0
  144.2357  143.1217  154.7799 H   0  0  0  0  0  0  0  0  0  0  0  0
  144.6949  140.8762  154.1161 H   0  0  0  0  0  0  0  0  0  0  0  0
  1  2  1  0  0  0  0
  1 25  1  0  0  0  0
  1 26  1  0  0  0  0
  1 27  1  0  0  0  0
  2  3  1  0  0  0  0
  2 28  1  0  0  0  0
  2 29  1  0  0  0  0
  3  4  1  0  0  0  0
  3  5  1  0  0  0  0
  3 19  1  0  0  0  0
  4 30  1  0  0  0  0
  4 31  1  0  0  0  0
  4 32  1  0  0  0  0
  5  6  1  0  0  0  0
  5 33  1  0  0  0  0
  5 34  1  0  0  0  0
  6  7  1  0  0  0  0
  6 35  1  0  0  0  0
  7  8  2  0  0  0  0
  7  9  1  0  0  0  0
  9 10  1  0  0  0  0
  9 36  1  0  0  0  0
  9 37  1  0  0  0  0
 10 17  1  0  0  0  0
 10 11  2  0  0  0  0
 11 12  1  0  0  0  0
 11 13  1  0  0  0  0
 12 38  1  0  0  0  0
 12 39  1  0  0  0  0
 12 40  1  0  0  0  0
 13 14  2  0  0  0  0
 14 15  1  0  0  0  0
 14 16  1  0  0  0  0
 15 41  1  0  0  0  0
 15 42  1  0  0  0  0
 15 43  1  0  0  0  0
 16 17  1  0  0  0  0
 17 18  2  0  0  0  0
 19 24  1  0  0  0  0
 19 20  1  0  0  0  0
 19 52  1  0  0  0  0
 20 21  1  0  0  0  0
 20 44  1  0  0  0  0
 20 45  1  0  0  0  0
 21 22  1  0  0  0  0
 21 46  1  0  0  0  0
 21 47  1  0  0  0  0
 22 23  1  0  0  0  0
 23 24  1  0  0  0  0
 23 48  1  0  0  0  0
 23 49  1  0  0  0  0
 24 50  1  0  0  0  0
 24 51  1  0  0  0  0
M  CHG  1  16  -1
M  CHG  1  19   1
M  END
> <s_m_source_file>
AV-unprocessed.smi

> <i_m_source_file_index>
1492

> <i_lp_mmshare_version>
43012

> <i_f3d_flags>
0

> <s_epik_input>
W0NIMl0xW0NIMl1PW0NIMl1bQ0gyXU4xW0NAQF0oW0NIM10pKFtDSDJdW0NIM10pW0NIMl1bTkhdQyg9TylbQ0gyXWMyYyhbQ0gzXSluYyhbQ0gzXSlbbkhdYzI9Tw==

> <s_epik_cmdline>
J2VwaWtfcHl0aG9uJywgJy1waCcsICc3LjAnLCAnLXRuJywgJzgnLCAnLW1hJywgJzIwMCcsICctbWV0YWxfYmluZGluZycsICctaW1hZScsICc8aW5maWxlLm1hZT4nLCAnLW9tYWUnLCAnPG91dGZpbGUubWFlPic=

> <r_lp_tautomer_probability>
0.839158

> <r_epik_Ionization_Penalty>
6.90614

> <r_epik_Ionization_Penalty_Charging>
0.570079

> <r_epik_Ionization_Penalty_Neutral>
6.33607

> <r_epik_State_Penalty>
4.81716

> <r_epik_Charging_Adjusted_Penalty>
5.38724

> <i_epik_Tot_Q>
0

> <i_epik_Tot_abs_Q>
2

> <r_epik_Metal_State_Penalty>
1.25629

> <b_epik_Metal_Only>
1

> <s_lp_Force_Field>
OPLS_2005

> <r_lp_Energy>
27.3859

> <b_lp_Chiralities_Consistent>
1

> <s_lp_Variant>
AV-unprocessed.smi:1492-12

> <Gold.Version>
5.8.1

> <Gold.Id.Protein>
6NUR|6NUR_protein|mol2

> <Gold.PLP.Fitness>
47.5482

> <Gold.PLP.PLP>
-38.9586

> <Gold.PLP.part.hbond>
-1.9080

> <Gold.PLP.part.metal>
0.0000

> <Gold.PLP.part.buried>
-5.7725

> <Gold.PLP.part.nonpolar>
-30.3740

> <Gold.PLP.part.repulsive>
0.1646

> <Gold.PLP.ligand.clash>
0.0000

> <Gold.PLP.ligand.torsion>
0.3531

> <Gold.PLP.Chemscore.Hbond>
3.0000

> <Gold.PLP.Chemscore.CHOScore>
0.0000

> <Gold.PLP.Chemscore.Metal>
0.0000

> <Gold.Chemscore.Hbonds>
donor molecule, donor type, donor heavy atom, donor atom, acceptor molecule, acceptor atom, score
      L1  H     6    35       P1  8028  1.00
      L1  H    19    52       P1 10175  2.00

> <Gold.PLP.Chemscore.Internal.Correction>
0.2958

> <Gold.Rescore>
     Score         DG    S(hbond)    S(metal)    S(lipo)     H(rot)  DE(clash)    DE(int)     intcor
     14.18     -16.34       1.96        0.00      83.18       2.12       0.02       2.13       ----

> <Gold.Chemscore.Fitness>
14.1841

> <Gold.Chemscore.DG>
-16.3363

> <Gold.Chemscore.ZeroCoef>
-5.4800

> <Gold.Chemscore.Hbond>
1.9643

> <Gold.Chemscore.Metal>
0.0000

> <Gold.Chemscore.Lipo>
83.1757

> <Gold.Chemscore.Internal_Hbond>
0.0000

> <Gold.Chemscore.DEClash>
0.0215

> <Gold.Chemscore.DEInternal>
2.1308

> <Gold.Chemscore.Rot>
2.1235

> <Gold.Chemscore.Internal.Correction>
   9.000000E+99

> <Gold.Chemscore.Hbonds>
donor molecule, donor type, donor heavy atom, donor atom, acceptor molecule, acceptor atom, score
      L1  H     6    35       P1  8028  0.95
      L1  H    19    52       P1 10175  0.95

> <Gold.Chemscore.Hbond.Weighted>
-6.5608

> <Gold.Chemscore.Metal.Weighted>
-0.0000

> <Gold.Chemscore.Lipo.Weighted>
-9.7316

> <Gold.Chemscore.Internal_Hbond.Weighted>
0.0000

> <Gold.Chemscore.DEClash.Weighted>
0.0215

> <Gold.Chemscore.DEInternal.Weighted>
2.1308

> <Gold.Chemscore.Rot.Weighted>
5.4360

> <Gold.Chemscore.Internal.Correction.Weighted>
   9.000000E+99

> <Gold.Protein.RotatedTorsions>
[ 6907 6896 6895 6894 ] final  132.54 input  -60.11 | X-H torsion
[ 7974 7965 7964 7962 ] final   76.95 input  175.53 | X-H torsion
[ 8008 7997 7996 7995 ] final  146.39 input   59.86 | X-H torsion
[ 10167 10162 10161 10158 ] final  142.35 input  -65.29 | X-H torsion
[ 10718 10713 10712 10709 ] final  -56.97 input   66.30 | X-H torsion
[ 10763 10752 10751 10750 ] final  136.82 input  -60.55 | X-H torsion
[ 11005 11000 10999 10996 ] final  141.28 input  -57.11 | X-H torsion

> <Gold.Protein.ActiveResidues>
 VAL166  LYS551  ARG553  GLY616  TRP617  ASP618  TYR619  PRO620  LYS621  CYS622 
 ASP623  PHE694  ASN695  SER759  ASP760  ASP761  ALA762  ILE779  LEU786  VAL792 
 PHE793  MET794  SER795  GLU796  ALA797  LYS798  CYS799  TRP800  GLU811  SER814 

> <Gold.Protein.RotatedAtoms>
  152.3313  133.5961  159.5811 H   0  0  0  0  0  0  0  0  0  0  0  0  # atno 6907 bound_to 6896
  150.7425  133.9864  159.3601 H   0  0  0  0  0  0  0  0  0  0  0  0  # atno 6908 bound_to 6896
  151.7738  135.0780  160.0415 H   0  0  0  0  0  0  0  0  0  0  0  0  # atno 6909 bound_to 6896
  145.6962  139.2568  143.1731 H   0  0  0  0  0  0  0  0  0  0  0  0  # atno 7974 bound_to 7965
  156.2856  140.2183  156.5369 H   0  0  0  0  0  0  0  0  0  0  0  0  # atno 8008 bound_to 7997
  154.7402  140.0488  157.0826 H   0  0  0  0  0  0  0  0  0  0  0  0  # atno 8009 bound_to 7997
  155.0241  140.3127  155.4785 H   0  0  0  0  0  0  0  0  0  0  0  0  # atno 8010 bound_to 7997
  139.4996  144.6113  151.6266 H   0  0  0  0  0  0  0  0  0  0  0  0  # atno 10167 bound_to 10162
  156.1246  130.4163  150.0378 H   0  0  0  0  0  0  0  0  0  0  0  0  # atno 10718 bound_to 10713
  153.8628  135.3065  155.3438 H   0  0  0  0  0  0  0  0  0  0  0  0  # atno 10763 bound_to 10752
  154.7841  135.4819  153.9910 H   0  0  0  0  0  0  0  0  0  0  0  0  # atno 10764 bound_to 10752
  153.1451  135.6832  153.9061 H   0  0  0  0  0  0  0  0  0  0  0  0  # atno 10765 bound_to 10752
  140.0389  134.9314  157.0806 H   0  0  0  0  0  0  0  0  0  0  0  0  # atno 11005 bound_to 11000
  146.0838  140.7734  142.9628 LP  0  0  0  0  0  0  0  0  0  0  0  0  # atno 17320 bound_to 7965
  144.6982  140.3530  143.7178 LP  0  0  0  0  0  0  0  0  0  0  0  0  # atno 17321 bound_to 7965
  140.5788  143.9982  150.6256 LP  0  0  0  0  0  0  0  0  0  0  0  0  # atno 17342 bound_to 10162
  140.3124  143.3189  152.0866 LP  0  0  0  0  0  0  0  0  0  0  0  0  # atno 17343 bound_to 10162
  156.8307  130.9391  151.3637 LP  0  0  0  0  0  0  0  0  0  0  0  0  # atno 17370 bound_to 10713
  157.6429  130.8820  149.9482 LP  0  0  0  0  0  0  0  0  0  0  0  0  # atno 17371 bound_to 10713
  140.4101  134.1990  155.7163 LP  0  0  0  0  0  0  0  0  0  0  0  0  # atno 17394 bound_to 11000
  141.1872  133.8285  157.1039 LP  0  0  0  0  0  0  0  0  0  0  0  0  # atno 17395 bound_to 11000

$$$$
