AV-unprocessed.smi:1416|AV-procd|sdf|5764|dock10
  -GOLD-   22720 5403D 1   1.00000     0.00000
 Structure written by MMmdl.
 44 45  0  0  0  0  0  0  0  0  1 V2000
  143.8423  147.0977  155.8354 C   0  0  0  0  0  0  0  0  0  0  0  0
  144.0932  145.6111  156.1021 C   0  0  0  0  0  0  0  0  0  0  0  0
  144.3293  144.6883  154.5600 S   0  0  0  0  0  0  0  0  0  0  0  0
  144.4618  143.0063  155.2325 C   0  0  0  0  0  0  0  0  0  0  0  0
  145.8206  142.7511  155.9103 C   0  0  0  0  0  0  0  0  0  0  0  0
  146.6899  141.7195  155.1819 C   0  0  0  0  0  0  0  0  0  0  0  0
  146.1971  140.6758  154.7526 O   0  0  0  0  0  0  0  0  0  0  0  0
  147.9871  142.0290  155.0446 N   0  0  0  0  0  0  0  0  0  0  0  0
  148.9759  141.1854  154.3841 C   0  0  0  0  0  0  0  0  0  0  0  0
  150.1508  140.8285  155.2798 C   0  0  0  0  0  0  0  0  0  0  0  0
  150.8265  139.5967  155.1538 C   0  0  0  0  0  0  0  0  0  0  0  0
  151.8943  139.3272  156.0293 C   0  0  0  0  0  0  0  0  0  0  0  0
  152.3058  140.1890  156.9824 N   0  0  0  0  0  0  0  0  0  0  0  0
  151.6659  141.3775  157.1132 C   0  0  0  0  0  0  0  0  0  0  0  0
  152.1101  142.2705  158.1129 N   0  0  0  0  0  0  0  0  0  0  0  0
  152.1143  141.7420  159.4751 C   0  0  0  0  0  0  0  0  0  0  0  0
  152.8922  142.6816  160.4127 C   0  0  0  0  0  0  0  0  0  0  0  0
  152.3552  143.9977  160.3323 O   0  0  0  0  0  0  0  0  0  0  0  0
  152.4661  144.5345  159.0183 C   0  0  0  0  0  0  0  0  0  0  0  0
  151.6692  143.6623  158.0337 C   0  0  0  0  0  0  0  0  0  0  0  0
  150.5752  141.7267  156.2807 C   0  0  0  0  0  0  0  0  0  0  0  0
  143.7023  147.6413  156.7699 H   0  0  0  0  0  0  0  0  0  0  0  0
  142.9481  147.2428  155.2287 H   0  0  0  0  0  0  0  0  0  0  0  0
  144.6833  147.5502  155.3095 H   0  0  0  0  0  0  0  0  0  0  0  0
  144.9786  145.4884  156.7265 H   0  0  0  0  0  0  0  0  0  0  0  0
  143.2521  145.1816  156.6469 H   0  0  0  0  0  0  0  0  0  0  0  0
  143.6376  142.8281  155.9245 H   0  0  0  0  0  0  0  0  0  0  0  0
  144.3310  142.3029  154.4099 H   0  0  0  0  0  0  0  0  0  0  0  0
  146.3834  143.6843  155.9464 H   0  0  0  0  0  0  0  0  0  0  0  0
  145.6647  142.4465  156.9466 H   0  0  0  0  0  0  0  0  0  0  0  0
  148.3141  142.9060  155.4236 H   0  0  0  0  0  0  0  0  0  0  0  0
  148.4840  140.2739  154.0413 H   0  0  0  0  0  0  0  0  0  0  0  0
  149.3673  141.6903  153.4996 H   0  0  0  0  0  0  0  0  0  0  0  0
  150.5338  138.8664  154.4139 H   0  0  0  0  0  0  0  0  0  0  0  0
  152.4317  138.3928  155.9641 H   0  0  0  0  0  0  0  0  0  0  0  0
  151.0828  141.6454  159.8168 H   0  0  0  0  0  0  0  0  0  0  0  0
  152.5576  140.7483  159.5231 H   0  0  0  0  0  0  0  0  0  0  0  0
  152.8166  142.3302  161.4420 H   0  0  0  0  0  0  0  0  0  0  0  0
  153.9534  142.6935  160.1578 H   0  0  0  0  0  0  0  0  0  0  0  0
  152.0777  145.5528  159.0166 H   0  0  0  0  0  0  0  0  0  0  0  0
  153.5155  144.5933  158.7249 H   0  0  0  0  0  0  0  0  0  0  0  0
  151.8058  144.0447  157.0213 H   0  0  0  0  0  0  0  0  0  0  0  0
  150.6043  143.7181  158.2637 H   0  0  0  0  0  0  0  0  0  0  0  0
  150.0563  142.6650  156.4091 H   0  0  0  0  0  0  0  0  0  0  0  0
  1  2  1  0  0  0  0
  1 22  1  0  0  0  0
  1 23  1  0  0  0  0
  1 24  1  0  0  0  0
  2  3  1  0  0  0  0
  2 25  1  0  0  0  0
  2 26  1  0  0  0  0
  3  4  1  0  0  0  0
  4  5  1  0  0  0  0
  4 27  1  0  0  0  0
  4 28  1  0  0  0  0
  5  6  1  0  0  0  0
  5 29  1  0  0  0  0
  5 30  1  0  0  0  0
  6  7  2  0  0  0  0
  6  8  1  0  0  0  0
  8  9  1  0  0  0  0
  8 31  1  0  0  0  0
  9 10  1  0  0  0  0
  9 32  1  0  0  0  0
  9 33  1  0  0  0  0
 10 21  1  0  0  0  0
 10 11  2  0  0  0  0
 11 12  1  0  0  0  0
 11 34  1  0  0  0  0
 12 13  2  0  0  0  0
 12 35  1  0  0  0  0
 13 14  1  0  0  0  0
 14 15  1  0  0  0  0
 14 21  2  0  0  0  0
 15 20  1  0  0  0  0
 15 16  1  0  0  0  0
 16 17  1  0  0  0  0
 16 36  1  0  0  0  0
 16 37  1  0  0  0  0
 17 18  1  0  0  0  0
 17 38  1  0  0  0  0
 17 39  1  0  0  0  0
 18 19  1  0  0  0  0
 19 20  1  0  0  0  0
 19 40  1  0  0  0  0
 19 41  1  0  0  0  0
 20 42  1  0  0  0  0
 20 43  1  0  0  0  0
 21 44  1  0  0  0  0
M  END
> <s_m_source_file>
AV-unprocessed.smi

> <i_m_source_file_index>
1416

> <i_lp_mmshare_version>
43012

> <i_f3d_flags>
0

> <s_epik_input>
W0NIM11bQ0gyXVNbQ0gyXVtDSDJdQyg9TylbTkhdW0NIMl1jMVtjSF1bY0hdbmMoW2NIXTEpTjJbQ0gyXVtDSDJdT1tDSDJdW0NIMl0y

> <s_epik_cmdline>
J2VwaWtfcHl0aG9uJywgJy1waCcsICc3LjAnLCAnLXRuJywgJzgnLCAnLW1hJywgJzIwMCcsICctbWV0YWxfYmluZGluZycsICctaW1hZScsICc8aW5maWxlLm1hZT4nLCAnLW9tYWUnLCAnPG91dGZpbGUubWFlPic=

> <r_lp_tautomer_probability>
1

> <r_epik_Ionization_Penalty>
0.00571449

> <r_epik_Ionization_Penalty_Charging>
0

> <r_epik_Ionization_Penalty_Neutral>
0.00571449

> <r_epik_State_Penalty>
0.00419227

> <r_epik_Charging_Adjusted_Penalty>
0.00419227

> <i_epik_Tot_Q>
0

> <i_epik_Tot_abs_Q>
0

> <r_epik_Metal_State_Penalty>
-0

> <b_epik_Metal_Only>
0

> <s_lp_Force_Field>
OPLS_2005

> <r_lp_Energy>
16.5768

> <b_lp_Chiralities_Consistent>
1

> <s_lp_Variant>
AV-unprocessed.smi:1416-1

> <Gold.Version>
5.8.1

> <Gold.Id.Protein>
6NUR|6NUR_protein|mol2

> <Gold.PLP.Fitness>
46.9227

> <Gold.PLP.PLP>
-43.3231

> <Gold.PLP.part.hbond>
-2.0000

> <Gold.PLP.part.metal>
0.0000

> <Gold.PLP.part.buried>
-2.9310

> <Gold.PLP.part.nonpolar>
-37.4618

> <Gold.PLP.part.repulsive>
0.2899

> <Gold.PLP.ligand.clash>
0.0000

> <Gold.PLP.ligand.torsion>
1.2232

> <Gold.PLP.Chemscore.Hbond>
1.8775

> <Gold.PLP.Chemscore.CHOScore>
0.0000

> <Gold.PLP.Chemscore.Metal>
0.0000

> <Gold.Chemscore.Hbonds>
donor molecule, donor type, donor heavy atom, donor atom, acceptor molecule, acceptor atom, score
      L1  H     8    31       P1  8028  1.00
      P1  H  7997  8009       L1    13  0.80

> <Gold.PLP.Chemscore.Internal.Correction>
0.4135

> <Gold.Rescore>
     Score         DG    S(hbond)    S(metal)    S(lipo)     H(rot)  DE(clash)    DE(int)     intcor
     16.13     -17.35       1.20        0.00     108.06       1.87       0.07       1.15       ----

> <Gold.Chemscore.Fitness>
16.1347

> <Gold.Chemscore.DG>
-17.3516

> <Gold.Chemscore.ZeroCoef>
-5.4800

> <Gold.Chemscore.Hbond>
1.2025

> <Gold.Chemscore.Metal>
0.0000

> <Gold.Chemscore.Lipo>
108.0644

> <Gold.Chemscore.Internal_Hbond>
0.0000

> <Gold.Chemscore.DEClash>
0.0678

> <Gold.Chemscore.DEInternal>
1.1491

> <Gold.Chemscore.Rot>
1.8704

> <Gold.Chemscore.Internal.Correction>
   9.000000E+99

> <Gold.Chemscore.Hbonds>
donor molecule, donor type, donor heavy atom, donor atom, acceptor molecule, acceptor atom, score
      L1  H     8    31       P1  8028  0.99
      P1  H  7997  8009       L1    13  0.17

> <Gold.Chemscore.Hbond.Weighted>
-4.0162

> <Gold.Chemscore.Metal.Weighted>
-0.0000

> <Gold.Chemscore.Lipo.Weighted>
-12.6435

> <Gold.Chemscore.Internal_Hbond.Weighted>
0.0000

> <Gold.Chemscore.DEClash.Weighted>
0.0678

> <Gold.Chemscore.DEInternal.Weighted>
1.1491

> <Gold.Chemscore.Rot.Weighted>
4.7881

> <Gold.Chemscore.Internal.Correction.Weighted>
   9.000000E+99

> <Gold.Protein.RotatedTorsions>
[ 6907 6896 6895 6894 ] final  -74.68 input  -60.11 | X-H torsion
[ 7974 7965 7964 7962 ] final -124.46 input  175.53 | X-H torsion
[ 8008 7997 7996 7995 ] final -179.75 input   59.86 | X-H torsion
[ 10167 10162 10161 10158 ] final  101.91 input  -65.29 | X-H torsion
[ 10718 10713 10712 10709 ] final   72.95 input   66.30 | X-H torsion
[ 10763 10752 10751 10750 ] final -162.34 input  -60.55 | X-H torsion
[ 11005 11000 10999 10996 ] final  -62.52 input  -57.11 | X-H torsion

> <Gold.Protein.ActiveResidues>
 VAL166  LYS551  ARG553  GLY616  TRP617  ASP618  TYR619  PRO620  LYS621  CYS622 
 ASP623  PHE694  ASN695  SER759  ASP760  ASP761  ALA762  ILE779  LEU786  VAL792 
 PHE793  MET794  SER795  GLU796  ALA797  LYS798  CYS799  TRP800  GLU811  SER814 

> <Gold.Protein.RotatedAtoms>
  150.7085  134.4833  159.5480 H   0  0  0  0  0  0  0  0  0  0  0  0  # atno 6907 bound_to 6896
  152.2466  134.8172  160.0461 H   0  0  0  0  0  0  0  0  0  0  0  0  # atno 6908 bound_to 6896
  151.8935  133.3486  159.3843 H   0  0  0  0  0  0  0  0  0  0  0  0  # atno 6909 bound_to 6896
  145.0079  140.7879  143.4456 H   0  0  0  0  0  0  0  0  0  0  0  0  # atno 7974 bound_to 7965
  156.0341  140.1288  157.0226 H   0  0  0  0  0  0  0  0  0  0  0  0  # atno 8008 bound_to 7997
  154.4362  140.1043  156.6212 H   0  0  0  0  0  0  0  0  0  0  0  0  # atno 8009 bound_to 7997
  155.5763  140.3467  155.4531 H   0  0  0  0  0  0  0  0  0  0  0  0  # atno 8010 bound_to 7997
  139.7396  144.7015  151.0595 H   0  0  0  0  0  0  0  0  0  0  0  0  # atno 10167 bound_to 10162
  157.6525  130.9604  150.1000 H   0  0  0  0  0  0  0  0  0  0  0  0  # atno 10718 bound_to 10713
  154.7223  135.3028  154.9028 H   0  0  0  0  0  0  0  0  0  0  0  0  # atno 10763 bound_to 10752
  153.9896  135.6720  153.4757 H   0  0  0  0  0  0  0  0  0  0  0  0  # atno 10764 bound_to 10752
  153.0844  135.4992  154.8485 H   0  0  0  0  0  0  0  0  0  0  0  0  # atno 10765 bound_to 10752
  141.1362  133.6641  156.5541 H   0  0  0  0  0  0  0  0  0  0  0  0  # atno 11005 bound_to 11000
  145.2064  139.2226  143.5166 LP  0  0  0  0  0  0  0  0  0  0  0  0  # atno 17320 bound_to 7965
  146.3464  140.1892  142.8589 LP  0  0  0  0  0  0  0  0  0  0  0  0  # atno 17321 bound_to 7965
  140.7784  143.4941  150.9856 LP  0  0  0  0  0  0  0  0  0  0  0  0  # atno 17342 bound_to 10162
  139.8629  143.7291  152.3172 LP  0  0  0  0  0  0  0  0  0  0  0  0  # atno 17343 bound_to 10162
  156.1925  130.3655  149.8891 LP  0  0  0  0  0  0  0  0  0  0  0  0  # atno 17370 bound_to 10713
  156.6815  130.8860  151.3576 LP  0  0  0  0  0  0  0  0  0  0  0  0  # atno 17371 bound_to 10713
  140.4041  134.7331  157.4797 LP  0  0  0  0  0  0  0  0  0  0  0  0  # atno 17394 bound_to 11000
  140.0475  134.6178  155.8903 LP  0  0  0  0  0  0  0  0  0  0  0  0  # atno 17395 bound_to 11000

$$$$
