AV-unprocessed.smi:1207|AV-procd|sdf|5058|dock7
  -GOLD-   22720 4 93D 1   1.00000     0.00000
 Structure written by MMmdl.
 53 55  0  0  0  0  0  0  0  0  3 V2000
  151.8871  144.7801  160.9674 C   0  0  0  0  0  0  0  0  0  0  0  0
  151.8036  143.7034  159.8987 C   0  0  0  0  0  0  0  0  0  0  0  0
  150.9614  143.9227  158.7853 C   0  0  0  0  0  0  0  0  0  0  0  0
  150.9037  142.9186  157.8262 C   0  0  0  0  0  0  0  0  0  0  0  0
  150.1811  142.8310  156.6344 N   0  3  0  0  0  0  0  0  0  0  0  0
  150.4506  141.6431  156.0253 C   0  0  0  0  0  0  0  0  0  0  0  0
  151.3336  140.9695  156.8126 N   0  0  0  0  0  0  0  0  0  0  0  0
  151.9476  139.6472  156.6304 C   0  0  0  0  0  0  0  0  0  0  0  0
  151.8733  139.1503  155.1733 C   0  0  1  0  0  0  0  0  0  0  0  0
  153.1784  139.1015  154.6297 O   0  0  0  0  0  0  0  0  0  0  0  0
  151.2358  137.7506  155.0662 C   0  0  0  0  0  0  0  0  0  0  0  0
  149.7756  137.7886  155.3338 N   0  3  1  0  0  0  0  0  0  0  0  0
  149.0385  138.5903  154.3297 C   0  0  0  0  0  0  0  0  0  0  0  0
  149.1815  136.4421  155.5361 C   0  0  0  0  0  0  0  0  0  0  0  0
  149.6556  135.8359  156.8298 C   0  0  0  0  0  0  0  0  0  0  0  0
  149.4437  136.3341  158.1472 C   0  0  0  0  0  0  0  0  0  0  0  0
  148.6979  137.5680  158.5686 C   0  0  0  0  0  0  0  0  0  0  0  0
  149.9930  135.5563  159.0636 N   0  0  0  0  0  0  0  0  0  0  0  0
  150.5993  134.5091  158.3637 O   0  0  0  0  0  0  0  0  0  0  0  0
  150.3858  134.6972  157.0369 C   0  0  0  0  0  0  0  0  0  0  0  0
  150.9640  133.6709  156.1221 C   0  0  0  0  0  0  0  0  0  0  0  0
  151.6479  141.7289  157.9447 C   0  0  0  0  0  0  0  0  0  0  0  0
  152.4856  141.4981  159.0333 C   0  0  0  0  0  0  0  0  0  0  0  0
  152.5561  142.5064  160.0210 C   0  0  0  0  0  0  0  0  0  0  0  0
  153.4582  142.2815  161.2227 C   0  0  0  0  0  0  0  0  0  0  0  0
  151.2568  145.6354  160.7229 H   0  0  0  0  0  0  0  0  0  0  0  0
  152.9111  145.1402  161.0701 H   0  0  0  0  0  0  0  0  0  0  0  0
  151.5584  144.3891  161.9306 H   0  0  0  0  0  0  0  0  0  0  0  0
  150.3868  144.8321  158.6852 H   0  0  0  0  0  0  0  0  0  0  0  0
  150.0353  141.2977  155.0894 H   0  0  0  0  0  0  0  0  0  0  0  0
  152.9862  139.7191  156.9567 H   0  0  0  0  0  0  0  0  0  0  0  0
  151.4569  138.9472  157.3080 H   0  0  0  0  0  0  0  0  0  0  0  0
  151.3000  139.8684  154.5885 H   0  0  0  0  0  0  0  0  0  0  0  0
  153.1697  138.5416  153.8679 H   0  0  0  0  0  0  0  0  0  0  0  0
  151.4281  137.3555  154.0672 H   0  0  0  0  0  0  0  0  0  0  0  0
  151.7083  137.0550  155.7618 H   0  0  0  0  0  0  0  0  0  0  0  0
  149.1060  138.1363  153.3403 H   0  0  0  0  0  0  0  0  0  0  0  0
  149.4426  139.6012  154.2705 H   0  0  0  0  0  0  0  0  0  0  0  0
  147.9850  138.6788  154.5950 H   0  0  0  0  0  0  0  0  0  0  0  0
  148.0939  136.5133  155.4951 H   0  0  0  0  0  0  0  0  0  0  0  0
  149.4528  135.7850  154.7103 H   0  0  0  0  0  0  0  0  0  0  0  0
  149.0132  138.4341  157.9865 H   0  0  0  0  0  0  0  0  0  0  0  0
  148.8647  137.8017  159.6207 H   0  0  0  0  0  0  0  0  0  0  0  0
  147.6249  137.4424  158.4230 H   0  0  0  0  0  0  0  0  0  0  0  0
  150.5592  133.7659  155.1149 H   0  0  0  0  0  0  0  0  0  0  0  0
  150.7411  132.6656  156.4800 H   0  0  0  0  0  0  0  0  0  0  0  0
  152.0475  133.7754  156.0623 H   0  0  0  0  0  0  0  0  0  0  0  0
  153.0595  140.5882  159.1256 H   0  0  0  0  0  0  0  0  0  0  0  0
  153.9587  141.3141  161.1713 H   0  0  0  0  0  0  0  0  0  0  0  0
  152.8797  142.3080  162.1465 H   0  0  0  0  0  0  0  0  0  0  0  0
  154.2278  143.0521  161.2736 H   0  0  0  0  0  0  0  0  0  0  0  0
  149.6779  138.2819  156.2102 H   0  0  0  0  0  0  0  0  0  0  0  0
  149.5504  143.5296  156.2613 H   0  0  0  0  0  0  0  0  0  0  0  0
  1  2  1  0  0  0  0
  1 26  1  0  0  0  0
  1 27  1  0  0  0  0
  1 28  1  0  0  0  0
  2 24  1  0  0  0  0
  2  3  2  0  0  0  0
  3  4  1  0  0  0  0
  3 29  1  0  0  0  0
  4 22  2  0  0  0  0
  4  5  1  0  0  0  0
  5  6  2  0  0  0  0
  5 53  1  0  0  0  0
  6  7  1  0  0  0  0
  6 30  1  0  0  0  0
  7  8  1  0  0  0  0
  7 22  1  0  0  0  0
  8  9  1  0  0  0  0
  8 31  1  0  0  0  0
  8 32  1  0  0  0  0
  9 10  1  0  0  0  0
  9 11  1  0  0  0  0
  9 33  1  0  0  0  0
 10 34  1  0  0  0  0
 11 12  1  0  0  0  0
 11 35  1  0  0  0  0
 11 36  1  0  0  0  0
 12 13  1  0  0  0  0
 12 14  1  0  0  0  0
 12 52  1  0  0  0  0
 13 37  1  0  0  0  0
 13 38  1  0  0  0  0
 13 39  1  0  0  0  0
 14 15  1  0  0  0  0
 14 40  1  0  0  0  0
 14 41  1  0  0  0  0
 15 20  2  0  0  0  0
 15 16  1  0  0  0  0
 16 17  1  0  0  0  0
 16 18  2  0  0  0  0
 17 42  1  0  0  0  0
 17 43  1  0  0  0  0
 17 44  1  0  0  0  0
 18 19  1  0  0  0  0
 19 20  1  0  0  0  0
 20 21  1  0  0  0  0
 21 45  1  0  0  0  0
 21 46  1  0  0  0  0
 21 47  1  0  0  0  0
 22 23  1  0  0  0  0
 23 24  2  0  0  0  0
 23 48  1  0  0  0  0
 24 25  1  0  0  0  0
 25 49  1  0  0  0  0
 25 50  1  0  0  0  0
 25 51  1  0  0  0  0
M  CHG  1   5   1
M  CHG  1  12   1
M  END
> <s_m_source_file>
AV-unprocessed.smi

> <i_m_source_file_index>
1207

> <i_lp_mmshare_version>
43012

> <i_f3d_flags>
0

> <s_epik_input>
W0NIM11jKFtjSF0xKWMoW0NIM10pW2NIXWMoYzEyKW4oW2NIXW4yKVtDSDJdW0NASF0oW09IXSlbQ0gyXU4oW0NIM10pW0NIMl1jM2MoW0NIM10pbm9jM1tDSDNd

> <s_epik_cmdline>
J2VwaWtfcHl0aG9uJywgJy1waCcsICc3LjAnLCAnLXRuJywgJzgnLCAnLW1hJywgJzIwMCcsICctbWV0YWxfYmluZGluZycsICctaW1hZScsICc8aW5maWxlLm1hZT4nLCAnLW9tYWUnLCAnPG91dGZpbGUubWFlPic=

> <r_epik_Ionization_Penalty>
1.77463

> <r_epik_Ionization_Penalty_Charging>
1.77463

> <r_epik_Ionization_Penalty_Neutral>
3.70885e-06

> <r_epik_State_Penalty>
1.85225

> <r_epik_Charging_Adjusted_Penalty>
3.62688

> <i_epik_Tot_Q>
2

> <i_epik_Tot_abs_Q>
2

> <r_epik_Metal_State_Penalty>
1.92674

> <b_epik_Metal_Only>
0

> <s_lp_Force_Field>
OPLS_2005

> <r_lp_Energy>
18.8212

> <b_lp_Chiralities_Consistent>
1

> <s_lp_Variant>
AV-unprocessed.smi:1207-10

> <Gold.Version>
5.8.1

> <Gold.Id.Protein>
6NUR|6NUR_protein|mol2

> <Gold.PLP.Fitness>
56.7155

> <Gold.PLP.PLP>
-47.0058

> <Gold.PLP.part.hbond>
-3.8717

> <Gold.PLP.part.metal>
0.0000

> <Gold.PLP.part.buried>
-7.3155

> <Gold.PLP.part.nonpolar>
-36.0861

> <Gold.PLP.part.repulsive>
0.0753

> <Gold.PLP.ligand.clash>
0.0000

> <Gold.PLP.ligand.torsion>
1.2005

> <Gold.PLP.Chemscore.Hbond>
4.0000

> <Gold.PLP.Chemscore.CHOScore>
0.0000

> <Gold.PLP.Chemscore.Metal>
0.0000

> <Gold.Chemscore.Hbonds>
donor molecule, donor type, donor heavy atom, donor atom, acceptor molecule, acceptor atom, score
      L1  H     5    53       P1  8028  1.79
      P1  H  7997  8009       L1    10  0.86

> <Gold.PLP.Chemscore.Internal.Correction>
0.1107

> <Gold.Rescore>
     Score         DG    S(hbond)    S(metal)    S(lipo)     H(rot)  DE(clash)    DE(int)     intcor
     20.58     -22.22       2.66        0.00     122.64       2.54       0.02       1.62       ----

> <Gold.Chemscore.Fitness>
20.5788

> <Gold.Chemscore.DG>
-22.2179

> <Gold.Chemscore.ZeroCoef>
-5.4800

> <Gold.Chemscore.Hbond>
2.6585

> <Gold.Chemscore.Metal>
0.0000

> <Gold.Chemscore.Lipo>
122.6365

> <Gold.Chemscore.Internal_Hbond>
0.0000

> <Gold.Chemscore.DEClash>
0.0213

> <Gold.Chemscore.DEInternal>
1.6178

> <Gold.Chemscore.Rot>
2.5351

> <Gold.Chemscore.Internal.Correction>
   9.000000E+99

> <Gold.Chemscore.Hbonds>
donor molecule, donor type, donor heavy atom, donor atom, acceptor molecule, acceptor atom, score
      L1  H     5    53       P1  8028  0.87
      P1  H  7997  8009       L1    10  0.69

> <Gold.Chemscore.Hbond.Weighted>
-8.8794

> <Gold.Chemscore.Metal.Weighted>
-0.0000

> <Gold.Chemscore.Lipo.Weighted>
-14.3485

> <Gold.Chemscore.Internal_Hbond.Weighted>
0.0000

> <Gold.Chemscore.DEClash.Weighted>
0.0213

> <Gold.Chemscore.DEInternal.Weighted>
1.6178

> <Gold.Chemscore.Rot.Weighted>
6.4900

> <Gold.Chemscore.Internal.Correction.Weighted>
   9.000000E+99

> <Gold.Protein.RotatedTorsions>
[ 6907 6896 6895 6894 ] final  140.47 input  -60.11 | X-H torsion
[ 7974 7965 7964 7962 ] final  -55.55 input  175.53 | X-H torsion
[ 8008 7997 7996 7995 ] final -128.12 input   59.86 | X-H torsion
[ 10167 10162 10161 10158 ] final  -83.53 input  -65.29 | X-H torsion
[ 10718 10713 10712 10709 ] final  -81.63 input   66.30 | X-H torsion
[ 10763 10752 10751 10750 ] final  -41.31 input  -60.55 | X-H torsion
[ 11005 11000 10999 10996 ] final -150.65 input  -57.11 | X-H torsion

> <Gold.Protein.ActiveResidues>
 VAL166  LYS551  ARG553  GLY616  TRP617  ASP618  TYR619  PRO620  LYS621  CYS622 
 ASP623  PHE694  ASN695  SER759  ASP760  ASP761  ALA762  ILE779  LEU786  VAL792 
 PHE793  MET794  SER795  GLU796  ALA797  LYS798  CYS799  TRP800  GLU811  SER814 

> <Gold.Protein.RotatedAtoms>
  152.2426  133.5148  159.5278 H   0  0  0  0  0  0  0  0  0  0  0  0  # atno 6907 bound_to 6896
  150.7069  134.1069  159.3995 H   0  0  0  0  0  0  0  0  0  0  0  0  # atno 6908 bound_to 6896
  151.8989  135.0386  160.0555 H   0  0  0  0  0  0  0  0  0  0  0  0  # atno 6909 bound_to 6896
  145.8729  140.8202  142.9879 H   0  0  0  0  0  0  0  0  0  0  0  0  # atno 7974 bound_to 7965
  155.2574  140.0434  157.2993 H   0  0  0  0  0  0  0  0  0  0  0  0  # atno 8008 bound_to 7997
  154.5731  140.2379  155.8131 H   0  0  0  0  0  0  0  0  0  0  0  0  # atno 8009 bound_to 7997
  156.2138  140.2991  155.9800 H   0  0  0  0  0  0  0  0  0  0  0  0  # atno 8010 bound_to 7997
  140.4218  143.2582  151.8879 H   0  0  0  0  0  0  0  0  0  0  0  0  # atno 10167 bound_to 10162
  156.0047  130.4609  150.3982 H   0  0  0  0  0  0  0  0  0  0  0  0  # atno 10718 bound_to 10713
  153.9604  135.6740  153.4745 H   0  0  0  0  0  0  0  0  0  0  0  0  # atno 10763 bound_to 10752
  153.0841  135.4908  154.8558 H   0  0  0  0  0  0  0  0  0  0  0  0  # atno 10764 bound_to 10752
  154.7276  135.3131  154.8905 H   0  0  0  0  0  0  0  0  0  0  0  0  # atno 10765 bound_to 10752
  140.7380  134.3547  157.5153 H   0  0  0  0  0  0  0  0  0  0  0  0  # atno 11005 bound_to 11000
  144.6726  140.1267  143.7446 LP  0  0  0  0  0  0  0  0  0  0  0  0  # atno 17320 bound_to 7965
  145.9115  139.2490  143.1435 LP  0  0  0  0  0  0  0  0  0  0  0  0  # atno 17321 bound_to 7965
  139.4783  144.5429  151.8501 LP  0  0  0  0  0  0  0  0  0  0  0  0  # atno 17342 bound_to 10162
  140.4525  144.1835  150.5898 LP  0  0  0  0  0  0  0  0  0  0  0  0  # atno 17343 bound_to 10162
  157.2052  131.0447  151.2629 LP  0  0  0  0  0  0  0  0  0  0  0  0  # atno 17370 bound_to 10713
  157.3939  130.7296  149.6717 LP  0  0  0  0  0  0  0  0  0  0  0  0  # atno 17371 bound_to 10713
  139.8812  134.9062  156.2916 LP  0  0  0  0  0  0  0  0  0  0  0  0  # atno 17394 bound_to 11000
  140.9862  133.7236  156.0746 LP  0  0  0  0  0  0  0  0  0  0  0  0  # atno 17395 bound_to 11000

$$$$
