AV-unprocessed.smi:2304|AV-procd|sdf|9245|dock6
  -GOLD-   2272012463D 1   1.00000     0.00000
 Structure written by MMmdl.
 37 38  0  0  0  0  0  0  0  0  1 V2000
  150.6333  138.7483  154.4546 C   0  0  0  0  0  0  0  0  0  0  0  0
  150.4751  140.1551  154.5031 O   0  0  0  0  0  0  0  0  0  0  0  0
  149.1829  140.5715  154.0919 C   0  0  0  0  0  0  0  0  0  0  0  0
  148.3738  141.0266  155.3181 C   0  0  1  0  0  0  0  0  0  0  0  0
  149.0595  142.1405  155.9687 N   0  0  0  0  0  0  0  0  0  0  0  0
  149.7294  142.0804  157.1294 C   0  0  0  0  0  0  0  0  0  0  0  0
  149.8588  141.0496  157.7905 O   0  0  0  0  0  0  0  0  0  0  0  0
  150.2288  143.2838  157.4619 N   0  0  0  0  0  0  0  0  0  0  0  0
  150.9593  143.6403  158.6267 C   0  0  0  0  0  0  0  0  0  0  0  0
  150.9502  145.0178  158.9420 C   0  0  0  0  0  0  0  0  0  0  0  0
  151.6413  145.4724  160.0816 C   0  0  0  0  0  0  0  0  0  0  0  0
  152.3249  144.5374  160.8792 C   0  0  0  0  0  0  0  0  0  0  0  0
  152.2838  143.1825  160.4959 C   0  0  0  0  0  0  0  0  0  0  0  0
  152.9965  142.1205  161.3067 C   0  0  0  0  0  0  0  0  0  0  0  0
  151.6220  142.7465  159.4025 N   0  0  0  0  0  0  0  0  0  0  0  0
  146.9509  141.3796  154.9277 C   0  0  0  0  0  0  0  0  0  0  0  0
  146.6586  142.5653  154.0401 C   0  0  0  0  0  0  0  0  0  0  0  0
  146.2641  142.5968  155.4998 C   0  0  0  0  0  0  0  0  0  0  0  0
  151.6433  138.4821  154.7658 H   0  0  0  0  0  0  0  0  0  0  0  0
  150.4810  138.3681  153.4436 H   0  0  0  0  0  0  0  0  0  0  0  0
  149.9324  138.2502  155.1257 H   0  0  0  0  0  0  0  0  0  0  0  0
  149.2543  141.3763  153.3580 H   0  0  0  0  0  0  0  0  0  0  0  0
  148.6780  139.7344  153.6069 H   0  0  0  0  0  0  0  0  0  0  0  0
  148.3096  140.1791  156.0033 H   0  0  0  0  0  0  0  0  0  0  0  0
  149.0140  143.0317  155.4973 H   0  0  0  0  0  0  0  0  0  0  0  0
  150.0525  144.0366  156.8137 H   0  0  0  0  0  0  0  0  0  0  0  0
  150.4193  145.7232  158.3194 H   0  0  0  0  0  0  0  0  0  0  0  0
  151.6462  146.5214  160.3386 H   0  0  0  0  0  0  0  0  0  0  0  0
  152.8644  144.8546  161.7596 H   0  0  0  0  0  0  0  0  0  0  0  0
  153.3872  142.5300  162.2386 H   0  0  0  0  0  0  0  0  0  0  0  0
  153.8305  141.7091  160.7377 H   0  0  0  0  0  0  0  0  0  0  0  0
  152.3136  141.3071  161.5540 H   0  0  0  0  0  0  0  0  0  0  0  0
  146.3135  140.5099  154.7784 H   0  0  0  0  0  0  0  0  0  0  0  0
  147.4975  143.1864  153.7318 H   0  0  0  0  0  0  0  0  0  0  0  0
  145.8625  142.4588  153.3062 H   0  0  0  0  0  0  0  0  0  0  0  0
  145.2059  142.5111  155.7372 H   0  0  0  0  0  0  0  0  0  0  0  0
  146.8401  143.2416  156.1608 H   0  0  0  0  0  0  0  0  0  0  0  0
  1  2  1  0  0  0  0
  1 19  1  0  0  0  0
  1 20  1  0  0  0  0
  1 21  1  0  0  0  0
  2  3  1  0  0  0  0
  3  4  1  0  0  0  0
  3 22  1  0  0  0  0
  3 23  1  0  0  0  0
  4  5  1  0  0  0  0
  4 16  1  0  0  0  0
  4 24  1  0  0  0  0
  5  6  1  0  0  0  0
  5 25  1  0  0  0  0
  6  7  2  0  0  0  0
  6  8  1  0  0  0  0
  8  9  1  0  0  0  0
  8 26  1  0  0  0  0
  9 15  1  0  0  0  0
  9 10  2  0  0  0  0
 10 11  1  0  0  0  0
 10 27  1  0  0  0  0
 11 12  2  0  0  0  0
 11 28  1  0  0  0  0
 12 13  1  0  0  0  0
 12 29  1  0  0  0  0
 13 14  1  0  0  0  0
 13 15  2  0  0  0  0
 14 30  1  0  0  0  0
 14 31  1  0  0  0  0
 14 32  1  0  0  0  0
 16 18  1  0  0  0  0
 16 17  1  0  0  0  0
 16 33  1  0  0  0  0
 17 18  1  0  0  0  0
 17 34  1  0  0  0  0
 17 35  1  0  0  0  0
 18 36  1  0  0  0  0
 18 37  1  0  0  0  0
M  END
> <s_m_source_file>
AV-unprocessed.smi

> <i_m_source_file_index>
2304

> <i_lp_mmshare_version>
43012

> <i_f3d_flags>
0

> <s_epik_input>
W0NIM11PW0NIMl1bQ0BASF0oW0NIXTFbQ0gyXVtDSDJdMSlbTkhdQyg9TylbTkhdYzJbY0hdW2NIXVtjSF1jKG4yKVtDSDNd

> <s_epik_cmdline>
J2VwaWtfcHl0aG9uJywgJy1waCcsICc3LjAnLCAnLXRuJywgJzgnLCAnLW1hJywgJzIwMCcsICctbWV0YWxfYmluZGluZycsICctaW1hZScsICc8aW5maWxlLm1hZT4nLCAnLW9tYWUnLCAnPG91dGZpbGUubWFlPic=

> <r_lp_tautomer_probability>
1

> <r_epik_Ionization_Penalty>
8.58396e-05

> <r_epik_Ionization_Penalty_Charging>
0

> <r_epik_Ionization_Penalty_Neutral>
8.58396e-05

> <r_epik_State_Penalty>
-0

> <r_epik_Charging_Adjusted_Penalty>
0

> <i_epik_Tot_Q>
0

> <i_epik_Tot_abs_Q>
0

> <r_epik_Metal_State_Penalty>
-0

> <b_epik_Metal_Only>
0

> <s_lp_Force_Field>
OPLS_2005

> <r_lp_Energy>
16.7335

> <b_lp_Chiralities_Consistent>
1

> <s_lp_Variant>
AV-unprocessed.smi:2304-2

> <Gold.Version>
5.8.1

> <Gold.Id.Protein>
6NUR|6NUR_protein|mol2

> <Gold.PLP.Fitness>
47.9468

> <Gold.PLP.PLP>
-40.3392

> <Gold.PLP.part.hbond>
-3.0000

> <Gold.PLP.part.metal>
0.0000

> <Gold.PLP.part.buried>
-5.2385

> <Gold.PLP.part.nonpolar>
-32.0873

> <Gold.PLP.part.repulsive>
0.2330

> <Gold.PLP.ligand.clash>
0.0000

> <Gold.PLP.ligand.torsion>
1.1881

> <Gold.PLP.Chemscore.Hbond>
2.9680

> <Gold.PLP.Chemscore.CHOScore>
0.0000

> <Gold.PLP.Chemscore.Metal>
0.0000

> <Gold.Chemscore.Hbonds>
donor molecule, donor type, donor heavy atom, donor atom, acceptor molecule, acceptor atom, score
      L1  H     5    25       P1  8028  0.94
      L1  H     8    26       P1  8028  0.93
      P1  H  7989  7998       L1     2  1.00

> <Gold.PLP.Chemscore.Internal.Correction>
1.0798

> <Gold.Rescore>
     Score         DG    S(hbond)    S(metal)    S(lipo)     H(rot)  DE(clash)    DE(int)     intcor
     18.64     -21.27       2.76        0.00      91.43       1.61       0.48       2.16       ----

> <Gold.Chemscore.Fitness>
18.6363

> <Gold.Chemscore.DG>
-21.2691

> <Gold.Chemscore.ZeroCoef>
-5.4800

> <Gold.Chemscore.Hbond>
2.7615

> <Gold.Chemscore.Metal>
0.0000

> <Gold.Chemscore.Lipo>
91.4347

> <Gold.Chemscore.Internal_Hbond>
0.0000

> <Gold.Chemscore.DEClash>
0.4771

> <Gold.Chemscore.DEInternal>
2.1557

> <Gold.Chemscore.Rot>
1.6142

> <Gold.Chemscore.Internal.Correction>
   9.000000E+99

> <Gold.Chemscore.Hbonds>
donor molecule, donor type, donor heavy atom, donor atom, acceptor molecule, acceptor atom, score
      L1  H     5    25       P1  8028  0.91
      L1  H     8    26       P1  8028  0.88
      P1  H  7989  7998       L1     2  0.45

> <Gold.Chemscore.Hbond.Weighted>
-9.2235

> <Gold.Chemscore.Metal.Weighted>
-0.0000

> <Gold.Chemscore.Lipo.Weighted>
-10.6979

> <Gold.Chemscore.Internal_Hbond.Weighted>
0.0000

> <Gold.Chemscore.DEClash.Weighted>
0.4771

> <Gold.Chemscore.DEInternal.Weighted>
2.1557

> <Gold.Chemscore.Rot.Weighted>
4.1323

> <Gold.Chemscore.Internal.Correction.Weighted>
   9.000000E+99

> <Gold.Protein.RotatedTorsions>
[ 6907 6896 6895 6894 ] final  -56.27 input  -60.11 | X-H torsion
[ 7974 7965 7964 7962 ] final -158.95 input  175.53 | X-H torsion
[ 8008 7997 7996 7995 ] final -177.37 input   59.86 | X-H torsion
[ 10167 10162 10161 10158 ] final  113.48 input  -65.29 | X-H torsion
[ 10718 10713 10712 10709 ] final  152.52 input   66.30 | X-H torsion
[ 10763 10752 10751 10750 ] final -137.74 input  -60.55 | X-H torsion
[ 11005 11000 10999 10996 ] final   73.92 input  -57.11 | X-H torsion

> <Gold.Protein.ActiveResidues>
 VAL166  LYS551  ARG553  GLY616  TRP617  ASP618  TYR619  PRO620  LYS621  CYS622 
 ASP623  PHE694  ASN695  SER759  ASP760  ASP761  ALA762  ILE779  LEU786  VAL792 
 PHE793  MET794  SER795  GLU796  ALA797  LYS798  CYS799  TRP800  GLU811  SER814 

> <Gold.Protein.RotatedAtoms>
  150.8182  134.7375  159.6748 H   0  0  0  0  0  0  0  0  0  0  0  0  # atno 6907 bound_to 6896
  152.4299  134.5794  159.9953 H   0  0  0  0  0  0  0  0  0  0  0  0  # atno 6908 bound_to 6896
  151.5985  133.3321  159.3078 H   0  0  0  0  0  0  0  0  0  0  0  0  # atno 6909 bound_to 6896
  144.7485  140.3755  143.6066 H   0  0  0  0  0  0  0  0  0  0  0  0  # atno 7974 bound_to 7965
  156.0061  140.1231  157.0500 H   0  0  0  0  0  0  0  0  0  0  0  0  # atno 8008 bound_to 7997
  154.4259  140.1097  156.5834 H   0  0  0  0  0  0  0  0  0  0  0  0  # atno 8009 bound_to 7997
  155.6145  140.3472  155.4635 H   0  0  0  0  0  0  0  0  0  0  0  0  # atno 8010 bound_to 7997
  139.6458  144.7126  151.2145 H   0  0  0  0  0  0  0  0  0  0  0  0  # atno 10167 bound_to 10162
  157.2567  131.0790  151.1693 H   0  0  0  0  0  0  0  0  0  0  0  0  # atno 10718 bound_to 10713
  154.8654  135.3633  154.5272 H   0  0  0  0  0  0  0  0  0  0  0  0  # atno 10763 bound_to 10752
  153.5899  135.7016  153.5432 H   0  0  0  0  0  0  0  0  0  0  0  0  # atno 10764 bound_to 10752
  153.3382  135.4105  155.1513 H   0  0  0  0  0  0  0  0  0  0  0  0  # atno 10765 bound_to 10752
  139.9416  134.7389  156.1085 H   0  0  0  0  0  0  0  0  0  0  0  0  # atno 11005 bound_to 11000
  145.7033  139.1666  143.2580 LP  0  0  0  0  0  0  0  0  0  0  0  0  # atno 17320 bound_to 7965
  146.1400  140.7071  142.9371 LP  0  0  0  0  0  0  0  0  0  0  0  0  # atno 17321 bound_to 7965
  140.7514  143.6233  150.8492 LP  0  0  0  0  0  0  0  0  0  0  0  0  # atno 17342 bound_to 10162
  139.9876  143.5882  152.2921 LP  0  0  0  0  0  0  0  0  0  0  0  0  # atno 17343 bound_to 10162
  157.3219  130.6941  149.6274 LP  0  0  0  0  0  0  0  0  0  0  0  0  # atno 17370 bound_to 10713
  155.9665  130.4333  150.4999 LP  0  0  0  0  0  0  0  0  0  0  0  0  # atno 17371 bound_to 10713
  141.1052  133.6662  156.2848 LP  0  0  0  0  0  0  0  0  0  0  0  0  # atno 17394 bound_to 11000
  140.5938  134.5624  157.5504 LP  0  0  0  0  0  0  0  0  0  0  0  0  # atno 17395 bound_to 11000

$$$$
