AV-unprocessed.smi:227|AV-procd|sdf|1738|dock5
  -GOLD-   2262020243D 1   1.00000     0.00000
 Structure written by MMmdl.
 54 58  0  0  0  0  0  0  0  0  1 V2000
  153.2709  135.5126  156.7856 O   0  0  0  0  0  0  0  0  0  0  0  0
  152.3389  136.4656  156.3165 C   0  0  0  0  0  0  0  0  0  0  0  0
  151.5672  135.9399  155.0818 C   0  0  1  0  0  0  0  0  0  0  0  0
  150.7967  134.6491  155.4782 C   0  0  0  0  0  0  0  0  0  0  0  0
  149.7435  134.2592  154.5578 N   0  0  0  0  0  0  0  0  0  0  0  0
  149.9017  133.6232  153.3480 C   0  0  0  0  0  0  0  0  0  0  0  0
  148.7956  133.3858  152.6984 N   0  0  0  0  0  0  0  0  0  0  0  0
  147.7971  133.9107  153.5114 C   0  0  0  0  0  0  0  0  0  0  0  0
  146.3772  133.9980  153.4202 C   0  0  0  0  0  0  0  0  0  0  0  0
  145.6521  133.4988  152.3817 N   0  0  0  0  0  0  0  0  0  0  0  0
  144.2056  133.6449  152.3608 C   0  0  1  0  0  0  0  0  0  0  0  0
  143.9842  135.1296  152.0109 C   0  0  0  0  0  0  0  0  0  0  0  0
  145.1574  135.3908  151.0533 C   0  0  0  0  0  0  0  0  0  0  0  0
  145.8400  134.0057  151.0279 C   0  0  2  0  0  0  0  0  0  0  0  0
  144.9770  133.0456  150.1793 C   0  0  1  0  0  0  0  0  0  0  0  0
  145.7158  131.7616  149.7602 C   0  0  0  0  0  0  0  0  0  0  0  0
  146.7723  132.0691  148.8756 O   0  0  0  0  0  0  0  0  0  0  0  0
  143.8131  132.7756  151.1546 C   0  0  0  0  0  0  0  0  0  0  0  0
  145.7297  134.6453  154.4258 N   0  0  0  0  0  0  0  0  0  0  0  0
  146.4092  135.1450  155.4613 C   0  0  0  0  0  0  0  0  0  0  0  0
  147.7230  135.1170  155.6871 N   0  0  0  0  0  0  0  0  0  0  0  0
  148.3836  134.4860  154.6755 C   0  0  0  0  0  0  0  0  0  0  0  0
  150.6459  137.0385  154.4702 C   0  0  1  0  0  0  0  0  0  0  0  0
  149.6820  137.6941  155.4489 C   0  0  0  0  0  0  0  0  0  0  0  0
  149.2969  138.9724  154.7205 C   0  0  0  0  0  0  0  0  0  0  0  0
  150.5022  139.4003  154.1087 O   0  0  0  0  0  0  0  0  0  0  0  0
  151.3651  138.2829  153.9179 C   0  0  0  0  0  0  0  0  0  0  0  0
  154.0744  135.6111  156.2983 H   0  0  0  0  0  0  0  0  0  0  0  0
  151.6523  136.7281  157.1220 H   0  0  0  0  0  0  0  0  0  0  0  0
  152.9126  137.3607  156.0805 H   0  0  0  0  0  0  0  0  0  0  0  0
  152.3136  135.6823  154.3290 H   0  0  0  0  0  0  0  0  0  0  0  0
  151.4792  133.8020  155.5484 H   0  0  0  0  0  0  0  0  0  0  0  0
  150.3606  134.7696  156.4708 H   0  0  0  0  0  0  0  0  0  0  0  0
  150.8674  133.3270  152.9650 H   0  0  0  0  0  0  0  0  0  0  0  0
  143.6852  133.3373  153.2659 H   0  0  0  0  0  0  0  0  0  0  0  0
  143.0120  135.3133  151.5520 H   0  0  0  0  0  0  0  0  0  0  0  0
  144.0651  135.7577  152.8991 H   0  0  0  0  0  0  0  0  0  0  0  0
  144.8347  135.7219  150.0657 H   0  0  0  0  0  0  0  0  0  0  0  0
  145.8224  136.1533  151.4601 H   0  0  0  0  0  0  0  0  0  0  0  0
  146.8776  134.0476  150.6944 H   0  0  0  0  0  0  0  0  0  0  0  0
  144.6089  133.5455  149.2819 H   0  0  0  0  0  0  0  0  0  0  0  0
  146.1129  131.2342  150.6282 H   0  0  0  0  0  0  0  0  0  0  0  0
  145.0318  131.0806  149.2527 H   0  0  0  0  0  0  0  0  0  0  0  0
  147.5312  131.5655  149.1278 H   0  0  0  0  0  0  0  0  0  0  0  0
  143.7714  131.7242  151.4424 H   0  0  0  0  0  0  0  0  0  0  0  0
  142.8419  133.0473  150.7395 H   0  0  0  0  0  0  0  0  0  0  0  0
  145.8145  135.6352  156.2177 H   0  0  0  0  0  0  0  0  0  0  0  0
  150.0512  136.5973  153.6685 H   0  0  0  0  0  0  0  0  0  0  0  0
  148.8125  137.0771  155.6776 H   0  0  0  0  0  0  0  0  0  0  0  0
  150.1895  137.9358  156.3839 H   0  0  0  0  0  0  0  0  0  0  0  0
  148.5584  138.7644  153.9451 H   0  0  0  0  0  0  0  0  0  0  0  0
  148.8907  139.7338  155.3866 H   0  0  0  0  0  0  0  0  0  0  0  0
  152.2916  138.4802  154.4580 H   0  0  0  0  0  0  0  0  0  0  0  0
  151.6054  138.1818  152.8605 H   0  0  0  0  0  0  0  0  0  0  0  0
  1  2  1  0  0  0  0
  1 28  1  0  0  0  0
  2  3  1  0  0  0  0
  2 29  1  0  0  0  0
  2 30  1  0  0  0  0
  3  4  1  0  0  0  0
  3 23  1  0  0  0  0
  3 31  1  0  0  0  0
  4  5  1  0  0  0  0
  4 32  1  0  0  0  0
  4 33  1  0  0  0  0
  5 22  1  0  0  0  0
  5  6  1  0  0  0  0
  6  7  2  0  0  0  0
  6 34  1  0  0  0  0
  7  8  1  0  0  0  0
  8 22  2  0  0  0  0
  8  9  1  0  0  0  0
  9 10  1  0  0  0  0
  9 19  2  0  0  0  0
 10 14  1  0  0  0  0
 10 11  1  0  0  0  0
 11 18  1  0  0  0  0
 11 12  1  0  0  0  0
 11 35  1  0  0  0  0
 12 13  1  0  0  0  0
 12 36  1  0  0  0  0
 12 37  1  0  0  0  0
 13 14  1  0  0  0  0
 13 38  1  0  0  0  0
 13 39  1  0  0  0  0
 14 15  1  0  0  0  0
 14 40  1  0  0  0  0
 15 16  1  0  0  0  0
 15 18  1  0  0  0  0
 15 41  1  0  0  0  0
 16 17  1  0  0  0  0
 16 42  1  0  0  0  0
 16 43  1  0  0  0  0
 17 44  1  0  0  0  0
 18 45  1  0  0  0  0
 18 46  1  0  0  0  0
 19 20  1  0  0  0  0
 20 21  2  0  0  0  0
 20 47  1  0  0  0  0
 21 22  1  0  0  0  0
 23 27  1  0  0  0  0
 23 24  1  0  0  0  0
 23 48  1  0  0  0  0
 24 25  1  0  0  0  0
 24 49  1  0  0  0  0
 24 50  1  0  0  0  0
 25 26  1  0  0  0  0
 25 51  1  0  0  0  0
 25 52  1  0  0  0  0
 26 27  1  0  0  0  0
 27 53  1  0  0  0  0
 27 54  1  0  0  0  0
M  END
> <s_m_source_file>
AV-unprocessed.smi

> <i_m_source_file_index>
227

> <i_lp_mmshare_version>
43012

> <i_f3d_flags>
0

> <s_epik_input>
W0NIMl0xT1tDSDJdW0NIMl1bQ0BIXTFbQ0BIXShbQ0gyXVtPSF0pW0NIMl1uKFtjSF1uMiljKGMyMyluW2NIXW5jM04oW0NASF00NSlbQ0BASF0oW0NIMl1bQ0gyXTQpW0NASF0oW0NIMl01KVtDSDJdW09IXQ==

> <s_epik_cmdline>
J2VwaWtfcHl0aG9uJywgJy1waCcsICc3LjAnLCAnLXRuJywgJzgnLCAnLW1hJywgJzIwMCcsICctbWV0YWxfYmluZGluZycsICctaW1hZScsICc8aW5maWxlLm1hZT4nLCAnLW9tYWUnLCAnPG91dGZpbGUubWFlPic=

> <r_lp_tautomer_probability>
1

> <r_epik_Ionization_Penalty>
0.0055791

> <r_epik_Ionization_Penalty_Charging>
0

> <r_epik_Ionization_Penalty_Neutral>
0.0055791

> <r_epik_State_Penalty>
0.00401299

> <r_epik_Charging_Adjusted_Penalty>
0.00401299

> <i_epik_Tot_Q>
0

> <i_epik_Tot_abs_Q>
0

> <r_epik_Metal_State_Penalty>
-0

> <b_epik_Metal_Only>
0

> <s_lp_Force_Field>
OPLS_2005

> <r_lp_Energy>
89.2194

> <b_lp_Chiralities_Consistent>
1

> <s_lp_Variant>
AV-unprocessed.smi:227-12

> <Gold.Version>
5.8.1

> <Gold.Id.Protein>
6NUR|6NUR_protein|mol2

> <Gold.PLP.Fitness>
45.3164

> <Gold.PLP.PLP>
-40.1808

> <Gold.PLP.part.hbond>
-2.9849

> <Gold.PLP.part.metal>
0.0000

> <Gold.PLP.part.buried>
-5.8151

> <Gold.PLP.part.nonpolar>
-31.2743

> <Gold.PLP.part.repulsive>
0.5645

> <Gold.PLP.ligand.clash>
0.0000

> <Gold.PLP.ligand.torsion>
0.5205

> <Gold.PLP.Chemscore.Hbond>
2.0000

> <Gold.PLP.Chemscore.CHOScore>
0.0000

> <Gold.PLP.Chemscore.Metal>
0.0000

> <Gold.Chemscore.Hbonds>
donor molecule, donor type, donor heavy atom, donor atom, acceptor molecule, acceptor atom, score
      L1  H    17    44       P1 10747  1.00
      P1  H  7989  7998       L1    26  1.00

> <Gold.PLP.Chemscore.Internal.Correction>
0.1766

> <Gold.Rescore>
     Score         DG    S(hbond)    S(metal)    S(lipo)     H(rot)  DE(clash)    DE(int)     intcor
     11.21     -13.10       1.87        0.00      90.51       3.61       0.41       1.47       ----

> <Gold.Chemscore.Fitness>
11.2139

> <Gold.Chemscore.DG>
-13.0957

> <Gold.Chemscore.ZeroCoef>
-5.4800

> <Gold.Chemscore.Hbond>
1.8744

> <Gold.Chemscore.Metal>
0.0000

> <Gold.Chemscore.Lipo>
90.5088

> <Gold.Chemscore.Internal_Hbond>
0.0000

> <Gold.Chemscore.DEClash>
0.4141

> <Gold.Chemscore.DEInternal>
1.4677

> <Gold.Chemscore.Rot>
3.6071

> <Gold.Chemscore.Internal.Correction>
   9.000000E+99

> <Gold.Chemscore.Hbonds>
donor molecule, donor type, donor heavy atom, donor atom, acceptor molecule, acceptor atom, score
      L1  H    17    44       P1 10747  0.99
      P1  H  7989  7998       L1    26  0.30

> <Gold.Chemscore.Hbond.Weighted>
-6.2604

> <Gold.Chemscore.Metal.Weighted>
-0.0000

> <Gold.Chemscore.Lipo.Weighted>
-10.5895

> <Gold.Chemscore.Internal_Hbond.Weighted>
0.0000

> <Gold.Chemscore.DEClash.Weighted>
0.4141

> <Gold.Chemscore.DEInternal.Weighted>
1.4677

> <Gold.Chemscore.Rot.Weighted>
9.2342

> <Gold.Chemscore.Internal.Correction.Weighted>
   9.000000E+99

> <Gold.Protein.RotatedTorsions>
[ 6907 6896 6895 6894 ] final  -57.29 input  -60.11 | X-H torsion
[ 7974 7965 7964 7962 ] final  109.82 input  175.53 | X-H torsion
[ 8008 7997 7996 7995 ] final -157.07 input   59.86 | X-H torsion
[ 10167 10162 10161 10158 ] final -169.86 input  -65.29 | X-H torsion
[ 10718 10713 10712 10709 ] final    8.84 input   66.30 | X-H torsion
[ 10763 10752 10751 10750 ] final  -39.26 input  -60.55 | X-H torsion
[ 11005 11000 10999 10996 ] final  -14.52 input  -57.11 | X-H torsion

> <Gold.Protein.ActiveResidues>
 VAL166  LYS551  ARG553  GLY616  TRP617  ASP618  TYR619  PRO620  LYS621  CYS622 
 ASP623  PHE694  ASN695  SER759  ASP760  ASP761  ALA762  ILE779  LEU786  VAL792 
 PHE793  MET794  SER795  GLU796  ALA797  LYS798  CYS799  TRP800  GLU811  SER814 

> <Gold.Protein.RotatedAtoms>
  150.8098  134.7246  159.6677 H   0  0  0  0  0  0  0  0  0  0  0  0  # atno 6907 bound_to 6896
  152.4218  134.5938  159.9991 H   0  0  0  0  0  0  0  0  0  0  0  0  # atno 6908 bound_to 6896
  151.6151  133.3306  159.3112 H   0  0  0  0  0  0  0  0  0  0  0  0  # atno 6909 bound_to 6896
  145.2629  139.2695  143.4007 H   0  0  0  0  0  0  0  0  0  0  0  0  # atno 7974 bound_to 7965
  155.7268  140.0797  157.2306 H   0  0  0  0  0  0  0  0  0  0  0  0  # atno 8008 bound_to 7997
  154.4038  140.1602  156.2518 H   0  0  0  0  0  0  0  0  0  0  0  0  # atno 8009 bound_to 7997
  155.9146  140.3401  155.6128 H   0  0  0  0  0  0  0  0  0  0  0  0  # atno 8010 bound_to 7997
  139.5897  144.1241  152.1619 H   0  0  0  0  0  0  0  0  0  0  0  0  # atno 10167 bound_to 10162
  156.9576  130.5920  149.5660 H   0  0  0  0  0  0  0  0  0  0  0  0  # atno 10718 bound_to 10713
  153.9265  135.6776  153.4746 H   0  0  0  0  0  0  0  0  0  0  0  0  # atno 10763 bound_to 10752
  153.1002  135.4832  154.8849 H   0  0  0  0  0  0  0  0  0  0  0  0  # atno 10764 bound_to 10752
  154.7451  135.3170  154.8617 H   0  0  0  0  0  0  0  0  0  0  0  0  # atno 10765 bound_to 10752
  140.7873  133.8316  155.9346 H   0  0  0  0  0  0  0  0  0  0  0  0  # atno 11005 bound_to 11000
  146.3269  140.3052  142.8623 LP  0  0  0  0  0  0  0  0  0  0  0  0  # atno 17320 bound_to 7965
  144.9402  140.8070  143.5635 LP  0  0  0  0  0  0  0  0  0  0  0  0  # atno 17321 bound_to 7965
  140.0812  144.5699  150.7121 LP  0  0  0  0  0  0  0  0  0  0  0  0  # atno 17342 bound_to 10162
  140.7162  143.2547  151.4426 LP  0  0  0  0  0  0  0  0  0  0  0  0  # atno 17343 bound_to 10162
  156.0336  130.5425  150.8597 LP  0  0  0  0  0  0  0  0  0  0  0  0  # atno 17370 bound_to 10713
  157.5680  131.0946  150.9461 LP  0  0  0  0  0  0  0  0  0  0  0  0  # atno 17371 bound_to 10713
  140.9424  134.1883  157.4788 LP  0  0  0  0  0  0  0  0  0  0  0  0  # atno 17394 bound_to 11000
  139.8735  134.9877  156.5380 LP  0  0  0  0  0  0  0  0  0  0  0  0  # atno 17395 bound_to 11000

$$$$
