AV-unprocessed.smi:1103|AV-procd|sdf|4774|dock1
  -GOLD-   22720 3313D 1   1.00000     0.00000
 Structure written by MMmdl.
 44 45  0  0  0  0  0  0  0  0  2 V2000
  146.7967  138.9907  151.8420 C   0  0  0  0  0  0  0  0  0  0  0  0
  146.8026  138.7352  153.3562 C   0  0  0  0  0  0  0  0  0  0  0  0
  148.0521  138.0835  153.8251 N   0  3  2  0  0  0  0  0  0  0  0  0
  147.7952  137.1096  154.9165 C   0  0  0  0  0  0  0  0  0  0  0  0
  149.0748  136.3456  155.2868 C   0  0  0  0  0  0  0  0  0  0  0  0
  150.1943  137.3158  155.6823 C   0  0  0  0  0  0  0  0  0  0  0  0
  150.4417  138.3407  154.5617 C   0  0  2  0  0  0  0  0  0  0  0  0
  151.5667  139.3206  154.9603 C   0  0  0  0  0  0  0  0  0  0  0  0
  151.3138  139.9477  156.2539 N   0  0  0  0  0  0  0  0  0  0  0  0
  152.1140  139.8654  157.3283 C   0  0  0  0  0  0  0  0  0  0  0  0
  153.2069  139.2994  157.3227 O   0  0  0  0  0  0  0  0  0  0  0  0
  151.5747  140.4723  158.6225 C   0  0  0  0  0  0  0  0  0  0  0  0
  151.6267  141.9214  158.5570 N   0  0  0  0  0  0  0  0  0  0  0  0
  152.0824  142.8050  159.5122 C   0  0  0  0  0  0  0  0  0  0  0  0
  151.9114  144.0674  159.0193 C   0  0  0  0  0  0  0  0  0  0  0  0
  152.2372  145.3792  159.6719 C   0  0  0  0  0  0  0  0  0  0  0  0
  151.3395  143.8468  157.7342 C   0  0  0  0  0  0  0  0  0  0  0  0
  151.1643  142.5641  157.4628 N   0  0  0  0  0  0  0  0  0  0  0  0
  149.1175  139.0531  154.1968 C   0  0  0  0  0  0  0  0  0  0  0  0
  145.8251  139.3666  151.5210 H   0  0  0  0  0  0  0  0  0  0  0  0
  146.9969  138.0757  151.2839 H   0  0  0  0  0  0  0  0  0  0  0  0
  147.5375  139.7335  151.5507 H   0  0  0  0  0  0  0  0  0  0  0  0
  146.6375  139.6646  153.9029 H   0  0  0  0  0  0  0  0  0  0  0  0
  145.9550  138.0879  153.5855 H   0  0  0  0  0  0  0  0  0  0  0  0
  147.4020  137.6342  155.7890 H   0  0  0  0  0  0  0  0  0  0  0  0
  147.0318  136.3958  154.6044 H   0  0  0  0  0  0  0  0  0  0  0  0
  148.8729  135.6566  156.1076 H   0  0  0  0  0  0  0  0  0  0  0  0
  149.3968  135.7354  154.4419 H   0  0  0  0  0  0  0  0  0  0  0  0
  149.9228  137.8309  156.6050 H   0  0  0  0  0  0  0  0  0  0  0  0
  151.1076  136.7582  155.8942 H   0  0  0  0  0  0  0  0  0  0  0  0
  150.7788  137.7937  153.6794 H   0  0  0  0  0  0  0  0  0  0  0  0
  152.5333  138.8140  154.9509 H   0  0  0  0  0  0  0  0  0  0  0  0
  151.6373  140.1182  154.2203 H   0  0  0  0  0  0  0  0  0  0  0  0
  150.4361  140.4366  156.3586 H   0  0  0  0  0  0  0  0  0  0  0  0
  150.5406  140.1623  158.7776 H   0  0  0  0  0  0  0  0  0  0  0  0
  152.1496  140.1232  159.4820 H   0  0  0  0  0  0  0  0  0  0  0  0
  152.4802  142.4648  160.4571 H   0  0  0  0  0  0  0  0  0  0  0  0
  151.9094  146.2252  159.0676 H   0  0  0  0  0  0  0  0  0  0  0  0
  153.3096  145.4933  159.8316 H   0  0  0  0  0  0  0  0  0  0  0  0
  151.7541  145.4736  160.6446 H   0  0  0  0  0  0  0  0  0  0  0  0
  151.0416  144.5779  156.9972 H   0  0  0  0  0  0  0  0  0  0  0  0
  149.2910  139.7253  153.3583 H   0  0  0  0  0  0  0  0  0  0  0  0
  148.7780  139.6693  155.0311 H   0  0  0  0  0  0  0  0  0  0  0  0
  148.4038  137.5461  153.0456 H   0  0  0  0  0  0  0  0  0  0  0  0
  1  2  1  0  0  0  0
  1 20  1  0  0  0  0
  1 21  1  0  0  0  0
  1 22  1  0  0  0  0
  2  3  1  0  0  0  0
  2 23  1  0  0  0  0
  2 24  1  0  0  0  0
  3 19  1  0  0  0  0
  3  4  1  0  0  0  0
  3 44  1  0  0  0  0
  4  5  1  0  0  0  0
  4 25  1  0  0  0  0
  4 26  1  0  0  0  0
  5  6  1  0  0  0  0
  5 27  1  0  0  0  0
  5 28  1  0  0  0  0
  6  7  1  0  0  0  0
  6 29  1  0  0  0  0
  6 30  1  0  0  0  0
  7  8  1  0  0  0  0
  7 19  1  0  0  0  0
  7 31  1  0  0  0  0
  8  9  1  0  0  0  0
  8 32  1  0  0  0  0
  8 33  1  0  0  0  0
  9 10  1  0  0  0  0
  9 34  1  0  0  0  0
 10 11  2  0  0  0  0
 10 12  1  0  0  0  0
 12 13  1  0  0  0  0
 12 35  1  0  0  0  0
 12 36  1  0  0  0  0
 13 18  1  0  0  0  0
 13 14  1  0  0  0  0
 14 15  2  0  0  0  0
 14 37  1  0  0  0  0
 15 16  1  0  0  0  0
 15 17  1  0  0  0  0
 16 38  1  0  0  0  0
 16 39  1  0  0  0  0
 16 40  1  0  0  0  0
 17 18  2  0  0  0  0
 17 41  1  0  0  0  0
 19 42  1  0  0  0  0
 19 43  1  0  0  0  0
M  CHG  1   3   1
M  END
> <s_m_source_file>
AV-unprocessed.smi

> <i_m_source_file_index>
1103

> <i_lp_mmshare_version>
43012

> <i_f3d_flags>
0

> <s_epik_input>
W0NIM11bQ0gyXU4xW0NIMl1bQ0gyXVtDSDJdW0NASF0oW0NIMl0xKVtDSDJdW05IXUMoPU8pW0NIMl1uMltjSF1jKFtDSDNdKVtjSF1uMg==

> <s_epik_cmdline>
J2VwaWtfcHl0aG9uJywgJy1waCcsICc3LjAnLCAnLXRuJywgJzgnLCAnLW1hJywgJzIwMCcsICctbWV0YWxfYmluZGluZycsICctaW1hZScsICc8aW5maWxlLm1hZT4nLCAnLW9tYWUnLCAnPG91dGZpbGUubWFlPic=

> <r_lp_tautomer_probability>
1

> <r_epik_Ionization_Penalty>
0.000672456

> <r_epik_Ionization_Penalty_Charging>
0.000647327

> <r_epik_Ionization_Penalty_Neutral>
2.51297e-05

> <r_epik_State_Penalty>
0.000409793

> <r_epik_Charging_Adjusted_Penalty>
0.00105712

> <i_epik_Tot_Q>
1

> <i_epik_Tot_abs_Q>
1

> <r_epik_Metal_State_Penalty>
-0

> <b_epik_Metal_Only>
0

> <s_lp_Force_Field>
OPLS_2005

> <r_lp_Energy>
16.1771

> <b_lp_Chiralities_Consistent>
1

> <s_lp_Variant>
AV-unprocessed.smi:1103-4

> <Gold.Version>
5.8.1

> <Gold.Id.Protein>
6NUR|6NUR_protein|mol2

> <Gold.PLP.Fitness>
48.0417

> <Gold.PLP.PLP>
-37.5526

> <Gold.PLP.part.hbond>
-2.0000

> <Gold.PLP.part.metal>
0.0000

> <Gold.PLP.part.buried>
-2.3646

> <Gold.PLP.part.nonpolar>
-32.9976

> <Gold.PLP.part.repulsive>
0.2125

> <Gold.PLP.ligand.clash>
0.0000

> <Gold.PLP.ligand.torsion>
0.7716

> <Gold.PLP.Chemscore.Hbond>
3.0000

> <Gold.PLP.Chemscore.CHOScore>
1.0000

> <Gold.PLP.Chemscore.Metal>
0.0000

> <Gold.Chemscore.Hbonds>
donor molecule, donor type, donor heavy atom, donor atom, acceptor molecule, acceptor atom, score
      L1  H     3    44       P1  7948  2.00
      P1  H  7997  8010       L1    11  1.00
      L1  C    17    41       P1  8028  1.00

> <Gold.PLP.Chemscore.Internal.Correction>
0.0324

> <Gold.Rescore>
     Score         DG    S(hbond)    S(metal)    S(lipo)     H(rot)  DE(clash)    DE(int)     intcor
     17.45     -19.36       1.98        0.00      98.83       1.68       0.02       1.90       ----

> <Gold.Chemscore.Fitness>
17.4476

> <Gold.Chemscore.DG>
-19.3627

> <Gold.Chemscore.ZeroCoef>
-5.4800

> <Gold.Chemscore.Hbond>
1.9838

> <Gold.Chemscore.Metal>
0.0000

> <Gold.Chemscore.Lipo>
98.8326

> <Gold.Chemscore.Internal_Hbond>
0.0000

> <Gold.Chemscore.DEClash>
0.0171

> <Gold.Chemscore.DEInternal>
1.8980

> <Gold.Chemscore.Rot>
1.6823

> <Gold.Chemscore.Internal.Correction>
   9.000000E+99

> <Gold.Chemscore.Hbonds>
donor molecule, donor type, donor heavy atom, donor atom, acceptor molecule, acceptor atom, score
      L1  H     3    44       P1  7948  1.00
      P1  H  7997  8010       L1    11  0.95

> <Gold.Chemscore.Hbond.Weighted>
-6.6258

> <Gold.Chemscore.Metal.Weighted>
-0.0000

> <Gold.Chemscore.Lipo.Weighted>
-11.5634

> <Gold.Chemscore.Internal_Hbond.Weighted>
0.0000

> <Gold.Chemscore.DEClash.Weighted>
0.0171

> <Gold.Chemscore.DEInternal.Weighted>
1.8980

> <Gold.Chemscore.Rot.Weighted>
4.3066

> <Gold.Chemscore.Internal.Correction.Weighted>
   9.000000E+99

> <Gold.Protein.RotatedTorsions>
[ 6907 6896 6895 6894 ] final  156.94 input  -60.11 | X-H torsion
[ 7974 7965 7964 7962 ] final  174.50 input  175.53 | X-H torsion
[ 8008 7997 7996 7995 ] final   40.27 input   59.86 | X-H torsion
[ 10167 10162 10161 10158 ] final   84.29 input  -65.29 | X-H torsion
[ 10718 10713 10712 10709 ] final  -79.59 input   66.30 | X-H torsion
[ 10763 10752 10751 10750 ] final  115.80 input  -60.55 | X-H torsion
[ 11005 11000 10999 10996 ] final    6.67 input  -57.11 | X-H torsion

> <Gold.Protein.ActiveResidues>
 VAL166  LYS551  ARG553  GLY616  TRP617  ASP618  TYR619  PRO620  LYS621  CYS622 
 ASP623  PHE694  ASN695  SER759  ASP760  ASP761  ALA762  ILE779  LEU786  VAL792 
 PHE793  MET794  SER795  GLU796  ALA797  LYS798  CYS799  TRP800  GLU811  SER814 

> <Gold.Protein.RotatedAtoms>
  152.0224  133.3904  159.4263 H   0  0  0  0  0  0  0  0  0  0  0  0  # atno 6907 bound_to 6896
  150.6889  134.3611  159.4960 H   0  0  0  0  0  0  0  0  0  0  0  0  # atno 6908 bound_to 6896
  152.1387  134.9079  160.0605 H   0  0  0  0  0  0  0  0  0  0  0  0  # atno 6909 bound_to 6896
  144.7220  139.9806  143.6438 H   0  0  0  0  0  0  0  0  0  0  0  0  # atno 7974 bound_to 7965
  155.2503  140.3352  155.4283 H   0  0  0  0  0  0  0  0  0  0  0  0  # atno 8008 bound_to 7997
  156.2218  140.1812  156.7502 H   0  0  0  0  0  0  0  0  0  0  0  0  # atno 8009 bound_to 7997
  154.5837  140.0649  156.9126 H   0  0  0  0  0  0  0  0  0  0  0  0  # atno 8010 bound_to 7997
  139.9095  144.6280  150.8552 H   0  0  0  0  0  0  0  0  0  0  0  0  # atno 10167 bound_to 10162
  156.0089  130.4550  150.3672 H   0  0  0  0  0  0  0  0  0  0  0  0  # atno 10718 bound_to 10713
  153.5276  135.3585  155.2661 H   0  0  0  0  0  0  0  0  0  0  0  0  # atno 10763 bound_to 10752
  154.8730  135.4060  154.3188 H   0  0  0  0  0  0  0  0  0  0  0  0  # atno 10764 bound_to 10752
  153.3871  135.7070  153.6590 H   0  0  0  0  0  0  0  0  0  0  0  0  # atno 10765 bound_to 10752
  140.5568  134.0230  155.7957 H   0  0  0  0  0  0  0  0  0  0  0  0  # atno 11005 bound_to 11000
  146.0490  139.3493  143.0651 LP  0  0  0  0  0  0  0  0  0  0  0  0  # atno 17320 bound_to 7965
  145.8238  140.9665  143.0885 LP  0  0  0  0  0  0  0  0  0  0  0  0  # atno 17321 bound_to 7965
  140.7688  143.3376  151.2276 LP  0  0  0  0  0  0  0  0  0  0  0  0  # atno 17342 bound_to 10162
  139.6954  143.9621  152.2880 LP  0  0  0  0  0  0  0  0  0  0  0  0  # atno 17343 bound_to 10162
  157.1758  131.0380  151.2773 LP  0  0  0  0  0  0  0  0  0  0  0  0  # atno 17370 bound_to 10713
  157.4189  130.7426  149.6897 LP  0  0  0  0  0  0  0  0  0  0  0  0  # atno 17371 bound_to 10713
  141.1138  133.9573  157.2860 LP  0  0  0  0  0  0  0  0  0  0  0  0  # atno 17394 bound_to 11000
  139.9427  135.0189  156.8759 LP  0  0  0  0  0  0  0  0  0  0  0  0  # atno 17395 bound_to 11000

$$$$
