AV-unprocessed.smi:283|AV-procd|sdf|2139|dock10
  -GOLD-   2262021463D 1   1.00000     0.00000
 Structure written by MMmdl.
 48 51  0  0  0  0  0  0  0  0  1 V2000
  154.0242  140.9933  160.3741 C   0  0  0  0  0  0  0  0  0  0  0  0
  152.6542  141.2481  159.7198 C   0  0  2  0  0  0  0  0  0  0  0  0
  152.5521  140.5718  158.4269 N   0  0  0  0  0  0  0  0  0  0  0  0
  151.6192  139.6227  158.1909 C   0  0  0  0  0  0  0  0  0  0  0  0
  151.6355  138.4344  158.8495 N   0  0  0  0  0  0  0  0  0  0  0  0
  150.6952  137.5184  158.6003 C   0  0  0  0  0  0  0  0  0  0  0  0
  149.6681  137.5877  157.7508 N   0  0  0  0  0  0  0  0  0  0  0  0
  149.6441  138.7814  157.0886 C   0  0  0  0  0  0  0  0  0  0  0  0
  150.5772  139.8426  157.2534 C   0  0  0  0  0  0  0  0  0  0  0  0
  150.2377  140.9018  156.4214 N   0  0  0  0  0  0  0  0  0  0  0  0
  149.1639  140.4871  155.8042 C   0  0  0  0  0  0  0  0  0  0  0  0
  148.7354  139.2242  156.1472 N   0  0  0  0  0  0  0  0  0  0  0  0
  147.5442  138.4917  155.6136 C   0  0  1  0  0  0  0  0  0  0  0  0
  146.9624  139.2402  154.5976 O   0  0  0  0  0  0  0  0  0  0  0  0
  146.2903  138.3659  153.6972 C   0  0  1  0  0  0  0  0  0  0  0  0
  146.5174  138.8614  152.2576 C   0  0  0  0  0  0  0  0  0  0  0  0
  147.7686  138.4467  151.7501 O   0  0  0  0  0  0  0  0  0  0  0  0
  146.7729  136.9306  153.9999 C   0  0  2  0  0  0  0  0  0  0  0  0
  145.7160  136.1928  154.5840 O   0  0  0  0  0  0  0  0  0  0  0  0
  147.8902  137.1192  155.0188 C   0  0  1  0  0  0  0  0  0  0  0  0
  149.1606  137.0756  154.3952 O   0  0  0  0  0  0  0  0  0  0  0  0
  152.3960  142.7507  159.6181 C   0  0  0  0  0  0  0  0  0  0  0  0
  152.1341  143.3392  158.3581 C   0  0  0  0  0  0  0  0  0  0  0  0
  151.8991  144.7225  158.2457 C   0  0  0  0  0  0  0  0  0  0  0  0
  151.9300  145.5362  159.3922 C   0  0  0  0  0  0  0  0  0  0  0  0
  152.2025  144.9650  160.6488 C   0  0  0  0  0  0  0  0  0  0  0  0
  152.4392  143.5806  160.7676 C   0  0  0  0  0  0  0  0  0  0  0  0
  152.7859  142.9398  162.3361 Cl  0  0  0  0  0  0  0  0  0  0  0  0
  146.8498  138.4217  156.4522 H   0  0  0  0  0  0  0  0  0  0  0  0
  145.2249  138.4574  153.9163 H   0  0  0  0  0  0  0  0  0  0  0  0
  147.1060  136.3925  153.1113 H   0  0  0  0  0  0  0  0  0  0  0  0
  147.8794  136.3662  155.8081 H   0  0  0  0  0  0  0  0  0  0  0  0
  154.0790  141.4591  161.3585 H   0  0  0  0  0  0  0  0  0  0  0  0
  154.8334  141.4027  159.7685 H   0  0  0  0  0  0  0  0  0  0  0  0
  154.2191  139.9294  160.5091 H   0  0  0  0  0  0  0  0  0  0  0  0
  151.8794  140.8256  160.3583 H   0  0  0  0  0  0  0  0  0  0  0  0
  153.2622  140.8162  157.7519 H   0  0  0  0  0  0  0  0  0  0  0  0
  150.7763  136.5997  159.1622 H   0  0  0  0  0  0  0  0  0  0  0  0
  148.6484  141.0978  155.0771 H   0  0  0  0  0  0  0  0  0  0  0  0
  145.7427  138.4609  151.6032 H   0  0  0  0  0  0  0  0  0  0  0  0
  146.4462  139.9483  152.2088 H   0  0  0  0  0  0  0  0  0  0  0  0
  148.3855  139.1549  151.8612 H   0  0  0  0  0  0  0  0  0  0  0  0
  145.2478  136.7593  155.1781 H   0  0  0  0  0  0  0  0  0  0  0  0
  149.0445  136.7961  153.4999 H   0  0  0  0  0  0  0  0  0  0  0  0
  152.1150  142.7343  157.4637 H   0  0  0  0  0  0  0  0  0  0  0  0
  151.6973  145.1593  157.2787 H   0  0  0  0  0  0  0  0  0  0  0  0
  151.7505  146.5979  159.3076 H   0  0  0  0  0  0  0  0  0  0  0  0
  152.2322  145.5942  161.5263 H   0  0  0  0  0  0  0  0  0  0  0  0
  1  2  1  0  0  0  0
  1 33  1  0  0  0  0
  1 34  1  0  0  0  0
  1 35  1  0  0  0  0
  2  3  1  0  0  0  0
  2 22  1  0  0  0  0
  2 36  1  0  0  0  0
  3  4  1  0  0  0  0
  3 37  1  0  0  0  0
  4  9  1  0  0  0  0
  4  5  2  0  0  0  0
  5  6  1  0  0  0  0
  6  7  2  0  0  0  0
  6 38  1  0  0  0  0
  7  8  1  0  0  0  0
  8 12  1  0  0  0  0
  8  9  2  0  0  0  0
  9 10  1  0  0  0  0
 10 11  2  0  0  0  0
 11 12  1  0  0  0  0
 11 39  1  0  0  0  0
 12 13  1  0  0  0  0
 13 29  1  0  0  0  0
 13 20  1  0  0  0  0
 13 14  1  0  0  0  0
 14 15  1  0  0  0  0
 15 30  1  0  0  0  0
 15 16  1  0  0  0  0
 15 18  1  0  0  0  0
 16 17  1  0  0  0  0
 16 40  1  0  0  0  0
 16 41  1  0  0  0  0
 17 42  1  0  0  0  0
 18 31  1  0  0  0  0
 18 19  1  0  0  0  0
 18 20  1  0  0  0  0
 19 43  1  0  0  0  0
 20 32  1  0  0  0  0
 20 21  1  0  0  0  0
 21 44  1  0  0  0  0
 22 27  1  0  0  0  0
 22 23  2  0  0  0  0
 23 24  1  0  0  0  0
 23 45  1  0  0  0  0
 24 25  2  0  0  0  0
 24 46  1  0  0  0  0
 25 26  1  0  0  0  0
 25 47  1  0  0  0  0
 26 27  2  0  0  0  0
 26 48  1  0  0  0  0
 27 28  1  0  0  0  0
M  END
> <s_m_source_file>
AV-unprocessed.smi

> <i_m_source_file_index>
283

> <i_lp_mmshare_version>
43012

> <i_f3d_flags>
0

> <s_epik_input>
Q2xjMVtjSF1bY0hdW2NIXVtjSF1jMVtDQEhdKFtDSDNdKVtOSF1jKG5bY0hdbjIpYyhjMjMpbltjSF1uM1tDQEBIXTRPW0NASF0oW0NIMl1bT0hdKVtDQEBIXShbT0hdKVtDQEhdNFtPSF0=

> <s_epik_cmdline>
J2VwaWtfcHl0aG9uJywgJy1waCcsICc3LjAnLCAnLXRuJywgJzgnLCAnLW1hJywgJzIwMCcsICctbWV0YWxfYmluZGluZycsICctaW1hZScsICc8aW5maWxlLm1hZT4nLCAnLW9tYWUnLCAnPG91dGZpbGUubWFlPic=

> <r_lp_tautomer_probability>
1

> <r_epik_Ionization_Penalty>
0.000266407

> <r_epik_Ionization_Penalty_Charging>
0

> <r_epik_Ionization_Penalty_Neutral>
0.000266407

> <r_epik_State_Penalty>
-0

> <r_epik_Charging_Adjusted_Penalty>
0

> <i_epik_Tot_Q>
0

> <i_epik_Tot_abs_Q>
0

> <r_epik_Metal_State_Penalty>
-0

> <b_epik_Metal_Only>
0

> <s_epik_Chemistry_Notes>
This compound contains an acetal/aminal-like group ( X-CH(R)-Y where X, Y are N, S, or O) that may be acid/base labile, releasing an aldehyde.

> <s_lp_Force_Field>
OPLS_2005

> <r_lp_Energy>
48.6958

> <b_lp_Chiralities_Consistent>
1

> <s_lp_Variant>
AV-unprocessed.smi:283-15

> <Gold.Version>
5.8.1

> <Gold.Id.Protein>
6NUR|6NUR_protein|mol2

> <Gold.PLP.Fitness>
55.6643

> <Gold.PLP.PLP>
-48.8273

> <Gold.PLP.part.hbond>
-3.6850

> <Gold.PLP.part.metal>
0.0000

> <Gold.PLP.part.buried>
-5.3493

> <Gold.PLP.part.nonpolar>
-39.9054

> <Gold.PLP.part.repulsive>
0.2317

> <Gold.PLP.ligand.clash>
0.0000

> <Gold.PLP.ligand.torsion>
0.8912

> <Gold.PLP.Chemscore.Hbond>
2.8560

> <Gold.PLP.Chemscore.CHOScore>
0.0000

> <Gold.PLP.Chemscore.Metal>
0.0000

> <Gold.Chemscore.Hbonds>
donor molecule, donor type, donor heavy atom, donor atom, acceptor molecule, acceptor atom, score
      L1  H    17    42       P1  7957  0.88
      L1  H    21    44       P1  7948  1.00
      P1  H  7954  7966       L1    17  0.98

> <Gold.PLP.Chemscore.Internal.Correction>
0.0513

> <Gold.Rescore>
     Score         DG    S(hbond)    S(metal)    S(lipo)     H(rot)  DE(clash)    DE(int)     intcor
     15.93     -16.97       2.20        0.00     124.93       4.10       0.10       0.94       ----

> <Gold.Chemscore.Fitness>
15.9270

> <Gold.Chemscore.DG>
-16.9686

> <Gold.Chemscore.ZeroCoef>
-5.4800

> <Gold.Chemscore.Hbond>
2.2036

> <Gold.Chemscore.Metal>
0.0000

> <Gold.Chemscore.Lipo>
124.9279

> <Gold.Chemscore.Internal_Hbond>
0.0000

> <Gold.Chemscore.DEClash>
0.0997

> <Gold.Chemscore.DEInternal>
0.9419

> <Gold.Chemscore.Rot>
4.0968

> <Gold.Chemscore.Internal.Correction>
   9.000000E+99

> <Gold.Chemscore.Hbonds>
donor molecule, donor type, donor heavy atom, donor atom, acceptor molecule, acceptor atom, score
      L1  H    17    42       P1  7957  0.84
      L1  H    21    44       P1  7948  1.00
      P1  H  7954  7966       L1    17  0.23

> <Gold.Chemscore.Hbond.Weighted>
-7.3599

> <Gold.Chemscore.Metal.Weighted>
-0.0000

> <Gold.Chemscore.Lipo.Weighted>
-14.6166

> <Gold.Chemscore.Internal_Hbond.Weighted>
0.0000

> <Gold.Chemscore.DEClash.Weighted>
0.0997

> <Gold.Chemscore.DEInternal.Weighted>
0.9419

> <Gold.Chemscore.Rot.Weighted>
10.4879

> <Gold.Chemscore.Internal.Correction.Weighted>
   9.000000E+99

> <Gold.Protein.RotatedTorsions>
[ 6907 6896 6895 6894 ] final  140.82 input  -60.11 | X-H torsion
[ 7974 7965 7964 7962 ] final   79.29 input  175.53 | X-H torsion
[ 8008 7997 7996 7995 ] final   27.01 input   59.86 | X-H torsion
[ 10167 10162 10161 10158 ] final  118.04 input  -65.29 | X-H torsion
[ 10718 10713 10712 10709 ] final   99.03 input   66.30 | X-H torsion
[ 10763 10752 10751 10750 ] final  179.95 input  -60.55 | X-H torsion
[ 11005 11000 10999 10996 ] final  -80.07 input  -57.11 | X-H torsion

> <Gold.Protein.ActiveResidues>
 VAL166  LYS551  ARG553  GLY616  TRP617  ASP618  TYR619  PRO620  LYS621  CYS622 
 ASP623  PHE694  ASN695  SER759  ASP760  ASP761  ALA762  ILE779  LEU786  VAL792 
 PHE793  MET794  SER795  GLU796  ALA797  LYS798  CYS799  TRP800  GLU811  SER814 

> <Gold.Protein.RotatedAtoms>
  152.2385  133.5115  159.5255 H   0  0  0  0  0  0  0  0  0  0  0  0  # atno 6907 bound_to 6896
  150.7057  134.1121  159.4013 H   0  0  0  0  0  0  0  0  0  0  0  0  # atno 6908 bound_to 6896
  151.9042  135.0365  160.0560 H   0  0  0  0  0  0  0  0  0  0  0  0  # atno 6909 bound_to 6896
  145.6661  139.2484  143.1895 H   0  0  0  0  0  0  0  0  0  0  0  0  # atno 7974 bound_to 7965
  155.0362  140.3164  155.4741 H   0  0  0  0  0  0  0  0  0  0  0  0  # atno 8008 bound_to 7997
  156.2864  140.2171  156.5427 H   0  0  0  0  0  0  0  0  0  0  0  0  # atno 8009 bound_to 7997
  154.7329  140.0480  157.0730 H   0  0  0  0  0  0  0  0  0  0  0  0  # atno 8010 bound_to 7997
  139.6138  144.7087  151.2784 H   0  0  0  0  0  0  0  0  0  0  0  0  # atno 10167 bound_to 10162
  157.6884  131.0657  150.4886 H   0  0  0  0  0  0  0  0  0  0  0  0  # atno 10718 bound_to 10713
  154.5272  135.2797  155.1211 H   0  0  0  0  0  0  0  0  0  0  0  0  # atno 10763 bound_to 10752
  154.2745  135.6297  153.5327 H   0  0  0  0  0  0  0  0  0  0  0  0  # atno 10764 bound_to 10752
  152.9949  135.5636  154.5777 H   0  0  0  0  0  0  0  0  0  0  0  0  # atno 10765 bound_to 10752
  141.1668  133.7133  156.8217 H   0  0  0  0  0  0  0  0  0  0  0  0  # atno 11005 bound_to 11000
  146.1085  140.7458  142.9515 LP  0  0  0  0  0  0  0  0  0  0  0  0  # atno 17320 bound_to 7965
  144.7072  140.3900  143.7108 LP  0  0  0  0  0  0  0  0  0  0  0  0  # atno 17321 bound_to 7965
  140.7337  143.6786  150.8020 LP  0  0  0  0  0  0  0  0  0  0  0  0  # atno 17342 bound_to 10162
  140.0386  143.5370  152.2728 LP  0  0  0  0  0  0  0  0  0  0  0  0  # atno 17343 bound_to 10162
  156.5214  130.4163  149.6249 LP  0  0  0  0  0  0  0  0  0  0  0  0  # atno 17370 bound_to 10713
  156.3151  130.7250  151.2151 LP  0  0  0  0  0  0  0  0  0  0  0  0  # atno 17371 bound_to 10713
  140.2114  134.8824  157.3279 LP  0  0  0  0  0  0  0  0  0  0  0  0  # atno 17394 bound_to 11000
  140.2082  134.4170  155.7626 LP  0  0  0  0  0  0  0  0  0  0  0  0  # atno 17395 bound_to 11000

$$$$
