AV-unprocessed.smi:2671|AV-procd|sdf|10347|dock3
  -GOLD-   2272014373D 1   1.00000     0.00000
 Structure written by MMmdl.
 28 29  0  0  0  0  0  0  0  0  2 V2000
  153.2466  136.3310  159.5144 O   0  0  0  0  0  0  0  0  0  0  0  0
  153.6700  137.2009  160.2728 C   0  0  0  0  0  0  0  0  0  0  0  0
  154.1137  136.8312  161.6158 C   0  0  0  0  0  0  0  0  0  0  0  0
  154.5875  137.7970  162.4425 C   0  0  0  0  0  0  0  0  0  0  0  0
  155.0447  137.4762  163.8557 C   0  0  0  0  0  0  0  0  0  0  0  0
  156.1016  136.6640  163.8300 F   0  0  0  0  0  0  0  0  0  0  0  0
  155.3976  138.5947  164.4888 F   0  0  0  0  0  0  0  0  0  0  0  0
  154.0804  136.8833  164.5619 F   0  0  0  0  0  0  0  0  0  0  0  0
  154.6379  139.1372  162.0154 N   0  0  0  0  0  0  0  0  0  0  0  0
  154.2408  139.4378  160.8352 C   0  0  0  0  0  0  0  0  0  0  0  0
  154.3061  141.1514  160.2822 S   0  0  0  0  0  0  0  0  0  0  0  0
  153.0693  141.9904  161.3173 C   0  0  0  0  0  0  0  0  0  0  0  0
  152.7425  143.3940  160.7899 C   0  0  1  0  0  0  0  0  0  0  0  0
  152.9330  143.5698  159.2792 C   0  0  0  0  0  0  0  0  0  0  0  0
  151.8437  144.5549  158.8748 C   0  0  0  0  0  0  0  0  0  0  0  0
  151.0719  144.8122  160.1685 C   0  0  0  0  0  0  0  0  0  0  0  0
  151.3656  143.6832  160.9753 O   0  0  0  0  0  0  0  0  0  0  0  0
  153.7527  138.5192  159.9303 N   0  5  0  0  0  0  0  0  0  0  0  0
  154.0630  135.8029  161.9426 H   0  0  0  0  0  0  0  0  0  0  0  0
  153.4608  142.0645  162.3323 H   0  0  0  0  0  0  0  0  0  0  0  0
  152.1637  141.3847  161.3656 H   0  0  0  0  0  0  0  0  0  0  0  0
  153.3246  144.1436  161.3293 H   0  0  0  0  0  0  0  0  0  0  0  0
  153.9336  143.9294  159.0367 H   0  0  0  0  0  0  0  0  0  0  0  0
  152.7841  142.6245  158.7556 H   0  0  0  0  0  0  0  0  0  0  0  0
  152.2485  145.4780  158.4592 H   0  0  0  0  0  0  0  0  0  0  0  0
  151.1934  144.1054  158.1234 H   0  0  0  0  0  0  0  0  0  0  0  0
  151.4371  145.7136  160.6634 H   0  0  0  0  0  0  0  0  0  0  0  0
  149.9994  144.9224  160.0057 H   0  0  0  0  0  0  0  0  0  0  0  0
  1  2  2  0  0  0  0
  2 18  1  0  0  0  0
  2  3  1  0  0  0  0
  3 19  1  0  0  0  0
  3  4  2  0  0  0  0
  4  5  1  0  0  0  0
  4  9  1  0  0  0  0
  5  6  1  0  0  0  0
  5  7  1  0  0  0  0
  5  8  1  0  0  0  0
  9 10  2  0  0  0  0
 10 11  1  0  0  0  0
 10 18  1  0  0  0  0
 11 12  1  0  0  0  0
 12 13  1  0  0  0  0
 12 20  1  0  0  0  0
 12 21  1  0  0  0  0
 13 17  1  0  0  0  0
 13 14  1  0  0  0  0
 13 22  1  0  0  0  0
 14 15  1  0  0  0  0
 14 23  1  0  0  0  0
 14 24  1  0  0  0  0
 15 16  1  0  0  0  0
 15 25  1  0  0  0  0
 15 26  1  0  0  0  0
 16 17  1  0  0  0  0
 16 27  1  0  0  0  0
 16 28  1  0  0  0  0
M  CHG  1  18  -1
M  END
> <s_m_source_file>
AV-unprocessed.smi

> <i_m_source_file_index>
2671

> <i_lp_mmshare_version>
43012

> <i_f3d_flags>
0

> <s_epik_input>
W09IXWMxW2NIXWMoQyhGKShGKUYpbmMobjEpU1tDSDJdW0NAQEhdMltDSDJdW0NIMl1bQ0gyXU8y

> <s_epik_cmdline>
J2VwaWtfcHl0aG9uJywgJy1waCcsICc3LjAnLCAnLXRuJywgJzgnLCAnLW1hJywgJzIwMCcsICctbWV0YWxfYmluZGluZycsICctaW1hZScsICc8aW5maWxlLm1hZT4nLCAnLW9tYWUnLCAnPG91dGZpbGUubWFlPic=

> <r_lp_tautomer_probability>
1

> <r_epik_Ionization_Penalty>
0.972901

> <r_epik_Ionization_Penalty_Charging>
0.00136034

> <r_epik_Ionization_Penalty_Neutral>
0.971541

> <r_epik_State_Penalty>
0.242243

> <r_epik_Charging_Adjusted_Penalty>
0.243604

> <i_epik_Tot_Q>
-1

> <i_epik_Tot_abs_Q>
1

> <r_epik_Metal_State_Penalty>
0.0617458

> <b_epik_Metal_Only>
0

> <s_lp_Force_Field>
OPLS_2005

> <r_lp_Energy>
24.5089

> <b_lp_Chiralities_Consistent>
1

> <s_lp_Variant>
AV-unprocessed.smi:2671-2

> <Gold.Version>
5.8.1

> <Gold.Id.Protein>
6NUR|6NUR_protein|mol2

> <Gold.PLP.Fitness>
44.6812

> <Gold.PLP.PLP>
-42.9041

> <Gold.PLP.part.hbond>
-1.3266

> <Gold.PLP.part.metal>
0.0000

> <Gold.PLP.part.buried>
-5.5657

> <Gold.PLP.part.nonpolar>
-35.9178

> <Gold.PLP.part.repulsive>
0.1398

> <Gold.PLP.ligand.clash>
0.0000

> <Gold.PLP.ligand.torsion>
0.5823

> <Gold.PLP.Chemscore.Hbond>
0.9760

> <Gold.PLP.Chemscore.CHOScore>
0.0000

> <Gold.PLP.Chemscore.Metal>
0.0000

> <Gold.Chemscore.Hbonds>
donor molecule, donor type, donor heavy atom, donor atom, acceptor molecule, acceptor atom, score
      P1  H  6896  6907       L1     1  1.00

> <Gold.PLP.Chemscore.Internal.Correction>
0.0137

> <Gold.Rescore>
     Score         DG    S(hbond)    S(metal)    S(lipo)     H(rot)  DE(clash)    DE(int)     intcor
     14.73     -15.05       1.00        0.00      89.68       1.66       0.03       0.29       ----

> <Gold.Chemscore.Fitness>
14.7315

> <Gold.Chemscore.DG>
-15.0486

> <Gold.Chemscore.ZeroCoef>
-5.4800

> <Gold.Chemscore.Hbond>
0.9992

> <Gold.Chemscore.Metal>
0.0000

> <Gold.Chemscore.Lipo>
89.6850

> <Gold.Chemscore.Internal_Hbond>
0.0000

> <Gold.Chemscore.DEClash>
0.0306

> <Gold.Chemscore.DEInternal>
0.2865

> <Gold.Chemscore.Rot>
1.6649

> <Gold.Chemscore.Internal.Correction>
   9.000000E+99

> <Gold.Chemscore.Hbonds>
donor molecule, donor type, donor heavy atom, donor atom, acceptor molecule, acceptor atom, score
      P1  H  6896  6907       L1     1  0.95

> <Gold.Chemscore.Hbond.Weighted>
-3.3374

> <Gold.Chemscore.Metal.Weighted>
-0.0000

> <Gold.Chemscore.Lipo.Weighted>
-10.4931

> <Gold.Chemscore.Internal_Hbond.Weighted>
0.0000

> <Gold.Chemscore.DEClash.Weighted>
0.0306

> <Gold.Chemscore.DEInternal.Weighted>
0.2865

> <Gold.Chemscore.Rot.Weighted>
4.2620

> <Gold.Chemscore.Internal.Correction.Weighted>
   9.000000E+99

> <Gold.Protein.RotatedTorsions>
[ 6907 6896 6895 6894 ] final   53.27 input  -60.11 | X-H torsion
[ 7974 7965 7964 7962 ] final   49.46 input  175.53 | X-H torsion
[ 8008 7997 7996 7995 ] final  -81.16 input   59.86 | X-H torsion
[ 10167 10162 10161 10158 ] final -112.68 input  -65.29 | X-H torsion
[ 10718 10713 10712 10709 ] final   67.73 input   66.30 | X-H torsion
[ 10763 10752 10751 10750 ] final  -76.59 input  -60.55 | X-H torsion
[ 11005 11000 10999 10996 ] final  -36.82 input  -57.11 | X-H torsion

> <Gold.Protein.ActiveResidues>
 VAL166  LYS551  ARG553  GLY616  TRP617  ASP618  TYR619  PRO620  LYS621  CYS622 
 ASP623  PHE694  ASN695  SER759  ASP760  ASP761  ALA762  ILE779  LEU786  VAL792 
 PHE793  MET794  SER795  GLU796  ALA797  LYS798  CYS799  TRP800  GLU811  SER814 

> <Gold.Protein.RotatedAtoms>
  152.3319  134.7248  160.0286 H   0  0  0  0  0  0  0  0  0  0  0  0  # atno 6907 bound_to 6896
  151.7662  133.3332  159.3439 H   0  0  0  0  0  0  0  0  0  0  0  0  # atno 6908 bound_to 6896
  150.7428  134.5992  159.6072 H   0  0  0  0  0  0  0  0  0  0  0  0  # atno 6909 bound_to 6896
  146.0106  139.4539  142.9958 H   0  0  0  0  0  0  0  0  0  0  0  0  # atno 7974 bound_to 7965
  154.5956  140.0652  156.9298 H   0  0  0  0  0  0  0  0  0  0  0  0  # atno 8008 bound_to 7997
  155.2220  140.3331  155.4296 H   0  0  0  0  0  0  0  0  0  0  0  0  # atno 8009 bound_to 7997
  156.2285  140.1830  156.7288 H   0  0  0  0  0  0  0  0  0  0  0  0  # atno 8010 bound_to 7997
  140.1201  143.4451  152.1696 H   0  0  0  0  0  0  0  0  0  0  0  0  # atno 10167 bound_to 10162
  157.6248  130.9336  150.0282 H   0  0  0  0  0  0  0  0  0  0  0  0  # atno 10718 bound_to 10713
  154.5019  135.5792  153.6537 H   0  0  0  0  0  0  0  0  0  0  0  0  # atno 10763 bound_to 10752
  152.9880  135.6138  154.2992 H   0  0  0  0  0  0  0  0  0  0  0  0  # atno 10764 bound_to 10752
  154.2900  135.2849  155.2638 H   0  0  0  0  0  0  0  0  0  0  0  0  # atno 10765 bound_to 10752
  140.9905  133.7008  156.1841 H   0  0  0  0  0  0  0  0  0  0  0  0  # atno 11005 bound_to 11000
  145.7347  141.0030  143.1333 LP  0  0  0  0  0  0  0  0  0  0  0  0  # atno 17320 bound_to 7965
  144.6952  139.9027  143.7459 LP  0  0  0  0  0  0  0  0  0  0  0  0  # atno 17321 bound_to 7965
  139.5573  144.7382  151.4257 LP  0  0  0  0  0  0  0  0  0  0  0  0  # atno 17342 bound_to 10162
  140.6877  143.7936  150.7209 LP  0  0  0  0  0  0  0  0  0  0  0  0  # atno 17343 bound_to 10162
  156.1413  130.3642  149.9578 LP  0  0  0  0  0  0  0  0  0  0  0  0  # atno 17370 bound_to 10713
  156.7618  130.9154  151.3641 LP  0  0  0  0  0  0  0  0  0  0  0  0  # atno 17371 bound_to 10713
  140.7048  134.4525  157.5584 LP  0  0  0  0  0  0  0  0  0  0  0  0  # atno 17394 bound_to 11000
  139.8990  134.8601  156.1979 LP  0  0  0  0  0  0  0  0  0  0  0  0  # atno 17395 bound_to 11000

$$$$
