AV-unprocessed.smi:907|AV-procd|sdf|4110|dock5
  -GOLD-   22720 2 03D 1   1.00000     0.00000
 Structure written by MMmdl.
 54 57  0  0  0  0  0  0  0  0  3 V2000
  148.4223  140.8820  155.8490 O   0  0  0  0  0  0  0  0  0  0  0  0
  149.4525  140.3634  155.4174 C   0  0  0  0  0  0  0  0  0  0  0  0
  150.6708  140.8633  155.6877 N   0  0  0  0  0  0  0  0  0  0  0  0
  150.9262  142.0283  156.5276 C   0  0  0  0  0  0  0  0  0  0  0  0
  151.8069  141.6738  157.7377 C   0  0  0  0  0  0  0  0  0  0  0  0
  151.8730  142.8022  158.7480 C   0  0  0  0  0  0  0  0  0  0  0  0
  151.7933  144.1571  158.3594 C   0  0  0  0  0  0  0  0  0  0  0  0
  151.8532  145.1621  159.3471 C   0  0  0  0  0  0  0  0  0  0  0  0
  151.9901  144.7915  160.7010 C   0  0  0  0  0  0  0  0  0  0  0  0
  152.0619  143.4231  161.0333 C   0  0  0  0  0  0  0  0  0  0  0  0
  152.0007  142.4895  160.0581 N   0  3  0  0  0  0  0  0  0  0  0  0
  149.4495  139.2940  154.5833 N   0  0  0  0  0  0  0  0  0  0  0  0
  150.6169  138.4838  154.2121 C   0  0  0  0  0  0  0  0  0  0  0  0
  150.5537  137.1420  154.9658 C   0  0  0  0  0  0  0  0  0  0  0  0
  149.2733  136.4210  154.7090 N   0  3  0  0  0  0  0  0  0  0  0  0
  149.1949  135.1186  155.4312 C   0  0  2  0  0  0  0  0  0  0  0  0
  150.3622  134.1473  155.1273 C   0  0  0  0  0  0  0  0  0  0  0  0
  149.6415  132.8263  154.7970 C   0  0  2  0  0  0  0  0  0  0  0  0
  149.0423  132.9309  153.3843 C   0  0  0  0  0  0  0  0  0  0  0  0
  147.8842  133.9238  153.5865 C   0  0  0  0  0  0  0  0  0  0  0  0
  147.9601  134.2447  155.0956 C   0  0  1  0  0  0  0  0  0  0  0  0
  148.3942  132.9004  155.6697 C   0  0  0  0  0  0  0  0  0  0  0  0
  148.0844  137.2918  154.9367 C   0  0  0  0  0  0  0  0  0  0  0  0
  148.2082  138.6279  154.1831 C   0  0  0  0  0  0  0  0  0  0  0  0
  151.4740  140.4057  155.2811 H   0  0  0  0  0  0  0  0  0  0  0  0
  151.3950  142.8144  155.9330 H   0  0  0  0  0  0  0  0  0  0  0  0
  149.9682  142.4252  156.8647 H   0  0  0  0  0  0  0  0  0  0  0  0
  151.4274  140.7763  158.2284 H   0  0  0  0  0  0  0  0  0  0  0  0
  152.8215  141.4387  157.4131 H   0  0  0  0  0  0  0  0  0  0  0  0
  151.6851  144.4243  157.3180 H   0  0  0  0  0  0  0  0  0  0  0  0
  151.7935  146.2043  159.0691 H   0  0  0  0  0  0  0  0  0  0  0  0
  152.0379  145.5461  161.4727 H   0  0  0  0  0  0  0  0  0  0  0  0
  152.1653  143.0502  162.0418 H   0  0  0  0  0  0  0  0  0  0  0  0
  150.5998  138.3068  153.1356 H   0  0  0  0  0  0  0  0  0  0  0  0
  151.5722  138.9690  154.4121 H   0  0  0  0  0  0  0  0  0  0  0  0
  151.4046  136.5311  154.6670 H   0  0  0  0  0  0  0  0  0  0  0  0
  150.6571  137.3195  156.0377 H   0  0  0  0  0  0  0  0  0  0  0  0
  149.1816  135.3310  156.5021 H   0  0  0  0  0  0  0  0  0  0  0  0
  150.9904  134.4649  154.2944 H   0  0  0  0  0  0  0  0  0  0  0  0
  151.0036  134.0367  156.0027 H   0  0  0  0  0  0  0  0  0  0  0  0
  150.2583  131.9394  154.9449 H   0  0  0  0  0  0  0  0  0  0  0  0
  149.7674  133.2785  152.6473 H   0  0  0  0  0  0  0  0  0  0  0  0
  148.6648  131.9637  153.0497 H   0  0  0  0  0  0  0  0  0  0  0  0
  147.9810  134.8081  152.9564 H   0  0  0  0  0  0  0  0  0  0  0  0
  146.9326  133.4496  153.3426 H   0  0  0  0  0  0  0  0  0  0  0  0
  147.0253  134.6209  155.5124 H   0  0  0  0  0  0  0  0  0  0  0  0
  147.6820  132.0960  155.4762 H   0  0  0  0  0  0  0  0  0  0  0  0
  148.6145  132.9325  156.7384 H   0  0  0  0  0  0  0  0  0  0  0  0
  147.1753  136.7921  154.6039 H   0  0  0  0  0  0  0  0  0  0  0  0
  147.9715  137.4781  156.0061 H   0  0  0  0  0  0  0  0  0  0  0  0
  147.3245  139.2420  154.3629 H   0  0  0  0  0  0  0  0  0  0  0  0
  148.2268  138.4505  153.1067 H   0  0  0  0  0  0  0  0  0  0  0  0
  149.2671  136.1990  153.7238 H   0  0  0  0  0  0  0  0  0  0  0  0
  152.0542  141.5056  160.3220 H   0  0  0  0  0  0  0  0  0  0  0  0
  1  2  2  0  0  0  0
  2  3  1  0  0  0  0
  2 12  1  0  0  0  0
  3  4  1  0  0  0  0
  3 25  1  0  0  0  0
  4  5  1  0  0  0  0
  4 26  1  0  0  0  0
  4 27  1  0  0  0  0
  5  6  1  0  0  0  0
  5 28  1  0  0  0  0
  5 29  1  0  0  0  0
  6 11  1  0  0  0  0
  6  7  2  0  0  0  0
  7  8  1  0  0  0  0
  7 30  1  0  0  0  0
  8  9  2  0  0  0  0
  8 31  1  0  0  0  0
  9 10  1  0  0  0  0
  9 32  1  0  0  0  0
 10 11  2  0  0  0  0
 10 33  1  0  0  0  0
 11 54  1  0  0  0  0
 12 24  1  0  0  0  0
 12 13  1  0  0  0  0
 13 14  1  0  0  0  0
 13 34  1  0  0  0  0
 13 35  1  0  0  0  0
 14 15  1  0  0  0  0
 14 36  1  0  0  0  0
 14 37  1  0  0  0  0
 15 16  1  0  0  0  0
 15 23  1  0  0  0  0
 15 53  1  0  0  0  0
 16 21  1  0  0  0  0
 16 17  1  0  0  0  0
 16 38  1  0  0  0  0
 17 18  1  0  0  0  0
 17 39  1  0  0  0  0
 17 40  1  0  0  0  0
 18 22  1  0  0  0  0
 18 19  1  0  0  0  0
 18 41  1  0  0  0  0
 19 20  1  0  0  0  0
 19 42  1  0  0  0  0
 19 43  1  0  0  0  0
 20 21  1  0  0  0  0
 20 44  1  0  0  0  0
 20 45  1  0  0  0  0
 21 22  1  0  0  0  0
 21 46  1  0  0  0  0
 22 47  1  0  0  0  0
 22 48  1  0  0  0  0
 23 24  1  0  0  0  0
 23 49  1  0  0  0  0
 23 50  1  0  0  0  0
 24 51  1  0  0  0  0
 24 52  1  0  0  0  0
M  CHG  1  11   1
M  CHG  1  15   1
M  END
> <s_m_source_file>
AV-unprocessed.smi

> <i_m_source_file_index>
907

> <i_lp_mmshare_version>
43012

> <i_f3d_flags>
0

> <s_epik_input>
W0NIMl0xW0NIMl1bQ0BASF0oW0NIMl0yKVtDQEBIXShbQ0gyXVtDQEhdMTIpTihbQ0gyXVtDSDJdMylbQ0gyXVtDSDJdTjNDKD1PKVtOSF1bQ0gyXVtDSDJdYzRbY0hdW2NIXVtjSF1bY0hdbjQ=

> <s_epik_cmdline>
J2VwaWtfcHl0aG9uJywgJy1waCcsICc3LjAnLCAnLXRuJywgJzgnLCAnLW1hJywgJzIwMCcsICctbWV0YWxfYmluZGluZycsICctaW1hZScsICc8aW5maWxlLm1hZT4nLCAnLW9tYWUnLCAnPG91dGZpbGUubWFlPic=

> <r_epik_Ionization_Penalty>
1.63018

> <r_epik_Ionization_Penalty_Charging>
1.63015

> <r_epik_Ionization_Penalty_Neutral>
2.64641e-05

> <r_epik_State_Penalty>
1.72761

> <r_epik_Charging_Adjusted_Penalty>
3.35777

> <i_epik_Tot_Q>
2

> <i_epik_Tot_abs_Q>
2

> <r_epik_Metal_State_Penalty>
1.76501

> <b_epik_Metal_Only>
0

> <s_lp_Force_Field>
OPLS_2005

> <r_lp_Energy>
102.759

> <b_lp_Chiralities_Consistent>
1

> <s_lp_Variant>
AV-unprocessed.smi:907-5

> <Gold.Version>
5.8.1

> <Gold.Id.Protein>
6NUR|6NUR_protein|mol2

> <Gold.PLP.Fitness>
50.6802

> <Gold.PLP.PLP>
-45.4607

> <Gold.PLP.part.hbond>
-1.0000

> <Gold.PLP.part.metal>
0.0000

> <Gold.PLP.part.buried>
-6.9680

> <Gold.PLP.part.nonpolar>
-37.5443

> <Gold.PLP.part.repulsive>
0.3144

> <Gold.PLP.ligand.clash>
0.0000

> <Gold.PLP.ligand.torsion>
0.4563

> <Gold.PLP.Chemscore.Hbond>
2.0000

> <Gold.PLP.Chemscore.CHOScore>
0.0000

> <Gold.PLP.Chemscore.Metal>
0.0000

> <Gold.Chemscore.Hbonds>
donor molecule, donor type, donor heavy atom, donor atom, acceptor molecule, acceptor atom, score
      L1  H    15    53       P1  7948  2.00

> <Gold.PLP.Chemscore.Internal.Correction>
0.1322

> <Gold.Rescore>
     Score         DG    S(hbond)    S(metal)    S(lipo)     H(rot)  DE(clash)    DE(int)     intcor
     19.28     -19.82       0.95        0.00     127.31       1.46       0.06       0.49       ----

> <Gold.Chemscore.Fitness>
19.2779

> <Gold.Chemscore.DG>
-19.8233

> <Gold.Chemscore.ZeroCoef>
-5.4800

> <Gold.Chemscore.Hbond>
0.9516

> <Gold.Chemscore.Metal>
0.0000

> <Gold.Chemscore.Lipo>
127.3106

> <Gold.Chemscore.Internal_Hbond>
0.0000

> <Gold.Chemscore.DEClash>
0.0589

> <Gold.Chemscore.DEInternal>
0.4866

> <Gold.Chemscore.Rot>
1.4572

> <Gold.Chemscore.Internal.Correction>
   9.000000E+99

> <Gold.Chemscore.Hbonds>
donor molecule, donor type, donor heavy atom, donor atom, acceptor molecule, acceptor atom, score
      L1  H    15    53       P1  7948  0.88

> <Gold.Chemscore.Hbond.Weighted>
-3.1785

> <Gold.Chemscore.Metal.Weighted>
-0.0000

> <Gold.Chemscore.Lipo.Weighted>
-14.8953

> <Gold.Chemscore.Internal_Hbond.Weighted>
0.0000

> <Gold.Chemscore.DEClash.Weighted>
0.0589

> <Gold.Chemscore.DEInternal.Weighted>
0.4866

> <Gold.Chemscore.Rot.Weighted>
3.7305

> <Gold.Chemscore.Internal.Correction.Weighted>
   9.000000E+99

> <Gold.Protein.RotatedTorsions>
[ 6907 6896 6895 6894 ] final  118.95 input  -60.11 | X-H torsion
[ 7974 7965 7964 7962 ] final  170.48 input  175.53 | X-H torsion
[ 8008 7997 7996 7995 ] final   63.48 input   59.86 | X-H torsion
[ 10167 10162 10161 10158 ] final  -95.08 input  -65.29 | X-H torsion
[ 10718 10713 10712 10709 ] final  172.69 input   66.30 | X-H torsion
[ 10763 10752 10751 10750 ] final -133.48 input  -60.55 | X-H torsion
[ 11005 11000 10999 10996 ] final  -93.94 input  -57.11 | X-H torsion

> <Gold.Protein.ActiveResidues>
 VAL166  LYS551  ARG553  GLY616  TRP617  ASP618  TYR619  PRO620  LYS621  CYS622 
 ASP623  PHE694  ASN695  SER759  ASP760  ASP761  ALA762  ILE779  LEU786  VAL792 
 PHE793  MET794  SER795  GLU796  ALA797  LYS798  CYS799  TRP800  GLU811  SER814 

> <Gold.Protein.RotatedAtoms>
  152.4507  133.7623  159.6752 H   0  0  0  0  0  0  0  0  0  0  0  0  # atno 6907 bound_to 6896
  150.8417  133.7914  159.3064 H   0  0  0  0  0  0  0  0  0  0  0  0  # atno 6908 bound_to 6896
  151.5537  135.1069  160.0008 H   0  0  0  0  0  0  0  0  0  0  0  0  # atno 6909 bound_to 6896
  144.7322  139.9209  143.6420 H   0  0  0  0  0  0  0  0  0  0  0  0  # atno 7974 bound_to 7965
  155.6308  140.3496  155.4682 H   0  0  0  0  0  0  0  0  0  0  0  0  # atno 8008 bound_to 7997
  156.0004  140.1212  157.0576 H   0  0  0  0  0  0  0  0  0  0  0  0  # atno 8009 bound_to 7997
  154.4247  140.1101  156.5675 H   0  0  0  0  0  0  0  0  0  0  0  0  # atno 8010 bound_to 7997
  140.3078  143.3123  152.0180 H   0  0  0  0  0  0  0  0  0  0  0  0  # atno 10167 bound_to 10162
  156.9753  131.0102  151.2895 H   0  0  0  0  0  0  0  0  0  0  0  0  # atno 10718 bound_to 10713
  154.8732  135.3765  154.4580 H   0  0  0  0  0  0  0  0  0  0  0  0  # atno 10763 bound_to 10752
  153.5250  135.7028  153.5717 H   0  0  0  0  0  0  0  0  0  0  0  0  # atno 10764 bound_to 10752
  153.3947  135.3963  155.1912 H   0  0  0  0  0  0  0  0  0  0  0  0  # atno 10765 bound_to 10752
  141.1484  133.7922  157.0229 H   0  0  0  0  0  0  0  0  0  0  0  0  # atno 11005 bound_to 11000
  146.0930  139.3921  143.0394 LP  0  0  0  0  0  0  0  0  0  0  0  0  # atno 17320 bound_to 7965
  145.7684  140.9906  143.1162 LP  0  0  0  0  0  0  0  0  0  0  0  0  # atno 17321 bound_to 7965
  139.4900  144.6407  151.6882 LP  0  0  0  0  0  0  0  0  0  0  0  0  # atno 17342 bound_to 10162
  140.5594  144.0293  150.6163 LP  0  0  0  0  0  0  0  0  0  0  0  0  # atno 17343 bound_to 10162
  157.5564  130.8216  149.8210 LP  0  0  0  0  0  0  0  0  0  0  0  0  # atno 17370 bound_to 10713
  156.0266  130.3777  150.1805 LP  0  0  0  0  0  0  0  0  0  0  0  0  # atno 17371 bound_to 10713
  140.0804  134.9651  157.1615 LP  0  0  0  0  0  0  0  0  0  0  0  0  # atno 17394 bound_to 11000
  140.3585  134.2520  155.7190 LP  0  0  0  0  0  0  0  0  0  0  0  0  # atno 17395 bound_to 11000

$$$$
