#       Name:                AV-unprocessed.smi:3161
#       Creating user name   scv26
#       Creation time:       Fri Mar 27 17:49:02 2020


#       File generated by GOLD software.
#

@<TRIPOS>MOLECULE
AV-unprocessed.smi:3161
    44    45     1
SMALL
NO_CHARGES


@<TRIPOS>ATOM
      1 ****        -3.2480   3.4473   0.6303 C.3            1 S1                 0.0000
      2 ****        -3.0146   2.1318   1.3154 C.2            1 S1                 0.0000
      3 ****        -3.0394   1.8539   2.7116 C.2            1 S1                 0.0000
      4 ****        -2.7910   0.5844   2.9883 N.2            1 S1                 0.0000
      5 ****        -2.5934   0.0082   1.7831 N.pl3          1 S1                 0.0000
      6 ****        -2.2849  -1.4110   1.6952 C.3            1 S1                 0.0000
      7 ****        -0.7719  -1.7147   1.6137 C.3            1 S1                 0.0000
      8 ****         0.0056  -1.1360   2.8130 C.3            1 S1                 0.0000
      9 ****        -0.2379  -1.2413   0.3318 N.3            1 S1                 0.0000
     10 ****         1.1523  -1.5963   0.0489 C.3            1 S1                 0.0000
     11 ****         1.5776  -1.0944  -1.3392 C.3            1 S1                 0.0000
     12 ****         1.7354   0.4398  -1.3937 C.3            1 S1                 0.0000
     13 ****         2.2475   0.8799  -2.7697 C.3            1 S1                 0.0000
     14 ****         3.5235   0.1066  -3.1175 C.3            1 S1                 0.0000
     15 ****         3.2899  -1.4050  -2.9675 C.3            1 S1                 0.0000
     16 ****         2.8312  -1.6982  -1.6510 O.3            1 S1                 0.0000
     17 ****        -2.7295   0.9186   0.7563 C.2            1 S1                 0.0000
     18 ****        -3.4789   4.2405   1.3418 H              1 S1                 0.0000
     19 ****        -4.0806   3.3926  -0.0713 H              1 S1                 0.0000
     20 ****        -2.3719   3.7672   0.0661 H              1 S1                 0.0000
     21 ****        -3.2302   2.5346   3.5281 H              1 S1                 0.0000
     22 ****        -2.7149  -1.9132   2.5634 H              1 S1                 0.0000
     23 ****        -2.7997  -1.8206   0.8250 H              1 S1                 0.0000
     24 ****        -0.6667  -2.7998   1.6485 H              1 S1                 0.0000
     25 ****        -0.4766  -1.4061   3.7527 H              1 S1                 0.0000
     26 ****         0.0621  -0.0477   2.7714 H              1 S1                 0.0000
     27 ****         1.0238  -1.5214   2.8595 H              1 S1                 0.0000
     28 ****        -0.3442  -0.2335   0.2737 H              1 S1                 0.0000
     29 ****         1.8245  -1.1824   0.8001 H              1 S1                 0.0000
     30 ****         1.2645  -2.6804   0.0899 H              1 S1                 0.0000
     31 ****         0.8418  -1.4221  -2.0765 H              1 S1                 0.0000
     32 ****         0.7854   0.9307  -1.1798 H              1 S1                 0.0000
     33 ****         2.4355   0.7655  -0.6230 H              1 S1                 0.0000
     34 ****         1.4838   0.6875  -3.5241 H              1 S1                 0.0000
     35 ****         2.4371   1.9535  -2.7809 H              1 S1                 0.0000
     36 ****         3.8426   0.3416  -4.1333 H              1 S1                 0.0000
     37 ****         4.3324   0.4169  -2.4551 H              1 S1                 0.0000
     38 ****         2.5685  -1.7629  -3.7035 H              1 S1                 0.0000
     39 ****         4.2191  -1.9465  -3.1454 H              1 S1                 0.0000
     40 ****        -2.6088   0.6306  -0.2778 H              1 S1                 0.0000
     41 ****        -2.7572   0.1492   3.8880 LP             1 S1                 0.0000
     42 ****        -0.7757  -1.7182  -0.3634 LP             1 S1                 0.0000
     43 ****         2.7360  -2.6896  -1.5622 LP             1 S1                 0.0000
     44 ****         3.5127  -1.3688  -0.9974 LP             1 S1                 0.0000
@<TRIPOS>BOND
    1    1    2 1     
    2    1   18 1     
    3    1   19 1     
    4    1   20 1     
    5    2   17 2     
    6    2    3 1     
    7    3    4 2     
    8    3   21 1     
    9    4    5 1     
   10    5    6 1     
   11    5   17 1     
   12    6    7 1     
   13    6   22 1     
   14    6   23 1     
   15    7    8 1     
   16    7    9 1     
   17    7   24 1     
   18    8   25 1     
   19    8   26 1     
   20    8   27 1     
   21    9   10 1     
   22    9   28 1     
   23   10   11 1     
   24   10   29 1     
   25   10   30 1     
   26   11   16 1     
   27   11   12 1     
   28   11   31 1     
   29   12   13 1     
   30   12   32 1     
   31   12   33 1     
   32   13   14 1     
   33   13   34 1     
   34   13   35 1     
   35   14   15 1     
   36   14   36 1     
   37   14   37 1     
   38   15   16 1     
   39   15   38 1     
   40   15   39 1     
   41   17   40 1     
   42    4   41 1     
   43    9   42 1     
   44   16   43 1     
   45   16   44 1     
@<TRIPOS>SUBSTRUCTURE
      1 S1             1
@<TRIPOS>SET
LONE_PAIRS      STATIC     ATOMS    <user>   **** ""
4 41 42 43 44
DONOR_HYDROGENS      STATIC     ATOMS    <user>   **** ""
1 28
ATOM$BLUE        STATIC     ATOMS    COLORGROUP SYSTEM
4 41 42 43 44
ATOM$RED        STATIC     ATOMS    COLORGROUP SYSTEM
1 28
