AV-unprocessed.smi:2352|AV-procd|sdf|9378|dock2
  -GOLD-   2272013 03D 1   1.00000     0.00000
 Structure written by MMmdl.
 37 38  0  0  0  0  0  0  0  0  1 V2000
  151.7430  140.7439  159.2523 C   0  0  0  0  0  0  0  0  0  0  0  0
  151.1006  140.8553  157.8809 C   0  0  0  0  0  0  0  0  0  0  0  0
  149.9678  141.6712  157.8097 N   0  0  0  0  0  0  0  0  0  0  0  0
  149.3524  141.8232  156.6829 C   0  0  0  0  0  0  0  0  0  0  0  0
  149.7904  141.1848  155.5110 N   0  0  0  0  0  0  0  0  0  0  0  0
  149.0001  141.4399  154.2945 C   0  0  0  0  0  0  0  0  0  0  0  0
  147.5363  140.9661  154.4357 C   0  0  2  0  0  0  0  0  0  0  0  0
  147.1234  140.3986  153.2079 O   0  0  0  0  0  0  0  0  0  0  0  0
  146.6290  142.1161  154.8473 C   0  0  0  0  0  0  0  0  0  0  0  0
  146.4713  143.2462  154.0156 C   0  0  0  0  0  0  0  0  0  0  0  0
  145.6336  144.3076  154.4092 C   0  0  0  0  0  0  0  0  0  0  0  0
  144.9420  144.2531  155.6388 C   0  0  0  0  0  0  0  0  0  0  0  0
  144.0421  145.4012  156.0725 C   0  0  0  0  0  0  0  0  0  0  0  0
  142.8037  144.9658  156.3063 F   0  0  0  0  0  0  0  0  0  0  0  0
  144.5264  145.9394  157.1911 F   0  0  0  0  0  0  0  0  0  0  0  0
  143.9807  146.3463  155.1336 F   0  0  0  0  0  0  0  0  0  0  0  0
  145.1108  143.1286  156.4750 C   0  0  0  0  0  0  0  0  0  0  0  0
  145.9484  142.0668  156.0818 C   0  0  0  0  0  0  0  0  0  0  0  0
  150.8921  140.3799  155.4902 C   0  0  0  0  0  0  0  0  0  0  0  0
  151.2765  139.8367  154.4525 O   0  0  0  0  0  0  0  0  0  0  0  0
  151.5795  140.2127  156.7809 C   0  0  0  0  0  0  0  0  0  0  0  0
  152.8082  139.3120  156.7980 C   0  0  0  0  0  0  0  0  0  0  0  0
  151.7471  139.7070  159.5895 H   0  0  0  0  0  0  0  0  0  0  0  0
  151.2024  141.3338  159.9936 H   0  0  0  0  0  0  0  0  0  0  0  0
  152.7711  141.1058  159.2235 H   0  0  0  0  0  0  0  0  0  0  0  0
  148.4674  142.4524  156.5729 H   0  0  0  0  0  0  0  0  0  0  0  0
  149.0114  142.5157  154.1083 H   0  0  0  0  0  0  0  0  0  0  0  0
  149.4583  141.0087  153.4017 H   0  0  0  0  0  0  0  0  0  0  0  0
  147.4630  140.1884  155.1971 H   0  0  0  0  0  0  0  0  0  0  0  0
  146.2084  140.5977  153.0794 H   0  0  0  0  0  0  0  0  0  0  0  0
  146.9954  143.3051  153.0728 H   0  0  0  0  0  0  0  0  0  0  0  0
  145.5280  145.1657  153.7618 H   0  0  0  0  0  0  0  0  0  0  0  0
  144.5994  143.0771  157.4249 H   0  0  0  0  0  0  0  0  0  0  0  0
  146.0681  141.2147  156.7350 H   0  0  0  0  0  0  0  0  0  0  0  0
  153.5705  139.7032  156.1234 H   0  0  0  0  0  0  0  0  0  0  0  0
  152.5435  138.3081  156.4639 H   0  0  0  0  0  0  0  0  0  0  0  0
  153.2594  139.2200  157.7845 H   0  0  0  0  0  0  0  0  0  0  0  0
  1  2  1  0  0  0  0
  1 23  1  0  0  0  0
  1 24  1  0  0  0  0
  1 25  1  0  0  0  0
  2 21  2  0  0  0  0
  2  3  1  0  0  0  0
  3  4  2  0  0  0  0
  4  5  1  0  0  0  0
  4 26  1  0  0  0  0
  5  6  1  0  0  0  0
  5 19  1  0  0  0  0
  6  7  1  0  0  0  0
  6 27  1  0  0  0  0
  6 28  1  0  0  0  0
  7  8  1  0  0  0  0
  7  9  1  0  0  0  0
  7 29  1  0  0  0  0
  8 30  1  0  0  0  0
  9 18  1  0  0  0  0
  9 10  2  0  0  0  0
 10 11  1  0  0  0  0
 10 31  1  0  0  0  0
 11 12  2  0  0  0  0
 11 32  1  0  0  0  0
 12 13  1  0  0  0  0
 12 17  1  0  0  0  0
 13 14  1  0  0  0  0
 13 15  1  0  0  0  0
 13 16  1  0  0  0  0
 17 18  2  0  0  0  0
 17 33  1  0  0  0  0
 18 34  1  0  0  0  0
 19 20  2  0  0  0  0
 19 21  1  0  0  0  0
 21 22  1  0  0  0  0
 22 35  1  0  0  0  0
 22 36  1  0  0  0  0
 22 37  1  0  0  0  0
M  END
> <s_m_source_file>
AV-unprocessed.smi

> <i_m_source_file_index>
2352

> <i_lp_mmshare_version>
43012

> <i_f3d_flags>
0

> <s_epik_input>
W0NIM11jMW5bY0hdbihjKD1PKWMxW0NIM10pW0NIMl1bQ0BIXShbT0hdKWMyW2NIXVtjSF1jKEMoRikoRilGKVtjSF1bY0hdMg==

> <s_epik_cmdline>
J2VwaWtfcHl0aG9uJywgJy1waCcsICc3LjAnLCAnLXRuJywgJzgnLCAnLW1hJywgJzIwMCcsICctbWV0YWxfYmluZGluZycsICctaW1hZScsICc8aW5maWxlLm1hZT4nLCAnLW9tYWUnLCAnPG91dGZpbGUubWFlPic=

> <r_lp_tautomer_probability>
1

> <r_epik_Ionization_Penalty>
5.07001e-05

> <r_epik_Ionization_Penalty_Charging>
7.56727e-08

> <r_epik_Ionization_Penalty_Neutral>
5.06244e-05

> <r_epik_State_Penalty>
-0

> <r_epik_Charging_Adjusted_Penalty>
7.56727e-08

> <i_epik_Tot_Q>
0

> <i_epik_Tot_abs_Q>
0

> <r_epik_Metal_State_Penalty>
-0

> <b_epik_Metal_Only>
0

> <s_lp_Force_Field>
OPLS_2005

> <r_lp_Energy>
21.4473

> <b_lp_Chiralities_Consistent>
1

> <s_lp_Variant>
AV-unprocessed.smi:2352-1

> <Gold.Version>
5.8.1

> <Gold.Id.Protein>
6NUR|6NUR_protein|mol2

> <Gold.PLP.Fitness>
44.1779

> <Gold.PLP.PLP>
-38.1977

> <Gold.PLP.part.hbond>
-2.0000

> <Gold.PLP.part.metal>
0.0000

> <Gold.PLP.part.buried>
-3.7985

> <Gold.PLP.part.nonpolar>
-32.4459

> <Gold.PLP.part.repulsive>
0.2488

> <Gold.PLP.ligand.clash>
0.9881

> <Gold.PLP.ligand.torsion>
0.5441

> <Gold.PLP.Chemscore.Hbond>
1.7500

> <Gold.PLP.Chemscore.CHOScore>
0.5907

> <Gold.PLP.Chemscore.Metal>
0.0000

> <Gold.Chemscore.Hbonds>
donor molecule, donor type, donor heavy atom, donor atom, acceptor molecule, acceptor atom, score
      P1  H  7989  7998       L1    20  0.80
      L1  C     4    26       P1  8028  0.72

> <Gold.PLP.Chemscore.Internal.Correction>
1.0343

> <Gold.Rescore>
     Score         DG    S(hbond)    S(metal)    S(lipo)     H(rot)  DE(clash)    DE(int)     intcor
     12.22     -13.11       1.60        0.00      66.24       2.13       0.26       0.64       ----

> <Gold.Chemscore.Fitness>
12.2206

> <Gold.Chemscore.DG>
-13.1147

> <Gold.Chemscore.ZeroCoef>
-5.4800

> <Gold.Chemscore.Hbond>
1.6016

> <Gold.Chemscore.Metal>
0.0000

> <Gold.Chemscore.Lipo>
66.2404

> <Gold.Chemscore.Internal_Hbond>
0.0000

> <Gold.Chemscore.DEClash>
0.2585

> <Gold.Chemscore.DEInternal>
0.6357

> <Gold.Chemscore.Rot>
2.1347

> <Gold.Chemscore.Internal.Correction>
   9.000000E+99

> <Gold.Chemscore.Hbonds>
donor molecule, donor type, donor heavy atom, donor atom, acceptor molecule, acceptor atom, score
      P1  H  7989  7998       L1    20  0.55

> <Gold.Chemscore.Hbond.Weighted>
-5.3495

> <Gold.Chemscore.Metal.Weighted>
-0.0000

> <Gold.Chemscore.Lipo.Weighted>
-7.7501

> <Gold.Chemscore.Internal_Hbond.Weighted>
0.0000

> <Gold.Chemscore.DEClash.Weighted>
0.2585

> <Gold.Chemscore.DEInternal.Weighted>
0.6357

> <Gold.Chemscore.Rot.Weighted>
5.4649

> <Gold.Chemscore.Internal.Correction.Weighted>
   9.000000E+99

> <Gold.Protein.RotatedTorsions>
[ 6907 6896 6895 6894 ] final  -86.75 input  -60.11 | X-H torsion
[ 7974 7965 7964 7962 ] final    6.36 input  175.53 | X-H torsion
[ 8008 7997 7996 7995 ] final   98.75 input   59.86 | X-H torsion
[ 10167 10162 10161 10158 ] final   -4.76 input  -65.29 | X-H torsion
[ 10718 10713 10712 10709 ] final -123.27 input   66.30 | X-H torsion
[ 10763 10752 10751 10750 ] final   98.61 input  -60.55 | X-H torsion
[ 11005 11000 10999 10996 ] final  -25.94 input  -57.11 | X-H torsion

> <Gold.Protein.ActiveResidues>
 VAL166  LYS551  ARG553  GLY616  TRP617  ASP618  TYR619  PRO620  LYS621  CYS622 
 ASP623  PHE694  ASN695  SER759  ASP760  ASP761  ALA762  ILE779  LEU786  VAL792 
 PHE793  MET794  SER795  GLU796  ALA797  LYS798  CYS799  TRP800  GLU811  SER814 

> <Gold.Protein.RotatedAtoms>
  150.6866  134.3003  159.4703 H   0  0  0  0  0  0  0  0  0  0  0  0  # atno 6907 bound_to 6896
  152.0899  134.9412  160.0581 H   0  0  0  0  0  0  0  0  0  0  0  0  # atno 6908 bound_to 6896
  152.0731  133.4082  159.4505 H   0  0  0  0  0  0  0  0  0  0  0  0  # atno 6909 bound_to 6896
  146.2435  140.0244  142.8395 H   0  0  0  0  0  0  0  0  0  0  0  0  # atno 7974 bound_to 7965
  156.1036  140.3239  155.7975 H   0  0  0  0  0  0  0  0  0  0  0  0  # atno 8008 bound_to 7997
  155.4795  140.0553  157.2986 H   0  0  0  0  0  0  0  0  0  0  0  0  # atno 8009 bound_to 7997
  154.4712  140.2012  156.0004 H   0  0  0  0  0  0  0  0  0  0  0  0  # atno 8010 bound_to 7997
  140.6939  143.6386  150.8456 H   0  0  0  0  0  0  0  0  0  0  0  0  # atno 10167 bound_to 10162
  156.1488  130.6519  150.9882 H   0  0  0  0  0  0  0  0  0  0  0  0  # atno 10718 bound_to 10713
  153.2912  135.4142  155.1168 H   0  0  0  0  0  0  0  0  0  0  0  0  # atno 10763 bound_to 10752
  154.8521  135.3519  154.5979 H   0  0  0  0  0  0  0  0  0  0  0  0  # atno 10764 bound_to 10752
  153.6402  135.7057  153.5302 H   0  0  0  0  0  0  0  0  0  0  0  0  # atno 10765 bound_to 10752
  140.8984  133.7541  156.0511 H   0  0  0  0  0  0  0  0  0  0  0  0  # atno 11005 bound_to 11000
  145.1211  140.9463  143.4600 LP  0  0  0  0  0  0  0  0  0  0  0  0  # atno 17320 bound_to 7965
  145.0480  139.3205  143.5943 LP  0  0  0  0  0  0  0  0  0  0  0  0  # atno 17321 bound_to 7965
  140.0102  143.5651  152.2842 LP  0  0  0  0  0  0  0  0  0  0  0  0  # atno 17342 bound_to 10162
  139.6372  144.7651  151.2413 LP  0  0  0  0  0  0  0  0  0  0  0  0  # atno 17343 bound_to 10162
  157.6639  131.0875  150.7773 LP  0  0  0  0  0  0  0  0  0  0  0  0  # atno 17370 bound_to 10713
  156.7843  130.4869  149.5395 LP  0  0  0  0  0  0  0  0  0  0  0  0  # atno 17371 bound_to 10713
  140.8261  134.3233  157.5365 LP  0  0  0  0  0  0  0  0  0  0  0  0  # atno 17394 bound_to 11000
  139.8738  134.9337  156.3587 LP  0  0  0  0  0  0  0  0  0  0  0  0  # atno 17395 bound_to 11000

$$$$
