AV-unprocessed.smi:139|AV-procd|sdf|1184|dock5
  -GOLD-   2262018333D 1   1.00000     0.00000
 Structure written by MMmdl.
 50 53  0  0  0  0  0  0  0  0  1 V2000
  153.0788  139.3217  156.0903 O   0  0  0  0  0  0  0  0  0  0  0  0
  151.8668  139.4972  155.9579 C   0  0  0  0  0  0  0  0  0  0  0  0
  151.1643  139.1960  154.6258 C   0  0  0  0  0  0  0  0  0  0  0  0
  150.1174  138.1562  154.7302 N   0  0  0  0  0  0  0  0  0  0  0  0
  150.4892  136.8539  155.1471 C   0  0  0  0  0  0  0  0  0  0  0  0
  151.6585  136.5805  155.4222 O   0  0  0  0  0  0  0  0  0  0  0  0
  149.4028  135.8842  155.2273 C   0  0  0  0  0  0  0  0  0  0  0  0
  149.6650  134.6198  155.5995 F   0  0  0  0  0  0  0  0  0  0  0  0
  148.1352  136.2343  154.9270 C   0  0  0  0  0  0  0  0  0  0  0  0
  147.7838  137.5136  154.5348 N   0  0  0  0  0  0  0  0  0  0  0  0
  146.3516  137.8807  154.2045 C   0  0  1  0  0  0  0  0  0  0  0  0
  146.2358  138.3011  152.7356 C   0  0  0  0  0  0  0  0  0  0  0  0
  145.9563  136.9760  152.0616 C   0  0  0  0  0  0  0  0  0  0  0  0
  145.0913  136.2739  153.1038 C   0  0  0  0  0  0  0  0  0  0  0  0
  145.5337  136.7583  154.3717 O   0  0  0  0  0  0  0  0  0  0  0  0
  148.7801  138.5088  154.4305 C   0  0  0  0  0  0  0  0  0  0  0  0
  148.4885  139.6559  154.0848 O   0  0  0  0  0  0  0  0  0  0  0  0
  151.0762  139.9689  156.9365 N   0  0  0  0  0  0  0  0  0  0  0  0
  151.4867  140.3491  158.2908 C   0  0  1  0  0  0  0  0  0  0  0  0
  152.6378  139.4573  158.8019 C   0  0  0  0  0  0  0  0  0  0  0  0
  153.1800  139.9550  160.1428 C   0  0  0  0  0  0  0  0  0  0  0  0
  153.7285  141.3803  160.0157 C   0  0  0  0  0  0  0  0  0  0  0  0
  152.7775  142.3313  159.3050 C   0  0  0  0  0  0  0  0  0  0  0  0
  152.9636  143.7200  159.4694 C   0  0  0  0  0  0  0  0  0  0  0  0
  152.1112  144.6358  158.8261 C   0  0  0  0  0  0  0  0  0  0  0  0
  151.0636  144.1664  158.0144 C   0  0  0  0  0  0  0  0  0  0  0  0
  150.8726  142.7828  157.8438 C   0  0  0  0  0  0  0  0  0  0  0  0
  151.7298  141.8520  158.4755 C   0  0  0  0  0  0  0  0  0  0  0  0
  150.7487  140.1243  154.2303 H   0  0  0  0  0  0  0  0  0  0  0  0
  151.9252  138.9167  153.8953 H   0  0  0  0  0  0  0  0  0  0  0  0
  147.3768  135.4696  154.9993 H   0  0  0  0  0  0  0  0  0  0  0  0
  146.0718  138.6582  154.9173 H   0  0  0  0  0  0  0  0  0  0  0  0
  145.3821  138.9716  152.6309 H   0  0  0  0  0  0  0  0  0  0  0  0
  147.1304  138.8069  152.3708 H   0  0  0  0  0  0  0  0  0  0  0  0
  145.4611  137.0810  151.0961 H   0  0  0  0  0  0  0  0  0  0  0  0
  146.8869  136.4278  151.9101 H   0  0  0  0  0  0  0  0  0  0  0  0
  144.0439  136.5488  152.9742 H   0  0  0  0  0  0  0  0  0  0  0  0
  145.1664  135.1881  153.0438 H   0  0  0  0  0  0  0  0  0  0  0  0
  150.0959  140.0811  156.7229 H   0  0  0  0  0  0  0  0  0  0  0  0
  150.6224  140.1343  158.9202 H   0  0  0  0  0  0  0  0  0  0  0  0
  152.3019  138.4233  158.8859 H   0  0  0  0  0  0  0  0  0  0  0  0
  153.4629  139.4530  158.0893 H   0  0  0  0  0  0  0  0  0  0  0  0
  152.3775  139.9368  160.8811 H   0  0  0  0  0  0  0  0  0  0  0  0
  153.9582  139.2870  160.5127 H   0  0  0  0  0  0  0  0  0  0  0  0
  153.9661  141.7720  161.0055 H   0  0  0  0  0  0  0  0  0  0  0  0
  154.6631  141.3629  159.4540 H   0  0  0  0  0  0  0  0  0  0  0  0
  153.7653  144.0883  160.0928 H   0  0  0  0  0  0  0  0  0  0  0  0
  152.2601  145.6974  158.9572 H   0  0  0  0  0  0  0  0  0  0  0  0
  150.4046  144.8671  157.5235 H   0  0  0  0  0  0  0  0  0  0  0  0
  150.0580  142.4399  157.2232 H   0  0  0  0  0  0  0  0  0  0  0  0
  1  2  2  0  0  0  0
  2  3  1  0  0  0  0
  2 18  1  0  0  0  0
  3  4  1  0  0  0  0
  3 29  1  0  0  0  0
  3 30  1  0  0  0  0
  4 16  1  0  0  0  0
  4  5  1  0  0  0  0
  5  6  2  0  0  0  0
  5  7  1  0  0  0  0
  7  8  1  0  0  0  0
  7  9  2  0  0  0  0
  9 10  1  0  0  0  0
  9 31  1  0  0  0  0
 10 11  1  0  0  0  0
 10 16  1  0  0  0  0
 11 15  1  0  0  0  0
 11 12  1  0  0  0  0
 11 32  1  0  0  0  0
 12 13  1  0  0  0  0
 12 33  1  0  0  0  0
 12 34  1  0  0  0  0
 13 14  1  0  0  0  0
 13 35  1  0  0  0  0
 13 36  1  0  0  0  0
 14 15  1  0  0  0  0
 14 37  1  0  0  0  0
 14 38  1  0  0  0  0
 16 17  2  0  0  0  0
 18 19  1  0  0  0  0
 18 39  1  0  0  0  0
 19 28  1  0  0  0  0
 19 20  1  0  0  0  0
 19 40  1  0  0  0  0
 20 21  1  0  0  0  0
 20 41  1  0  0  0  0
 20 42  1  0  0  0  0
 21 22  1  0  0  0  0
 21 43  1  0  0  0  0
 21 44  1  0  0  0  0
 22 23  1  0  0  0  0
 22 45  1  0  0  0  0
 22 46  1  0  0  0  0
 23 28  2  0  0  0  0
 23 24  1  0  0  0  0
 24 25  2  0  0  0  0
 24 47  1  0  0  0  0
 25 26  1  0  0  0  0
 25 48  1  0  0  0  0
 26 27  2  0  0  0  0
 26 49  1  0  0  0  0
 27 28  1  0  0  0  0
 27 50  1  0  0  0  0
M  END
> <s_m_source_file>
AV-unprocessed.smi

> <i_m_source_file_index>
139

> <i_lp_mmshare_version>
43012

> <i_f3d_flags>
0

> <s_epik_input>
W2NIXTFbY0hdW2NIXVtjSF1jKGMxMilbQ0BASF0oW0NIMl1bQ0gyXVtDSDJdMilbTkhdQyg9TylbQ0gyXW4zYyg9TyljKEYpW2NIXW4oYzM9TylbQ0BASF00W0NIMl1bQ0gyXVtDSDJdTzQ=

> <s_epik_cmdline>
J2VwaWtfcHl0aG9uJywgJy1waCcsICc3LjAnLCAnLXRuJywgJzgnLCAnLW1hJywgJzIwMCcsICctbWV0YWxfYmluZGluZycsICctaW1hZScsICc8aW5maWxlLm1hZT4nLCAnLW9tYWUnLCAnPG91dGZpbGUubWFlPic=

> <r_lp_tautomer_probability>
1

> <r_epik_Ionization_Penalty>
3.261e-08

> <r_epik_Ionization_Penalty_Charging>
3.6725e-09

> <r_epik_Ionization_Penalty_Neutral>
2.89375e-08

> <r_epik_State_Penalty>
-0

> <r_epik_Charging_Adjusted_Penalty>
3.6725e-09

> <i_epik_Tot_Q>
0

> <i_epik_Tot_abs_Q>
0

> <r_epik_Metal_State_Penalty>
-0

> <b_epik_Metal_Only>
0

> <s_epik_Chemistry_Notes>
This compound contains an acetal/aminal-like group ( X-CH(R)-Y where X, Y are N, S, or O) that may be acid/base labile, releasing an aldehyde.

> <s_lp_Force_Field>
OPLS_2005

> <r_lp_Energy>
31.2563

> <b_lp_Chiralities_Consistent>
1

> <s_lp_Variant>
AV-unprocessed.smi:139-4

> <Gold.Version>
5.8.1

> <Gold.Id.Protein>
6NUR|6NUR_protein|mol2

> <Gold.PLP.Fitness>
53.9409

> <Gold.PLP.PLP>
-48.5720

> <Gold.PLP.part.hbond>
-1.8573

> <Gold.PLP.part.metal>
0.0000

> <Gold.PLP.part.buried>
-4.2194

> <Gold.PLP.part.nonpolar>
-44.1814

> <Gold.PLP.part.repulsive>
0.4319

> <Gold.PLP.ligand.clash>
0.0000

> <Gold.PLP.ligand.torsion>
0.3548

> <Gold.PLP.Chemscore.Hbond>
2.0000

> <Gold.PLP.Chemscore.CHOScore>
0.0000

> <Gold.PLP.Chemscore.Metal>
0.0000

> <Gold.Chemscore.Hbonds>
donor molecule, donor type, donor heavy atom, donor atom, acceptor molecule, acceptor atom, score
      P1  H  7997  8010       L1     1  1.00
      P1  H 10752 10763       L1     6  1.00

> <Gold.PLP.Chemscore.Internal.Correction>
0.0785

> <Gold.Rescore>
     Score         DG    S(hbond)    S(metal)    S(lipo)     H(rot)  DE(clash)    DE(int)     intcor
     20.27     -22.46       1.99        0.00     128.08       1.82       0.13       2.06       ----

> <Gold.Chemscore.Fitness>
20.2678

> <Gold.Chemscore.DG>
-22.4584

> <Gold.Chemscore.ZeroCoef>
-5.4800

> <Gold.Chemscore.Hbond>
1.9896

> <Gold.Chemscore.Metal>
0.0000

> <Gold.Chemscore.Lipo>
128.0807

> <Gold.Chemscore.Internal_Hbond>
0.0000

> <Gold.Chemscore.DEClash>
0.1315

> <Gold.Chemscore.DEInternal>
2.0591

> <Gold.Chemscore.Rot>
1.8174

> <Gold.Chemscore.Internal.Correction>
   9.000000E+99

> <Gold.Chemscore.Hbonds>
donor molecule, donor type, donor heavy atom, donor atom, acceptor molecule, acceptor atom, score
      P1  H  7997  8010       L1     1  0.93
      P1  H 10752 10763       L1     6  1.00

> <Gold.Chemscore.Hbond.Weighted>
-6.6454

> <Gold.Chemscore.Metal.Weighted>
-0.0000

> <Gold.Chemscore.Lipo.Weighted>
-14.9854

> <Gold.Chemscore.Internal_Hbond.Weighted>
0.0000

> <Gold.Chemscore.DEClash.Weighted>
0.1315

> <Gold.Chemscore.DEInternal.Weighted>
2.0591

> <Gold.Chemscore.Rot.Weighted>
4.6524

> <Gold.Chemscore.Internal.Correction.Weighted>
   9.000000E+99

> <Gold.Protein.RotatedTorsions>
[ 6907 6896 6895 6894 ] final  -25.41 input  -60.11 | X-H torsion
[ 7974 7965 7964 7962 ] final -137.73 input  175.53 | X-H torsion
[ 8008 7997 7996 7995 ] final   64.63 input   59.86 | X-H torsion
[ 10167 10162 10161 10158 ] final  -62.04 input  -65.29 | X-H torsion
[ 10718 10713 10712 10709 ] final -178.58 input   66.30 | X-H torsion
[ 10763 10752 10751 10750 ] final   66.88 input  -60.55 | X-H torsion
[ 11005 11000 10999 10996 ] final   80.83 input  -57.11 | X-H torsion

> <Gold.Protein.ActiveResidues>
 VAL166  LYS551  ARG553  GLY616  TRP617  ASP618  TYR619  PRO620  LYS621  CYS622 
 ASP623  PHE694  ASN695  SER759  ASP760  ASP761  ALA762  ILE779  LEU786  VAL792 
 PHE793  MET794  SER795  GLU796  ALA797  LYS798  CYS799  TRP800  GLU811  SER814 

> <Gold.Protein.RotatedAtoms>
  151.1756  135.0337  159.8769 H   0  0  0  0  0  0  0  0  0  0  0  0  # atno 6907 bound_to 6896
  152.5447  134.1121  159.8373 H   0  0  0  0  0  0  0  0  0  0  0  0  # atno 6908 bound_to 6896
  151.1232  133.5042  159.2634 H   0  0  0  0  0  0  0  0  0  0  0  0  # atno 6909 bound_to 6896
  144.8817  140.6517  143.5201 H   0  0  0  0  0  0  0  0  0  0  0  0  # atno 7974 bound_to 7965
  155.6491  140.3497  155.4742 H   0  0  0  0  0  0  0  0  0  0  0  0  # atno 8008 bound_to 7997
  155.9863  140.1184  157.0703 H   0  0  0  0  0  0  0  0  0  0  0  0  # atno 8009 bound_to 7997
  154.4206  140.1128  156.5490 H   0  0  0  0  0  0  0  0  0  0  0  0  # atno 8010 bound_to 7997
  140.5966  143.2352  151.6023 H   0  0  0  0  0  0  0  0  0  0  0  0  # atno 10167 bound_to 10162
  156.8464  130.9704  151.3096 H   0  0  0  0  0  0  0  0  0  0  0  0  # atno 10718 bound_to 10713
  153.0160  135.5304  154.6892 H   0  0  0  0  0  0  0  0  0  0  0  0  # atno 10763 bound_to 10752
  154.6031  135.2870  155.0516 H   0  0  0  0  0  0  0  0  0  0  0  0  # atno 10764 bound_to 10752
  154.1565  135.6554  153.5028 H   0  0  0  0  0  0  0  0  0  0  0  0  # atno 10765 bound_to 10752
  139.9120  134.7950  156.1961 H   0  0  0  0  0  0  0  0  0  0  0  0  # atno 11005 bound_to 11000
  145.3942  139.1610  143.4213 LP  0  0  0  0  0  0  0  0  0  0  0  0  # atno 17320 bound_to 7965
  146.2999  140.4033  142.8708 LP  0  0  0  0  0  0  0  0  0  0  0  0  # atno 17321 bound_to 7965
  139.5262  144.3052  152.1040 LP  0  0  0  0  0  0  0  0  0  0  0  0  # atno 17342 bound_to 10162
  140.2225  144.4451  150.6335 LP  0  0  0  0  0  0  0  0  0  0  0  0  # atno 17343 bound_to 10162
  157.6327  130.8742  149.9303 LP  0  0  0  0  0  0  0  0  0  0  0  0  # atno 17370 bound_to 10713
  156.0852  130.3669  150.0502 LP  0  0  0  0  0  0  0  0  0  0  0  0  # atno 17371 bound_to 10713
  141.0554  133.6868  156.1850 LP  0  0  0  0  0  0  0  0  0  0  0  0  # atno 17394 bound_to 11000
  140.6745  134.4832  157.5588 LP  0  0  0  0  0  0  0  0  0  0  0  0  # atno 17395 bound_to 11000

$$$$
