AV-unprocessed.smi:1225|AV-procd|sdf|5141|dock8
  -GOLD-   22720 4203D 1   1.00000     0.00000
 Structure written by MMmdl.
 49 51  0  0  0  0  0  0  0  0  2 V2000
  142.8582  135.4005  152.4896 C   0  0  0  0  0  0  0  0  0  0  0  0
  144.0004  136.2910  152.8416 C   0  0  0  0  0  0  0  0  0  0  0  0
  145.1704  136.2819  152.1988 N   0  0  0  0  0  0  0  0  0  0  0  0
  146.0733  137.2109  152.7199 C   0  0  0  0  0  0  0  0  0  0  0  0
  145.5740  137.9389  153.7719 C   0  0  0  0  0  0  0  0  0  0  0  0
  146.2587  139.0158  154.5473 C   0  0  0  0  0  0  0  0  0  0  0  0
  147.3805  138.4871  155.3650 N   0  3  2  0  0  0  0  0  0  0  0  0
  146.9148  137.6562  156.4998 C   0  0  0  0  0  0  0  0  0  0  0  0
  148.3324  139.5407  155.7967 C   0  0  0  0  0  0  0  0  0  0  0  0
  148.8011  140.4170  154.6134 C   0  0  2  0  0  0  0  0  0  0  0  0
  149.5083  139.6032  153.7004 O   0  0  0  0  0  0  0  0  0  0  0  0
  149.7262  141.5778  155.0306 C   0  0  0  0  0  0  0  0  0  0  0  0
  150.6915  141.1877  156.0425 N   0  0  0  0  0  0  0  0  0  0  0  0
  151.5047  140.1137  156.0172 C   0  0  0  0  0  0  0  0  0  0  0  0
  152.3096  139.9351  157.0602 N   0  0  0  0  0  0  0  0  0  0  0  0
  151.9928  141.0279  157.8483 C   0  0  0  0  0  0  0  0  0  0  0  0
  152.4975  141.4291  159.1044 C   0  0  0  0  0  0  0  0  0  0  0  0
  152.0204  142.5991  159.7371 C   0  0  0  0  0  0  0  0  0  0  0  0
  152.5925  142.9939  161.0872 C   0  0  0  0  0  0  0  0  0  0  0  0
  151.0231  143.3891  159.1111 C   0  0  0  0  0  0  0  0  0  0  0  0
  150.4970  144.6513  159.7714 C   0  0  0  0  0  0  0  0  0  0  0  0
  150.5086  143.0033  157.8557 C   0  0  0  0  0  0  0  0  0  0  0  0
  150.9883  141.8348  157.2378 C   0  0  0  0  0  0  0  0  0  0  0  0
  143.9363  137.4679  154.1474 S   0  0  0  0  0  0  0  0  0  0  0  0
  143.1792  134.6168  151.8026 H   0  0  0  0  0  0  0  0  0  0  0  0
  142.0671  135.9804  152.0141 H   0  0  0  0  0  0  0  0  0  0  0  0
  142.4581  134.9327  153.3892 H   0  0  0  0  0  0  0  0  0  0  0  0
  147.0542  137.2924  152.2753 H   0  0  0  0  0  0  0  0  0  0  0  0
  146.6207  139.7648  153.8434 H   0  0  0  0  0  0  0  0  0  0  0  0
  145.5463  139.5341  155.1911 H   0  0  0  0  0  0  0  0  0  0  0  0
  146.3449  138.2536  157.2127 H   0  0  0  0  0  0  0  0  0  0  0  0
  147.7604  137.2115  157.0255 H   0  0  0  0  0  0  0  0  0  0  0  0
  146.2821  136.8375  156.1565 H   0  0  0  0  0  0  0  0  0  0  0  0
  147.8554  140.1383  156.5745 H   0  0  0  0  0  0  0  0  0  0  0  0
  149.2112  139.0899  156.2606 H   0  0  0  0  0  0  0  0  0  0  0  0
  147.9431  140.8309  154.0855 H   0  0  0  0  0  0  0  0  0  0  0  0
  149.3643  139.9341  152.8263 H   0  0  0  0  0  0  0  0  0  0  0  0
  150.2689  141.9590  154.1639 H   0  0  0  0  0  0  0  0  0  0  0  0
  149.1396  142.4094  155.4236 H   0  0  0  0  0  0  0  0  0  0  0  0
  151.4988  139.4173  155.1914 H   0  0  0  0  0  0  0  0  0  0  0  0
  153.2593  140.8286  159.5799 H   0  0  0  0  0  0  0  0  0  0  0  0
  151.8045  143.0391  161.8393 H   0  0  0  0  0  0  0  0  0  0  0  0
  153.0715  143.9715  161.0271 H   0  0  0  0  0  0  0  0  0  0  0  0
  153.3396  142.2768  161.4284 H   0  0  0  0  0  0  0  0  0  0  0  0
  149.7363  145.1347  159.1576 H   0  0  0  0  0  0  0  0  0  0  0  0
  151.3051  145.3664  159.9272 H   0  0  0  0  0  0  0  0  0  0  0  0
  150.0486  144.4188  160.7376 H   0  0  0  0  0  0  0  0  0  0  0  0
  149.7523  143.5999  157.3680 H   0  0  0  0  0  0  0  0  0  0  0  0
  147.9129  137.8718  154.7659 H   0  0  0  0  0  0  0  0  0  0  0  0
  1  2  1  0  0  0  0
  1 25  1  0  0  0  0
  1 26  1  0  0  0  0
  1 27  1  0  0  0  0
  2 24  1  0  0  0  0
  2  3  2  0  0  0  0
  3  4  1  0  0  0  0
  4  5  2  0  0  0  0
  4 28  1  0  0  0  0
  5  6  1  0  0  0  0
  5 24  1  0  0  0  0
  6  7  1  0  0  0  0
  6 29  1  0  0  0  0
  6 30  1  0  0  0  0
  7  8  1  0  0  0  0
  7  9  1  0  0  0  0
  7 49  1  0  0  0  0
  8 31  1  0  0  0  0
  8 32  1  0  0  0  0
  8 33  1  0  0  0  0
  9 10  1  0  0  0  0
  9 34  1  0  0  0  0
  9 35  1  0  0  0  0
 10 11  1  0  0  0  0
 10 12  1  0  0  0  0
 10 36  1  0  0  0  0
 11 37  1  0  0  0  0
 12 13  1  0  0  0  0
 12 38  1  0  0  0  0
 12 39  1  0  0  0  0
 13 23  1  0  0  0  0
 13 14  1  0  0  0  0
 14 15  2  0  0  0  0
 14 40  1  0  0  0  0
 15 16  1  0  0  0  0
 16 23  2  0  0  0  0
 16 17  1  0  0  0  0
 17 18  2  0  0  0  0
 17 41  1  0  0  0  0
 18 19  1  0  0  0  0
 18 20  1  0  0  0  0
 19 42  1  0  0  0  0
 19 43  1  0  0  0  0
 19 44  1  0  0  0  0
 20 21  1  0  0  0  0
 20 22  2  0  0  0  0
 21 45  1  0  0  0  0
 21 46  1  0  0  0  0
 21 47  1  0  0  0  0
 22 23  1  0  0  0  0
 22 48  1  0  0  0  0
M  CHG  1   7   1
M  END
> <s_m_source_file>
AV-unprocessed.smi

> <i_m_source_file_index>
1225

> <i_lp_mmshare_version>
43012

> <i_f3d_flags>
0

> <s_epik_input>
W0NIM11jMW5bY0hdYyhzMSlbQ0gyXU4oW0NIM10pW0NIMl1bQ0BIXShbT0hdKVtDSDJdbihbY0hdbjIpYyhjMjMpW2NIXWMoW0NIM10pYyhbY0hdMylbQ0gzXQ==

> <s_epik_cmdline>
J2VwaWtfcHl0aG9uJywgJy1waCcsICc3LjAnLCAnLXRuJywgJzgnLCAnLW1hJywgJzIwMCcsICctbWV0YWxfYmluZGluZycsICctaW1hZScsICc8aW5maWxlLm1hZT4nLCAnLW9tYWUnLCAnPG91dGZpbGUubWFlPic=

> <r_epik_Ionization_Penalty>
1.62543

> <r_epik_Ionization_Penalty_Charging>
1.53932

> <r_epik_Ionization_Penalty_Neutral>
0.0861152

> <r_epik_State_Penalty>
1.73127

> <r_epik_Charging_Adjusted_Penalty>
3.27059

> <i_epik_Tot_Q>
1

> <i_epik_Tot_abs_Q>
1

> <r_epik_Metal_State_Penalty>
1.71387

> <b_epik_Metal_Only>
0

> <s_lp_Force_Field>
OPLS_2005

> <r_lp_Energy>
11.3811

> <b_lp_Chiralities_Consistent>
1

> <s_lp_Variant>
AV-unprocessed.smi:1225-6

> <Gold.Version>
5.8.1

> <Gold.Id.Protein>
6NUR|6NUR_protein|mol2

> <Gold.PLP.Fitness>
47.8204

> <Gold.PLP.PLP>
-39.6573

> <Gold.PLP.part.hbond>
-2.0000

> <Gold.PLP.part.metal>
0.0000

> <Gold.PLP.part.buried>
-6.1091

> <Gold.PLP.part.nonpolar>
-31.4710

> <Gold.PLP.part.repulsive>
0.1618

> <Gold.PLP.ligand.clash>
0.0000

> <Gold.PLP.ligand.torsion>
0.4723

> <Gold.PLP.Chemscore.Hbond>
2.0000

> <Gold.PLP.Chemscore.CHOScore>
1.0000

> <Gold.PLP.Chemscore.Metal>
0.0000

> <Gold.Chemscore.Hbonds>
donor molecule, donor type, donor heavy atom, donor atom, acceptor molecule, acceptor atom, score
      L1  H    11    37       P1  7957  1.00
      P1  H  7997  8009       L1    15  0.73
      L1  C     4    28       P1  7948  1.00

> <Gold.PLP.Chemscore.Internal.Correction>
0.1076

> <Gold.Rescore>
     Score         DG    S(hbond)    S(metal)    S(lipo)     H(rot)  DE(clash)    DE(int)     intcor
     16.49     -17.46       1.73        0.00     105.07       2.37       0.46       0.51       ----

> <Gold.Chemscore.Fitness>
16.4912

> <Gold.Chemscore.DG>
-17.4570

> <Gold.Chemscore.ZeroCoef>
-5.4800

> <Gold.Chemscore.Hbond>
1.7259

> <Gold.Chemscore.Metal>
0.0000

> <Gold.Chemscore.Lipo>
105.0650

> <Gold.Chemscore.Internal_Hbond>
0.0000

> <Gold.Chemscore.DEClash>
0.4567

> <Gold.Chemscore.DEInternal>
0.5091

> <Gold.Chemscore.Rot>
2.3750

> <Gold.Chemscore.Internal.Correction>
   9.000000E+99

> <Gold.Chemscore.Hbonds>
donor molecule, donor type, donor heavy atom, donor atom, acceptor molecule, acceptor atom, score
      L1  H    11    37       P1  7957  0.98
      P1  H  7997  8009       L1    15  0.32

> <Gold.Chemscore.Hbond.Weighted>
-5.7644

> <Gold.Chemscore.Metal.Weighted>
-0.0000

> <Gold.Chemscore.Lipo.Weighted>
-12.2926

> <Gold.Chemscore.Internal_Hbond.Weighted>
0.0000

> <Gold.Chemscore.DEClash.Weighted>
0.4567

> <Gold.Chemscore.DEInternal.Weighted>
0.5091

> <Gold.Chemscore.Rot.Weighted>
6.0800

> <Gold.Chemscore.Internal.Correction.Weighted>
   9.000000E+99

> <Gold.Protein.RotatedTorsions>
[ 6907 6896 6895 6894 ] final   44.94 input  -60.11 | X-H torsion
[ 7974 7965 7964 7962 ] final   30.91 input  175.53 | X-H torsion
[ 8008 7997 7996 7995 ] final -164.43 input   59.86 | X-H torsion
[ 10167 10162 10161 10158 ] final  -51.67 input  -65.29 | X-H torsion
[ 10718 10713 10712 10709 ] final  -76.81 input   66.30 | X-H torsion
[ 10763 10752 10751 10750 ] final   53.42 input  -60.55 | X-H torsion
[ 11005 11000 10999 10996 ] final -131.63 input  -57.11 | X-H torsion

> <Gold.Protein.ActiveResidues>
 VAL166  LYS551  ARG553  GLY616  TRP617  ASP618  TYR619  PRO620  LYS621  CYS622 
 ASP623  PHE694  ASN695  SER759  ASP760  ASP761  ALA762  ILE779  LEU786  VAL792 
 PHE793  MET794  SER795  GLU796  ALA797  LYS798  CYS799  TRP800  GLU811  SER814 

> <Gold.Protein.RotatedAtoms>
  152.2385  134.8251  160.0463 H   0  0  0  0  0  0  0  0  0  0  0  0  # atno 6907 bound_to 6896
  151.8974  133.3525  159.3827 H   0  0  0  0  0  0  0  0  0  0  0  0  # atno 6908 bound_to 6896
  150.7046  134.4788  159.5504 H   0  0  0  0  0  0  0  0  0  0  0  0  # atno 6909 bound_to 6896
  146.1583  139.6727  142.9051 H   0  0  0  0  0  0  0  0  0  0  0  0  # atno 7974 bound_to 7965
  155.8354  140.0940  157.1767 H   0  0  0  0  0  0  0  0  0  0  0  0  # atno 8008 bound_to 7997
  154.3980  140.1411  156.3725 H   0  0  0  0  0  0  0  0  0  0  0  0  # atno 8009 bound_to 7997
  155.8121  140.3449  155.5466 H   0  0  0  0  0  0  0  0  0  0  0  0  # atno 8010 bound_to 7997
  140.6576  143.2611  151.4537 H   0  0  0  0  0  0  0  0  0  0  0  0  # atno 10167 bound_to 10162
  156.0164  130.4475  150.3249 H   0  0  0  0  0  0  0  0  0  0  0  0  # atno 10718 bound_to 10713
  152.9795  135.5779  154.4739 H   0  0  0  0  0  0  0  0  0  0  0  0  # atno 10763 bound_to 10752
  154.4298  135.2773  155.1922 H   0  0  0  0  0  0  0  0  0  0  0  0  # atno 10764 bound_to 10752
  154.3635  135.6183  153.5757 H   0  0  0  0  0  0  0  0  0  0  0  0  # atno 10765 bound_to 10752
  140.9242  134.1405  157.4289 H   0  0  0  0  0  0  0  0  0  0  0  0  # atno 11005 bound_to 11000
  145.4653  141.0434  143.2729 LP  0  0  0  0  0  0  0  0  0  0  0  0  # atno 17320 bound_to 7965
  144.7993  139.6173  143.7079 LP  0  0  0  0  0  0  0  0  0  0  0  0  # atno 17321 bound_to 7965
  139.5802  144.1726  152.1958 LP  0  0  0  0  0  0  0  0  0  0  0  0  # atno 17342 bound_to 10162
  140.1049  144.5507  150.6964 LP  0  0  0  0  0  0  0  0  0  0  0  0  # atno 17343 bound_to 10162
  157.1349  131.0281  151.2953 LP  0  0  0  0  0  0  0  0  0  0  0  0  # atno 17370 bound_to 10713
  157.4520  130.7604  149.7159 LP  0  0  0  0  0  0  0  0  0  0  0  0  # atno 17371 bound_to 10713
  139.8782  134.9982  156.5888 LP  0  0  0  0  0  0  0  0  0  0  0  0  # atno 17394 bound_to 11000
  140.7948  133.8553  155.8676 LP  0  0  0  0  0  0  0  0  0  0  0  0  # atno 17395 bound_to 11000

$$$$
