AV-unprocessed.smi:283|AV-procd|sdf|2143|dock5
  -GOLD-   2262021473D 1   1.00000     0.00000
 Structure written by MMmdl.
 48 51  0  0  0  0  0  0  0  0  1 V2000
  152.4387  139.7586  158.7002 C   0  0  0  0  0  0  0  0  0  0  0  0
  151.4324  140.8176  158.2310 C   0  0  2  0  0  0  0  0  0  0  0  0
  151.3627  140.8261  156.7704 N   0  0  0  0  0  0  0  0  0  0  0  0
  150.8335  139.7825  156.0933 C   0  0  0  0  0  0  0  0  0  0  0  0
  150.9666  139.6780  154.7451 N   0  0  0  0  0  0  0  0  0  0  0  0
  150.4359  138.6355  154.0999 C   0  0  0  0  0  0  0  0  0  0  0  0
  149.7455  137.6085  154.6008 N   0  0  0  0  0  0  0  0  0  0  0  0
  149.6043  137.7108  155.9541 C   0  0  0  0  0  0  0  0  0  0  0  0
  150.1135  138.7620  156.7664 C   0  0  0  0  0  0  0  0  0  0  0  0
  149.7766  138.5365  158.0946 N   0  0  0  0  0  0  0  0  0  0  0  0
  149.1057  137.4165  158.0640 C   0  0  0  0  0  0  0  0  0  0  0  0
  148.9598  136.8483  156.8177 N   0  0  0  0  0  0  0  0  0  0  0  0
  148.2528  135.5786  156.4729 C   0  0  1  0  0  0  0  0  0  0  0  0
  146.8841  135.7908  156.6222 O   0  0  0  0  0  0  0  0  0  0  0  0
  146.1640  135.0862  155.6166 C   0  0  2  0  0  0  0  0  0  0  0  0
  145.8641  133.6588  156.1154 C   0  0  0  0  0  0  0  0  0  0  0  0
  145.3465  132.8792  155.0590 O   0  0  0  0  0  0  0  0  0  0  0  0
  147.1137  135.1086  154.4106 C   0  0  1  0  0  0  0  0  0  0  0  0
  146.8453  136.2558  153.6293 O   0  0  0  0  0  0  0  0  0  0  0  0
  148.5160  135.1749  155.0128 C   0  0  2  0  0  0  0  0  0  0  0  0
  149.1181  133.8977  154.9419 O   0  0  0  0  0  0  0  0  0  0  0  0
  151.7567  142.1766  158.8561 C   0  0  0  0  0  0  0  0  0  0  0  0
  152.2169  142.2433  160.1921 C   0  0  0  0  0  0  0  0  0  0  0  0
  152.5188  143.4828  160.7866 C   0  0  0  0  0  0  0  0  0  0  0  0
  152.3569  144.6718  160.0531 C   0  0  0  0  0  0  0  0  0  0  0  0
  151.8889  144.6186  158.7272 C   0  0  0  0  0  0  0  0  0  0  0  0
  151.5857  143.3801  158.1263 C   0  0  0  0  0  0  0  0  0  0  0  0
  151.0025  143.3768  156.4984 Cl  0  0  0  0  0  0  0  0  0  0  0  0
  148.6080  134.8491  157.2027 H   0  0  0  0  0  0  0  0  0  0  0  0
  145.2263  135.5954  155.3863 H   0  0  0  0  0  0  0  0  0  0  0  0
  146.9748  134.2429  153.7610 H   0  0  0  0  0  0  0  0  0  0  0  0
  149.1540  135.9013  154.5058 H   0  0  0  0  0  0  0  0  0  0  0  0
  152.4427  139.6779  159.7878 H   0  0  0  0  0  0  0  0  0  0  0  0
  153.4523  140.0039  158.3809 H   0  0  0  0  0  0  0  0  0  0  0  0
  152.1912  138.7750  158.2996 H   0  0  0  0  0  0  0  0  0  0  0  0
  150.4487  140.4986  158.5738 H   0  0  0  0  0  0  0  0  0  0  0  0
  151.5833  141.7068  156.3280 H   0  0  0  0  0  0  0  0  0  0  0  0
  150.5862  138.6223  153.0304 H   0  0  0  0  0  0  0  0  0  0  0  0
  148.6987  136.9686  158.9590 H   0  0  0  0  0  0  0  0  0  0  0  0
  146.7826  133.1763  156.4507 H   0  0  0  0  0  0  0  0  0  0  0  0
  145.1738  133.6553  156.9595 H   0  0  0  0  0  0  0  0  0  0  0  0
  144.4649  132.6208  155.2816 H   0  0  0  0  0  0  0  0  0  0  0  0
  147.5544  136.3701  153.0135 H   0  0  0  0  0  0  0  0  0  0  0  0
  148.6526  133.3139  155.5212 H   0  0  0  0  0  0  0  0  0  0  0  0
  152.3422  141.3400  160.7711 H   0  0  0  0  0  0  0  0  0  0  0  0
  152.8735  143.5209  161.8061 H   0  0  0  0  0  0  0  0  0  0  0  0
  152.5879  145.6240  160.5077 H   0  0  0  0  0  0  0  0  0  0  0  0
  151.7604  145.5344  158.1689 H   0  0  0  0  0  0  0  0  0  0  0  0
  1  2  1  0  0  0  0
  1 33  1  0  0  0  0
  1 34  1  0  0  0  0
  1 35  1  0  0  0  0
  2  3  1  0  0  0  0
  2 22  1  0  0  0  0
  2 36  1  0  0  0  0
  3  4  1  0  0  0  0
  3 37  1  0  0  0  0
  4  9  1  0  0  0  0
  4  5  2  0  0  0  0
  5  6  1  0  0  0  0
  6  7  2  0  0  0  0
  6 38  1  0  0  0  0
  7  8  1  0  0  0  0
  8 12  1  0  0  0  0
  8  9  2  0  0  0  0
  9 10  1  0  0  0  0
 10 11  2  0  0  0  0
 11 12  1  0  0  0  0
 11 39  1  0  0  0  0
 12 13  1  0  0  0  0
 13 29  1  0  0  0  0
 13 20  1  0  0  0  0
 13 14  1  0  0  0  0
 14 15  1  0  0  0  0
 15 30  1  0  0  0  0
 15 16  1  0  0  0  0
 15 18  1  0  0  0  0
 16 17  1  0  0  0  0
 16 40  1  0  0  0  0
 16 41  1  0  0  0  0
 17 42  1  0  0  0  0
 18 31  1  0  0  0  0
 18 19  1  0  0  0  0
 18 20  1  0  0  0  0
 19 43  1  0  0  0  0
 20 32  1  0  0  0  0
 20 21  1  0  0  0  0
 21 44  1  0  0  0  0
 22 27  1  0  0  0  0
 22 23  2  0  0  0  0
 23 24  1  0  0  0  0
 23 45  1  0  0  0  0
 24 25  2  0  0  0  0
 24 46  1  0  0  0  0
 25 26  1  0  0  0  0
 25 47  1  0  0  0  0
 26 27  2  0  0  0  0
 26 48  1  0  0  0  0
 27 28  1  0  0  0  0
M  END
> <s_m_source_file>
AV-unprocessed.smi

> <i_m_source_file_index>
283

> <i_lp_mmshare_version>
43012

> <i_f3d_flags>
0

> <s_epik_input>
Q2xjMVtjSF1bY0hdW2NIXVtjSF1jMVtDQEhdKFtDSDNdKVtOSF1jKG5bY0hdbjIpYyhjMjMpbltjSF1uM1tDQEBIXTRPW0NASF0oW0NIMl1bT0hdKVtDQEBIXShbT0hdKVtDQEhdNFtPSF0=

> <s_epik_cmdline>
J2VwaWtfcHl0aG9uJywgJy1waCcsICc3LjAnLCAnLXRuJywgJzgnLCAnLW1hJywgJzIwMCcsICctbWV0YWxfYmluZGluZycsICctaW1hZScsICc8aW5maWxlLm1hZT4nLCAnLW9tYWUnLCAnPG91dGZpbGUubWFlPic=

> <r_lp_tautomer_probability>
1

> <r_epik_Ionization_Penalty>
0.000266407

> <r_epik_Ionization_Penalty_Charging>
0

> <r_epik_Ionization_Penalty_Neutral>
0.000266407

> <r_epik_State_Penalty>
-0

> <r_epik_Charging_Adjusted_Penalty>
0

> <i_epik_Tot_Q>
0

> <i_epik_Tot_abs_Q>
0

> <r_epik_Metal_State_Penalty>
-0

> <b_epik_Metal_Only>
0

> <s_epik_Chemistry_Notes>
This compound contains an acetal/aminal-like group ( X-CH(R)-Y where X, Y are N, S, or O) that may be acid/base labile, releasing an aldehyde.

> <s_lp_Force_Field>
OPLS_2005

> <r_lp_Energy>
39.2487

> <b_lp_Chiralities_Consistent>
1

> <s_lp_Variant>
AV-unprocessed.smi:283-19

> <Gold.Version>
5.8.1

> <Gold.Id.Protein>
6NUR|6NUR_protein|mol2

> <Gold.PLP.Fitness>
45.7222

> <Gold.PLP.PLP>
-35.5142

> <Gold.PLP.part.hbond>
-3.0000

> <Gold.PLP.part.metal>
0.0000

> <Gold.PLP.part.buried>
-3.9594

> <Gold.PLP.part.nonpolar>
-29.7433

> <Gold.PLP.part.repulsive>
0.3762

> <Gold.PLP.ligand.clash>
0.0000

> <Gold.PLP.ligand.torsion>
0.9304

> <Gold.PLP.Chemscore.Hbond>
2.9913

> <Gold.PLP.Chemscore.CHOScore>
1.0000

> <Gold.PLP.Chemscore.Metal>
0.0000

> <Gold.Chemscore.Hbonds>
donor molecule, donor type, donor heavy atom, donor atom, acceptor molecule, acceptor atom, score
      L1  H    17    42       P1 10957  0.99
      L1  H    19    43       P1  7948  1.00
      P1  H  7989  7998       L1     5  1.00
      L1  C     6    38       P1  7957  1.00

> <Gold.PLP.Chemscore.Internal.Correction>
0.0951

> <Gold.Rescore>
     Score         DG    S(hbond)    S(metal)    S(lipo)     H(rot)  DE(clash)    DE(int)     intcor
      8.17     -16.08       2.82        0.00      99.67       4.10       1.48       6.43       ----

> <Gold.Chemscore.Fitness>
8.1650

> <Gold.Chemscore.DG>
-16.0813

> <Gold.Chemscore.ZeroCoef>
-5.4800

> <Gold.Chemscore.Hbond>
2.8227

> <Gold.Chemscore.Metal>
0.0000

> <Gold.Chemscore.Lipo>
99.6714

> <Gold.Chemscore.Internal_Hbond>
0.0000

> <Gold.Chemscore.DEClash>
1.4844

> <Gold.Chemscore.DEInternal>
6.4320

> <Gold.Chemscore.Rot>
4.0968

> <Gold.Chemscore.Internal.Correction>
   9.000000E+99

> <Gold.Chemscore.Hbonds>
donor molecule, donor type, donor heavy atom, donor atom, acceptor molecule, acceptor atom, score
      L1  H    17    42       P1 10957  0.87
      L1  H    19    43       P1  7948  1.00
      P1  H  7989  7998       L1     5  0.65

> <Gold.Chemscore.Hbond.Weighted>
-9.4277

> <Gold.Chemscore.Metal.Weighted>
-0.0000

> <Gold.Chemscore.Lipo.Weighted>
-11.6616

> <Gold.Chemscore.Internal_Hbond.Weighted>
0.0000

> <Gold.Chemscore.DEClash.Weighted>
1.4844

> <Gold.Chemscore.DEInternal.Weighted>
6.4320

> <Gold.Chemscore.Rot.Weighted>
10.4879

> <Gold.Chemscore.Internal.Correction.Weighted>
   9.000000E+99

> <Gold.Protein.RotatedTorsions>
[ 6907 6896 6895 6894 ] final -153.97 input  -60.11 | X-H torsion
[ 7974 7965 7964 7962 ] final  -66.37 input  175.53 | X-H torsion
[ 8008 7997 7996 7995 ] final -170.99 input   59.86 | X-H torsion
[ 10167 10162 10161 10158 ] final   98.94 input  -65.29 | X-H torsion
[ 10718 10713 10712 10709 ] final   76.18 input   66.30 | X-H torsion
[ 10763 10752 10751 10750 ] final  -45.20 input  -60.55 | X-H torsion
[ 11005 11000 10999 10996 ] final -109.87 input  -57.11 | X-H torsion

> <Gold.Protein.ActiveResidues>
 VAL166  LYS551  ARG553  GLY616  TRP617  ASP618  TYR619  PRO620  LYS621  CYS622 
 ASP623  PHE694  ASN695  SER759  ASP760  ASP761  ALA762  ILE779  LEU786  VAL792 
 PHE793  MET794  SER795  GLU796  ALA797  LYS798  CYS799  TRP800  GLU811  SER814 

> <Gold.Protein.RotatedAtoms>
  151.2505  133.4352  159.2611 H   0  0  0  0  0  0  0  0  0  0  0  0  # atno 6907 bound_to 6896
  151.0622  134.9744  159.8276 H   0  0  0  0  0  0  0  0  0  0  0  0  # atno 6908 bound_to 6896
  152.5400  134.2455  159.8931 H   0  0  0  0  0  0  0  0  0  0  0  0  # atno 6909 bound_to 6896
  145.7426  140.8946  143.0521 H   0  0  0  0  0  0  0  0  0  0  0  0  # atno 7974 bound_to 7965
  155.9257  140.1082  157.1172 H   0  0  0  0  0  0  0  0  0  0  0  0  # atno 8008 bound_to 7997
  154.4062  140.1247  156.4802 H   0  0  0  0  0  0  0  0  0  0  0  0  # atno 8009 bound_to 7997
  155.7142  140.3470  155.4989 H   0  0  0  0  0  0  0  0  0  0  0  0  # atno 8010 bound_to 7997
  139.7662  144.6938  151.0221 H   0  0  0  0  0  0  0  0  0  0  0  0  # atno 10167 bound_to 10162
  157.6663  130.9762  150.1460 H   0  0  0  0  0  0  0  0  0  0  0  0  # atno 10718 bound_to 10713
  154.0246  135.6665  153.4775 H   0  0  0  0  0  0  0  0  0  0  0  0  # atno 10763 bound_to 10752
  153.0566  135.5052  154.7991 H   0  0  0  0  0  0  0  0  0  0  0  0  # atno 10764 bound_to 10752
  154.6916  135.3062  154.9436 H   0  0  0  0  0  0  0  0  0  0  0  0  # atno 10765 bound_to 10752
  141.0823  133.9198  157.2261 H   0  0  0  0  0  0  0  0  0  0  0  0  # atno 11005 bound_to 11000
  144.6867  139.9482  143.7477 LP  0  0  0  0  0  0  0  0  0  0  0  0  # atno 17320 bound_to 7965
  146.0433  139.3442  143.0684 LP  0  0  0  0  0  0  0  0  0  0  0  0  # atno 17321 bound_to 7965
  140.7811  143.4640  151.0238 LP  0  0  0  0  0  0  0  0  0  0  0  0  # atno 17342 bound_to 10162
  139.8325  143.7672  152.3180 LP  0  0  0  0  0  0  0  0  0  0  0  0  # atno 17343 bound_to 10162
  156.2271  130.3679  149.8488 LP  0  0  0  0  0  0  0  0  0  0  0  0  # atno 17370 bound_to 10713
  156.6325  130.8672  151.3498 LP  0  0  0  0  0  0  0  0  0  0  0  0  # atno 17371 bound_to 10713
  139.9638  135.0147  156.9333 LP  0  0  0  0  0  0  0  0  0  0  0  0  # atno 17394 bound_to 11000
  140.5440  134.0692  155.7349 LP  0  0  0  0  0  0  0  0  0  0  0  0  # atno 17395 bound_to 11000

$$$$
