AV-unprocessed.smi:3031|AV-procd|sdf|11543|dock10
  -GOLD-   2272016493D 1   1.00000     0.00000
 Structure written by MMmdl.
 47 48  0  0  0  0  0  0  0  0  2 V2000
  152.7274  143.0997  162.1388 C   0  0  0  0  0  0  0  0  0  0  0  0
  152.2271  143.5486  160.7963 C   0  0  0  0  0  0  0  0  0  0  0  0
  151.6573  144.8067  160.4497 C   0  0  0  0  0  0  0  0  0  0  0  0
  151.3132  144.8811  159.1742 N   0  0  0  0  0  0  0  0  0  0  0  0
  151.6542  143.6790  158.6622 N   0  0  0  0  0  0  0  0  0  0  0  0
  151.4098  143.3924  157.2597 C   0  0  0  0  0  0  0  0  0  0  0  0
  150.7022  142.0383  157.0557 C   0  0  2  0  0  0  0  0  0  0  0  0
  151.5243  141.1246  156.1322 C   0  0  0  0  0  0  0  0  0  0  0  0
  149.3413  142.2517  156.5127 N   0  3  0  0  0  0  0  0  0  0  0  0
  148.8098  141.1564  155.6754 C   0  0  0  0  0  0  0  0  0  0  0  0
  148.3293  141.6918  154.3162 C   0  0  1  0  0  0  0  0  0  0  0  0
  149.3158  141.4508  153.3325 O   0  0  0  0  0  0  0  0  0  0  0  0
  146.9668  141.1631  153.8100 C   0  0  0  0  0  0  0  0  0  0  0  0
  145.7662  141.8809  154.2536 N   0  0  0  0  0  0  0  0  0  0  0  0
  145.7570  143.2465  153.7348 C   0  0  0  0  0  0  0  0  0  0  0  0
  144.5036  144.0242  154.1722 C   0  0  0  0  0  0  0  0  0  0  0  0
  144.4234  144.0356  155.5930 O   0  0  0  0  0  0  0  0  0  0  0  0
  144.3923  142.7260  156.1496 C   0  0  0  0  0  0  0  0  0  0  0  0
  145.6460  141.9490  155.7108 C   0  0  0  0  0  0  0  0  0  0  0  0
  152.2077  142.8557  159.6192 C   0  0  0  0  0  0  0  0  0  0  0  0
  152.7504  143.9186  162.8582 H   0  0  0  0  0  0  0  0  0  0  0  0
  153.7392  142.6983  162.0775 H   0  0  0  0  0  0  0  0  0  0  0  0
  152.0959  142.3185  162.5622 H   0  0  0  0  0  0  0  0  0  0  0  0
  151.4825  145.6625  161.0852 H   0  0  0  0  0  0  0  0  0  0  0  0
  150.8282  144.2069  156.8246 H   0  0  0  0  0  0  0  0  0  0  0  0
  152.3731  143.3930  156.7480 H   0  0  0  0  0  0  0  0  0  0  0  0
  150.6165  141.5559  158.0308 H   0  0  0  0  0  0  0  0  0  0  0  0
  152.5335  140.9836  156.5206 H   0  0  0  0  0  0  0  0  0  0  0  0
  151.6119  141.5479  155.1309 H   0  0  0  0  0  0  0  0  0  0  0  0
  151.0769  140.1353  156.0383 H   0  0  0  0  0  0  0  0  0  0  0  0
  148.7163  142.3568  157.3000 H   0  0  0  0  0  0  0  0  0  0  0  0
  149.5824  140.4010  155.5375 H   0  0  0  0  0  0  0  0  0  0  0  0
  147.9761  140.6903  156.2020 H   0  0  0  0  0  0  0  0  0  0  0  0
  148.2260  142.7746  154.4012 H   0  0  0  0  0  0  0  0  0  0  0  0
  149.3547  140.5210  153.1658 H   0  0  0  0  0  0  0  0  0  0  0  0
  146.9758  141.0968  152.7212 H   0  0  0  0  0  0  0  0  0  0  0  0
  146.9019  140.1292  154.1530 H   0  0  0  0  0  0  0  0  0  0  0  0
  146.6482  143.7781  154.0725 H   0  0  0  0  0  0  0  0  0  0  0  0
  145.7996  143.2292  152.6452 H   0  0  0  0  0  0  0  0  0  0  0  0
  144.5472  145.0512  153.8087 H   0  0  0  0  0  0  0  0  0  0  0  0
  143.6025  143.5728  153.7532 H   0  0  0  0  0  0  0  0  0  0  0  0
  144.3539  142.8021  157.2363 H   0  0  0  0  0  0  0  0  0  0  0  0
  143.4857  142.2084  155.8319 H   0  0  0  0  0  0  0  0  0  0  0  0
  145.6028  140.9560  156.1482 H   0  0  0  0  0  0  0  0  0  0  0  0
  146.5292  142.4322  156.1319 H   0  0  0  0  0  0  0  0  0  0  0  0
  152.5373  141.8536  159.3863 H   0  0  0  0  0  0  0  0  0  0  0  0
  149.3275  143.1110  155.9817 H   0  0  0  0  0  0  0  0  0  0  0  0
  1  2  1  0  0  0  0
  1 21  1  0  0  0  0
  1 22  1  0  0  0  0
  1 23  1  0  0  0  0
  2 20  2  0  0  0  0
  2  3  1  0  0  0  0
  3  4  2  0  0  0  0
  3 24  1  0  0  0  0
  4  5  1  0  0  0  0
  5  6  1  0  0  0  0
  5 20  1  0  0  0  0
  6  7  1  0  0  0  0
  6 25  1  0  0  0  0
  6 26  1  0  0  0  0
  7  8  1  0  0  0  0
  7  9  1  0  0  0  0
  7 27  1  0  0  0  0
  8 28  1  0  0  0  0
  8 29  1  0  0  0  0
  8 30  1  0  0  0  0
  9 10  1  0  0  0  0
  9 31  1  0  0  0  0
  9 47  1  0  0  0  0
 10 11  1  0  0  0  0
 10 32  1  0  0  0  0
 10 33  1  0  0  0  0
 11 12  1  0  0  0  0
 11 13  1  0  0  0  0
 11 34  1  0  0  0  0
 12 35  1  0  0  0  0
 13 14  1  0  0  0  0
 13 36  1  0  0  0  0
 13 37  1  0  0  0  0
 14 19  1  0  0  0  0
 14 15  1  0  0  0  0
 15 16  1  0  0  0  0
 15 38  1  0  0  0  0
 15 39  1  0  0  0  0
 16 17  1  0  0  0  0
 16 40  1  0  0  0  0
 16 41  1  0  0  0  0
 17 18  1  0  0  0  0
 18 19  1  0  0  0  0
 18 42  1  0  0  0  0
 18 43  1  0  0  0  0
 19 44  1  0  0  0  0
 19 45  1  0  0  0  0
 20 46  1  0  0  0  0
M  CHG  1   9   1
M  END
> <s_m_source_file>
AV-unprocessed.smi

> <i_m_source_file_index>
3031

> <i_lp_mmshare_version>
43012

> <i_f3d_flags>
0

> <s_epik_input>
W0NIM11jMVtjSF1ubihbY0hdMSlbQ0gyXVtDQEhdKFtDSDNdKVtOSF1bQ0gyXVtDQEhdKFtPSF0pW0NIMl1OMltDSDJdW0NIMl1PW0NIMl1bQ0gyXTI=

> <s_epik_cmdline>
J2VwaWtfcHl0aG9uJywgJy1waCcsICc3LjAnLCAnLXRuJywgJzgnLCAnLW1hJywgJzIwMCcsICctbWV0YWxfYmluZGluZycsICctaW1hZScsICc8aW5maWxlLm1hZT4nLCAnLW9tYWUnLCAnPG91dGZpbGUubWFlPic=

> <r_lp_tautomer_probability>
1

> <r_epik_Ionization_Penalty>
0.108564

> <r_epik_Ionization_Penalty_Charging>
0.01811

> <r_epik_Ionization_Penalty_Neutral>
0.0904541

> <r_epik_State_Penalty>
0.141043

> <r_epik_Charging_Adjusted_Penalty>
0.159153

> <i_epik_Tot_Q>
1

> <i_epik_Tot_abs_Q>
1

> <r_epik_Metal_State_Penalty>
0.141052

> <b_epik_Metal_Only>
0

> <s_lp_Force_Field>
OPLS_2005

> <r_lp_Energy>
34.8443

> <b_lp_Chiralities_Consistent>
1

> <s_lp_Variant>
AV-unprocessed.smi:3031-3

> <Gold.Version>
5.8.1

> <Gold.Id.Protein>
6NUR|6NUR_protein|mol2

> <Gold.PLP.Fitness>
52.0900

> <Gold.PLP.PLP>
-47.9342

> <Gold.PLP.part.hbond>
-3.9594

> <Gold.PLP.part.metal>
0.0000

> <Gold.PLP.part.buried>
-7.8194

> <Gold.PLP.part.nonpolar>
-36.0721

> <Gold.PLP.part.repulsive>
0.4390

> <Gold.PLP.ligand.clash>
0.0000

> <Gold.PLP.ligand.torsion>
2.5591

> <Gold.PLP.Chemscore.Hbond>
3.0639

> <Gold.PLP.Chemscore.CHOScore>
0.0000

> <Gold.PLP.Chemscore.Metal>
0.0000

> <Gold.Chemscore.Hbonds>
donor molecule, donor type, donor heavy atom, donor atom, acceptor molecule, acceptor atom, score
      L1  H     9    47       P1  8028  2.00
      L1  H    12    35       P1  7957  0.24
      P1  H  8011  8017       L1    12  0.81

> <Gold.PLP.Chemscore.Internal.Correction>
0.0824

> <Gold.Rescore>
     Score         DG    S(hbond)    S(metal)    S(lipo)     H(rot)  DE(clash)    DE(int)     intcor
     15.69     -18.35       2.19        0.00     105.08       2.63       0.08       2.58       ----

> <Gold.Chemscore.Fitness>
15.6868

> <Gold.Chemscore.DG>
-18.3528

> <Gold.Chemscore.ZeroCoef>
-5.4800

> <Gold.Chemscore.Hbond>
2.1868

> <Gold.Chemscore.Metal>
0.0000

> <Gold.Chemscore.Lipo>
105.0759

> <Gold.Chemscore.Internal_Hbond>
0.0000

> <Gold.Chemscore.DEClash>
0.0825

> <Gold.Chemscore.DEInternal>
2.5834

> <Gold.Chemscore.Rot>
2.6270

> <Gold.Chemscore.Internal.Correction>
   9.000000E+99

> <Gold.Chemscore.Hbonds>
donor molecule, donor type, donor heavy atom, donor atom, acceptor molecule, acceptor atom, score
      L1  H     9    47       P1  8028  0.98
      L1  H    12    35       P1  7957  0.22
      P1  H  8011  8017       L1    12  0.74

> <Gold.Chemscore.Hbond.Weighted>
-7.3040

> <Gold.Chemscore.Metal.Weighted>
-0.0000

> <Gold.Chemscore.Lipo.Weighted>
-12.2939

> <Gold.Chemscore.Internal_Hbond.Weighted>
0.0000

> <Gold.Chemscore.DEClash.Weighted>
0.0825

> <Gold.Chemscore.DEInternal.Weighted>
2.5834

> <Gold.Chemscore.Rot.Weighted>
6.7251

> <Gold.Chemscore.Internal.Correction.Weighted>
   9.000000E+99

> <Gold.Protein.RotatedTorsions>
[ 6907 6896 6895 6894 ] final    8.62 input  -60.11 | X-H torsion
[ 7974 7965 7964 7962 ] final -154.14 input  175.53 | X-H torsion
[ 8008 7997 7996 7995 ] final   49.00 input   59.86 | X-H torsion
[ 10167 10162 10161 10158 ] final  131.18 input  -65.29 | X-H torsion
[ 10718 10713 10712 10709 ] final  163.54 input   66.30 | X-H torsion
[ 10763 10752 10751 10750 ] final  174.74 input  -60.55 | X-H torsion
[ 11005 11000 10999 10996 ] final  155.71 input  -57.11 | X-H torsion

> <Gold.Protein.ActiveResidues>
 VAL166  LYS551  ARG553  GLY616  TRP617  ASP618  TYR619  PRO620  LYS621  CYS622 
 ASP623  PHE694  ASN695  SER759  ASP760  ASP761  ALA762  ILE779  LEU786  VAL792 
 PHE793  MET794  SER795  GLU796  ALA797  LYS798  CYS799  TRP800  GLU811  SER814 

> <Gold.Protein.RotatedAtoms>
  151.7089  135.0916  160.0263 H   0  0  0  0  0  0  0  0  0  0  0  0  # atno 6907 bound_to 6896
  152.3674  133.6370  159.6069 H   0  0  0  0  0  0  0  0  0  0  0  0  # atno 6908 bound_to 6896
  150.7648  133.9242  159.3449 H   0  0  0  0  0  0  0  0  0  0  0  0  # atno 6909 bound_to 6896
  144.7704  140.4429  143.5911 H   0  0  0  0  0  0  0  0  0  0  0  0  # atno 7974 bound_to 7965
  155.3949  140.3435  155.4253 H   0  0  0  0  0  0  0  0  0  0  0  0  # atno 8008 bound_to 7997
  156.1536  140.1579  156.8761 H   0  0  0  0  0  0  0  0  0  0  0  0  # atno 8009 bound_to 7997
  154.5075  140.0798  156.7905 H   0  0  0  0  0  0  0  0  0  0  0  0  # atno 8010 bound_to 7997
  139.5396  144.6717  151.4670 H   0  0  0  0  0  0  0  0  0  0  0  0  # atno 10167 bound_to 10162
  157.1071  131.0458  151.2473 H   0  0  0  0  0  0  0  0  0  0  0  0  # atno 10718 bound_to 10713
  154.4581  135.2767  155.1733 H   0  0  0  0  0  0  0  0  0  0  0  0  # atno 10763 bound_to 10752
  154.3532  135.6145  153.5657 H   0  0  0  0  0  0  0  0  0  0  0  0  # atno 10764 bound_to 10752
  152.9852  135.5816  154.4938 H   0  0  0  0  0  0  0  0  0  0  0  0  # atno 10765 bound_to 10752
  140.1606  134.8612  157.2570 H   0  0  0  0  0  0  0  0  0  0  0  0  # atno 11005 bound_to 11000
  145.6341  139.1540  143.2953 LP  0  0  0  0  0  0  0  0  0  0  0  0  # atno 17320 bound_to 7965
  146.1846  140.6442  142.9173 LP  0  0  0  0  0  0  0  0  0  0  0  0  # atno 17321 bound_to 7965
  140.6619  143.8480  150.6898 LP  0  0  0  0  0  0  0  0  0  0  0  0  # atno 17342 bound_to 10162
  140.1877  143.4062  152.1886 LP  0  0  0  0  0  0  0  0  0  0  0  0  # atno 17343 bound_to 10162
  157.4591  130.7643  149.7220 LP  0  0  0  0  0  0  0  0  0  0  0  0  # atno 17370 bound_to 10713
  155.9859  130.3979  150.3237 LP  0  0  0  0  0  0  0  0  0  0  0  0  # atno 17371 bound_to 10713
  140.2494  134.3701  155.7448 LP  0  0  0  0  0  0  0  0  0  0  0  0  # atno 17394 bound_to 11000
  141.2209  133.7308  156.8912 LP  0  0  0  0  0  0  0  0  0  0  0  0  # atno 17395 bound_to 11000

$$$$
