AV-unprocessed.smi:48|AV-procd|sdf|450|dock7
  -GOLD-   2262016323D 1   1.00000     0.00000
 Structure written by MMmdl.
 30 32  0  0  0  0  0  0  0  0  1 V2000
  146.6619  138.6314  150.9904 O   0  0  0  0  0  0  0  0  0  0  0  0
  146.4974  138.2439  152.3380 C   0  0  0  0  0  0  0  0  0  0  0  0
  147.1794  139.2590  153.2725 C   0  0  2  0  0  0  0  0  0  0  0  0
  148.5889  139.0771  153.2787 O   0  0  0  0  0  0  0  0  0  0  0  0
  149.1246  139.7164  154.3950 C   0  0  2  0  0  0  0  0  0  0  0  0
  150.2658  138.8941  154.9085 N   0  0  0  0  0  0  0  0  0  0  0  0
  150.6568  137.6798  154.4706 C   0  0  0  0  0  0  0  0  0  0  0  0
  151.7075  137.1196  155.0683 N   0  0  0  0  0  0  0  0  0  0  0  0
  152.0383  138.0844  156.0053 C   0  0  0  0  0  0  0  0  0  0  0  0
  153.0561  138.1579  156.9872 C   0  0  0  0  0  0  0  0  0  0  0  0
  154.1925  136.8748  157.1876 Cl  0  0  0  0  0  0  0  0  0  0  0  0
  153.1194  139.2615  157.7697 N   0  0  0  0  0  0  0  0  0  0  0  0
  152.2244  140.2414  157.5941 C   0  0  0  0  0  0  0  0  0  0  0  0
  151.2163  140.3112  156.7177 N   0  0  0  0  0  0  0  0  0  0  0  0
  151.1546  139.1987  155.9276 C   0  0  0  0  0  0  0  0  0  0  0  0
  147.9889  139.8934  155.4270 C   0  0  2  0  0  0  0  0  0  0  0  0
  148.2602  139.4089  156.7312 O   0  0  0  0  0  0  0  0  0  0  0  0
  146.7961  139.2104  154.7596 C   0  0  2  0  0  0  0  0  0  0  0  0
  146.6113  137.8766  155.2023 O   0  0  0  0  0  0  0  0  0  0  0  0
  146.9934  140.2675  152.8981 H   0  0  0  0  0  0  0  0  0  0  0  0
  149.5772  140.6653  154.1036 H   0  0  0  0  0  0  0  0  0  0  0  0
  147.7915  140.9638  155.4978 H   0  0  0  0  0  0  0  0  0  0  0  0
  145.8698  139.7539  154.9492 H   0  0  0  0  0  0  0  0  0  0  0  0
  145.8584  138.4518  150.5260 H   0  0  0  0  0  0  0  0  0  0  0  0
  145.4364  138.1361  152.5652 H   0  0  0  0  0  0  0  0  0  0  0  0
  146.9490  137.2603  152.4688 H   0  0  0  0  0  0  0  0  0  0  0  0
  150.1420  137.1792  153.6635 H   0  0  0  0  0  0  0  0  0  0  0  0
  152.3302  141.0924  158.2505 H   0  0  0  0  0  0  0  0  0  0  0  0
  148.2108  140.1384  157.3307 H   0  0  0  0  0  0  0  0  0  0  0  0
  145.6923  137.7468  155.3809 H   0  0  0  0  0  0  0  0  0  0  0  0
  1  2  1  0  0  0  0
  1 24  1  0  0  0  0
  2  3  1  0  0  0  0
  2 25  1  0  0  0  0
  2 26  1  0  0  0  0
  3 20  1  0  0  0  0
  3 18  1  0  0  0  0
  3  4  1  0  0  0  0
  4  5  1  0  0  0  0
  5 21  1  0  0  0  0
  5  6  1  0  0  0  0
  5 16  1  0  0  0  0
  6 15  1  0  0  0  0
  6  7  1  0  0  0  0
  7  8  2  0  0  0  0
  7 27  1  0  0  0  0
  8  9  1  0  0  0  0
  9 15  2  0  0  0  0
  9 10  1  0  0  0  0
 10 11  1  0  0  0  0
 10 12  2  0  0  0  0
 12 13  1  0  0  0  0
 13 14  2  0  0  0  0
 13 28  1  0  0  0  0
 14 15  1  0  0  0  0
 16 22  1  0  0  0  0
 16 17  1  0  0  0  0
 16 18  1  0  0  0  0
 17 29  1  0  0  0  0
 18 23  1  0  0  0  0
 18 19  1  0  0  0  0
 19 30  1  0  0  0  0
M  END
> <s_m_source_file>
AV-unprocessed.smi

> <i_m_source_file_index>
48

> <i_lp_mmshare_version>
43012

> <i_f3d_flags>
0

> <s_epik_input>
W09IXVtDSDJdW0NASF0xT1tDQEhdKFtDQEhdKFtPSF0pW0NAQEhdMVtPSF0pbihbY0hdbjIpYyhjMjMpbltjSF1uYzNDbA==

> <s_epik_cmdline>
J2VwaWtfcHl0aG9uJywgJy1waCcsICc3LjAnLCAnLXRuJywgJzgnLCAnLW1hJywgJzIwMCcsICctbWV0YWxfYmluZGluZycsICctaW1hZScsICc8aW5maWxlLm1hZT4nLCAnLW9tYWUnLCAnPG91dGZpbGUubWFlPic=

> <r_lp_tautomer_probability>
1

> <r_epik_Ionization_Penalty>
3.45505e-06

> <r_epik_Ionization_Penalty_Charging>
0

> <r_epik_Ionization_Penalty_Neutral>
3.45505e-06

> <r_epik_State_Penalty>
-0

> <r_epik_Charging_Adjusted_Penalty>
0

> <i_epik_Tot_Q>
0

> <i_epik_Tot_abs_Q>
0

> <r_epik_Metal_State_Penalty>
-0

> <b_epik_Metal_Only>
0

> <s_epik_Chemistry_Notes>
This compound contains an acetal/aminal-like group ( X-CH(R)-Y where X, Y are N, S, or O) that may be acid/base labile, releasing an aldehyde.

> <s_lp_Force_Field>
OPLS_2005

> <r_lp_Energy>
43.6519

> <b_lp_Chiralities_Consistent>
1

> <s_lp_Variant>
AV-unprocessed.smi:48-4

> <Gold.Version>
5.8.1

> <Gold.Id.Protein>
6NUR|6NUR_protein|mol2

> <Gold.PLP.Fitness>
35.3342

> <Gold.PLP.PLP>
-20.6691

> <Gold.PLP.part.hbond>
-4.2538

> <Gold.PLP.part.metal>
0.0000

> <Gold.PLP.part.buried>
-3.9545

> <Gold.PLP.part.nonpolar>
-17.9010

> <Gold.PLP.part.repulsive>
4.1685

> <Gold.PLP.ligand.clash>
0.0000

> <Gold.PLP.ligand.torsion>
0.2005

> <Gold.PLP.Chemscore.Hbond>
3.9350

> <Gold.PLP.Chemscore.CHOScore>
1.0868

> <Gold.PLP.Chemscore.Metal>
0.0000

> <Gold.Chemscore.Hbonds>
donor molecule, donor type, donor heavy atom, donor atom, acceptor molecule, acceptor atom, score
      L1  H     1    24       P1 10171  0.83
      P1  H  7954  7966       L1     1  0.96
      P1  H  7997  8010       L1    12  0.95
      P1  H 10752 10763       L1     8  1.00
      L1  C     7    27       P1  7948  1.00
      L1  C     7    27       P1  7949  0.10

> <Gold.PLP.Chemscore.Internal.Correction>
0.0006

> <Gold.Rescore>
     Score         DG    S(hbond)    S(metal)    S(lipo)     H(rot)  DE(clash)    DE(int)     intcor
      7.39     -10.45       3.18        0.00      34.72       3.80       1.99       1.07       ----

> <Gold.Chemscore.Fitness>
7.3893

> <Gold.Chemscore.DG>
-10.4469

> <Gold.Chemscore.ZeroCoef>
-5.4800

> <Gold.Chemscore.Hbond>
3.1846

> <Gold.Chemscore.Metal>
0.0000

> <Gold.Chemscore.Lipo>
34.7234

> <Gold.Chemscore.Internal_Hbond>
0.0000

> <Gold.Chemscore.DEClash>
1.9906

> <Gold.Chemscore.DEInternal>
1.0670

> <Gold.Chemscore.Rot>
3.8017

> <Gold.Chemscore.Internal.Correction>
   9.000000E+99

> <Gold.Chemscore.Hbonds>
donor molecule, donor type, donor heavy atom, donor atom, acceptor molecule, acceptor atom, score
      L1  H     1    24       P1 10171  0.82
      P1  H  7954  7966       L1     1  0.53
      P1  H  7997  8010       L1    12  0.07
      P1  H 10752 10763       L1     8  0.92

> <Gold.Chemscore.Hbond.Weighted>
-10.6367

> <Gold.Chemscore.Metal.Weighted>
-0.0000

> <Gold.Chemscore.Lipo.Weighted>
-4.0626

> <Gold.Chemscore.Internal_Hbond.Weighted>
0.0000

> <Gold.Chemscore.DEClash.Weighted>
1.9906

> <Gold.Chemscore.DEInternal.Weighted>
1.0670

> <Gold.Chemscore.Rot.Weighted>
9.7324

> <Gold.Chemscore.Internal.Correction.Weighted>
   9.000000E+99

> <Gold.Protein.RotatedTorsions>
[ 6907 6896 6895 6894 ] final   57.21 input  -60.11 | X-H torsion
[ 7974 7965 7964 7962 ] final -114.69 input  175.53 | X-H torsion
[ 8008 7997 7996 7995 ] final   28.47 input   59.86 | X-H torsion
[ 10167 10162 10161 10158 ] final  -69.41 input  -65.29 | X-H torsion
[ 10718 10713 10712 10709 ] final  103.47 input   66.30 | X-H torsion
[ 10763 10752 10751 10750 ] final   60.60 input  -60.55 | X-H torsion
[ 11005 11000 10999 10996 ] final  157.53 input  -57.11 | X-H torsion

> <Gold.Protein.ActiveResidues>
 VAL166  LYS551  ARG553  GLY616  TRP617  ASP618  TYR619  PRO620  LYS621  CYS622 
 ASP623  PHE694  ASN695  SER759  ASP760  ASP761  ALA762  ILE779  LEU786  VAL792 
 PHE793  MET794  SER795  GLU796  ALA797  LYS798  CYS799  TRP800  GLU811  SER814 

> <Gold.Protein.RotatedAtoms>
  152.3710  134.6734  160.0175 H   0  0  0  0  0  0  0  0  0  0  0  0  # atno 6907 bound_to 6896
  151.7027  133.3306  159.3278 H   0  0  0  0  0  0  0  0  0  0  0  0  # atno 6908 bound_to 6896
  150.7673  134.6536  159.6346 H   0  0  0  0  0  0  0  0  0  0  0  0  # atno 6909 bound_to 6896
  145.1172  140.8647  143.3835 H   0  0  0  0  0  0  0  0  0  0  0  0  # atno 7974 bound_to 7965
  155.0592  140.3188  155.4666 H   0  0  0  0  0  0  0  0  0  0  0  0  # atno 8008 bound_to 7997
  156.2817  140.2132  156.5663 H   0  0  0  0  0  0  0  0  0  0  0  0  # atno 8009 bound_to 7997
  154.7146  140.0495  157.0570 H   0  0  0  0  0  0  0  0  0  0  0  0  # atno 8010 bound_to 7997
  140.5432  143.2314  151.7050 H   0  0  0  0  0  0  0  0  0  0  0  0  # atno 10167 bound_to 10162
  157.6771  131.0780  150.5561 H   0  0  0  0  0  0  0  0  0  0  0  0  # atno 10718 bound_to 10713
  152.9926  135.5530  154.5900 H   0  0  0  0  0  0  0  0  0  0  0  0  # atno 10763 bound_to 10752
  154.5263  135.2811  155.1221 H   0  0  0  0  0  0  0  0  0  0  0  0  # atno 10764 bound_to 10752
  154.2554  135.6391  153.5308 H   0  0  0  0  0  0  0  0  0  0  0  0  # atno 10765 bound_to 10752
  140.1778  134.8497  157.2767 H   0  0  0  0  0  0  0  0  0  0  0  0  # atno 11005 bound_to 11000
  145.0780  139.2981  143.5798 LP  0  0  0  0  0  0  0  0  0  0  0  0  # atno 17320 bound_to 7965
  146.3523  140.0277  142.8653 LP  0  0  0  0  0  0  0  0  0  0  0  0  # atno 17321 bound_to 7965
  139.4997  144.3935  152.0255 LP  0  0  0  0  0  0  0  0  0  0  0  0  # atno 17342 bound_to 10162
  140.3046  144.3607  150.6050 LP  0  0  0  0  0  0  0  0  0  0  0  0  # atno 17343 bound_to 10162
  156.5864  130.4318  149.5955 LP  0  0  0  0  0  0  0  0  0  0  0  0  # atno 17370 bound_to 10713
  156.2619  130.6967  151.1738 LP  0  0  0  0  0  0  0  0  0  0  0  0  # atno 17371 bound_to 10713
  140.2302  134.3918  155.7525 LP  0  0  0  0  0  0  0  0  0  0  0  0  # atno 17394 bound_to 11000
  141.2221  133.7211  156.8629 LP  0  0  0  0  0  0  0  0  0  0  0  0  # atno 17395 bound_to 11000

$$$$
