AV-unprocessed.smi:99|AV-procd|sdf|871|dock8
  -GOLD-   2262017333D 1   1.00000     0.00000
 Structure written by MMmdl.
 53 56  0  0  0  0  0  0  0  0  1 V2000
  146.8608  140.9972  153.2263 O   0  0  0  0  0  0  0  0  0  0  0  0
  147.3413  141.1891  154.3453 C   0  0  0  0  0  0  0  0  0  0  0  0
  148.5211  140.6771  154.7475 O   0  0  0  0  0  0  0  0  0  0  0  0
  149.1552  139.6699  153.9769 C   0  0  0  0  0  0  0  0  0  0  0  0
  150.3882  139.1581  154.7279 C   0  0  2  0  0  0  0  0  0  0  0  0
  150.5958  137.7851  154.4390 O   0  0  0  0  0  0  0  0  0  0  0  0
  151.3244  137.2050  155.4738 C   0  0  2  0  0  0  0  0  0  0  0  0
  150.8096  135.7946  155.6631 N   0  0  0  0  0  0  0  0  0  0  0  0
  149.6633  135.3712  155.0043 C   0  0  0  0  0  0  0  0  0  0  0  0
  149.1611  134.1196  155.1245 C   0  0  0  0  0  0  0  0  0  0  0  0
  149.8239  133.1357  155.9744 C   0  0  0  0  0  0  0  0  0  0  0  0
  149.4475  131.9780  156.1449 O   0  0  0  0  0  0  0  0  0  0  0  0
  150.9713  133.6059  156.6205 N   0  0  0  0  0  0  0  0  0  0  0  0
  151.4967  134.8945  156.5072 C   0  0  0  0  0  0  0  0  0  0  0  0
  152.5094  135.2012  157.1353 O   0  0  0  0  0  0  0  0  0  0  0  0
  151.1645  138.0928  156.7291 C   0  0  2  0  0  0  0  0  0  0  0  0
  150.6278  137.4336  157.8620 O   0  0  0  0  0  0  0  0  0  0  0  0
  150.2188  139.1879  156.2473 C   0  0  1  0  0  0  0  0  0  0  0  0
  150.6224  140.4584  156.7439 O   0  0  0  0  0  0  0  0  0  0  0  0
  150.9157  140.6262  158.0513 C   0  0  0  0  0  0  0  0  0  0  0  0
  150.7748  139.7452  158.9015 O   0  0  0  0  0  0  0  0  0  0  0  0
  151.4351  141.9897  158.3591 C   0  0  0  0  0  0  0  0  0  0  0  0
  151.2766  143.0225  157.4059 C   0  0  0  0  0  0  0  0  0  0  0  0
  151.7509  144.3219  157.6704 C   0  0  0  0  0  0  0  0  0  0  0  0
  152.3885  144.6048  158.8922 C   0  0  0  0  0  0  0  0  0  0  0  0
  152.5523  143.5862  159.8491 C   0  0  0  0  0  0  0  0  0  0  0  0
  152.0797  142.2855  159.5856 C   0  0  0  0  0  0  0  0  0  0  0  0
  146.6764  142.0125  155.3965 C   0  0  0  0  0  0  0  0  0  0  0  0
  145.6904  142.9537  155.0186 C   0  0  0  0  0  0  0  0  0  0  0  0
  145.0459  143.7462  155.9883 C   0  0  0  0  0  0  0  0  0  0  0  0
  145.3800  143.6078  157.3480 C   0  0  0  0  0  0  0  0  0  0  0  0
  146.3595  142.6755  157.7370 C   0  0  0  0  0  0  0  0  0  0  0  0
  147.0050  141.8819  156.7686 C   0  0  0  0  0  0  0  0  0  0  0  0
  151.4595  132.9594  157.2231 H   0  0  0  0  0  0  0  0  0  0  0  0
  148.4514  138.8517  153.8181 H   0  0  0  0  0  0  0  0  0  0  0  0
  149.4400  140.0556  152.9969 H   0  0  0  0  0  0  0  0  0  0  0  0
  151.2822  139.7150  154.4404 H   0  0  0  0  0  0  0  0  0  0  0  0
  152.3625  137.1403  155.1447 H   0  0  0  0  0  0  0  0  0  0  0  0
  149.1369  136.0700  154.3697 H   0  0  0  0  0  0  0  0  0  0  0  0
  148.2635  133.8448  154.5894 H   0  0  0  0  0  0  0  0  0  0  0  0
  152.1456  138.5018  156.9751 H   0  0  0  0  0  0  0  0  0  0  0  0
  151.2457  137.5063  158.5736 H   0  0  0  0  0  0  0  0  0  0  0  0
  149.1842  138.9449  156.4969 H   0  0  0  0  0  0  0  0  0  0  0  0
  150.7893  142.8301  156.4607 H   0  0  0  0  0  0  0  0  0  0  0  0
  151.6241  145.1024  156.9346 H   0  0  0  0  0  0  0  0  0  0  0  0
  152.7507  145.6020  159.0955 H   0  0  0  0  0  0  0  0  0  0  0  0
  153.0405  143.8028  160.7878 H   0  0  0  0  0  0  0  0  0  0  0  0
  152.2193  141.5279  160.3429 H   0  0  0  0  0  0  0  0  0  0  0  0
  145.4169  143.0783  153.9805 H   0  0  0  0  0  0  0  0  0  0  0  0
  144.2942  144.4613  155.6879 H   0  0  0  0  0  0  0  0  0  0  0  0
  144.8860  144.2157  158.0916 H   0  0  0  0  0  0  0  0  0  0  0  0
  146.6169  142.5688  158.7805 H   0  0  0  0  0  0  0  0  0  0  0  0
  147.7526  141.1769  157.1014 H   0  0  0  0  0  0  0  0  0  0  0  0
  1  2  2  0  0  0  0
  2  3  1  0  0  0  0
  2 28  1  0  0  0  0
  3  4  1  0  0  0  0
  4  5  1  0  0  0  0
  4 35  1  0  0  0  0
  4 36  1  0  0  0  0
  5 18  1  0  0  0  0
  5  6  1  0  0  0  0
  5 37  1  0  0  0  0
  6  7  1  0  0  0  0
  7  8  1  0  0  0  0
  7 16  1  0  0  0  0
  7 38  1  0  0  0  0
  8 14  1  0  0  0  0
  8  9  1  0  0  0  0
  9 10  2  0  0  0  0
  9 39  1  0  0  0  0
 10 11  1  0  0  0  0
 10 40  1  0  0  0  0
 11 12  2  0  0  0  0
 11 13  1  0  0  0  0
 13 34  1  0  0  0  0
 13 14  1  0  0  0  0
 14 15  2  0  0  0  0
 16 17  1  0  0  0  0
 16 18  1  0  0  0  0
 16 41  1  0  0  0  0
 17 42  1  0  0  0  0
 18 19  1  0  0  0  0
 18 43  1  0  0  0  0
 19 20  1  0  0  0  0
 20 21  2  0  0  0  0
 20 22  1  0  0  0  0
 22 27  1  0  0  0  0
 22 23  2  0  0  0  0
 23 24  1  0  0  0  0
 23 44  1  0  0  0  0
 24 25  2  0  0  0  0
 24 45  1  0  0  0  0
 25 26  1  0  0  0  0
 25 46  1  0  0  0  0
 26 27  2  0  0  0  0
 26 47  1  0  0  0  0
 27 48  1  0  0  0  0
 28 33  1  0  0  0  0
 28 29  2  0  0  0  0
 29 30  1  0  0  0  0
 29 49  1  0  0  0  0
 30 31  2  0  0  0  0
 30 50  1  0  0  0  0
 31 32  1  0  0  0  0
 31 51  1  0  0  0  0
 32 33  2  0  0  0  0
 32 52  1  0  0  0  0
 33 53  1  0  0  0  0
M  END
> <s_m_source_file>
AV-unprocessed.smi

> <i_m_source_file_index>
99

> <i_lp_mmshare_version>
43012

> <i_f3d_flags>
0

> <s_epik_input>
W2NIXTFbY0hdW2NIXVtjSF1bY0hdYzFDKD1PKU9bQ0gyXVtDQEBIXTJPW0NAQEhdKG4zW2NIXVtjSF1jKD1PKVtuSF1jMz1PKVtDQEBIXShbT0hdKVtDQEhdMk9DKD1PKWM0W2NIXVtjSF1bY0hdW2NIXVtjSF00

> <s_epik_cmdline>
J2VwaWtfcHl0aG9uJywgJy1waCcsICc3LjAnLCAnLXRuJywgJzgnLCAnLW1hJywgJzIwMCcsICctbWV0YWxfYmluZGluZycsICctaW1hZScsICc8aW5maWxlLm1hZT4nLCAnLW9tYWUnLCAnPG91dGZpbGUubWFlPic=

> <r_lp_tautomer_probability>
1

> <r_epik_Ionization_Penalty>
0.00454555

> <r_epik_Ionization_Penalty_Charging>
0.0045191

> <r_epik_Ionization_Penalty_Neutral>
2.64449e-05

> <r_epik_State_Penalty>
-0

> <r_epik_Charging_Adjusted_Penalty>
0.0045191

> <i_epik_Tot_Q>
0

> <i_epik_Tot_abs_Q>
0

> <r_epik_Metal_State_Penalty>
1.27877

> <b_epik_Metal_Only>
0

> <s_epik_Chemistry_Notes>
This compound has an ester and may undergo hydrolysis at high or low pH. This compound contains an acetal/aminal-like group ( X-CH(R)-Y where X, Y are N, S, or O) that may be acid/base labile, releasing an aldehyde.

> <s_lp_Force_Field>
OPLS_2005

> <r_lp_Energy>
38.4241

> <b_lp_Chiralities_Consistent>
1

> <s_lp_Variant>
AV-unprocessed.smi:99-7

> <Gold.Version>
5.8.1

> <Gold.Id.Protein>
6NUR|6NUR_protein|mol2

> <Gold.PLP.Fitness>
52.7248

> <Gold.PLP.PLP>
-49.7184

> <Gold.PLP.part.hbond>
-1.5660

> <Gold.PLP.part.metal>
0.0000

> <Gold.PLP.part.buried>
-6.4036

> <Gold.PLP.part.nonpolar>
-43.8094

> <Gold.PLP.part.repulsive>
0.6651

> <Gold.PLP.ligand.clash>
0.0000

> <Gold.PLP.ligand.torsion>
1.1071

> <Gold.PLP.Chemscore.Hbond>
0.5948

> <Gold.PLP.Chemscore.CHOScore>
0.9907

> <Gold.PLP.Chemscore.Metal>
0.0000

> <Gold.Chemscore.Hbonds>
donor molecule, donor type, donor heavy atom, donor atom, acceptor molecule, acceptor atom, score
      P1  H 10752 10763       L1    15  0.44
      L1  C     9    39       P1  7948  1.00

> <Gold.PLP.Chemscore.Internal.Correction>
0.4644

> <Gold.Rescore>
     Score         DG    S(hbond)    S(metal)    S(lipo)     H(rot)  DE(clash)    DE(int)     intcor
      6.46     -13.03       0.79        0.00     111.85       3.19       0.10       6.47       ----

> <Gold.Chemscore.Fitness>
6.4603

> <Gold.Chemscore.DG>
-13.0279

> <Gold.Chemscore.ZeroCoef>
-5.4800

> <Gold.Chemscore.Hbond>
0.7870

> <Gold.Chemscore.Metal>
0.0000

> <Gold.Chemscore.Lipo>
111.8497

> <Gold.Chemscore.Internal_Hbond>
0.0000

> <Gold.Chemscore.DEClash>
0.0974

> <Gold.Chemscore.DEInternal>
6.4702

> <Gold.Chemscore.Rot>
3.1903

> <Gold.Chemscore.Internal.Correction>
   9.000000E+99

> <Gold.Chemscore.Hbonds>
donor molecule, donor type, donor heavy atom, donor atom, acceptor molecule, acceptor atom, score
      P1  H 10752 10763       L1    15  0.02

> <Gold.Chemscore.Hbond.Weighted>
-2.6286

> <Gold.Chemscore.Metal.Weighted>
-0.0000

> <Gold.Chemscore.Lipo.Weighted>
-13.0864

> <Gold.Chemscore.Internal_Hbond.Weighted>
0.0000

> <Gold.Chemscore.DEClash.Weighted>
0.0974

> <Gold.Chemscore.DEInternal.Weighted>
6.4702

> <Gold.Chemscore.Rot.Weighted>
8.1671

> <Gold.Chemscore.Internal.Correction.Weighted>
   9.000000E+99

> <Gold.Protein.RotatedTorsions>
[ 6907 6896 6895 6894 ] final  159.19 input  -60.11 | X-H torsion
[ 7974 7965 7964 7962 ] final -146.46 input  175.53 | X-H torsion
[ 8008 7997 7996 7995 ] final -114.78 input   59.86 | X-H torsion
[ 10167 10162 10161 10158 ] final   -4.13 input  -65.29 | X-H torsion
[ 10718 10713 10712 10709 ] final -119.21 input   66.30 | X-H torsion
[ 10763 10752 10751 10750 ] final  122.22 input  -60.55 | X-H torsion
[ 11005 11000 10999 10996 ] final  132.96 input  -57.11 | X-H torsion

> <Gold.Protein.ActiveResidues>
 VAL166  LYS551  ARG553  GLY616  TRP617  ASP618  TYR619  PRO620  LYS621  CYS622 
 ASP623  PHE694  ASN695  SER759  ASP760  ASP761  ALA762  ILE779  LEU786  VAL792 
 PHE793  MET794  SER795  GLU796  ALA797  LYS798  CYS799  TRP800  GLU811  SER814 

> <Gold.Protein.RotatedAtoms>
  151.9893  133.3785  159.4137 H   0  0  0  0  0  0  0  0  0  0  0  0  # atno 6907 bound_to 6896
  150.6924  134.3954  159.5104 H   0  0  0  0  0  0  0  0  0  0  0  0  # atno 6908 bound_to 6896
  152.1685  134.8853  160.0587 H   0  0  0  0  0  0  0  0  0  0  0  0  # atno 6909 bound_to 6896
  144.8158  140.5452  143.5612 H   0  0  0  0  0  0  0  0  0  0  0  0  # atno 7974 bound_to 7965
  155.0418  140.0392  157.2512 H   0  0  0  0  0  0  0  0  0  0  0  0  # atno 8008 bound_to 7997
  154.7210  140.2712  155.6517 H   0  0  0  0  0  0  0  0  0  0  0  0  # atno 8009 bound_to 7997
  156.2816  140.2703  156.1882 H   0  0  0  0  0  0  0  0  0  0  0  0  # atno 8010 bound_to 7997
  140.6916  143.6459  150.8394 H   0  0  0  0  0  0  0  0  0  0  0  0  # atno 10167 bound_to 10162
  156.1164  130.6289  150.9387 H   0  0  0  0  0  0  0  0  0  0  0  0  # atno 10718 bound_to 10713
  153.6263  135.3404  155.3027 H   0  0  0  0  0  0  0  0  0  0  0  0  # atno 10763 bound_to 10752
  154.8590  135.4285  154.2154 H   0  0  0  0  0  0  0  0  0  0  0  0  # atno 10764 bound_to 10752
  153.3039  135.7026  153.7251 H   0  0  0  0  0  0  0  0  0  0  0  0  # atno 10765 bound_to 10752
  139.9822  134.9544  156.9657 H   0  0  0  0  0  0  0  0  0  0  0  0  # atno 11005 bound_to 11000
  145.5219  139.1476  143.3547 LP  0  0  0  0  0  0  0  0  0  0  0  0  # atno 17320 bound_to 7965
  146.2460  140.5360  142.8913 LP  0  0  0  0  0  0  0  0  0  0  0  0  # atno 17321 bound_to 7965
  140.0172  143.5580  152.2815 LP  0  0  0  0  0  0  0  0  0  0  0  0  # atno 17342 bound_to 10162
  139.6325  144.7646  151.2506 LP  0  0  0  0  0  0  0  0  0  0  0  0  # atno 17343 bound_to 10162
  157.6347  131.0917  150.8372 LP  0  0  0  0  0  0  0  0  0  0  0  0  # atno 17370 bound_to 10713
  156.8475  130.5069  149.5315 LP  0  0  0  0  0  0  0  0  0  0  0  0  # atno 17371 bound_to 10713
  140.5073  134.1037  155.7263 LP  0  0  0  0  0  0  0  0  0  0  0  0  # atno 17394 bound_to 11000
  141.1493  133.8999  157.2139 LP  0  0  0  0  0  0  0  0  0  0  0  0  # atno 17395 bound_to 11000

$$$$
