AV-unprocessed.smi:1433|AV-procd|sdf|5846|dock8
  -GOLD-   22720 5513D 1   1.00000     0.00000
 Structure written by MMmdl.
 45 46  0  0  0  0  0  0  0  0  2 V2000
  145.5711  144.8946  153.6490 C   0  0  0  0  0  0  0  0  0  0  0  0
  145.2238  143.4024  153.7993 C   0  0  1  0  0  0  0  0  0  0  0  0
  146.4247  142.4632  153.5657 C   0  0  0  0  0  0  0  0  0  0  0  0
  147.3732  142.4890  154.7125 N   0  3  2  0  0  0  0  0  0  0  0  0
  148.6077  141.6499  154.5710 C   0  0  2  0  0  0  0  0  0  0  0  0
  148.2421  140.2922  153.9318 C   0  0  0  0  0  0  0  0  0  0  0  0
  149.3887  141.4330  155.8981 C   0  0  0  0  0  0  0  0  0  0  0  0
  150.1939  142.5872  156.2872 N   0  0  0  0  0  0  0  0  0  0  0  0
  151.1568  142.5762  157.2222 C   0  0  0  0  0  0  0  0  0  0  0  0
  151.4548  141.5769  157.8764 O   0  0  0  0  0  0  0  0  0  0  0  0
  151.9026  143.8908  157.4517 C   0  0  0  0  0  0  0  0  0  0  0  0
  151.9619  144.2115  158.8659 N   0  0  0  0  0  0  0  0  0  0  0  0
  151.5926  145.3824  159.4949 C   0  0  0  0  0  0  0  0  0  0  0  0
  151.8202  145.2152  160.8308 C   0  0  0  0  0  0  0  0  0  0  0  0
  152.3339  143.8913  160.9233 C   0  0  0  0  0  0  0  0  0  0  0  0
  152.4166  143.2923  159.7460 N   0  0  0  0  0  0  0  0  0  0  0  0
  146.6363  142.1971  155.9700 C   0  0  0  0  0  0  0  0  0  0  0  0
  145.4749  143.1848  156.1728 C   0  0  2  0  0  0  0  0  0  0  0  0
  144.6534  142.8557  157.4243 C   0  0  0  0  0  0  0  0  0  0  0  0
  144.6023  143.1183  155.0506 O   0  0  0  0  0  0  0  0  0  0  0  0
  145.9074  145.1129  152.6352 H   0  0  0  0  0  0  0  0  0  0  0  0
  146.3656  145.2069  154.3263 H   0  0  0  0  0  0  0  0  0  0  0  0
  144.6985  145.5178  153.8467 H   0  0  0  0  0  0  0  0  0  0  0  0
  144.4769  143.1783  153.0369 H   0  0  0  0  0  0  0  0  0  0  0  0
  146.0698  141.4415  153.4202 H   0  0  0  0  0  0  0  0  0  0  0  0
  146.9134  142.7711  152.6417 H   0  0  0  0  0  0  0  0  0  0  0  0
  149.2783  142.1766  153.8903 H   0  0  0  0  0  0  0  0  0  0  0  0
  149.1259  139.6831  153.7430 H   0  0  0  0  0  0  0  0  0  0  0  0
  147.7405  140.4056  152.9718 H   0  0  0  0  0  0  0  0  0  0  0  0
  147.5800  139.7188  154.5818 H   0  0  0  0  0  0  0  0  0  0  0  0
  148.7128  141.2168  156.7267 H   0  0  0  0  0  0  0  0  0  0  0  0
  150.0582  140.5771  155.8054 H   0  0  0  0  0  0  0  0  0  0  0  0
  150.0232  143.4525  155.7943 H   0  0  0  0  0  0  0  0  0  0  0  0
  152.9150  143.8381  157.0471 H   0  0  0  0  0  0  0  0  0  0  0  0
  151.3906  144.6994  156.9283 H   0  0  0  0  0  0  0  0  0  0  0  0
  151.2018  146.2259  158.9449 H   0  0  0  0  0  0  0  0  0  0  0  0
  151.6457  145.9291  161.6219 H   0  0  0  0  0  0  0  0  0  0  0  0
  152.6461  143.3513  161.8051 H   0  0  0  0  0  0  0  0  0  0  0  0
  146.2553  141.1748  155.9361 H   0  0  0  0  0  0  0  0  0  0  0  0
  147.3015  142.2543  156.8302 H   0  0  0  0  0  0  0  0  0  0  0  0
  145.8661  144.1963  156.2823 H   0  0  0  0  0  0  0  0  0  0  0  0
  145.2702  142.8974  158.3223 H   0  0  0  0  0  0  0  0  0  0  0  0
  144.2203  141.8567  157.3619 H   0  0  0  0  0  0  0  0  0  0  0  0
  143.8350  143.5649  157.5510 H   0  0  0  0  0  0  0  0  0  0  0  0
  147.6942  143.4447  154.7752 H   0  0  0  0  0  0  0  0  0  0  0  0
  1  2  1  0  0  0  0
  1 21  1  0  0  0  0
  1 22  1  0  0  0  0
  1 23  1  0  0  0  0
  2 20  1  0  0  0  0
  2  3  1  0  0  0  0
  2 24  1  0  0  0  0
  3  4  1  0  0  0  0
  3 25  1  0  0  0  0
  3 26  1  0  0  0  0
  4  5  1  0  0  0  0
  4 17  1  0  0  0  0
  4 45  1  0  0  0  0
  5  6  1  0  0  0  0
  5  7  1  0  0  0  0
  5 27  1  0  0  0  0
  6 28  1  0  0  0  0
  6 29  1  0  0  0  0
  6 30  1  0  0  0  0
  7  8  1  0  0  0  0
  7 31  1  0  0  0  0
  7 32  1  0  0  0  0
  8  9  1  0  0  0  0
  8 33  1  0  0  0  0
  9 10  2  0  0  0  0
  9 11  1  0  0  0  0
 11 12  1  0  0  0  0
 11 34  1  0  0  0  0
 11 35  1  0  0  0  0
 12 16  1  0  0  0  0
 12 13  1  0  0  0  0
 13 14  2  0  0  0  0
 13 36  1  0  0  0  0
 14 15  1  0  0  0  0
 14 37  1  0  0  0  0
 15 16  2  0  0  0  0
 15 38  1  0  0  0  0
 17 18  1  0  0  0  0
 17 39  1  0  0  0  0
 17 40  1  0  0  0  0
 18 19  1  0  0  0  0
 18 20  1  0  0  0  0
 18 41  1  0  0  0  0
 19 42  1  0  0  0  0
 19 43  1  0  0  0  0
 19 44  1  0  0  0  0
M  CHG  1   4   1
M  END
> <s_m_source_file>
AV-unprocessed.smi

> <i_m_source_file_index>
1433

> <i_lp_mmshare_version>
43012

> <i_f3d_flags>
0

> <s_epik_input>
W0NIM11bQ0BASF0xW0NIMl1OKFtDSDJdW0NASF0oTzEpW0NIM10pW0NASF0oW0NIM10pW0NIMl1bTkhdQyg9TylbQ0gyXW4yW2NIXVtjSF1bY0hdbjI=

> <s_epik_cmdline>
J2VwaWtfcHl0aG9uJywgJy1waCcsICc3LjAnLCAnLXRuJywgJzgnLCAnLW1hJywgJzIwMCcsICctbWV0YWxfYmluZGluZycsICctaW1hZScsICc8aW5maWxlLm1hZT4nLCAnLW9tYWUnLCAnPG91dGZpbGUubWFlPic=

> <r_lp_tautomer_probability>
1

> <r_epik_Ionization_Penalty>
0.748405

> <r_epik_Ionization_Penalty_Charging>
0.748396

> <r_epik_Ionization_Penalty_Neutral>
8.54426e-06

> <r_epik_State_Penalty>
0.775162

> <r_epik_Charging_Adjusted_Penalty>
1.52356

> <i_epik_Tot_Q>
1

> <i_epik_Tot_abs_Q>
1

> <r_epik_Metal_State_Penalty>
0.775167

> <b_epik_Metal_Only>
0

> <s_lp_Force_Field>
OPLS_2005

> <r_lp_Energy>
23.467

> <b_lp_Chiralities_Consistent>
1

> <s_lp_Variant>
AV-unprocessed.smi:1433-12

> <Gold.Version>
5.8.1

> <Gold.Id.Protein>
6NUR|6NUR_protein|mol2

> <Gold.PLP.Fitness>
45.8217

> <Gold.PLP.PLP>
-38.3938

> <Gold.PLP.part.hbond>
-2.0000

> <Gold.PLP.part.metal>
0.0000

> <Gold.PLP.part.buried>
-5.1670

> <Gold.PLP.part.nonpolar>
-31.5125

> <Gold.PLP.part.repulsive>
0.3626

> <Gold.PLP.ligand.clash>
0.0000

> <Gold.PLP.ligand.torsion>
0.8183

> <Gold.PLP.Chemscore.Hbond>
3.0000

> <Gold.PLP.Chemscore.CHOScore>
0.0000

> <Gold.PLP.Chemscore.Metal>
0.0000

> <Gold.Chemscore.Hbonds>
donor molecule, donor type, donor heavy atom, donor atom, acceptor molecule, acceptor atom, score
      L1  H     4    45       P1  8028  1.95
      L1  H     8    33       P1  8028  0.85

> <Gold.PLP.Chemscore.Internal.Correction>
0.0645

> <Gold.Rescore>
     Score         DG    S(hbond)    S(metal)    S(lipo)     H(rot)  DE(clash)    DE(int)     intcor
     12.35     -15.88       1.21        0.00      95.24       1.87       1.43       2.11       ----

> <Gold.Chemscore.Fitness>
12.3469

> <Gold.Chemscore.DG>
-15.8788

> <Gold.Chemscore.ZeroCoef>
-5.4800

> <Gold.Chemscore.Hbond>
1.2071

> <Gold.Chemscore.Metal>
0.0000

> <Gold.Chemscore.Lipo>
95.2420

> <Gold.Chemscore.Internal_Hbond>
0.0000

> <Gold.Chemscore.DEClash>
1.4267

> <Gold.Chemscore.DEInternal>
2.1052

> <Gold.Chemscore.Rot>
1.8657

> <Gold.Chemscore.Internal.Correction>
   9.000000E+99

> <Gold.Chemscore.Hbonds>
donor molecule, donor type, donor heavy atom, donor atom, acceptor molecule, acceptor atom, score
      L1  H     4    45       P1  8028  0.37
      L1  H     8    33       P1  8028  0.85

> <Gold.Chemscore.Hbond.Weighted>
-4.0316

> <Gold.Chemscore.Metal.Weighted>
-0.0000

> <Gold.Chemscore.Lipo.Weighted>
-11.1433

> <Gold.Chemscore.Internal_Hbond.Weighted>
0.0000

> <Gold.Chemscore.DEClash.Weighted>
1.4267

> <Gold.Chemscore.DEInternal.Weighted>
2.1052

> <Gold.Chemscore.Rot.Weighted>
4.7761

> <Gold.Chemscore.Internal.Correction.Weighted>
   9.000000E+99

> <Gold.Protein.RotatedTorsions>
[ 6907 6896 6895 6894 ] final  -42.84 input  -60.11 | X-H torsion
[ 7974 7965 7964 7962 ] final -148.44 input  175.53 | X-H torsion
[ 8008 7997 7996 7995 ] final -113.05 input   59.86 | X-H torsion
[ 10167 10162 10161 10158 ] final  129.84 input  -65.29 | X-H torsion
[ 10718 10713 10712 10709 ] final   -7.26 input   66.30 | X-H torsion
[ 10763 10752 10751 10750 ] final -179.00 input  -60.55 | X-H torsion
[ 11005 11000 10999 10996 ] final  137.46 input  -57.11 | X-H torsion

> <Gold.Protein.ActiveResidues>
 VAL166  LYS551  ARG553  GLY616  TRP617  ASP618  TYR619  PRO620  LYS621  CYS622 
 ASP623  PHE694  ASN695  SER759  ASP760  ASP761  ALA762  ILE779  LEU786  VAL792 
 PHE793  MET794  SER795  GLU796  ALA797  LYS798  CYS799  TRP800  GLU811  SER814 

> <Gold.Protein.RotatedAtoms>
  150.9507  134.8907  159.7669 H   0  0  0  0  0  0  0  0  0  0  0  0  # atno 6907 bound_to 6896
  152.5118  134.3811  159.9361 H   0  0  0  0  0  0  0  0  0  0  0  0  # atno 6908 bound_to 6896
  151.3827  133.3775  159.2746 H   0  0  0  0  0  0  0  0  0  0  0  0  # atno 6909 bound_to 6896
  144.8029  140.5197  143.5694 H   0  0  0  0  0  0  0  0  0  0  0  0  # atno 7974 bound_to 7965
  155.0147  140.0393  157.2413 H   0  0  0  0  0  0  0  0  0  0  0  0  # atno 8008 bound_to 7997
  154.7430  140.2752  155.6334 H   0  0  0  0  0  0  0  0  0  0  0  0  # atno 8009 bound_to 7997
  156.2868  140.2662  156.2162 H   0  0  0  0  0  0  0  0  0  0  0  0  # atno 8010 bound_to 7997
  139.5458  144.6772  151.4477 H   0  0  0  0  0  0  0  0  0  0  0  0  # atno 10167 bound_to 10162
  156.7199  130.5147  149.5871 H   0  0  0  0  0  0  0  0  0  0  0  0  # atno 10718 bound_to 10713
  154.5406  135.2806  155.1099 H   0  0  0  0  0  0  0  0  0  0  0  0  # atno 10763 bound_to 10752
  154.2583  135.6326  153.5269 H   0  0  0  0  0  0  0  0  0  0  0  0  # atno 10764 bound_to 10752
  152.9978  135.5599  154.5944 H   0  0  0  0  0  0  0  0  0  0  0  0  # atno 10765 bound_to 10752
  140.0116  134.9436  157.0288 H   0  0  0  0  0  0  0  0  0  0  0  0  # atno 11005 bound_to 11000
  145.5508  139.1476  143.3395 LP  0  0  0  0  0  0  0  0  0  0  0  0  # atno 17320 bound_to 7965
  146.2315  140.5646  142.8973 LP  0  0  0  0  0  0  0  0  0  0  0  0  # atno 17321 bound_to 7965
  140.6706  143.8303  150.6994 LP  0  0  0  0  0  0  0  0  0  0  0  0  # atno 17342 bound_to 10162
  140.1725  143.4182  152.1990 LP  0  0  0  0  0  0  0  0  0  0  0  0  # atno 17343 bound_to 10162
  156.1602  130.6369  151.0709 LP  0  0  0  0  0  0  0  0  0  0  0  0  # atno 17370 bound_to 10713
  157.6902  131.0812  150.7129 LP  0  0  0  0  0  0  0  0  0  0  0  0  # atno 17371 bound_to 10713
  140.4545  134.1548  155.7185 LP  0  0  0  0  0  0  0  0  0  0  0  0  # atno 17394 bound_to 11000
  141.1714  133.8600  157.1557 LP  0  0  0  0  0  0  0  0  0  0  0  0  # atno 17395 bound_to 11000

$$$$
