AV-unprocessed.smi:3105|AV-procd|sdf|11819|dock7
  -GOLD-   2272017193D 1   1.00000     0.00000
 Structure written by MMmdl.
 34 34  0  0  0  0  0  0  0  0  2 V2000
  146.1446  136.3683  153.8944 C   0  0  0  0  0  0  0  0  0  0  0  0
  146.0688  135.0183  153.1545 C   0  0  2  0  0  0  0  0  0  0  0  0
  147.4037  134.3746  153.1432 N   0  3  0  0  0  0  0  0  0  0  0  0
  148.0238  134.1689  154.4710 C   0  0  0  0  0  0  0  0  0  0  0  0
  149.5544  134.0143  154.3724 C   0  0  0  0  0  0  0  0  0  0  0  0
  150.3533  135.1990  154.9334 C   0  0  0  0  0  0  0  0  0  0  0  0
  150.1132  136.3925  154.3860 N   0  0  0  0  0  0  0  0  0  0  0  0
  151.1699  135.0503  155.8411 O   0  0  0  0  0  0  0  0  0  0  0  0
  145.5460  135.1700  151.6992 C   0  0  2  0  0  0  0  0  0  0  0  0
  144.2376  135.9767  151.6017 C   0  0  0  0  0  0  0  0  0  0  0  0
  145.3655  133.8758  151.0494 N   0  0  0  0  0  0  0  0  0  0  0  0
  144.2167  133.3579  150.4872 C   0  0  0  0  0  0  0  0  0  0  0  0
  144.5164  132.1110  150.0184 C   0  0  0  0  0  0  0  0  0  0  0  0
  145.8883  131.9437  150.3546 C   0  0  0  0  0  0  0  0  0  0  0  0
  146.3926  132.9987  150.9732 N   0  0  0  0  0  0  0  0  0  0  0  0
  145.1626  136.8302  153.9904 H   0  0  0  0  0  0  0  0  0  0  0  0
  146.7943  137.0707  153.3717 H   0  0  0  0  0  0  0  0  0  0  0  0
  146.5303  136.2544  154.9071 H   0  0  0  0  0  0  0  0  0  0  0  0
  145.3821  134.3673  153.6981 H   0  0  0  0  0  0  0  0  0  0  0  0
  147.2951  133.4624  152.7228 H   0  0  0  0  0  0  0  0  0  0  0  0
  147.7772  134.9954  155.1376 H   0  0  0  0  0  0  0  0  0  0  0  0
  147.6008  133.2691  154.9186 H   0  0  0  0  0  0  0  0  0  0  0  0
  149.8551  133.1187  154.9179 H   0  0  0  0  0  0  0  0  0  0  0  0
  149.8440  133.8537  153.3329 H   0  0  0  0  0  0  0  0  0  0  0  0
  150.6039  137.2110  154.7168 H   0  0  0  0  0  0  0  0  0  0  0  0
  149.4341  136.4754  153.6426 H   0  0  0  0  0  0  0  0  0  0  0  0
  146.3035  135.7057  151.1246 H   0  0  0  0  0  0  0  0  0  0  0  0
  144.3754  137.0123  151.9106 H   0  0  0  0  0  0  0  0  0  0  0  0
  143.4538  135.5421  152.2230 H   0  0  0  0  0  0  0  0  0  0  0  0
  143.8703  136.0002  150.5751 H   0  0  0  0  0  0  0  0  0  0  0  0
  143.2903  133.9131  150.4669 H   0  0  0  0  0  0  0  0  0  0  0  0
  143.8546  131.4203  149.5174 H   0  0  0  0  0  0  0  0  0  0  0  0
  146.5274  131.0926  150.1706 H   0  0  0  0  0  0  0  0  0  0  0  0
  148.0263  134.9220  152.5658 H   0  0  0  0  0  0  0  0  0  0  0  0
  1  2  1  0  0  0  0
  1 16  1  0  0  0  0
  1 17  1  0  0  0  0
  1 18  1  0  0  0  0
  2  3  1  0  0  0  0
  2  9  1  0  0  0  0
  2 19  1  0  0  0  0
  3  4  1  0  0  0  0
  3 20  1  0  0  0  0
  3 34  1  0  0  0  0
  4  5  1  0  0  0  0
  4 21  1  0  0  0  0
  4 22  1  0  0  0  0
  5  6  1  0  0  0  0
  5 23  1  0  0  0  0
  5 24  1  0  0  0  0
  6  7  1  0  0  0  0
  6  8  2  0  0  0  0
  7 25  1  0  0  0  0
  7 26  1  0  0  0  0
  9 10  1  0  0  0  0
  9 11  1  0  0  0  0
  9 27  1  0  0  0  0
 10 28  1  0  0  0  0
 10 29  1  0  0  0  0
 10 30  1  0  0  0  0
 11 15  1  0  0  0  0
 11 12  1  0  0  0  0
 12 13  2  0  0  0  0
 12 31  1  0  0  0  0
 13 14  1  0  0  0  0
 13 32  1  0  0  0  0
 14 15  2  0  0  0  0
 14 33  1  0  0  0  0
M  CHG  1   3   1
M  END
> <s_m_source_file>
AV-unprocessed.smi

> <i_m_source_file_index>
3105

> <i_lp_mmshare_version>
43012

> <i_f3d_flags>
0

> <s_epik_input>
W05IMl1DKD1PKVtDSDJdW0NIMl1bTkhdW0NAQEhdKFtDSDNdKVtDQEhdKFtDSDNdKW4xW2NIXVtjSF1bY0hdbjE=

> <s_epik_cmdline>
J2VwaWtfcHl0aG9uJywgJy1waCcsICc3LjAnLCAnLXRuJywgJzgnLCAnLW1hJywgJzIwMCcsICctbWV0YWxfYmluZGluZycsICctaW1hZScsICc8aW5maWxlLm1hZT4nLCAnLW9tYWUnLCAnPG91dGZpbGUubWFlPic=

> <r_lp_tautomer_probability>
1

> <r_epik_Ionization_Penalty>
0.00475669

> <r_epik_Ionization_Penalty_Charging>
0.00474654

> <r_epik_Ionization_Penalty_Neutral>
1.01546e-05

> <r_epik_State_Penalty>
-0

> <r_epik_Charging_Adjusted_Penalty>
0.00474654

> <i_epik_Tot_Q>
1

> <i_epik_Tot_abs_Q>
1

> <r_epik_Metal_State_Penalty>
-0

> <b_epik_Metal_Only>
0

> <s_lp_Force_Field>
OPLS_2005

> <r_lp_Energy>
5.41696

> <b_lp_Chiralities_Consistent>
1

> <s_lp_Variant>
AV-unprocessed.smi:3105-1

> <Gold.Version>
5.8.1

> <Gold.Id.Protein>
6NUR|6NUR_protein|mol2

> <Gold.PLP.Fitness>
42.7351

> <Gold.PLP.PLP>
-25.8411

> <Gold.PLP.part.hbond>
-4.0000

> <Gold.PLP.part.metal>
0.0000

> <Gold.PLP.part.buried>
-2.3605

> <Gold.PLP.part.nonpolar>
-19.6417

> <Gold.PLP.part.repulsive>
0.3003

> <Gold.PLP.ligand.clash>
0.0000

> <Gold.PLP.ligand.torsion>
0.5266

> <Gold.PLP.Chemscore.Hbond>
3.9520

> <Gold.PLP.Chemscore.CHOScore>
2.0000

> <Gold.PLP.Chemscore.Metal>
0.0000

> <Gold.Chemscore.Hbonds>
donor molecule, donor type, donor heavy atom, donor atom, acceptor molecule, acceptor atom, score
      L1  H     3    34       P1  7948  2.00
      L1  H     7    26       P1  7948  0.98
      P1  H 10752 10764       L1     8  0.73
      L1  C    12    31       P1 10186  1.00
      L1  C    14    33       P1 10747  1.00

> <Gold.PLP.Chemscore.Internal.Correction>
0.0913

> <Gold.Rescore>
     Score         DG    S(hbond)    S(metal)    S(lipo)     H(rot)  DE(clash)    DE(int)     intcor
     10.05     -12.38       2.39        0.00      53.20       2.85       0.29       2.05       ----

> <Gold.Chemscore.Fitness>
10.0500

> <Gold.Chemscore.DG>
-12.3840

> <Gold.Chemscore.ZeroCoef>
-5.4800

> <Gold.Chemscore.Hbond>
2.3860

> <Gold.Chemscore.Metal>
0.0000

> <Gold.Chemscore.Lipo>
53.1971

> <Gold.Chemscore.Internal_Hbond>
0.0000

> <Gold.Chemscore.DEClash>
0.2852

> <Gold.Chemscore.DEInternal>
2.0489

> <Gold.Chemscore.Rot>
2.8473

> <Gold.Chemscore.Internal.Correction>
   9.000000E+99

> <Gold.Chemscore.Hbonds>
donor molecule, donor type, donor heavy atom, donor atom, acceptor molecule, acceptor atom, score
      L1  H     3    34       P1  7948  0.82
      L1  H     7    26       P1  7948  0.76
      P1  H 10752 10764       L1     8  0.24

> <Gold.Chemscore.Hbond.Weighted>
-7.9692

> <Gold.Chemscore.Metal.Weighted>
-0.0000

> <Gold.Chemscore.Lipo.Weighted>
-6.2241

> <Gold.Chemscore.Internal_Hbond.Weighted>
0.0000

> <Gold.Chemscore.DEClash.Weighted>
0.2852

> <Gold.Chemscore.DEInternal.Weighted>
2.0489

> <Gold.Chemscore.Rot.Weighted>
7.2892

> <Gold.Chemscore.Internal.Correction.Weighted>
   9.000000E+99

> <Gold.Protein.RotatedTorsions>
[ 6907 6896 6895 6894 ] final  178.83 input  -60.11 | X-H torsion
[ 7974 7965 7964 7962 ] final   78.36 input  175.53 | X-H torsion
[ 8008 7997 7996 7995 ] final   49.13 input   59.86 | X-H torsion
[ 10167 10162 10161 10158 ] final  -54.94 input  -65.29 | X-H torsion
[ 10718 10713 10712 10709 ] final  -70.14 input   66.30 | X-H torsion
[ 10763 10752 10751 10750 ] final  -43.37 input  -60.55 | X-H torsion
[ 11005 11000 10999 10996 ] final    2.39 input  -57.11 | X-H torsion

> <Gold.Protein.ActiveResidues>
 VAL166  LYS551  ARG553  GLY616  TRP617  ASP618  TYR619  PRO620  LYS621  CYS622 
 ASP623  PHE694  ASN695  SER759  ASP760  ASP761  ALA762  ILE779  LEU786  VAL792 
 PHE793  MET794  SER795  GLU796  ALA797  LYS798  CYS799  TRP800  GLU811  SER814 

> <Gold.Protein.RotatedAtoms>
  151.6814  133.3312  159.3220 H   0  0  0  0  0  0  0  0  0  0  0  0  # atno 6907 bound_to 6896
  150.7821  134.6777  159.6436 H   0  0  0  0  0  0  0  0  0  0  0  0  # atno 6908 bound_to 6896
  152.3881  134.6488  160.0170 H   0  0  0  0  0  0  0  0  0  0  0  0  # atno 6909 bound_to 6896
  145.6781  139.2516  143.1829 H   0  0  0  0  0  0  0  0  0  0  0  0  # atno 7974 bound_to 7965
  155.3971  140.3436  155.4255 H   0  0  0  0  0  0  0  0  0  0  0  0  # atno 8008 bound_to 7997
  156.1524  140.1575  156.8780 H   0  0  0  0  0  0  0  0  0  0  0  0  # atno 8009 bound_to 7997
  154.5064  140.0801  156.7885 H   0  0  0  0  0  0  0  0  0  0  0  0  # atno 8010 bound_to 7997
  140.6403  143.2504  151.5008 H   0  0  0  0  0  0  0  0  0  0  0  0  # atno 10167 bound_to 10162
  156.0422  130.4326  150.2252 H   0  0  0  0  0  0  0  0  0  0  0  0  # atno 10718 bound_to 10713
  153.9945  135.6701  153.4756 H   0  0  0  0  0  0  0  0  0  0  0  0  # atno 10763 bound_to 10752
  153.0690  135.4985  154.8259 H   0  0  0  0  0  0  0  0  0  0  0  0  # atno 10764 bound_to 10752
  154.7089  135.3093  154.9190 H   0  0  0  0  0  0  0  0  0  0  0  0  # atno 10765 bound_to 10752
  140.6049  133.9802  155.8149 H   0  0  0  0  0  0  0  0  0  0  0  0  # atno 11005 bound_to 11000
  146.0987  140.7569  142.9559 LP  0  0  0  0  0  0  0  0  0  0  0  0  # atno 17320 bound_to 7965
  144.7035  140.3753  143.7137 LP  0  0  0  0  0  0  0  0  0  0  0  0  # atno 17321 bound_to 7965
  139.5612  144.2152  152.1694 LP  0  0  0  0  0  0  0  0  0  0  0  0  # atno 17342 bound_to 10162
  140.1421  144.5193  150.6738 LP  0  0  0  0  0  0  0  0  0  0  0  0  # atno 17343 bound_to 10162
  157.0346  131.0017  151.3302 LP  0  0  0  0  0  0  0  0  0  0  0  0  # atno 17370 bound_to 10713
  157.5253  130.8024  149.7855 LP  0  0  0  0  0  0  0  0  0  0  0  0  # atno 17371 bound_to 10713
  141.0847  134.0008  157.3331 LP  0  0  0  0  0  0  0  0  0  0  0  0  # atno 17394 bound_to 11000
  139.9217  135.0200  156.8087 LP  0  0  0  0  0  0  0  0  0  0  0  0  # atno 17395 bound_to 11000

$$$$
