AV-unprocessed.smi:2171|AV-procd|sdf|8826|dock3
  -GOLD-   2272012 23D 1   1.00000     0.00000
 Structure written by MMmdl.
 39 41  0  0  0  0  0  0  0  0  2 V2000
  151.1248  141.5816  158.1025 O   0  0  0  0  0  0  0  0  0  0  0  0
  150.9823  142.4855  157.2797 C   0  0  0  0  0  0  0  0  0  0  0  0
  151.4883  143.8934  157.5941 C   0  0  0  0  0  0  0  0  0  0  0  0
  151.8535  144.0099  158.9948 N   0  0  0  0  0  0  0  0  0  0  0  0
  151.5473  145.0226  159.8805 C   0  0  0  0  0  0  0  0  0  0  0  0
  152.1002  144.6916  161.0843 C   0  0  0  0  0  0  0  0  0  0  0  0
  152.7344  143.4430  160.8328 C   0  0  0  0  0  0  0  0  0  0  0  0
  152.5839  143.0372  159.5824 N   0  0  0  0  0  0  0  0  0  0  0  0
  150.3783  142.3175  156.0929 N   0  0  0  0  0  0  0  0  0  0  0  0
  149.7861  141.0700  155.6193 C   0  0  2  0  0  0  0  0  0  0  0  0
  150.8216  139.9583  155.4033 C   0  0  0  0  0  0  0  0  0  0  0  0
  150.3455  139.1941  154.1513 C   0  0  0  0  0  0  0  0  0  0  0  0
  149.0726  139.8212  153.7254 N   0  3  1  0  0  0  0  0  0  0  0  0
  147.8864  139.0533  154.1964 C   0  0  0  0  0  0  0  0  0  0  0  0
  146.5742  139.8150  153.9686 C   0  0  0  0  0  0  0  0  0  0  0  0
  146.6224  141.1737  154.6719 C   0  0  0  0  0  0  0  0  0  0  0  0
  147.8109  141.9792  154.1383 C   0  0  0  0  0  0  0  0  0  0  0  0
  149.1507  141.2135  154.2302 C   0  0  1  0  0  0  0  0  0  0  0  0
  152.3531  144.1248  156.9700 H   0  0  0  0  0  0  0  0  0  0  0  0
  150.7216  144.6354  157.3669 H   0  0  0  0  0  0  0  0  0  0  0  0
  150.9669  145.8837  159.5841 H   0  0  0  0  0  0  0  0  0  0  0  0
  152.0592  145.2555  162.0042 H   0  0  0  0  0  0  0  0  0  0  0  0
  153.2955  142.8237  161.5171 H   0  0  0  0  0  0  0  0  0  0  0  0
  150.3128  143.1170  155.4795 H   0  0  0  0  0  0  0  0  0  0  0  0
  149.0425  140.7075  156.3315 H   0  0  0  0  0  0  0  0  0  0  0  0
  151.8170  140.3688  155.2272 H   0  0  0  0  0  0  0  0  0  0  0  0
  150.8865  139.3074  156.2760 H   0  0  0  0  0  0  0  0  0  0  0  0
  151.0742  139.3148  153.3489 H   0  0  0  0  0  0  0  0  0  0  0  0
  150.2422  138.1233  154.3333 H   0  0  0  0  0  0  0  0  0  0  0  0
  147.8532  138.0967  153.6736 H   0  0  0  0  0  0  0  0  0  0  0  0
  147.9893  138.8235  155.2582 H   0  0  0  0  0  0  0  0  0  0  0  0
  146.4029  139.9522  152.9001 H   0  0  0  0  0  0  0  0  0  0  0  0
  145.7347  139.2303  154.3461 H   0  0  0  0  0  0  0  0  0  0  0  0
  145.6937  141.7193  154.5018 H   0  0  0  0  0  0  0  0  0  0  0  0
  146.7113  141.0376  155.7503 H   0  0  0  0  0  0  0  0  0  0  0  0
  147.6200  142.2210  153.0919 H   0  0  0  0  0  0  0  0  0  0  0  0
  147.8802  142.9369  154.6537 H   0  0  0  0  0  0  0  0  0  0  0  0
  149.8668  141.7355  153.5918 H   0  0  0  0  0  0  0  0  0  0  0  0
  149.0317  139.8450  152.7163 H   0  0  0  0  0  0  0  0  0  0  0  0
  1  2  2  0  0  0  0
  2  3  1  0  0  0  0
  2  9  1  0  0  0  0
  3  4  1  0  0  0  0
  3 19  1  0  0  0  0
  3 20  1  0  0  0  0
  4  8  1  0  0  0  0
  4  5  1  0  0  0  0
  5  6  2  0  0  0  0
  5 21  1  0  0  0  0
  6  7  1  0  0  0  0
  6 22  1  0  0  0  0
  7  8  2  0  0  0  0
  7 23  1  0  0  0  0
  9 10  1  0  0  0  0
  9 24  1  0  0  0  0
 10 18  1  0  0  0  0
 10 11  1  0  0  0  0
 10 25  1  0  0  0  0
 11 12  1  0  0  0  0
 11 26  1  0  0  0  0
 11 27  1  0  0  0  0
 12 13  1  0  0  0  0
 12 28  1  0  0  0  0
 12 29  1  0  0  0  0
 13 18  1  0  0  0  0
 13 14  1  0  0  0  0
 13 39  1  0  0  0  0
 14 15  1  0  0  0  0
 14 30  1  0  0  0  0
 14 31  1  0  0  0  0
 15 16  1  0  0  0  0
 15 32  1  0  0  0  0
 15 33  1  0  0  0  0
 16 17  1  0  0  0  0
 16 34  1  0  0  0  0
 16 35  1  0  0  0  0
 17 18  1  0  0  0  0
 17 36  1  0  0  0  0
 17 37  1  0  0  0  0
 18 38  1  0  0  0  0
M  CHG  1  13   1
M  END
> <s_m_source_file>
AV-unprocessed.smi

> <i_m_source_file_index>
2171

> <i_lp_mmshare_version>
43012

> <i_f3d_flags>
0

> <s_epik_input>
bjFbY0hdW2NIXVtjSF1uMVtDSDJdQyg9TylbTkhdW0NASF0oW0NIMl1bQ0gyXTIpW0NAQEhdKE4yMylbQ0gyXVtDSDJdW0NIMl1bQ0gyXTM=

> <s_epik_cmdline>
J2VwaWtfcHl0aG9uJywgJy1waCcsICc3LjAnLCAnLXRuJywgJzgnLCAnLW1hJywgJzIwMCcsICctbWV0YWxfYmluZGluZycsICctaW1hZScsICc8aW5maWxlLm1hZT4nLCAnLW9tYWUnLCAnPG91dGZpbGUubWFlPic=

> <r_lp_tautomer_probability>
1

> <r_epik_Ionization_Penalty>
0.00204179

> <r_epik_Ionization_Penalty_Charging>
0.00203239

> <r_epik_Ionization_Penalty_Neutral>
9.40205e-06

> <r_epik_State_Penalty>
0.00138983

> <r_epik_Charging_Adjusted_Penalty>
0.00342221

> <i_epik_Tot_Q>
1

> <i_epik_Tot_abs_Q>
1

> <r_epik_Metal_State_Penalty>
-0

> <b_epik_Metal_Only>
0

> <s_lp_Force_Field>
OPLS_2005

> <r_lp_Energy>
37.3392

> <b_lp_Chiralities_Consistent>
1

> <s_lp_Variant>
AV-unprocessed.smi:2171-1

> <Gold.Version>
5.8.1

> <Gold.Id.Protein>
6NUR|6NUR_protein|mol2

> <Gold.PLP.Fitness>
45.0996

> <Gold.PLP.PLP>
-41.7889

> <Gold.PLP.part.hbond>
-2.0000

> <Gold.PLP.part.metal>
0.0000

> <Gold.PLP.part.buried>
-2.7562

> <Gold.PLP.part.nonpolar>
-35.8837

> <Gold.PLP.part.repulsive>
0.2646

> <Gold.PLP.ligand.clash>
0.0000

> <Gold.PLP.ligand.torsion>
0.3248

> <Gold.PLP.Chemscore.Hbond>
1.3162

> <Gold.PLP.Chemscore.CHOScore>
0.0000

> <Gold.PLP.Chemscore.Metal>
0.0000

> <Gold.Chemscore.Hbonds>
donor molecule, donor type, donor heavy atom, donor atom, acceptor molecule, acceptor atom, score
      L1  H     9    24       P1  8028  0.38
      L1  H    13    39       P1  7957  1.00

> <Gold.PLP.Chemscore.Internal.Correction>
0.0119

> <Gold.Rescore>
     Score         DG    S(hbond)    S(metal)    S(lipo)     H(rot)  DE(clash)    DE(int)     intcor
     16.98     -18.90       1.61        0.00     100.30       1.44       0.18       1.74       ----

> <Gold.Chemscore.Fitness>
16.9807

> <Gold.Chemscore.DG>
-18.9009

> <Gold.Chemscore.ZeroCoef>
-5.4800

> <Gold.Chemscore.Hbond>
1.6091

> <Gold.Chemscore.Metal>
0.0000

> <Gold.Chemscore.Lipo>
100.3033

> <Gold.Chemscore.Internal_Hbond>
0.0000

> <Gold.Chemscore.DEClash>
0.1822

> <Gold.Chemscore.DEInternal>
1.7380

> <Gold.Chemscore.Rot>
1.4410

> <Gold.Chemscore.Internal.Correction>
   9.000000E+99

> <Gold.Chemscore.Hbonds>
donor molecule, donor type, donor heavy atom, donor atom, acceptor molecule, acceptor atom, score
      L1  H     9    24       P1  8028  0.37
      L1  H    13    39       P1  7957  0.99

> <Gold.Chemscore.Hbond.Weighted>
-5.3744

> <Gold.Chemscore.Metal.Weighted>
-0.0000

> <Gold.Chemscore.Lipo.Weighted>
-11.7355

> <Gold.Chemscore.Internal_Hbond.Weighted>
0.0000

> <Gold.Chemscore.DEClash.Weighted>
0.1822

> <Gold.Chemscore.DEInternal.Weighted>
1.7380

> <Gold.Chemscore.Rot.Weighted>
3.6889

> <Gold.Chemscore.Internal.Correction.Weighted>
   9.000000E+99

> <Gold.Protein.RotatedTorsions>
[ 6907 6896 6895 6894 ] final   39.55 input  -60.11 | X-H torsion
[ 7974 7965 7964 7962 ] final -122.32 input  175.53 | X-H torsion
[ 8008 7997 7996 7995 ] final   47.72 input   59.86 | X-H torsion
[ 10167 10162 10161 10158 ] final   41.74 input  -65.29 | X-H torsion
[ 10718 10713 10712 10709 ] final -156.80 input   66.30 | X-H torsion
[ 10763 10752 10751 10750 ] final -134.14 input  -60.55 | X-H torsion
[ 11005 11000 10999 10996 ] final   28.98 input  -57.11 | X-H torsion

> <Gold.Protein.ActiveResidues>
 VAL166  LYS551  ARG553  GLY616  TRP617  ASP618  TYR619  PRO620  LYS621  CYS622 
 ASP623  PHE694  ASN695  SER759  ASP760  ASP761  ALA762  ILE779  LEU786  VAL792 
 PHE793  MET794  SER795  GLU796  ALA797  LYS798  CYS799  TRP800  GLU811  SER814 

> <Gold.Protein.RotatedAtoms>
  152.1709  134.8834  160.0534 H   0  0  0  0  0  0  0  0  0  0  0  0  # atno 6907 bound_to 6896
  151.9794  133.3748  159.4110 H   0  0  0  0  0  0  0  0  0  0  0  0  # atno 6908 bound_to 6896
  150.6902  134.3977  159.5149 H   0  0  0  0  0  0  0  0  0  0  0  0  # atno 6909 bound_to 6896
  145.0307  140.8065  143.4325 H   0  0  0  0  0  0  0  0  0  0  0  0  # atno 7974 bound_to 7965
  155.3737  140.3425  155.4244 H   0  0  0  0  0  0  0  0  0  0  0  0  # atno 8008 bound_to 7997
  156.1648  140.1612  156.8584 H   0  0  0  0  0  0  0  0  0  0  0  0  # atno 8009 bound_to 7997
  154.5175  140.0775  156.8090 H   0  0  0  0  0  0  0  0  0  0  0  0  # atno 8010 bound_to 7997
  140.3613  144.2225  150.6138 H   0  0  0  0  0  0  0  0  0  0  0  0  # atno 10167 bound_to 10162
  156.5315  130.8523  151.2718 H   0  0  0  0  0  0  0  0  0  0  0  0  # atno 10718 bound_to 10713
  154.8723  135.3744  154.4687 H   0  0  0  0  0  0  0  0  0  0  0  0  # atno 10763 bound_to 10752
  153.5349  135.7027  153.5670 H   0  0  0  0  0  0  0  0  0  0  0  0  # atno 10764 bound_to 10752
  153.3858  135.3985  155.1853 H   0  0  0  0  0  0  0  0  0  0  0  0  # atno 10765 bound_to 10752
  140.3098  134.2663  155.7736 H   0  0  0  0  0  0  0  0  0  0  0  0  # atno 11005 bound_to 11000
  145.1774  139.2370  143.5310 LP  0  0  0  0  0  0  0  0  0  0  0  0  # atno 17320 bound_to 7965
  146.3498  140.1540  142.8592 LP  0  0  0  0  0  0  0  0  0  0  0  0  # atno 17321 bound_to 7965
  140.5124  143.2287  151.8515 LP  0  0  0  0  0  0  0  0  0  0  0  0  # atno 17342 bound_to 10162
  139.4814  144.4934  151.9156 LP  0  0  0  0  0  0  0  0  0  0  0  0  # atno 17343 bound_to 10162
  157.7421  130.9883  150.2491 LP  0  0  0  0  0  0  0  0  0  0  0  0  # atno 17370 bound_to 10713
  156.3055  130.3764  149.7710 LP  0  0  0  0  0  0  0  0  0  0  0  0  # atno 17371 bound_to 10713
  141.2110  133.7700  156.9890 LP  0  0  0  0  0  0  0  0  0  0  0  0  # atno 17394 bound_to 11000
  140.1035  134.9521  157.1959 LP  0  0  0  0  0  0  0  0  0  0  0  0  # atno 17395 bound_to 11000

$$$$
