AV-unprocessed.smi:1033|AV-procd|sdf|4502|dock10
  -GOLD-   22720 2503D 1   1.00000     0.00000
 Structure written by MMmdl.
 57 59  0  0  0  0  0  0  0  0  3 V2000
  151.3532  144.9226  160.7346 C   0  0  0  0  0  0  0  0  0  0  0  0
  152.1841  143.6508  160.7533 C   0  0  0  0  0  0  0  0  0  0  0  0
  152.9112  143.3371  161.9242 C   0  0  0  0  0  0  0  0  0  0  0  0
  153.6633  142.1684  161.9097 C   0  0  0  0  0  0  0  0  0  0  0  0
  154.4776  141.5898  162.8862 N   0  3  0  0  0  0  0  0  0  0  0  0
  155.0131  140.4335  162.4051 C   0  0  0  0  0  0  0  0  0  0  0  0
  154.5479  140.2638  161.1374 N   0  0  0  0  0  0  0  0  0  0  0  0
  154.8077  139.1922  160.1681 C   0  0  0  0  0  0  0  0  0  0  0  0
  154.0179  137.9037  160.4759 C   0  0  2  0  0  0  0  0  0  0  0  0
  152.6973  138.0468  159.9947 O   0  0  0  0  0  0  0  0  0  0  0  0
  153.9436  137.6014  161.9849 C   0  0  0  0  0  0  0  0  0  0  0  0
  155.2174  137.2356  162.6159 N   0  0  0  0  0  0  0  0  0  0  0  0
  155.1746  137.3355  164.0744 C   0  0  0  0  0  0  0  0  0  0  0  0
  154.3334  136.2253  164.7373 C   0  0  0  0  0  0  0  0  0  0  0  0
  154.8432  134.8852  164.3479 N   0  3  0  0  0  0  0  0  0  0  0  0
  154.1091  133.7828  165.0206 C   0  0  0  0  0  0  0  0  0  0  0  0
  154.4539  132.3968  164.4404 C   0  0  2  0  0  0  0  0  0  0  0  0
  153.4059  131.3396  164.8119 C   0  0  0  0  0  0  0  0  0  0  0  0
  155.7032  131.9756  164.9502 O   0  0  0  0  0  0  0  0  0  0  0  0
  154.8949  134.7544  162.8669 C   0  0  0  0  0  0  0  0  0  0  0  0
  155.7198  135.9063  162.2574 C   0  0  0  0  0  0  0  0  0  0  0  0
  153.7070  141.3234  160.7842 C   0  0  0  0  0  0  0  0  0  0  0  0
  152.9980  141.6170  159.6222 C   0  0  0  0  0  0  0  0  0  0  0  0
  152.2270  142.8015  159.6169 C   0  0  0  0  0  0  0  0  0  0  0  0
  151.4422  143.1486  158.3635 C   0  0  0  0  0  0  0  0  0  0  0  0
  151.4138  145.4530  161.6855 H   0  0  0  0  0  0  0  0  0  0  0  0
  150.3038  144.6930  160.5490 H   0  0  0  0  0  0  0  0  0  0  0  0
  151.7044  145.5976  159.9538 H   0  0  0  0  0  0  0  0  0  0  0  0
  152.8836  143.9793  162.7924 H   0  0  0  0  0  0  0  0  0  0  0  0
  155.6830  139.7703  162.9338 H   0  0  0  0  0  0  0  0  0  0  0  0
  154.5726  139.5706  159.1725 H   0  0  0  0  0  0  0  0  0  0  0  0
  155.8803  138.9928  160.1768 H   0  0  0  0  0  0  0  0  0  0  0  0
  154.4538  137.0599  159.9427 H   0  0  0  0  0  0  0  0  0  0  0  0
  152.6901  137.8384  159.0730 H   0  0  0  0  0  0  0  0  0  0  0  0
  153.5467  138.4881  162.4814 H   0  0  0  0  0  0  0  0  0  0  0  0
  153.2045  136.8185  162.1541 H   0  0  0  0  0  0  0  0  0  0  0  0
  156.1925  137.2866  164.4637 H   0  0  0  0  0  0  0  0  0  0  0  0
  154.7932  138.3140  164.3680 H   0  0  0  0  0  0  0  0  0  0  0  0
  154.3885  136.3349  165.8210 H   0  0  0  0  0  0  0  0  0  0  0  0
  153.2809  136.3175  164.4659 H   0  0  0  0  0  0  0  0  0  0  0  0
  154.3463  133.7809  166.0860 H   0  0  0  0  0  0  0  0  0  0  0  0
  153.0367  133.9717  164.9496 H   0  0  0  0  0  0  0  0  0  0  0  0
  154.5246  132.4401  163.3543 H   0  0  0  0  0  0  0  0  0  0  0  0
  152.4239  131.6089  164.4214 H   0  0  0  0  0  0  0  0  0  0  0  0
  153.3140  131.2300  165.8931 H   0  0  0  0  0  0  0  0  0  0  0  0
  153.6667  130.3643  164.3993 H   0  0  0  0  0  0  0  0  0  0  0  0
  156.3683  132.1366  164.2977 H   0  0  0  0  0  0  0  0  0  0  0  0
  155.3580  133.8089  162.5880 H   0  0  0  0  0  0  0  0  0  0  0  0
  153.8849  134.7389  162.4557 H   0  0  0  0  0  0  0  0  0  0  0  0
  155.7738  135.7937  161.1758 H   0  0  0  0  0  0  0  0  0  0  0  0
  156.7499  135.8161  162.6052 H   0  0  0  0  0  0  0  0  0  0  0  0
  153.0327  140.9705  158.7581 H   0  0  0  0  0  0  0  0  0  0  0  0
  151.5707  142.3914  157.5895 H   0  0  0  0  0  0  0  0  0  0  0  0
  151.7766  144.1029  157.9555 H   0  0  0  0  0  0  0  0  0  0  0  0
  150.3773  143.2201  158.5853 H   0  0  0  0  0  0  0  0  0  0  0  0
  155.7957  134.8397  164.6819 H   0  0  0  0  0  0  0  0  0  0  0  0
  154.6578  141.9558  163.8124 H   0  0  0  0  0  0  0  0  0  0  0  0
  1  2  1  0  0  0  0
  1 26  1  0  0  0  0
  1 27  1  0  0  0  0
  1 28  1  0  0  0  0
  2 24  1  0  0  0  0
  2  3  2  0  0  0  0
  3  4  1  0  0  0  0
  3 29  1  0  0  0  0
  4 22  2  0  0  0  0
  4  5  1  0  0  0  0
  5  6  2  0  0  0  0
  5 57  1  0  0  0  0
  6  7  1  0  0  0  0
  6 30  1  0  0  0  0
  7  8  1  0  0  0  0
  7 22  1  0  0  0  0
  8  9  1  0  0  0  0
  8 31  1  0  0  0  0
  8 32  1  0  0  0  0
  9 10  1  0  0  0  0
  9 11  1  0  0  0  0
  9 33  1  0  0  0  0
 10 34  1  0  0  0  0
 11 12  1  0  0  0  0
 11 35  1  0  0  0  0
 11 36  1  0  0  0  0
 12 21  1  0  0  0  0
 12 13  1  0  0  0  0
 13 14  1  0  0  0  0
 13 37  1  0  0  0  0
 13 38  1  0  0  0  0
 14 15  1  0  0  0  0
 14 39  1  0  0  0  0
 14 40  1  0  0  0  0
 15 16  1  0  0  0  0
 15 20  1  0  0  0  0
 15 56  1  0  0  0  0
 16 17  1  0  0  0  0
 16 41  1  0  0  0  0
 16 42  1  0  0  0  0
 17 18  1  0  0  0  0
 17 19  1  0  0  0  0
 17 43  1  0  0  0  0
 18 44  1  0  0  0  0
 18 45  1  0  0  0  0
 18 46  1  0  0  0  0
 19 47  1  0  0  0  0
 20 21  1  0  0  0  0
 20 48  1  0  0  0  0
 20 49  1  0  0  0  0
 21 50  1  0  0  0  0
 21 51  1  0  0  0  0
 22 23  1  0  0  0  0
 23 24  2  0  0  0  0
 23 52  1  0  0  0  0
 24 25  1  0  0  0  0
 25 53  1  0  0  0  0
 25 54  1  0  0  0  0
 25 55  1  0  0  0  0
M  CHG  1   5   1
M  CHG  1  15   1
M  END
> <s_m_source_file>
AV-unprocessed.smi

> <i_m_source_file_index>
1033

> <i_lp_mmshare_version>
43012

> <i_f3d_flags>
0

> <s_epik_input>
W0NIM11jKFtjSF0xKWMoW0NIM10pW2NIXWMoYzEyKW4oW2NIXW4yKVtDSDJdW0NASF0oW09IXSlbQ0gyXU4zW0NIMl1bQ0gyXU4oW0NIMl1bQ0gyXTMpW0NIMl1bQ0BIXShbQ0gzXSlbT0hd

> <s_epik_cmdline>
J2VwaWtfcHl0aG9uJywgJy1waCcsICc3LjAnLCAnLXRuJywgJzgnLCAnLW1hJywgJzIwMCcsICctbWV0YWxfYmluZGluZycsICctaW1hZScsICc8aW5maWxlLm1hZT4nLCAnLW9tYWUnLCAnPG91dGZpbGUubWFlPic=

> <r_epik_Ionization_Penalty>
1.28617

> <r_epik_Ionization_Penalty_Charging>
1.23646

> <r_epik_Ionization_Penalty_Neutral>
0.0497112

> <r_epik_State_Penalty>
1.79157

> <r_epik_Charging_Adjusted_Penalty>
3.02803

> <i_epik_Tot_Q>
2

> <i_epik_Tot_abs_Q>
2

> <r_epik_Metal_State_Penalty>
5.81739

> <b_epik_Metal_Only>
0

> <s_lp_Force_Field>
OPLS_2005

> <r_lp_Energy>
39.1755

> <b_lp_Chiralities_Consistent>
1

> <s_lp_Variant>
AV-unprocessed.smi:1033-13

> <Gold.Version>
5.8.1

> <Gold.Id.Protein>
6NUR|6NUR_protein|mol2

> <Gold.PLP.Fitness>
53.4042

> <Gold.PLP.PLP>
-54.8826

> <Gold.PLP.part.hbond>
-1.0992

> <Gold.PLP.part.metal>
0.0000

> <Gold.PLP.part.buried>
-3.9398

> <Gold.PLP.part.nonpolar>
-49.7207

> <Gold.PLP.part.repulsive>
0.0435

> <Gold.PLP.ligand.clash>
0.0000

> <Gold.PLP.ligand.torsion>
0.8105

> <Gold.PLP.Chemscore.Hbond>
0.0000

> <Gold.PLP.Chemscore.CHOScore>
0.0000

> <Gold.PLP.Chemscore.Metal>
0.0000

> <Gold.PLP.Chemscore.Internal.Correction>
0.1427

> <Gold.Rescore>
     Score         DG    S(hbond)    S(metal)    S(lipo)     H(rot)  DE(clash)    DE(int)     intcor
     14.48     -16.11       0.00        0.00     159.78       3.15       0.27       1.37       ----

> <Gold.Chemscore.Fitness>
14.4810

> <Gold.Chemscore.DG>
-16.1140

> <Gold.Chemscore.ZeroCoef>
-5.4800

> <Gold.Chemscore.Hbond>
0.0000

> <Gold.Chemscore.Metal>
0.0000

> <Gold.Chemscore.Lipo>
159.7750

> <Gold.Chemscore.Internal_Hbond>
0.0000

> <Gold.Chemscore.DEClash>
0.2669

> <Gold.Chemscore.DEInternal>
1.3661

> <Gold.Chemscore.Rot>
3.1483

> <Gold.Chemscore.Internal.Correction>
   9.000000E+99

> <Gold.Chemscore.Hbond.Weighted>
-0.0000

> <Gold.Chemscore.Metal.Weighted>
-0.0000

> <Gold.Chemscore.Lipo.Weighted>
-18.6937

> <Gold.Chemscore.Internal_Hbond.Weighted>
0.0000

> <Gold.Chemscore.DEClash.Weighted>
0.2669

> <Gold.Chemscore.DEInternal.Weighted>
1.3661

> <Gold.Chemscore.Rot.Weighted>
8.0597

> <Gold.Chemscore.Internal.Correction.Weighted>
   9.000000E+99

> <Gold.Protein.RotatedTorsions>
[ 6907 6896 6895 6894 ] final  124.06 input  -60.11 | X-H torsion
[ 7974 7965 7964 7962 ] final   26.10 input  175.53 | X-H torsion
[ 8008 7997 7996 7995 ] final  -36.40 input   59.86 | X-H torsion
[ 10167 10162 10161 10158 ] final  -47.61 input  -65.29 | X-H torsion
[ 10718 10713 10712 10709 ] final  -74.93 input   66.30 | X-H torsion
[ 10763 10752 10751 10750 ] final   39.17 input  -60.55 | X-H torsion
[ 11005 11000 10999 10996 ] final  -64.50 input  -57.11 | X-H torsion

> <Gold.Protein.ActiveResidues>
 VAL166  LYS551  ARG553  GLY616  TRP617  ASP618  TYR619  PRO620  LYS621  CYS622 
 ASP623  PHE694  ASN695  SER759  ASP760  ASP761  ALA762  ILE779  LEU786  VAL792 
 PHE793  MET794  SER795  GLU796  ALA797  LYS798  CYS799  TRP800  GLU811  SER814 

> <Gold.Protein.RotatedAtoms>
  152.4110  133.6963  159.6397 H   0  0  0  0  0  0  0  0  0  0  0  0  # atno 6907 bound_to 6896
  150.7990  133.8624  159.3244 H   0  0  0  0  0  0  0  0  0  0  0  0  # atno 6908 bound_to 6896
  151.6367  135.1019  160.0184 H   0  0  0  0  0  0  0  0  0  0  0  0  # atno 6909 bound_to 6896
  146.1855  139.7374  142.8870 H   0  0  0  0  0  0  0  0  0  0  0  0  # atno 7974 bound_to 7965
  154.4074  140.1631  156.2368 H   0  0  0  0  0  0  0  0  0  0  0  0  # atno 8008 bound_to 7997
  155.9235  140.3419  155.6169 H   0  0  0  0  0  0  0  0  0  0  0  0  # atno 8009 bound_to 7997
  155.7193  140.0766  157.2328 H   0  0  0  0  0  0  0  0  0  0  0  0  # atno 8010 bound_to 7997
  140.6768  143.2777  151.3951 H   0  0  0  0  0  0  0  0  0  0  0  0  # atno 10167 bound_to 10162
  156.0225  130.4428  150.2966 H   0  0  0  0  0  0  0  0  0  0  0  0  # atno 10718 bound_to 10713
  152.9976  135.6228  154.2422 H   0  0  0  0  0  0  0  0  0  0  0  0  # atno 10763 bound_to 10752
  154.2163  135.2798  155.2942 H   0  0  0  0  0  0  0  0  0  0  0  0  # atno 10764 bound_to 10752
  154.5565  135.5718  153.7027 H   0  0  0  0  0  0  0  0  0  0  0  0  # atno 10765 bound_to 10752
  141.1426  133.6666  156.5842 H   0  0  0  0  0  0  0  0  0  0  0  0  # atno 11005 bound_to 11000
  145.3952  141.0378  143.3101 LP  0  0  0  0  0  0  0  0  0  0  0  0  # atno 17320 bound_to 7965
  144.8389  139.5504  143.6909 LP  0  0  0  0  0  0  0  0  0  0  0  0  # atno 17321 bound_to 7965
  139.6065  144.1187  152.2254 LP  0  0  0  0  0  0  0  0  0  0  0  0  # atno 17342 bound_to 10162
  140.0588  144.5874  150.7279 LP  0  0  0  0  0  0  0  0  0  0  0  0  # atno 17343 bound_to 10162
  157.1069  131.0211  151.3063 LP  0  0  0  0  0  0  0  0  0  0  0  0  # atno 17370 bound_to 10713
  157.4735  130.7723  149.7346 LP  0  0  0  0  0  0  0  0  0  0  0  0  # atno 17371 bound_to 10713
  140.3814  134.7520  157.4663 LP  0  0  0  0  0  0  0  0  0  0  0  0  # atno 17394 bound_to 11000
  140.0635  134.5962  155.8722 LP  0  0  0  0  0  0  0  0  0  0  0  0  # atno 17395 bound_to 11000

$$$$
