AV-unprocessed.smi:434|AV-procd|sdf|2554|dock2
  -GOLD-   2262022523D 1   1.00000     0.00000
 Structure written by MMmdl.
 40 42  0  0  0  0  0  0  0  0  2 V2000
  149.8514  141.1431  155.2154 C   0  0  0  0  0  0  0  0  0  0  0  0
  150.5759  141.6494  156.4171 C   0  0  0  0  0  0  0  0  0  0  0  0
  150.6102  142.9421  156.8471 N   0  3  0  0  0  0  0  0  0  0  0  0
  151.3867  143.0347  158.0030 C   0  0  0  0  0  0  0  0  0  0  0  0
  151.7104  144.1307  158.7970 C   0  0  0  0  0  0  0  0  0  0  0  0
  152.5281  143.8804  159.9185 C   0  0  0  0  0  0  0  0  0  0  0  0
  152.9891  142.5816  160.2153 C   0  0  0  0  0  0  0  0  0  0  0  0
  152.6555  141.4784  159.4022 C   0  0  0  0  0  0  0  0  0  0  0  0
  151.8489  141.7341  158.2931 C   0  0  0  0  0  0  0  0  0  0  0  0
  151.3261  140.9133  157.2858 N   0  0  0  0  0  0  0  0  0  0  0  0
  151.6229  139.4714  157.2883 C   0  0  0  0  0  0  0  0  0  0  0  0
  150.8813  138.7099  158.4049 C   0  0  2  0  0  0  0  0  0  0  0  0
  151.7128  138.6242  159.5452 O   0  0  0  0  0  0  0  0  0  0  0  0
  150.5026  137.2840  157.9761 C   0  0  0  0  0  0  0  0  0  0  0  0
  149.8197  136.6531  159.0461 O   0  0  0  0  0  0  0  0  0  0  0  0
  148.5086  137.1565  159.2337 C   0  0  0  0  0  0  0  0  0  0  0  0
  147.9668  136.4848  160.4493 C   0  0  0  0  0  0  0  0  0  0  0  0
  147.7899  135.1753  160.8014 C   0  0  0  0  0  0  0  0  0  0  0  0
  147.2220  135.1842  162.1056 C   0  0  0  0  0  0  0  0  0  0  0  0
  147.0930  136.4994  162.4509 C   0  0  0  0  0  0  0  0  0  0  0  0
  147.5430  137.3061  161.4514 O   0  0  0  0  0  0  0  0  0  0  0  0
  149.2516  141.9356  154.7670 H   0  0  0  0  0  0  0  0  0  0  0  0
  149.1890  140.3226  155.4909 H   0  0  0  0  0  0  0  0  0  0  0  0
  150.5626  140.7827  154.4721 H   0  0  0  0  0  0  0  0  0  0  0  0
  151.3562  145.1263  158.5728 H   0  0  0  0  0  0  0  0  0  0  0  0
  152.8057  144.7004  160.5650 H   0  0  0  0  0  0  0  0  0  0  0  0
  153.6109  142.4274  161.0853 H   0  0  0  0  0  0  0  0  0  0  0  0
  153.0095  140.4874  159.6439 H   0  0  0  0  0  0  0  0  0  0  0  0
  151.3256  139.0822  156.3139 H   0  0  0  0  0  0  0  0  0  0  0  0
  152.7008  139.3228  157.3548 H   0  0  0  0  0  0  0  0  0  0  0  0
  149.9788  139.2622  158.6698 H   0  0  0  0  0  0  0  0  0  0  0  0
  152.1549  137.7887  159.5276 H   0  0  0  0  0  0  0  0  0  0  0  0
  149.8298  137.3219  157.1178 H   0  0  0  0  0  0  0  0  0  0  0  0
  151.3838  136.7161  157.6716 H   0  0  0  0  0  0  0  0  0  0  0  0
  148.5250  138.2382  159.3744 H   0  0  0  0  0  0  0  0  0  0  0  0
  147.8837  136.9366  158.3670 H   0  0  0  0  0  0  0  0  0  0  0  0
  148.0407  134.3174  160.1952 H   0  0  0  0  0  0  0  0  0  0  0  0
  146.9432  134.3364  162.7140 H   0  0  0  0  0  0  0  0  0  0  0  0
  146.7197  137.0123  163.3252 H   0  0  0  0  0  0  0  0  0  0  0  0
  150.1345  143.7047  156.3823 H   0  0  0  0  0  0  0  0  0  0  0  0
  1  2  1  0  0  0  0
  1 22  1  0  0  0  0
  1 23  1  0  0  0  0
  1 24  1  0  0  0  0
  2 10  1  0  0  0  0
  2  3  2  0  0  0  0
  3  4  1  0  0  0  0
  3 40  1  0  0  0  0
  4  9  2  0  0  0  0
  4  5  1  0  0  0  0
  5  6  2  0  0  0  0
  5 25  1  0  0  0  0
  6  7  1  0  0  0  0
  6 26  1  0  0  0  0
  7  8  2  0  0  0  0
  7 27  1  0  0  0  0
  8  9  1  0  0  0  0
  8 28  1  0  0  0  0
  9 10  1  0  0  0  0
 10 11  1  0  0  0  0
 11 12  1  0  0  0  0
 11 29  1  0  0  0  0
 11 30  1  0  0  0  0
 12 13  1  0  0  0  0
 12 14  1  0  0  0  0
 12 31  1  0  0  0  0
 13 32  1  0  0  0  0
 14 15  1  0  0  0  0
 14 33  1  0  0  0  0
 14 34  1  0  0  0  0
 15 16  1  0  0  0  0
 16 17  1  0  0  0  0
 16 35  1  0  0  0  0
 16 36  1  0  0  0  0
 17 21  1  0  0  0  0
 17 18  2  0  0  0  0
 18 19  1  0  0  0  0
 18 37  1  0  0  0  0
 19 20  2  0  0  0  0
 19 38  1  0  0  0  0
 20 21  1  0  0  0  0
 20 39  1  0  0  0  0
M  CHG  1   3   1
M  END
> <s_m_source_file>
AV-unprocessed.smi

> <i_m_source_file_index>
434

> <i_lp_mmshare_version>
43012

> <i_f3d_flags>
0

> <s_epik_input>
W2NIXTFbY0hdW2NIXVtjSF1jKGMxMiluKGMobjIpW0NIM10pW0NIMl1bQ0BIXShbT0hdKVtDSDJdT1tDSDJdYzNbY0hdW2NIXVtjSF1vMw==

> <s_epik_cmdline>
J2VwaWtfcHl0aG9uJywgJy1waCcsICc3LjAnLCAnLXRuJywgJzgnLCAnLW1hJywgJzIwMCcsICctbWV0YWxfYmluZGluZycsICctaW1hZScsICc8aW5maWxlLm1hZT4nLCAnLW9tYWUnLCAnPG91dGZpbGUubWFlPic=

> <r_epik_Ionization_Penalty>
0.976413

> <r_epik_Ionization_Penalty_Charging>
0.976412

> <r_epik_Ionization_Penalty_Neutral>
9.34185e-07

> <r_epik_State_Penalty>
1.02286

> <r_epik_Charging_Adjusted_Penalty>
1.99927

> <i_epik_Tot_Q>
1

> <i_epik_Tot_abs_Q>
1

> <r_epik_Metal_State_Penalty>
4.99966

> <b_epik_Metal_Only>
0

> <s_lp_Force_Field>
OPLS_2005

> <r_lp_Energy>
12.4411

> <b_lp_Chiralities_Consistent>
1

> <s_lp_Variant>
AV-unprocessed.smi:434-3

> <Gold.Version>
5.8.1

> <Gold.Id.Protein>
6NUR|6NUR_protein|mol2

> <Gold.PLP.Fitness>
60.7873

> <Gold.PLP.PLP>
-47.5525

> <Gold.PLP.part.hbond>
-4.0000

> <Gold.PLP.part.metal>
0.0000

> <Gold.PLP.part.buried>
-5.2010

> <Gold.PLP.part.nonpolar>
-38.3727

> <Gold.PLP.part.repulsive>
0.0265

> <Gold.PLP.ligand.clash>
0.0000

> <Gold.PLP.ligand.torsion>
0.6301

> <Gold.PLP.Chemscore.Hbond>
4.7840

> <Gold.PLP.Chemscore.CHOScore>
0.0000

> <Gold.PLP.Chemscore.Metal>
0.0000

> <Gold.Chemscore.Hbonds>
donor molecule, donor type, donor heavy atom, donor atom, acceptor molecule, acceptor atom, score
      L1  H     3    40       P1  8028  2.00
      P1  H  6896  6908       L1    15  0.70
      P1  H  6931  6943       L1    21  0.90
      P1  H  6934  6947       L1    21  0.83

> <Gold.PLP.Chemscore.Internal.Correction>
0.1429

> <Gold.Rescore>
     Score         DG    S(hbond)    S(metal)    S(lipo)     H(rot)  DE(clash)    DE(int)     intcor
     23.37     -24.21       3.34        0.00     118.38       2.45       0.06       0.78       ----

> <Gold.Chemscore.Fitness>
23.3666

> <Gold.Chemscore.DG>
-24.2052

> <Gold.Chemscore.ZeroCoef>
-5.4800

> <Gold.Chemscore.Hbond>
3.3406

> <Gold.Chemscore.Metal>
0.0000

> <Gold.Chemscore.Lipo>
118.3816

> <Gold.Chemscore.Internal_Hbond>
0.0000

> <Gold.Chemscore.DEClash>
0.0584

> <Gold.Chemscore.DEInternal>
0.7802

> <Gold.Chemscore.Rot>
2.4543

> <Gold.Chemscore.Internal.Correction>
   9.000000E+99

> <Gold.Chemscore.Hbonds>
donor molecule, donor type, donor heavy atom, donor atom, acceptor molecule, acceptor atom, score
      L1  H     3    40       P1  8028  1.00
      P1  H  6896  6908       L1    15  0.51
      P1  H  6931  6943       L1    21  0.38
      P1  H  6934  6947       L1    21  0.75

> <Gold.Chemscore.Hbond.Weighted>
-11.1574

> <Gold.Chemscore.Metal.Weighted>
-0.0000

> <Gold.Chemscore.Lipo.Weighted>
-13.8507

> <Gold.Chemscore.Internal_Hbond.Weighted>
0.0000

> <Gold.Chemscore.DEClash.Weighted>
0.0584

> <Gold.Chemscore.DEInternal.Weighted>
0.7802

> <Gold.Chemscore.Rot.Weighted>
6.2829

> <Gold.Chemscore.Internal.Correction.Weighted>
   9.000000E+99

> <Gold.Protein.RotatedTorsions>
[ 6907 6896 6895 6894 ] final -157.30 input  -60.11 | X-H torsion
[ 7974 7965 7964 7962 ] final -114.07 input  175.53 | X-H torsion
[ 8008 7997 7996 7995 ] final -131.97 input   59.86 | X-H torsion
[ 10167 10162 10161 10158 ] final -103.12 input  -65.29 | X-H torsion
[ 10718 10713 10712 10709 ] final   33.73 input   66.30 | X-H torsion
[ 10763 10752 10751 10750 ] final  102.18 input  -60.55 | X-H torsion
[ 11005 11000 10999 10996 ] final  -51.12 input  -57.11 | X-H torsion

> <Gold.Protein.ActiveResidues>
 VAL166  LYS551  ARG553  GLY616  TRP617  ASP618  TYR619  PRO620  LYS621  CYS622 
 ASP623  PHE694  ASN695  SER759  ASP760  ASP761  ALA762  ILE779  LEU786  VAL792 
 PHE793  MET794  SER795  GLU796  ALA797  LYS798  CYS799  TRP800  GLU811  SER814 

> <Gold.Protein.RotatedAtoms>
  151.3007  133.4123  159.2639 H   0  0  0  0  0  0  0  0  0  0  0  0  # atno 6907 bound_to 6896
  151.0198  134.9460  159.8063 H   0  0  0  0  0  0  0  0  0  0  0  0  # atno 6908 bound_to 6896
  152.5321  134.2970  159.9117 H   0  0  0  0  0  0  0  0  0  0  0  0  # atno 6909 bound_to 6896
  145.1245  140.8689  143.3794 H   0  0  0  0  0  0  0  0  0  0  0  0  # atno 7974 bound_to 7965
  155.3211  140.0462  157.3039 H   0  0  0  0  0  0  0  0  0  0  0  0  # atno 8008 bound_to 7997
  154.5380  140.2278  155.8656 H   0  0  0  0  0  0  0  0  0  0  0  0  # atno 8009 bound_to 7997
  156.1853  140.3064  155.9233 H   0  0  0  0  0  0  0  0  0  0  0  0  # atno 8010 bound_to 7997
  140.2234  143.3659  152.0950 H   0  0  0  0  0  0  0  0  0  0  0  0  # atno 10167 bound_to 10162
  157.3015  130.7353  149.6670 H   0  0  0  0  0  0  0  0  0  0  0  0  # atno 10718 bound_to 10713
  153.3362  135.4019  155.1535 H   0  0  0  0  0  0  0  0  0  0  0  0  # atno 10763 bound_to 10752
  154.8634  135.3622  154.5405 H   0  0  0  0  0  0  0  0  0  0  0  0  # atno 10764 bound_to 10752
  153.5847  135.7075  153.5508 H   0  0  0  0  0  0  0  0  0  0  0  0  # atno 10765 bound_to 10752
  141.0853  133.6644  156.3830 H   0  0  0  0  0  0  0  0  0  0  0  0  # atno 11005 bound_to 11000
  145.0703  139.3036  143.5835 LP  0  0  0  0  0  0  0  0  0  0  0  0  # atno 17320 bound_to 7965
  146.3518  140.0176  142.8661 LP  0  0  0  0  0  0  0  0  0  0  0  0  # atno 17321 bound_to 7965
  139.5136  144.6935  151.5695 LP  0  0  0  0  0  0  0  0  0  0  0  0  # atno 17342 bound_to 10162
  140.6239  143.9207  150.6548 LP  0  0  0  0  0  0  0  0  0  0  0  0  # atno 17343 bound_to 10162
  155.9672  130.4278  150.4762 LP  0  0  0  0  0  0  0  0  0  0  0  0  # atno 17370 bound_to 10713
  157.2743  131.0593  151.2239 LP  0  0  0  0  0  0  0  0  0  0  0  0  # atno 17371 bound_to 10713
  140.5376  134.6152  157.5370 LP  0  0  0  0  0  0  0  0  0  0  0  0  # atno 17394 bound_to 11000
  139.9671  134.7355  156.0116 LP  0  0  0  0  0  0  0  0  0  0  0  0  # atno 17395 bound_to 11000

$$$$
