#       Name:                AV-unprocessed.smi:1032
#       Creating user name   scv26
#       Creation time:       Fri Mar 27 02:47:14 2020


#       File generated by GOLD software.
#

@<TRIPOS>MOLECULE
AV-unprocessed.smi:1032
    51    52     1
SMALL
NO_CHARGES


@<TRIPOS>ATOM
      1 ****        -4.8468   2.8892  -2.9086 C.3            1 S1                 0.0000
      2 ****        -4.1134   3.1985  -1.5919 C.3            1 S1                 0.0000
      3 ****        -2.5821   3.1096  -1.7261 C.3            1 S1                 0.0000
      4 ****        -2.0866   1.6548  -1.8134 C.3            1 S1                 0.0000
      5 ****        -2.5590   0.8557  -0.6520 N.4            1 S1                 1.0000
      6 ****        -1.9994  -0.5203  -0.6190 C.3            1 S1                 0.0000
      7 ****        -0.5565  -0.5596  -0.0742 C.3            1 S1                 0.0000
      8 ****        -0.6134  -0.1344   1.2735 O.3            1 S1                 0.0000
      9 ****         0.0225  -1.9890  -0.1111 C.3            1 S1                 0.0000
     10 ****         1.4824  -1.9902  -0.1045 N.am           1 S1                 0.0000
     11 ****         2.2468  -1.9660   0.9963 C.2            1 S1                 0.0000
     12 ****         1.7892  -1.9111   2.1373 O.2            1 S1                 0.0000
     13 ****         3.5544  -1.9853   0.6848 N.am           1 S1                 0.0000
     14 ****         4.6721  -2.0047   1.5632 C.ar           1 S1                 0.0000
     15 ****         5.9147  -1.5682   1.0520 C.ar           1 S1                 0.0000
     16 ****         7.0540  -1.5879   1.8821 C.ar           1 S1                 0.0000
     17 ****         6.9526  -2.0327   3.1529 N.pl3          1 S1                 1.0000
     18 ****         5.7908  -2.4732   3.6816 C.ar           1 S1                 0.0000
     19 ****         4.6176  -2.4763   2.8999 C.ar           1 S1                 0.0000
     20 ****        -4.0404   0.8673  -0.5458 C.3            1 S1                 0.0000
     21 ****        -4.5786   2.3046  -0.4281 C.3            1 S1                 0.0000
     22 ****        -4.6627   1.8725  -3.2543 H              1 S1                 0.0000
     23 ****        -4.5299   3.5688  -3.7002 H              1 S1                 0.0000
     24 ****        -5.9243   3.0070  -2.7912 H              1 S1                 0.0000
     25 ****        -4.3622   4.2294  -1.3360 H              1 S1                 0.0000
     26 ****        -2.2459   3.6727  -2.5976 H              1 S1                 0.0000
     27 ****        -2.1194   3.5878  -0.8615 H              1 S1                 0.0000
     28 ****        -2.4271   1.1918  -2.7406 H              1 S1                 0.0000
     29 ****        -0.9978   1.6576  -1.8505 H              1 S1                 0.0000
     30 ****        -2.6217  -1.1597   0.0099 H              1 S1                 0.0000
     31 ****        -2.0459  -0.9491  -1.6213 H              1 S1                 0.0000
     32 ****         0.0867   0.1123  -0.6422 H              1 S1                 0.0000
     33 ****         0.2431  -0.2421   1.6601 H              1 S1                 0.0000
     34 ****        -0.3838  -2.6107   0.6894 H              1 S1                 0.0000
     35 ****        -0.2696  -2.4738  -1.0430 H              1 S1                 0.0000
     36 ****         1.9408  -2.0297  -1.0033 H              1 S1                 0.0000
     37 ****         3.7769  -1.9359  -0.2988 H              1 S1                 0.0000
     38 ****         5.9978  -1.2152   0.0342 H              1 S1                 0.0000
     39 ****         8.0365  -1.2657   1.5691 H              1 S1                 0.0000
     40 ****         5.8349  -2.8143   4.7057 H              1 S1                 0.0000
     41 ****         3.7048  -2.8523   3.3362 H              1 S1                 0.0000
     42 ****        -4.4753   0.3613  -1.4086 H              1 S1                 0.0000
     43 ****        -4.3480   0.3040   0.3359 H              1 S1                 0.0000
     44 ****        -4.2312   2.7347   0.5125 H              1 S1                 0.0000
     45 ****        -5.6676   2.2940  -0.3706 H              1 S1                 0.0000
     46 ****        -2.2180   1.3140   0.1814 H              1 S1                 0.0000
     47 ****         7.7894  -2.0406   3.7366 H              1 S1                 0.0000
     48 ****        -1.2806  -0.6868   1.7732 LP             1 S1                 0.0000
     49 ****        -0.8819   0.8281   1.3121 LP             1 S1                 0.0000
     50 ****         0.7996  -1.8821   2.2783 LP             1 S1                 0.0000
     51 ****         2.4069  -1.8955   2.9235 LP             1 S1                 0.0000
@<TRIPOS>BOND
    1    1    2 1     
    2    1   22 1     
    3    1   23 1     
    4    1   24 1     
    5    2   21 1     
    6    2    3 1     
    7    2   25 1     
    8    3    4 1     
    9    3   26 1     
   10    3   27 1     
   11    4    5 1     
   12    4   28 1     
   13    4   29 1     
   14    5    6 1     
   15    5   20 1     
   16    5   46 1     
   17    6    7 1     
   18    6   30 1     
   19    6   31 1     
   20    7    8 1     
   21    7    9 1     
   22    7   32 1     
   23    8   33 1     
   24    9   10 1     
   25    9   34 1     
   26    9   35 1     
   27   10   11 am    
   28   10   36 1     
   29   11   12 2     
   30   11   13 am    
   31   13   14 1     
   32   13   37 1     
   33   14   19 ar    
   34   14   15 ar    
   35   15   16 ar    
   36   15   38 1     
   37   16   17 ar    
   38   16   39 1     
   39   17   18 ar    
   40   17   47 1     
   41   18   19 ar    
   42   18   40 1     
   43   19   41 1     
   44   20   21 1     
   45   20   42 1     
   46   20   43 1     
   47   21   44 1     
   48   21   45 1     
   49    8   48 1     
   50    8   49 1     
   51   12   50 1     
   52   12   51 1     
@<TRIPOS>SUBSTRUCTURE
      1 S1             1
@<TRIPOS>SET
LONE_PAIRS      STATIC     ATOMS    <user>   **** ""
4 48 49 50 51
DONOR_HYDROGENS      STATIC     ATOMS    <user>   **** ""
5 46 33 36 37 47
ATOM$BLUE        STATIC     ATOMS    COLORGROUP SYSTEM
4 48 49 50 51
ATOM$RED        STATIC     ATOMS    COLORGROUP SYSTEM
5 46 33 36 37 47
