AV-unprocessed.smi:3112|AV-procd|sdf|11842|dock10
  -GOLD-   2272017223D 1   1.00000     0.00000
 Structure written by MMmdl.
 37 37  0  0  0  0  0  0  0  0  2 V2000
  148.2585  141.4418  153.4977 C   0  0  0  0  0  0  0  0  0  0  0  0
  147.1501  140.5563  152.9122 C   0  0  0  0  0  0  0  0  0  0  0  0
  147.3782  139.0518  153.1478 C   0  0  2  0  0  0  0  0  0  0  0  0
  148.6445  138.6936  152.6293 O   0  0  0  0  0  0  0  0  0  0  0  0
  146.3098  138.1925  152.4511 C   0  0  0  0  0  0  0  0  0  0  0  0
  146.5304  136.7534  152.7093 N   0  3  0  0  0  0  0  0  0  0  0  0
  145.5951  135.8327  152.0228 C   0  0  1  0  0  0  0  0  0  0  0  0
  145.4765  136.2124  150.5314 C   0  0  0  0  0  0  0  0  0  0  0  0
  146.0544  134.3669  152.2401 C   0  0  1  0  0  0  0  0  0  0  0  0
  146.0864  133.9709  153.7284 C   0  0  0  0  0  0  0  0  0  0  0  0
  145.2346  133.4192  151.4944 N   0  0  0  0  0  0  0  0  0  0  0  0
  145.6382  132.3648  150.6987 C   0  0  0  0  0  0  0  0  0  0  0  0
  144.5118  131.7575  150.2228 C   0  0  0  0  0  0  0  0  0  0  0  0
  143.4523  132.5187  150.7901 C   0  0  0  0  0  0  0  0  0  0  0  0
  143.8877  133.5097  151.5511 N   0  0  0  0  0  0  0  0  0  0  0  0
  148.0330  142.4971  153.3416 H   0  0  0  0  0  0  0  0  0  0  0  0
  149.2217  141.2389  153.0289 H   0  0  0  0  0  0  0  0  0  0  0  0
  148.3665  141.2812  154.5709 H   0  0  0  0  0  0  0  0  0  0  0  0
  146.2037  140.8500  153.3680 H   0  0  0  0  0  0  0  0  0  0  0  0
  147.0468  140.7572  151.8449 H   0  0  0  0  0  0  0  0  0  0  0  0
  147.3670  138.8499  154.2202 H   0  0  0  0  0  0  0  0  0  0  0  0
  148.5534  137.8891  152.1407 H   0  0  0  0  0  0  0  0  0  0  0  0
  145.3221  138.4596  152.8297 H   0  0  0  0  0  0  0  0  0  0  0  0
  146.3053  138.3952  151.3799 H   0  0  0  0  0  0  0  0  0  0  0  0
  147.4767  136.5123  152.4507 H   0  0  0  0  0  0  0  0  0  0  0  0
  144.6100  135.9428  152.4795 H   0  0  0  0  0  0  0  0  0  0  0  0
  144.7357  135.6023  150.0148 H   0  0  0  0  0  0  0  0  0  0  0  0
  146.4289  136.0826  150.0159 H   0  0  0  0  0  0  0  0  0  0  0  0
  145.1683  137.2491  150.3989 H   0  0  0  0  0  0  0  0  0  0  0  0
  147.0745  134.2787  151.8600 H   0  0  0  0  0  0  0  0  0  0  0  0
  146.7812  134.5913  154.2945 H   0  0  0  0  0  0  0  0  0  0  0  0
  146.4074  132.9357  153.8498 H   0  0  0  0  0  0  0  0  0  0  0  0
  145.1037  134.0691  154.1907 H   0  0  0  0  0  0  0  0  0  0  0  0
  146.6816  132.1358  150.5395 H   0  0  0  0  0  0  0  0  0  0  0  0
  144.4533  130.8995  149.5695 H   0  0  0  0  0  0  0  0  0  0  0  0
  142.3874  132.3807  150.6731 H   0  0  0  0  0  0  0  0  0  0  0  0
  146.4266  136.6107  153.7037 H   0  0  0  0  0  0  0  0  0  0  0  0
  1  2  1  0  0  0  0
  1 16  1  0  0  0  0
  1 17  1  0  0  0  0
  1 18  1  0  0  0  0
  2  3  1  0  0  0  0
  2 19  1  0  0  0  0
  2 20  1  0  0  0  0
  3  4  1  0  0  0  0
  3  5  1  0  0  0  0
  3 21  1  0  0  0  0
  4 22  1  0  0  0  0
  5  6  1  0  0  0  0
  5 23  1  0  0  0  0
  5 24  1  0  0  0  0
  6  7  1  0  0  0  0
  6 25  1  0  0  0  0
  6 37  1  0  0  0  0
  7  8  1  0  0  0  0
  7  9  1  0  0  0  0
  7 26  1  0  0  0  0
  8 27  1  0  0  0  0
  8 28  1  0  0  0  0
  8 29  1  0  0  0  0
  9 10  1  0  0  0  0
  9 11  1  0  0  0  0
  9 30  1  0  0  0  0
 10 31  1  0  0  0  0
 10 32  1  0  0  0  0
 10 33  1  0  0  0  0
 11 15  1  0  0  0  0
 11 12  1  0  0  0  0
 12 13  2  0  0  0  0
 12 34  1  0  0  0  0
 13 14  1  0  0  0  0
 13 35  1  0  0  0  0
 14 15  2  0  0  0  0
 14 36  1  0  0  0  0
M  CHG  1   6   1
M  END
> <s_m_source_file>
AV-unprocessed.smi

> <i_m_source_file_index>
3112

> <i_lp_mmshare_version>
43012

> <i_f3d_flags>
0

> <s_epik_input>
W0NIM11bQ0gyXVtDQEhdKFtPSF0pW0NIMl1bTkhdW0NASF0oW0NIM10pW0NASF0oW0NIM10pbjFbY0hdW2NIXVtjSF1uMQ==

> <s_epik_cmdline>
J2VwaWtfcHl0aG9uJywgJy1waCcsICc3LjAnLCAnLXRuJywgJzgnLCAnLW1hJywgJzIwMCcsICctbWV0YWxfYmluZGluZycsICctaW1hZScsICc8aW5maWxlLm1hZT4nLCAnLW9tYWUnLCAnPG91dGZpbGUubWFlPic=

> <r_lp_tautomer_probability>
1

> <r_epik_Ionization_Penalty>
0.0154842

> <r_epik_Ionization_Penalty_Charging>
0.0154724

> <r_epik_Ionization_Penalty_Neutral>
1.17979e-05

> <r_epik_State_Penalty>
0.0121607

> <r_epik_Charging_Adjusted_Penalty>
0.0276331

> <i_epik_Tot_Q>
1

> <i_epik_Tot_abs_Q>
1

> <r_epik_Metal_State_Penalty>
0.0121863

> <b_epik_Metal_Only>
0

> <s_lp_Force_Field>
OPLS_2005

> <r_lp_Energy>
13.0446

> <b_lp_Chiralities_Consistent>
1

> <s_lp_Variant>
AV-unprocessed.smi:3112-7

> <Gold.Version>
5.8.1

> <Gold.Id.Protein>
6NUR|6NUR_protein|mol2

> <Gold.PLP.Fitness>
45.1326

> <Gold.PLP.PLP>
-30.5876

> <Gold.PLP.part.hbond>
-2.7750

> <Gold.PLP.part.metal>
0.0000

> <Gold.PLP.part.buried>
-1.4123

> <Gold.PLP.part.nonpolar>
-26.6278

> <Gold.PLP.part.repulsive>
0.1843

> <Gold.PLP.ligand.clash>
0.0000

> <Gold.PLP.ligand.torsion>
0.4767

> <Gold.PLP.Chemscore.Hbond>
3.0000

> <Gold.PLP.Chemscore.CHOScore>
2.1206

> <Gold.PLP.Chemscore.Metal>
0.0000

> <Gold.Chemscore.Hbonds>
donor molecule, donor type, donor heavy atom, donor atom, acceptor molecule, acceptor atom, score
      L1  H     4    22       P1  7948  1.00
      L1  H     6    25       P1  7948  2.00
      L1  C    12    34       P1 10747  0.74
      L1  C    14    36       P1 10186  0.44
      L1  C    14    36       P1 10952  0.37

> <Gold.PLP.Chemscore.Internal.Correction>
0.1364

> <Gold.Rescore>
     Score         DG    S(hbond)    S(metal)    S(lipo)     H(rot)  DE(clash)    DE(int)     intcor
     14.29     -15.04       1.94        0.00      78.88       2.41       0.04       0.71       ----

> <Gold.Chemscore.Fitness>
14.2872

> <Gold.Chemscore.DG>
-15.0365

> <Gold.Chemscore.ZeroCoef>
-5.4800

> <Gold.Chemscore.Hbond>
1.9444

> <Gold.Chemscore.Metal>
0.0000

> <Gold.Chemscore.Lipo>
78.8794

> <Gold.Chemscore.Internal_Hbond>
0.0000

> <Gold.Chemscore.DEClash>
0.0383

> <Gold.Chemscore.DEInternal>
0.7110

> <Gold.Chemscore.Rot>
2.4089

> <Gold.Chemscore.Internal.Correction>
   9.000000E+99

> <Gold.Chemscore.Hbonds>
donor molecule, donor type, donor heavy atom, donor atom, acceptor molecule, acceptor atom, score
      L1  H     4    22       P1  7948  0.96
      L1  H     6    25       P1  7948  0.99

> <Gold.Chemscore.Hbond.Weighted>
-6.4943

> <Gold.Chemscore.Metal.Weighted>
-0.0000

> <Gold.Chemscore.Lipo.Weighted>
-9.2289

> <Gold.Chemscore.Internal_Hbond.Weighted>
0.0000

> <Gold.Chemscore.DEClash.Weighted>
0.0383

> <Gold.Chemscore.DEInternal.Weighted>
0.7110

> <Gold.Chemscore.Rot.Weighted>
6.1667

> <Gold.Chemscore.Internal.Correction.Weighted>
   9.000000E+99

> <Gold.Protein.RotatedTorsions>
[ 6907 6896 6895 6894 ] final  -21.07 input  -60.11 | X-H torsion
[ 7974 7965 7964 7962 ] final   93.34 input  175.53 | X-H torsion
[ 8008 7997 7996 7995 ] final    8.61 input   59.86 | X-H torsion
[ 10167 10162 10161 10158 ] final  -60.10 input  -65.29 | X-H torsion
[ 10718 10713 10712 10709 ] final -116.80 input   66.30 | X-H torsion
[ 10763 10752 10751 10750 ] final  -16.93 input  -60.55 | X-H torsion
[ 11005 11000 10999 10996 ] final   -5.59 input  -57.11 | X-H torsion

> <Gold.Protein.ActiveResidues>
 VAL166  LYS551  ARG553  GLY616  TRP617  ASP618  TYR619  PRO620  LYS621  CYS622 
 ASP623  PHE694  ASN695  SER759  ASP760  ASP761  ALA762  ILE779  LEU786  VAL792 
 PHE793  MET794  SER795  GLU796  ALA797  LYS798  CYS799  TRP800  GLU811  SER814 

> <Gold.Protein.RotatedAtoms>
  151.2388  135.0581  159.9016 H   0  0  0  0  0  0  0  0  0  0  0  0  # atno 6907 bound_to 6896
  152.5396  134.0457  159.8097 H   0  0  0  0  0  0  0  0  0  0  0  0  # atno 6908 bound_to 6896
  151.0647  133.5466  159.2663 H   0  0  0  0  0  0  0  0  0  0  0  0  # atno 6909 bound_to 6896
  145.4802  139.2279  143.2887 H   0  0  0  0  0  0  0  0  0  0  0  0  # atno 7974 bound_to 7965
  154.7691  140.2798  155.6152 H   0  0  0  0  0  0  0  0  0  0  0  0  # atno 8008 bound_to 7997
  156.2930  140.2645  156.2416 H   0  0  0  0  0  0  0  0  0  0  0  0  # atno 8009 bound_to 7997
  154.9922  140.0373  157.2314 H   0  0  0  0  0  0  0  0  0  0  0  0  # atno 8010 bound_to 7997
  140.6093  143.2382  151.5748 H   0  0  0  0  0  0  0  0  0  0  0  0  # atno 10167 bound_to 10162
  156.0988  130.6155  150.9082 H   0  0  0  0  0  0  0  0  0  0  0  0  # atno 10718 bound_to 10713
  153.5661  135.7008  153.5525 H   0  0  0  0  0  0  0  0  0  0  0  0  # atno 10763 bound_to 10752
  153.3386  135.4027  155.1553 H   0  0  0  0  0  0  0  0  0  0  0  0  # atno 10764 bound_to 10752
  154.8640  135.3736  154.5181 H   0  0  0  0  0  0  0  0  0  0  0  0  # atno 10765 bound_to 10752
  140.6928  133.9056  155.8630 H   0  0  0  0  0  0  0  0  0  0  0  0  # atno 11005 bound_to 11000
  146.2345  140.5588  142.8961 LP  0  0  0  0  0  0  0  0  0  0  0  0  # atno 17320 bound_to 7965
  144.7893  140.6000  143.6552 LP  0  0  0  0  0  0  0  0  0  0  0  0  # atno 17321 bound_to 7965
  139.5348  144.2811  152.1228 LP  0  0  0  0  0  0  0  0  0  0  0  0  # atno 17342 bound_to 10162
  140.2007  144.4661  150.6433 LP  0  0  0  0  0  0  0  0  0  0  0  0  # atno 17343 bound_to 10162
  157.6155  131.0933  150.8718 LP  0  0  0  0  0  0  0  0  0  0  0  0  # atno 17370 bound_to 10713
  156.8850  130.5193  149.5289 LP  0  0  0  0  0  0  0  0  0  0  0  0  # atno 17371 bound_to 10713
  141.0227  134.0866  157.4102 LP  0  0  0  0  0  0  0  0  0  0  0  0  # atno 17394 bound_to 11000
  139.8918  135.0121  156.6814 LP  0  0  0  0  0  0  0  0  0  0  0  0  # atno 17395 bound_to 11000

$$$$
