AV-unprocessed.smi:2655|AV-procd|sdf|10301|dock8
  -GOLD-   2272014313D 1   1.00000     0.00000
 Structure written by MMmdl.
 32 33  0  0  0  0  0  0  0  0  3 V2000
  143.4220  134.3417  162.9282 C   0  0  0  0  0  0  0  0  0  0  0  0
  143.8414  135.6986  162.4410 C   0  0  0  0  0  0  0  0  0  0  0  0
  142.9673  136.6989  162.4896 N   0  0  0  0  0  0  0  0  0  0  0  0
  143.6418  137.7523  161.9916 N   0  0  0  0  0  0  0  0  0  0  0  0
  144.9216  137.4157  161.6338 C   0  0  0  0  0  0  0  0  0  0  0  0
  145.7634  138.3282  161.1148 O   0  5  0  0  0  0  0  0  0  0  0  0
  145.1065  136.0898  161.9017 C   0  0  0  0  0  0  0  0  0  0  0  0
  146.3309  135.2396  161.6905 C   0  0  0  0  0  0  0  0  0  0  0  0
  147.5597  136.0961  161.3443 C   0  0  0  0  0  0  0  0  0  0  0  0
  148.2910  135.5552  160.2031 N   0  0  0  0  0  0  0  0  0  0  0  0
  148.9949  136.2649  159.3095 C   0  0  0  0  0  0  0  0  0  0  0  0
  149.0704  137.4909  159.4190 O   0  0  0  0  0  0  0  0  0  0  0  0
  149.5655  135.5098  158.3415 N   0  5  0  0  0  0  0  0  0  0  0  0
  150.3114  136.0878  157.3875 C   0  0  0  0  0  0  0  0  0  0  0  0
  150.1062  137.3828  156.8379 C   0  0  0  0  0  0  0  0  0  0  0  0
  151.1052  137.4915  155.9128 C   0  0  0  0  0  0  0  0  0  0  0  0
  151.4981  138.5785  154.9716 C   0  0  0  0  0  0  0  0  0  0  0  0
  151.8524  136.3550  155.8893 O   0  0  0  0  0  0  0  0  0  0  0  0
  151.3336  135.4588  156.8317 N   0  0  0  0  0  0  0  0  0  0  0  0
  144.2837  133.7447  163.2262 H   0  0  0  0  0  0  0  0  0  0  0  0
  142.8927  133.7948  162.1482 H   0  0  0  0  0  0  0  0  0  0  0  0
  142.7609  134.4165  163.7917 H   0  0  0  0  0  0  0  0  0  0  0  0
  143.2252  138.6681  161.9058 H   0  0  0  0  0  0  0  0  0  0  0  0
  146.1579  134.5142  160.8948 H   0  0  0  0  0  0  0  0  0  0  0  0
  146.5418  134.6499  162.5832 H   0  0  0  0  0  0  0  0  0  0  0  0
  147.2662  137.1295  161.1521 H   0  0  0  0  0  0  0  0  0  0  0  0
  148.2441  136.1215  162.1925 H   0  0  0  0  0  0  0  0  0  0  0  0
  148.2568  134.5547  160.0752 H   0  0  0  0  0  0  0  0  0  0  0  0
  149.3515  138.1137  157.0871 H   0  0  0  0  0  0  0  0  0  0  0  0
  150.7106  138.7569  154.2395 H   0  0  0  0  0  0  0  0  0  0  0  0
  152.4094  138.3214  154.4313 H   0  0  0  0  0  0  0  0  0  0  0  0
  151.6764  139.5089  155.5105 H   0  0  0  0  0  0  0  0  0  0  0  0
  1 20  1  0  0  0  0
  1 21  1  0  0  0  0
  1 22  1  0  0  0  0
  1  2  1  0  0  0  0
  2  7  1  0  0  0  0
  2  3  2  0  0  0  0
  3  4  1  0  0  0  0
  4 23  1  0  0  0  0
  4  5  1  0  0  0  0
  5  7  2  0  0  0  0
  5  6  1  0  0  0  0
  7  8  1  0  0  0  0
  8  9  1  0  0  0  0
  8 24  1  0  0  0  0
  8 25  1  0  0  0  0
  9 10  1  0  0  0  0
  9 26  1  0  0  0  0
  9 27  1  0  0  0  0
 10 11  1  0  0  0  0
 10 28  1  0  0  0  0
 11 12  2  0  0  0  0
 11 13  1  0  0  0  0
 13 14  1  0  0  0  0
 14 19  2  0  0  0  0
 14 15  1  0  0  0  0
 15 16  2  0  0  0  0
 15 29  1  0  0  0  0
 16 17  1  0  0  0  0
 16 18  1  0  0  0  0
 17 30  1  0  0  0  0
 17 31  1  0  0  0  0
 17 32  1  0  0  0  0
 18 19  1  0  0  0  0
M  CHG  1   6  -1
M  CHG  1  13  -1
M  END
> <s_m_source_file>
AV-unprocessed.smi

> <i_m_source_file_index>
2655

> <i_lp_mmshare_version>
43012

> <i_f3d_flags>
0

> <s_epik_input>
W0NIM11DMT1OW05IXUMoPU8pW0NASF0xW0NIMl1bQ0gyXVtOSF1DKD1PKVtOSF1jMltjSF1jKFtDSDNdKW9uMg==

> <s_epik_cmdline>
J2VwaWtfcHl0aG9uJywgJy1waCcsICc3LjAnLCAnLXRuJywgJzgnLCAnLW1hJywgJzIwMCcsICctbWV0YWxfYmluZGluZycsICctaW1hZScsICc8aW5maWxlLm1hZT4nLCAnLW9tYWUnLCAnPG91dGZpbGUubWFlPic=

> <r_lp_tautomer_probability>
0.99495

> <r_epik_Ionization_Penalty>
8.09923

> <r_epik_Ionization_Penalty_Charging>
6.55729

> <r_epik_Ionization_Penalty_Neutral>
1.54195

> <r_epik_State_Penalty>
6.87174

> <r_epik_Charging_Adjusted_Penalty>
13.429

> <i_epik_Tot_Q>
-2

> <i_epik_Tot_abs_Q>
2

> <r_epik_Metal_State_Penalty>
4.19188

> <b_epik_Metal_Only>
1

> <s_lp_Force_Field>
OPLS_2005

> <r_lp_Energy>
-4.19881

> <b_lp_Chiralities_Consistent>
1

> <s_lp_Variant>
AV-unprocessed.smi:2655-4

> <Gold.Version>
5.8.1

> <Gold.Id.Protein>
6NUR|6NUR_protein|mol2

> <Gold.PLP.Fitness>
36.7832

> <Gold.PLP.PLP>
-25.0074

> <Gold.PLP.part.hbond>
-4.1759

> <Gold.PLP.part.metal>
0.0000

> <Gold.PLP.part.buried>
-5.6591

> <Gold.PLP.part.nonpolar>
-16.7665

> <Gold.PLP.part.repulsive>
0.5360

> <Gold.PLP.ligand.clash>
0.0000

> <Gold.PLP.ligand.torsion>
0.8444

> <Gold.PLP.Chemscore.Hbond>
4.4720

> <Gold.PLP.Chemscore.CHOScore>
0.0000

> <Gold.PLP.Chemscore.Metal>
0.0000

> <Gold.Chemscore.Hbonds>
donor molecule, donor type, donor heavy atom, donor atom, acceptor molecule, acceptor atom, score
      P1  H  6896  6908       L1    13  1.20
      P1  H  6934  6947       L1     6  1.41
      P1  H 10752 10765       L1    18  0.99

> <Gold.PLP.Chemscore.Internal.Correction>
0.0486

> <Gold.Rescore>
     Score         DG    S(hbond)    S(metal)    S(lipo)     H(rot)  DE(clash)    DE(int)     intcor
      9.80     -13.55       2.14        0.00      47.75       1.82       0.12       3.63       ----

> <Gold.Chemscore.Fitness>
9.8042

> <Gold.Chemscore.DG>
-13.5526

> <Gold.Chemscore.ZeroCoef>
-5.4800

> <Gold.Chemscore.Hbond>
2.1406

> <Gold.Chemscore.Metal>
0.0000

> <Gold.Chemscore.Lipo>
47.7453

> <Gold.Chemscore.Internal_Hbond>
0.0000

> <Gold.Chemscore.DEClash>
0.1214

> <Gold.Chemscore.DEInternal>
3.6270

> <Gold.Chemscore.Rot>
1.8215

> <Gold.Chemscore.Internal.Correction>
   9.000000E+99

> <Gold.Chemscore.Hbonds>
donor molecule, donor type, donor heavy atom, donor atom, acceptor molecule, acceptor atom, score
      P1  H  6896  6908       L1    13  0.03
      P1  H  6934  6947       L1     6  0.67
      P1  H 10752 10765       L1    18  0.42

> <Gold.Chemscore.Hbond.Weighted>
-7.1495

> <Gold.Chemscore.Metal.Weighted>
-0.0000

> <Gold.Chemscore.Lipo.Weighted>
-5.5862

> <Gold.Chemscore.Internal_Hbond.Weighted>
0.0000

> <Gold.Chemscore.DEClash.Weighted>
0.1214

> <Gold.Chemscore.DEInternal.Weighted>
3.6270

> <Gold.Chemscore.Rot.Weighted>
4.6631

> <Gold.Chemscore.Internal.Correction.Weighted>
   9.000000E+99

> <Gold.Protein.RotatedTorsions>
[ 6907 6896 6895 6894 ] final  176.32 input  -60.11 | X-H torsion
[ 7974 7965 7964 7962 ] final  -60.41 input  175.53 | X-H torsion
[ 8008 7997 7996 7995 ] final  175.72 input   59.86 | X-H torsion
[ 10167 10162 10161 10158 ] final  -55.65 input  -65.29 | X-H torsion
[ 10718 10713 10712 10709 ] final -132.46 input   66.30 | X-H torsion
[ 10763 10752 10751 10750 ] final -138.50 input  -60.55 | X-H torsion
[ 11005 11000 10999 10996 ] final  173.43 input  -57.11 | X-H torsion

> <Gold.Protein.ActiveResidues>
 VAL166  LYS551  ARG553  GLY616  TRP617  ASP618  TYR619  PRO620  LYS621  CYS622 
 ASP623  PHE694  ASN695  SER759  ASP760  ASP761  ALA762  ILE779  LEU786  VAL792 
 PHE793  MET794  SER795  GLU796  ALA797  LYS798  CYS799  TRP800  GLU811  SER814 

> <Gold.Protein.RotatedAtoms>
  151.7221  133.3315  159.3317 H   0  0  0  0  0  0  0  0  0  0  0  0  # atno 6907 bound_to 6896
  150.7648  134.6439  159.6261 H   0  0  0  0  0  0  0  0  0  0  0  0  # atno 6908 bound_to 6896
  152.3646  134.6826  160.0248 H   0  0  0  0  0  0  0  0  0  0  0  0  # atno 6909 bound_to 6896
  145.8159  140.8570  143.0158 H   0  0  0  0  0  0  0  0  0  0  0  0  # atno 7974 bound_to 7965
  156.0841  140.1402  156.9675 H   0  0  0  0  0  0  0  0  0  0  0  0  # atno 8008 bound_to 7997
  154.4602  140.0946  156.6921 H   0  0  0  0  0  0  0  0  0  0  0  0  # atno 8009 bound_to 7997
  155.5027  140.3451  155.4376 H   0  0  0  0  0  0  0  0  0  0  0  0  # atno 8010 bound_to 7997
  140.6363  143.2484  151.5110 H   0  0  0  0  0  0  0  0  0  0  0  0  # atno 10167 bound_to 10162
  156.2348  130.7060  151.0896 H   0  0  0  0  0  0  0  0  0  0  0  0  # atno 10718 bound_to 10713
  154.8635  135.3610  154.5395 H   0  0  0  0  0  0  0  0  0  0  0  0  # atno 10763 bound_to 10752
  153.6017  135.7012  153.5386 H   0  0  0  0  0  0  0  0  0  0  0  0  # atno 10764 bound_to 10752
  153.3285  135.4131  155.1437 H   0  0  0  0  0  0  0  0  0  0  0  0  # atno 10765 bound_to 10752
  140.3404  134.7281  157.4198 H   0  0  0  0  0  0  0  0  0  0  0  0  # atno 11005 bound_to 11000
  144.6752  140.0463  143.7480 LP  0  0  0  0  0  0  0  0  0  0  0  0  # atno 17320 bound_to 7965
  145.9727  139.2882  143.1089 LP  0  0  0  0  0  0  0  0  0  0  0  0  # atno 17321 bound_to 7965
  139.5573  144.2244  152.1633 LP  0  0  0  0  0  0  0  0  0  0  0  0  # atno 17342 bound_to 10162
  140.1501  144.5122  150.6692 LP  0  0  0  0  0  0  0  0  0  0  0  0  # atno 17343 bound_to 10162
  157.7149  131.0715  150.6363 LP  0  0  0  0  0  0  0  0  0  0  0  0  # atno 17370 bound_to 10713
  156.6432  130.4464  149.5745 LP  0  0  0  0  0  0  0  0  0  0  0  0  # atno 17371 bound_to 10713
  140.0786  134.5763  155.8565 LP  0  0  0  0  0  0  0  0  0  0  0  0  # atno 17394 bound_to 11000
  141.2040  133.6636  156.6095 LP  0  0  0  0  0  0  0  0  0  0  0  0  # atno 17395 bound_to 11000

$$$$
