#       Name:                AV-unprocessed.smi:1548
#       Creating user name   scv26
#       Creation time:       Fri Mar 27 06:39:38 2020


#       File generated by GOLD software.
#

@<TRIPOS>MOLECULE
AV-unprocessed.smi:1548
    50    51     1
SMALL
NO_CHARGES


@<TRIPOS>ATOM
      1 ****        -2.2580  -4.9838   0.4142 C.3            1 S1                 0.0000
      2 ****        -3.4403  -4.0119   0.4254 C.3            1 S1                 0.0000
      3 ****        -2.9358  -2.6799   0.4394 O.3            1 S1                 0.0000
      4 ****        -3.8339  -1.6294   0.4348 C.ar           1 S1                 0.0000
      5 ****        -5.1606  -1.9133   0.4527 N.ar           1 S1                 0.0000
      6 ****        -6.0377  -0.8885   0.4521 C.ar           1 S1                 0.0000
      7 ****        -5.6443   0.4623   0.4395 C.ar           1 S1                 0.0000
      8 ****        -4.2693   0.7595   0.4193 C.ar           1 S1                 0.0000
      9 ****        -3.3367  -0.3056   0.4057 C.ar           1 S1                 0.0000
     10 ****        -1.9286  -0.1099   0.4114 N.am           1 S1                 0.0000
     11 ****        -1.2351   0.9381  -0.0637 C.2            1 S1                 0.0000
     12 ****        -1.7241   1.9037  -0.6500 O.2            1 S1                 0.0000
     13 ****         0.0783   0.7901   0.1608 N.am           1 S1                 0.0000
     14 ****         1.1221   1.7297  -0.2404 C.3            1 S1                 0.0000
     15 ****         1.8885   1.1857  -1.4556 C.3            1 S1                 0.0000
     16 ****         3.0519   2.1140  -1.8469 C.3            1 S1                 0.0000
     17 ****         3.9447   2.3836  -0.7016 N.pl3          1 S1                 0.0000
     18 ****         5.4604   1.5398  -0.5619 S.o2           1 S1                 0.0000
     19 ****         4.9883  -0.1385   0.0246 C.3            1 S1                 0.0000
     20 ****         6.0298   1.4109  -1.9120 O.2            1 S1                 0.0000
     21 ****         6.2419   2.1927   0.4995 O.2            1 S1                 0.0000
     22 ****         3.2600   2.8751   0.5109 C.3            1 S1                 0.0000
     23 ****         2.0995   1.9522   0.9223 C.3            1 S1                 0.0000
     24 ****        -2.6038  -6.0173   0.3892 H              1 S1                 0.0000
     25 ****        -1.6405  -4.8590   1.3038 H              1 S1                 0.0000
     26 ****        -1.6260  -4.8214  -0.4591 H              1 S1                 0.0000
     27 ****        -4.0561  -4.1760  -0.4603 H              1 S1                 0.0000
     28 ****        -4.0570  -4.1963   1.3064 H              1 S1                 0.0000
     29 ****        -7.0844  -1.1535   0.4690 H              1 S1                 0.0000
     30 ****        -6.3802   1.2527   0.4511 H              1 S1                 0.0000
     31 ****        -3.9559   1.7922   0.4312 H              1 S1                 0.0000
     32 ****        -1.3856  -0.8837   0.7657 H              1 S1                 0.0000
     33 ****         0.3824  -0.0415   0.6456 H              1 S1                 0.0000
     34 ****         0.6840   2.6941  -0.5050 H              1 S1                 0.0000
     35 ****         2.2677   0.1872  -1.2394 H              1 S1                 0.0000
     36 ****         1.2112   1.0760  -2.3033 H              1 S1                 0.0000
     37 ****         3.6153   1.6881  -2.6767 H              1 S1                 0.0000
     38 ****         2.6535   3.0648  -2.2027 H              1 S1                 0.0000
     39 ****         5.8895  -0.7386   0.1471 H              1 S1                 0.0000
     40 ****         4.3412  -0.6189  -0.7071 H              1 S1                 0.0000
     41 ****         4.4796  -0.0673   0.9843 H              1 S1                 0.0000
     42 ****         3.9690   2.9814   1.3315 H              1 S1                 0.0000
     43 ****         2.8752   3.8749   0.3066 H              1 S1                 0.0000
     44 ****         1.5722   2.3897   1.7710 H              1 S1                 0.0000
     45 ****         2.4899   0.9958   1.2685 H              1 S1                 0.0000
     46 ****        -2.3573  -2.5759  -0.3695 LP             1 S1                 0.0000
     47 ****        -2.3770  -2.5856   1.2633 LP             1 S1                 0.0000
     48 ****        -5.4809  -2.8606   0.4661 LP             1 S1                 0.0000
     49 ****        -2.7113   1.9478  -0.8038 LP             1 S1                 0.0000
     50 ****        -1.1343   2.6440  -0.9724 LP             1 S1                 0.0000
@<TRIPOS>BOND
    1    1    2 1     
    2    1   24 1     
    3    1   25 1     
    4    1   26 1     
    5    2    3 1     
    6    2   27 1     
    7    2   28 1     
    8    3    4 1     
    9    4    9 ar    
   10    4    5 ar    
   11    5    6 ar    
   12    6    7 ar    
   13    6   29 1     
   14    7    8 ar    
   15    7   30 1     
   16    8    9 ar    
   17    8   31 1     
   18    9   10 1     
   19   10   11 am    
   20   10   32 1     
   21   11   12 2     
   22   11   13 am    
   23   13   14 1     
   24   13   33 1     
   25   14   23 1     
   26   14   15 1     
   27   14   34 1     
   28   15   16 1     
   29   15   35 1     
   30   15   36 1     
   31   16   17 1     
   32   16   37 1     
   33   16   38 1     
   34   17   18 1     
   35   17   22 1     
   36   18   19 1     
   37   18   20 2     
   38   18   21 2     
   39   19   39 1     
   40   19   40 1     
   41   19   41 1     
   42   22   23 1     
   43   22   42 1     
   44   22   43 1     
   45   23   44 1     
   46   23   45 1     
   47    3   46 1     
   48    3   47 1     
   49    5   48 1     
   50   12   49 1     
   51   12   50 1     
@<TRIPOS>SUBSTRUCTURE
      1 S1             1
@<TRIPOS>SET
LONE_PAIRS      STATIC     ATOMS    <user>   **** ""
7 46 47 48 49 50 20 21
DONOR_HYDROGENS      STATIC     ATOMS    <user>   **** ""
2 32 33
ATOM$BLUE        STATIC     ATOMS    COLORGROUP SYSTEM
7 46 47 48 49 50 20 21
ATOM$RED        STATIC     ATOMS    COLORGROUP SYSTEM
2 32 33
