AV-unprocessed.smi:72|AV-procd|sdf|695|dock8
  -GOLD-   2262017 13D 1   1.00000     0.00000
 Structure written by MMmdl.
 30 31  0  0  0  0  0  0  0  0  2 V2000
  145.9093  138.6401  152.1524 N   0  0  0  0  0  0  0  0  0  0  0  0
  146.8144  139.3629  152.9015 C   0  0  0  0  0  0  0  0  0  0  0  0
  148.0616  138.8038  153.1177 N   0  3  0  0  0  0  0  0  0  0  0  0
  149.0528  139.3776  153.8137 C   0  0  0  0  0  0  0  0  0  0  0  0
  148.8595  140.5720  154.3346 N   0  0  0  0  0  0  0  0  0  0  0  0
  149.9413  141.2586  155.1214 C   0  0  2  0  0  0  0  0  0  0  0  0
  151.0892  140.4680  155.0474 O   0  0  0  0  0  0  0  0  0  0  0  0
  151.6416  140.2819  156.3469 C   0  0  2  0  0  0  0  0  0  0  0  0
  152.4303  138.9642  156.3936 C   0  0  0  0  0  0  0  0  0  0  0  0
  153.2524  138.9336  157.5402 O   0  0  0  0  0  0  0  0  0  0  0  0
  150.3982  140.2854  157.2358 C   0  0  1  0  0  0  0  0  0  0  0  0
  150.6891  140.5301  158.5986 O   0  0  0  0  0  0  0  0  0  0  0  0
  149.5345  141.3682  156.5990 C   0  0  1  0  0  0  0  0  0  0  0  0
  149.8151  142.6605  157.1042 O   0  0  0  0  0  0  0  0  0  0  0  0
  147.6022  141.2121  154.1941 C   0  0  0  0  0  0  0  0  0  0  0  0
  147.3984  142.3066  154.7181 O   0  0  0  0  0  0  0  0  0  0  0  0
  146.6286  140.5333  153.4469 N   0  0  0  0  0  0  0  0  0  0  0  0
  150.1243  142.2158  154.6293 H   0  0  0  0  0  0  0  0  0  0  0  0
  152.2757  141.1353  156.5969 H   0  0  0  0  0  0  0  0  0  0  0  0
  149.8859  139.3259  157.1506 H   0  0  0  0  0  0  0  0  0  0  0  0
  148.4708  141.1687  156.7368 H   0  0  0  0  0  0  0  0  0  0  0  0
  144.9751  138.9664  151.9477 H   0  0  0  0  0  0  0  0  0  0  0  0
  146.1039  137.7340  151.7511 H   0  0  0  0  0  0  0  0  0  0  0  0
  149.9904  138.8510  153.9414 H   0  0  0  0  0  0  0  0  0  0  0  0
  151.7457  138.1182  156.4605 H   0  0  0  0  0  0  0  0  0  0  0  0
  153.0288  138.8260  155.4928 H   0  0  0  0  0  0  0  0  0  0  0  0
  152.8392  138.3901  158.1937 H   0  0  0  0  0  0  0  0  0  0  0  0
  150.5914  141.4546  158.7683 H   0  0  0  0  0  0  0  0  0  0  0  0
  149.5757  143.3010  156.4514 H   0  0  0  0  0  0  0  0  0  0  0  0
  148.2348  137.8925  152.7181 H   0  0  0  0  0  0  0  0  0  0  0  0
  1  2  1  0  0  0  0
  1 22  1  0  0  0  0
  1 23  1  0  0  0  0
  2 17  2  0  0  0  0
  2  3  1  0  0  0  0
  3  4  2  0  0  0  0
  3 30  1  0  0  0  0
  4  5  1  0  0  0  0
  4 24  1  0  0  0  0
  5  6  1  0  0  0  0
  5 15  1  0  0  0  0
  6 18  1  0  0  0  0
  6 13  1  0  0  0  0
  6  7  1  0  0  0  0
  7  8  1  0  0  0  0
  8 19  1  0  0  0  0
  8  9  1  0  0  0  0
  8 11  1  0  0  0  0
  9 10  1  0  0  0  0
  9 25  1  0  0  0  0
  9 26  1  0  0  0  0
 10 27  1  0  0  0  0
 11 20  1  0  0  0  0
 11 12  1  0  0  0  0
 11 13  1  0  0  0  0
 12 28  1  0  0  0  0
 13 21  1  0  0  0  0
 13 14  1  0  0  0  0
 14 29  1  0  0  0  0
 15 16  2  0  0  0  0
 15 17  1  0  0  0  0
M  CHG  1   3   1
M  END
> <s_m_source_file>
AV-unprocessed.smi

> <i_m_source_file_index>
72

> <i_lp_mmshare_version>
43012

> <i_f3d_flags>
0

> <s_epik_input>
W05IMl1jMW5bY0hdbihjKD1PKW4xKVtDQEBIXTJPW0NASF0oW0NIMl1bT0hdKVtDQEBIXShbT0hdKVtDQEhdMltPSF0=

> <s_epik_cmdline>
J2VwaWtfcHl0aG9uJywgJy1waCcsICc3LjAnLCAnLXRuJywgJzgnLCAnLW1hJywgJzIwMCcsICctbWV0YWxfYmluZGluZycsICctaW1hZScsICc8aW5maWxlLm1hZT4nLCAnLW9tYWUnLCAnPG91dGZpbGUubWFlPic=

> <r_lp_tautomer_probability>
4.77166e-05

> <r_epik_Ionization_Penalty>
0.104979

> <r_epik_Ionization_Penalty_Charging>
0.0999619

> <r_epik_Ionization_Penalty_Neutral>
0.00501745

> <r_epik_State_Penalty>
2.51541

> <r_epik_Charging_Adjusted_Penalty>
2.61537

> <i_epik_Tot_Q>
1

> <i_epik_Tot_abs_Q>
1

> <r_epik_Metal_State_Penalty>
3.53763

> <b_epik_Metal_Only>
0

> <s_epik_Chemistry_Notes>
This compound contains an acetal/aminal-like group ( X-CH(R)-Y where X, Y are N, S, or O) that may be acid/base labile, releasing an aldehyde.

> <s_lp_Force_Field>
OPLS_2005

> <r_lp_Energy>
34.3488

> <b_lp_Chiralities_Consistent>
1

> <s_lp_Variant>
AV-unprocessed.smi:72-33

> <Gold.Version>
5.8.1

> <Gold.Id.Protein>
6NUR|6NUR_protein|mol2

> <Gold.PLP.Fitness>
42.3043

> <Gold.PLP.PLP>
-25.2539

> <Gold.PLP.part.hbond>
-6.7878

> <Gold.PLP.part.metal>
0.0000

> <Gold.PLP.part.buried>
-1.3850

> <Gold.PLP.part.nonpolar>
-19.0222

> <Gold.PLP.part.repulsive>
1.7621

> <Gold.PLP.ligand.clash>
0.0000

> <Gold.PLP.ligand.torsion>
0.2214

> <Gold.PLP.Chemscore.Hbond>
5.8247

> <Gold.PLP.Chemscore.CHOScore>
0.0000

> <Gold.PLP.Chemscore.Metal>
0.0000

> <Gold.Chemscore.Hbonds>
donor molecule, donor type, donor heavy atom, donor atom, acceptor molecule, acceptor atom, score
      L1  H     1    22       P1 10175  0.82
      L1  H     3    30       P1  7948  2.00
      L1  H    14    29       P1  8028  1.00
      P1  H  7989  7998       L1     7  1.00
      P1  H  7997  8009       L1    10  1.00

> <Gold.PLP.Chemscore.Internal.Correction>
0.0190

> <Gold.Rescore>
     Score         DG    S(hbond)    S(metal)    S(lipo)     H(rot)  DE(clash)    DE(int)     intcor
      8.19     -10.85       4.01        0.00      20.61       4.08       1.22       1.44       ----

> <Gold.Chemscore.Fitness>
8.1856

> <Gold.Chemscore.DG>
-10.8487

> <Gold.Chemscore.ZeroCoef>
-5.4800

> <Gold.Chemscore.Hbond>
4.0112

> <Gold.Chemscore.Metal>
0.0000

> <Gold.Chemscore.Lipo>
20.6119

> <Gold.Chemscore.Internal_Hbond>
0.0000

> <Gold.Chemscore.DEClash>
1.2221

> <Gold.Chemscore.DEInternal>
1.4410

> <Gold.Chemscore.Rot>
4.0783

> <Gold.Chemscore.Internal.Correction>
   9.000000E+99

> <Gold.Chemscore.Hbonds>
donor molecule, donor type, donor heavy atom, donor atom, acceptor molecule, acceptor atom, score
      L1  H     1    22       P1 10175  0.75
      L1  H     3    30       P1  7948  0.97
      L1  H    14    29       P1  8028  1.00
      P1  H  7989  7998       L1     7  0.24
      P1  H  7997  8009       L1    10  0.47

> <Gold.Chemscore.Hbond.Weighted>
-13.3975

> <Gold.Chemscore.Metal.Weighted>
-0.0000

> <Gold.Chemscore.Lipo.Weighted>
-2.4116

> <Gold.Chemscore.Internal_Hbond.Weighted>
0.0000

> <Gold.Chemscore.DEClash.Weighted>
1.2221

> <Gold.Chemscore.DEInternal.Weighted>
1.4410

> <Gold.Chemscore.Rot.Weighted>
10.4404

> <Gold.Chemscore.Internal.Correction.Weighted>
   9.000000E+99

> <Gold.Protein.RotatedTorsions>
[ 6907 6896 6895 6894 ] final  -26.40 input  -60.11 | X-H torsion
[ 7974 7965 7964 7962 ] final  109.90 input  175.53 | X-H torsion
[ 8008 7997 7996 7995 ] final  144.58 input   59.86 | X-H torsion
[ 10167 10162 10161 10158 ] final  -38.71 input  -65.29 | X-H torsion
[ 10718 10713 10712 10709 ] final  -51.32 input   66.30 | X-H torsion
[ 10763 10752 10751 10750 ] final   39.97 input  -60.55 | X-H torsion
[ 11005 11000 10999 10996 ] final  109.86 input  -57.11 | X-H torsion

> <Gold.Protein.ActiveResidues>
 VAL166  LYS551  ARG553  GLY616  TRP617  ASP618  TYR619  PRO620  LYS621  CYS622 
 ASP623  PHE694  ASN695  SER759  ASP760  ASP761  ALA762  ILE779  LEU786  VAL792 
 PHE793  MET794  SER795  GLU796  ALA797  LYS798  CYS799  TRP800  GLU811  SER814 

> <Gold.Protein.RotatedAtoms>
  151.1616  135.0276  159.8712 H   0  0  0  0  0  0  0  0  0  0  0  0  # atno 6907 bound_to 6896
  152.5451  134.1273  159.8434 H   0  0  0  0  0  0  0  0  0  0  0  0  # atno 6908 bound_to 6896
  151.1369  133.4952  159.2630 H   0  0  0  0  0  0  0  0  0  0  0  0  # atno 6909 bound_to 6896
  145.2619  139.2699  143.4012 H   0  0  0  0  0  0  0  0  0  0  0  0  # atno 7974 bound_to 7965
  156.2904  140.2232  156.5076 H   0  0  0  0  0  0  0  0  0  0  0  0  # atno 8008 bound_to 7997
  154.7636  140.0471  157.1015 H   0  0  0  0  0  0  0  0  0  0  0  0  # atno 8009 bound_to 7997
  154.9960  140.3096  155.4890 H   0  0  0  0  0  0  0  0  0  0  0  0  # atno 8010 bound_to 7997
  140.7085  143.3260  151.2679 H   0  0  0  0  0  0  0  0  0  0  0  0  # atno 10167 bound_to 10162
  156.1721  130.4149  149.9632 H   0  0  0  0  0  0  0  0  0  0  0  0  # atno 10718 bound_to 10713
  152.9950  135.6205  154.2551 H   0  0  0  0  0  0  0  0  0  0  0  0  # atno 10763 bound_to 10752
  154.2288  135.2793  155.2899 H   0  0  0  0  0  0  0  0  0  0  0  0  # atno 10764 bound_to 10752
  154.5467  135.5745  153.6944 H   0  0  0  0  0  0  0  0  0  0  0  0  # atno 10765 bound_to 10752
  139.8870  134.9469  156.6190 H   0  0  0  0  0  0  0  0  0  0  0  0  # atno 11005 bound_to 11000
  146.3272  140.3038  142.8622 LP  0  0  0  0  0  0  0  0  0  0  0  0  # atno 17320 bound_to 7965
  144.9411  140.8079  143.5630 LP  0  0  0  0  0  0  0  0  0  0  0  0  # atno 17321 bound_to 7965
  139.6728  143.9990  152.2763 LP  0  0  0  0  0  0  0  0  0  0  0  0  # atno 17342 bound_to 10162
  139.9594  144.6568  150.8094 LP  0  0  0  0  0  0  0  0  0  0  0  0  # atno 17343 bound_to 10162
  156.7429  130.9086  151.3633 LP  0  0  0  0  0  0  0  0  0  0  0  0  # atno 17370 bound_to 10713
  157.6810  130.9139  150.0266 LP  0  0  0  0  0  0  0  0  0  0  0  0  # atno 17371 bound_to 10713
  140.7753  133.8704  155.8524 LP  0  0  0  0  0  0  0  0  0  0  0  0  # atno 17394 bound_to 11000
  140.9807  134.1410  157.4497 LP  0  0  0  0  0  0  0  0  0  0  0  0  # atno 17395 bound_to 11000

$$$$
