AV-unprocessed.smi:1389|AV-procd|sdf|5651|dock7
  -GOLD-   22720 5273D 1   1.00000     0.00000
 Structure written by MMmdl.
 52 54  0  0  0  0  0  0  0  0  2 V2000
  147.9187  140.3432  155.5703 C   0  0  0  0  0  0  0  0  0  0  0  0
  148.0274  138.9439  154.9122 C   0  0  1  0  0  0  0  0  0  0  0  0
  147.6308  139.0633  153.4117 C   0  0  0  0  0  0  0  0  0  0  0  0
  146.8529  137.9271  152.9249 N   0  0  0  0  0  0  0  0  0  0  0  0
  145.6169  137.6108  153.3350 C   0  0  0  0  0  0  0  0  0  0  0  0
  144.9977  138.2481  154.1868 O   0  0  0  0  0  0  0  0  0  0  0  0
  145.1473  136.5355  152.6810 N   0  0  0  0  0  0  0  0  0  0  0  0
  143.8732  135.9128  152.8135 C   0  0  0  0  0  0  0  0  0  0  0  0
  142.8581  136.4457  153.6493 C   0  0  0  0  0  0  0  0  0  0  0  0
  141.6163  135.7892  153.7487 C   0  0  0  0  0  0  0  0  0  0  0  0
  141.4105  134.6051  153.0192 C   0  0  0  0  0  0  0  0  0  0  0  0
  142.4022  134.1144  152.2473 N   0  3  0  0  0  0  0  0  0  0  0  0
  143.6163  134.7031  152.1115 C   0  0  0  0  0  0  0  0  0  0  0  0
  144.5867  134.0844  151.2942 N   0  0  0  0  0  0  0  0  0  0  0  0
  145.1073  132.8292  151.8313 C   0  0  0  0  0  0  0  0  0  0  0  0
  145.2570  131.8728  150.6449 C   0  0  0  0  0  0  0  0  0  0  0  0
  144.2486  132.4063  149.6350 C   0  0  0  0  0  0  0  0  0  0  0  0
  144.3246  133.9134  149.8664 C   0  0  0  0  0  0  0  0  0  0  0  0
  149.3527  138.3154  155.1191 N   0  0  0  0  0  0  0  0  0  0  0  0
  150.4104  138.9412  154.3166 C   0  0  0  0  0  0  0  0  0  0  0  0
  151.7817  138.2696  154.5055 C   0  0  0  0  0  0  0  0  0  0  0  0
  151.6867  136.8862  154.1954 O   0  0  0  0  0  0  0  0  0  0  0  0
  150.7262  136.2233  155.0054 C   0  0  0  0  0  0  0  0  0  0  0  0
  149.3479  136.8796  154.8153 C   0  0  0  0  0  0  0  0  0  0  0  0
  146.9624  140.8252  155.3711 H   0  0  0  0  0  0  0  0  0  0  0  0
  148.7026  141.0099  155.2093 H   0  0  0  0  0  0  0  0  0  0  0  0
  147.9896  140.2962  156.6560 H   0  0  0  0  0  0  0  0  0  0  0  0
  147.2810  138.3092  155.3928 H   0  0  0  0  0  0  0  0  0  0  0  0
  147.0432  139.9684  153.2549 H   0  0  0  0  0  0  0  0  0  0  0  0
  148.5009  139.1468  152.7620 H   0  0  0  0  0  0  0  0  0  0  0  0
  147.2863  137.3517  152.2175 H   0  0  0  0  0  0  0  0  0  0  0  0
  145.7308  136.1792  151.9385 H   0  0  0  0  0  0  0  0  0  0  0  0
  143.0151  137.3439  154.2270 H   0  0  0  0  0  0  0  0  0  0  0  0
  140.8348  136.1869  154.3797 H   0  0  0  0  0  0  0  0  0  0  0  0
  140.4933  134.0343  153.0362 H   0  0  0  0  0  0  0  0  0  0  0  0
  146.0618  132.9842  152.3345 H   0  0  0  0  0  0  0  0  0  0  0  0
  144.4102  132.4117  152.5595 H   0  0  0  0  0  0  0  0  0  0  0  0
  146.2643  131.9494  150.2329 H   0  0  0  0  0  0  0  0  0  0  0  0
  145.0814  130.8313  150.9146 H   0  0  0  0  0  0  0  0  0  0  0  0
  144.4781  132.1212  148.6080 H   0  0  0  0  0  0  0  0  0  0  0  0
  143.2497  132.0402  149.8762 H   0  0  0  0  0  0  0  0  0  0  0  0
  143.4349  134.4262  149.5014 H   0  0  0  0  0  0  0  0  0  0  0  0
  145.1729  134.3298  149.3220 H   0  0  0  0  0  0  0  0  0  0  0  0
  150.1373  138.9162  153.2604 H   0  0  0  0  0  0  0  0  0  0  0  0
  150.5348  139.9875  154.5879 H   0  0  0  0  0  0  0  0  0  0  0  0
  152.5213  138.7303  153.8505 H   0  0  0  0  0  0  0  0  0  0  0  0
  152.1371  138.3981  155.5291 H   0  0  0  0  0  0  0  0  0  0  0  0
  150.6870  135.1716  154.7217 H   0  0  0  0  0  0  0  0  0  0  0  0
  151.0314  136.2608  156.0523 H   0  0  0  0  0  0  0  0  0  0  0  0
  148.6521  136.3513  155.4643 H   0  0  0  0  0  0  0  0  0  0  0  0
  149.0099  136.7197  153.7903 H   0  0  0  0  0  0  0  0  0  0  0  0
  142.2287  133.2470  151.7390 H   0  0  0  0  0  0  0  0  0  0  0  0
  1  2  1  0  0  0  0
  1 25  1  0  0  0  0
  1 26  1  0  0  0  0
  1 27  1  0  0  0  0
  2  3  1  0  0  0  0
  2 19  1  0  0  0  0
  2 28  1  0  0  0  0
  3  4  1  0  0  0  0
  3 29  1  0  0  0  0
  3 30  1  0  0  0  0
  4  5  1  0  0  0  0
  4 31  1  0  0  0  0
  5  6  2  0  0  0  0
  5  7  1  0  0  0  0
  7  8  1  0  0  0  0
  7 32  1  0  0  0  0
  8 13  1  0  0  0  0
  8  9  2  0  0  0  0
  9 10  1  0  0  0  0
  9 33  1  0  0  0  0
 10 11  2  0  0  0  0
 10 34  1  0  0  0  0
 11 12  1  0  0  0  0
 11 35  1  0  0  0  0
 12 13  2  0  0  0  0
 12 52  1  0  0  0  0
 13 14  1  0  0  0  0
 14 18  1  0  0  0  0
 14 15  1  0  0  0  0
 15 16  1  0  0  0  0
 15 36  1  0  0  0  0
 15 37  1  0  0  0  0
 16 17  1  0  0  0  0
 16 38  1  0  0  0  0
 16 39  1  0  0  0  0
 17 18  1  0  0  0  0
 17 40  1  0  0  0  0
 17 41  1  0  0  0  0
 18 42  1  0  0  0  0
 18 43  1  0  0  0  0
 19 24  1  0  0  0  0
 19 20  1  0  0  0  0
 20 21  1  0  0  0  0
 20 44  1  0  0  0  0
 20 45  1  0  0  0  0
 21 22  1  0  0  0  0
 21 46  1  0  0  0  0
 21 47  1  0  0  0  0
 22 23  1  0  0  0  0
 23 24  1  0  0  0  0
 23 48  1  0  0  0  0
 23 49  1  0  0  0  0
 24 50  1  0  0  0  0
 24 51  1  0  0  0  0
M  CHG  1  12   1
M  END
> <s_m_source_file>
AV-unprocessed.smi

> <i_m_source_file_index>
1389

> <i_lp_mmshare_version>
43012

> <i_f3d_flags>
0

> <s_epik_input>
W0NIMl0xW0NIMl1PW0NIMl1bQ0gyXU4xW0NASF0oW0NIM10pW0NIMl1bTkhdQyg9TylbTkhdYzJbY0hdW2NIXVtjSF1uYzJOM1tDSDJdW0NIMl1bQ0gyXVtDSDJdMw==

> <s_epik_cmdline>
J2VwaWtfcHl0aG9uJywgJy1waCcsICc3LjAnLCAnLXRuJywgJzgnLCAnLW1hJywgJzIwMCcsICctbWV0YWxfYmluZGluZycsICctaW1hZScsICc8aW5maWxlLm1hZT4nLCAnLW9tYWUnLCAnPG91dGZpbGUubWFlPic=

> <r_epik_Ionization_Penalty>
1.37675

> <r_epik_Ionization_Penalty_Charging>
1.11074

> <r_epik_Ionization_Penalty_Neutral>
0.26601

> <r_epik_State_Penalty>
1.46015

> <r_epik_Charging_Adjusted_Penalty>
2.57089

> <i_epik_Tot_Q>
1

> <i_epik_Tot_abs_Q>
1

> <r_epik_Metal_State_Penalty>
1.54223

> <b_epik_Metal_Only>
0

> <s_lp_Force_Field>
OPLS_2005

> <r_lp_Energy>
63.8734

> <b_lp_Chiralities_Consistent>
1

> <s_lp_Variant>
AV-unprocessed.smi:1389-6

> <Gold.Version>
5.8.1

> <Gold.Id.Protein>
6NUR|6NUR_protein|mol2

> <Gold.PLP.Fitness>
41.3143

> <Gold.PLP.PLP>
-36.7357

> <Gold.PLP.part.hbond>
-2.7311

> <Gold.PLP.part.metal>
0.0000

> <Gold.PLP.part.buried>
-7.6667

> <Gold.PLP.part.nonpolar>
-27.6218

> <Gold.PLP.part.repulsive>
1.1439

> <Gold.PLP.ligand.clash>
0.0000

> <Gold.PLP.ligand.torsion>
0.7394

> <Gold.PLP.Chemscore.Hbond>
1.9600

> <Gold.PLP.Chemscore.CHOScore>
0.0000

> <Gold.PLP.Chemscore.Metal>
0.0000

> <Gold.Chemscore.Hbonds>
donor molecule, donor type, donor heavy atom, donor atom, acceptor molecule, acceptor atom, score
      L1  H     4    31       P1  7948  0.86
      P1  H 10752 10765       L1    22  1.00

> <Gold.PLP.Chemscore.Internal.Correction>
0.1773

> <Gold.Rescore>
     Score         DG    S(hbond)    S(metal)    S(lipo)     H(rot)  DE(clash)    DE(int)     intcor
     15.90     -17.94       1.92        0.00      86.61       1.60       0.08       1.95       ----

> <Gold.Chemscore.Fitness>
15.9024

> <Gold.Chemscore.DG>
-17.9365

> <Gold.Chemscore.ZeroCoef>
-5.4800

> <Gold.Chemscore.Hbond>
1.9244

> <Gold.Chemscore.Metal>
0.0000

> <Gold.Chemscore.Lipo>
86.6142

> <Gold.Chemscore.Internal_Hbond>
0.0000

> <Gold.Chemscore.DEClash>
0.0823

> <Gold.Chemscore.DEInternal>
1.9518

> <Gold.Chemscore.Rot>
1.6035

> <Gold.Chemscore.Internal.Correction>
   9.000000E+99

> <Gold.Chemscore.Hbonds>
donor molecule, donor type, donor heavy atom, donor atom, acceptor molecule, acceptor atom, score
      L1  H     4    31       P1  7948  0.79
      P1  H 10752 10765       L1    22  0.39

> <Gold.Chemscore.Hbond.Weighted>
-6.4276

> <Gold.Chemscore.Metal.Weighted>
-0.0000

> <Gold.Chemscore.Lipo.Weighted>
-10.1339

> <Gold.Chemscore.Internal_Hbond.Weighted>
0.0000

> <Gold.Chemscore.DEClash.Weighted>
0.0823

> <Gold.Chemscore.DEInternal.Weighted>
1.9518

> <Gold.Chemscore.Rot.Weighted>
4.1049

> <Gold.Chemscore.Internal.Correction.Weighted>
   9.000000E+99

> <Gold.Protein.RotatedTorsions>
[ 6907 6896 6895 6894 ] final   39.88 input  -60.11 | X-H torsion
[ 7974 7965 7964 7962 ] final -165.41 input  175.53 | X-H torsion
[ 8008 7997 7996 7995 ] final  148.60 input   59.86 | X-H torsion
[ 10167 10162 10161 10158 ] final  -79.19 input  -65.29 | X-H torsion
[ 10718 10713 10712 10709 ] final  120.25 input   66.30 | X-H torsion
[ 10763 10752 10751 10750 ] final  149.25 input  -60.55 | X-H torsion
[ 11005 11000 10999 10996 ] final  143.12 input  -57.11 | X-H torsion

> <Gold.Protein.ActiveResidues>
 VAL166  LYS551  ARG553  GLY616  TRP617  ASP618  TYR619  PRO620  LYS621  CYS622 
 ASP623  PHE694  ASN695  SER759  ASP760  ASP761  ALA762  ILE779  LEU786  VAL792 
 PHE793  MET794  SER795  GLU796  ALA797  LYS798  CYS799  TRP800  GLU811  SER814 

> <Gold.Protein.RotatedAtoms>
  152.1753  134.8800  160.0530 H   0  0  0  0  0  0  0  0  0  0  0  0  # atno 6907 bound_to 6896
  151.9745  133.3732  159.4092 H   0  0  0  0  0  0  0  0  0  0  0  0  # atno 6908 bound_to 6896
  150.6908  134.4028  159.5170 H   0  0  0  0  0  0  0  0  0  0  0  0  # atno 6909 bound_to 6896
  144.7271  140.2818  143.6234 H   0  0  0  0  0  0  0  0  0  0  0  0  # atno 7974 bound_to 7965
  156.2785  140.2124  156.5723 H   0  0  0  0  0  0  0  0  0  0  0  0  # atno 8008 bound_to 7997
  154.7125  140.0511  157.0587 H   0  0  0  0  0  0  0  0  0  0  0  0  # atno 8009 bound_to 7997
  155.0586  140.3164  155.4671 H   0  0  0  0  0  0  0  0  0  0  0  0  # atno 8010 bound_to 7997
  140.4615  143.2452  151.8341 H   0  0  0  0  0  0  0  0  0  0  0  0  # atno 10167 bound_to 10162
  157.5904  131.1065  150.8009 H   0  0  0  0  0  0  0  0  0  0  0  0  # atno 10718 bound_to 10713
  154.0681  135.2869  155.3313 H   0  0  0  0  0  0  0  0  0  0  0  0  # atno 10763 bound_to 10752
  154.6764  135.5280  153.8209 H   0  0  0  0  0  0  0  0  0  0  0  0  # atno 10764 bound_to 10752
  153.0496  135.6570  154.0865 H   0  0  0  0  0  0  0  0  0  0  0  0  # atno 10765 bound_to 10752
  140.0529  134.9246  157.1049 H   0  0  0  0  0  0  0  0  0  0  0  0  # atno 11005 bound_to 11000
  145.7942  139.1938  143.2085 LP  0  0  0  0  0  0  0  0  0  0  0  0  # atno 17320 bound_to 7965
  146.0731  140.7847  142.9678 LP  0  0  0  0  0  0  0  0  0  0  0  0  # atno 17321 bound_to 7965
  139.4807  144.5002  151.9071 LP  0  0  0  0  0  0  0  0  0  0  0  0  # atno 17342 bound_to 10162
  140.4087  144.2397  150.5889 LP  0  0  0  0  0  0  0  0  0  0  0  0  # atno 17343 bound_to 10162
  156.8433  130.5055  149.5319 LP  0  0  0  0  0  0  0  0  0  0  0  0  # atno 17370 bound_to 10713
  156.0958  130.5931  150.9811 LP  0  0  0  0  0  0  0  0  0  0  0  0  # atno 17371 bound_to 10713
  140.3889  134.2206  155.7167 LP  0  0  0  0  0  0  0  0  0  0  0  0  # atno 17394 bound_to 11000
  141.1939  133.8141  157.0780 LP  0  0  0  0  0  0  0  0  0  0  0  0  # atno 17395 bound_to 11000

$$$$
