AV-unprocessed.smi:2351|AV-procd|sdf|9375|dock5
  -GOLD-   2272013 03D 1   1.00000     0.00000
 Structure written by MMmdl.
 47 49  0  0  0  0  0  0  0  0  2 V2000
  145.5081  136.9250  154.1427 O   0  0  0  0  0  0  0  0  0  0  0  0
  144.9428  137.8739  153.5999 C   0  0  0  0  0  0  0  0  0  0  0  0
  143.6430  137.9201  153.2610 N   0  0  0  0  0  0  0  0  0  0  0  0
  142.6340  136.9365  153.4532 C   0  0  0  0  0  0  0  0  0  0  0  0
  142.8542  135.5402  153.3673 C   0  0  0  0  0  0  0  0  0  0  0  0
  141.7619  134.6716  153.5654 C   0  0  0  0  0  0  0  0  0  0  0  0
  140.5084  135.0992  153.8265 N   0  0  0  0  0  0  0  0  0  0  0  0
  140.2997  136.4309  153.8943 C   0  0  0  0  0  0  0  0  0  0  0  0
  141.3212  137.3845  153.7115 C   0  0  0  0  0  0  0  0  0  0  0  0
  141.0423  138.7083  153.7887 F   0  0  0  0  0  0  0  0  0  0  0  0
  145.5662  139.0189  153.2852 N   0  0  0  0  0  0  0  0  0  0  0  0
  146.9709  139.3111  153.5564 C   0  0  2  0  0  0  0  0  0  0  0  0
  147.3387  138.8470  154.9740 C   0  0  0  0  0  0  0  0  0  0  0  0
  148.7941  139.2082  155.3156 C   0  0  0  0  0  0  0  0  0  0  0  0
  149.0364  140.6672  155.1672 N   0  3  1  0  0  0  0  0  0  0  0  0
  150.3928  141.0729  155.6200 C   0  0  0  0  0  0  0  0  0  0  0  0
  150.4261  141.4176  157.1213 C   0  0  1  0  0  0  0  0  0  0  0  0
  151.3434  140.5159  157.9239 C   0  0  0  0  0  0  0  0  0  0  0  0
  151.5447  141.3198  159.2043 C   0  0  0  0  0  0  0  0  0  0  0  0
  151.4601  142.6879  158.8180 O   0  0  0  0  0  0  0  0  0  0  0  0
  151.0063  142.7890  157.4724 C   0  0  0  0  0  0  0  0  0  0  0  0
  148.7174  141.1342  153.7919 C   0  0  0  0  0  0  0  0  0  0  0  0
  147.2597  140.8166  153.4192 C   0  0  0  0  0  0  0  0  0  0  0  0
  143.3153  138.7965  152.8822 H   0  0  0  0  0  0  0  0  0  0  0  0
  143.8226  135.1199  153.1451 H   0  0  0  0  0  0  0  0  0  0  0  0
  141.8990  133.6021  153.5062 H   0  0  0  0  0  0  0  0  0  0  0  0
  139.2874  136.7468  154.0988 H   0  0  0  0  0  0  0  0  0  0  0  0
  145.0251  139.7474  152.8427 H   0  0  0  0  0  0  0  0  0  0  0  0
  147.5932  138.7627  152.8461 H   0  0  0  0  0  0  0  0  0  0  0  0
  146.6703  139.3090  155.7025 H   0  0  0  0  0  0  0  0  0  0  0  0
  147.1971  137.7692  155.0636 H   0  0  0  0  0  0  0  0  0  0  0  0
  149.0025  138.9027  156.3419 H   0  0  0  0  0  0  0  0  0  0  0  0
  149.4812  138.6561  154.6726 H   0  0  0  0  0  0  0  0  0  0  0  0
  151.0873  140.2460  155.4624 H   0  0  0  0  0  0  0  0  0  0  0  0
  150.7760  141.8957  155.0142 H   0  0  0  0  0  0  0  0  0  0  0  0
  149.4205  141.3376  157.5383 H   0  0  0  0  0  0  0  0  0  0  0  0
  150.9215  139.5274  158.1079 H   0  0  0  0  0  0  0  0  0  0  0  0
  152.2979  140.3890  157.4105 H   0  0  0  0  0  0  0  0  0  0  0  0
  150.7450  141.1106  159.9156 H   0  0  0  0  0  0  0  0  0  0  0  0
  152.4960  141.0993  159.6891 H   0  0  0  0  0  0  0  0  0  0  0  0
  151.8637  143.0217  156.8392 H   0  0  0  0  0  0  0  0  0  0  0  0
  150.2766  143.5918  157.3660 H   0  0  0  0  0  0  0  0  0  0  0  0
  148.8805  142.2077  153.7094 H   0  0  0  0  0  0  0  0  0  0  0  0
  149.3945  140.6595  153.0798 H   0  0  0  0  0  0  0  0  0  0  0  0
  147.0639  141.1471  152.3982 H   0  0  0  0  0  0  0  0  0  0  0  0
  146.5874  141.3856  154.0630 H   0  0  0  0  0  0  0  0  0  0  0  0
  148.3838  141.1201  155.7911 H   0  0  0  0  0  0  0  0  0  0  0  0
  1  2  2  0  0  0  0
  2  3  1  0  0  0  0
  2 11  1  0  0  0  0
  3  4  1  0  0  0  0
  3 24  1  0  0  0  0
  4  9  1  0  0  0  0
  4  5  2  0  0  0  0
  5  6  1  0  0  0  0
  5 25  1  0  0  0  0
  6  7  2  0  0  0  0
  6 26  1  0  0  0  0
  7  8  1  0  0  0  0
  8  9  2  0  0  0  0
  8 27  1  0  0  0  0
  9 10  1  0  0  0  0
 11 12  1  0  0  0  0
 11 28  1  0  0  0  0
 12 23  1  0  0  0  0
 12 13  1  0  0  0  0
 12 29  1  0  0  0  0
 13 14  1  0  0  0  0
 13 30  1  0  0  0  0
 13 31  1  0  0  0  0
 14 15  1  0  0  0  0
 14 32  1  0  0  0  0
 14 33  1  0  0  0  0
 15 16  1  0  0  0  0
 15 22  1  0  0  0  0
 15 47  1  0  0  0  0
 16 17  1  0  0  0  0
 16 34  1  0  0  0  0
 16 35  1  0  0  0  0
 17 21  1  0  0  0  0
 17 18  1  0  0  0  0
 17 36  1  0  0  0  0
 18 19  1  0  0  0  0
 18 37  1  0  0  0  0
 18 38  1  0  0  0  0
 19 20  1  0  0  0  0
 19 39  1  0  0  0  0
 19 40  1  0  0  0  0
 20 21  1  0  0  0  0
 21 41  1  0  0  0  0
 21 42  1  0  0  0  0
 22 23  1  0  0  0  0
 22 43  1  0  0  0  0
 22 44  1  0  0  0  0
 23 45  1  0  0  0  0
 23 46  1  0  0  0  0
M  CHG  1  15   1
M  END
> <s_m_source_file>
AV-unprocessed.smi

> <i_m_source_file_index>
2351

> <i_lp_mmshare_version>
43012

> <i_f3d_flags>
0

> <s_epik_input>
RmMxW2NIXW5bY0hdW2NIXWMxW05IXUMoPU8pW05IXVtDSF0yW0NIMl1bQ0gyXU4oW0NIMl1bQ0gyXTIpW0NIMl1bQ0BASF0zW0NIMl1bQ0gyXU9bQ0gyXTM=

> <s_epik_cmdline>
J2VwaWtfcHl0aG9uJywgJy1waCcsICc3LjAnLCAnLXRuJywgJzgnLCAnLW1hJywgJzIwMCcsICctbWV0YWxfYmluZGluZycsICctaW1hZScsICc8aW5maWxlLm1hZT4nLCAnLW9tYWUnLCAnPG91dGZpbGUubWFlPic=

> <r_epik_Ionization_Penalty>
0.0102464

> <r_epik_Ionization_Penalty_Charging>
0.00747775

> <r_epik_Ionization_Penalty_Neutral>
0.00276864

> <r_epik_State_Penalty>
0.00558817

> <r_epik_Charging_Adjusted_Penalty>
0.0130659

> <i_epik_Tot_Q>
1

> <i_epik_Tot_abs_Q>
1

> <r_epik_Metal_State_Penalty>
-0

> <b_epik_Metal_Only>
0

> <s_lp_Force_Field>
OPLS_2005

> <r_lp_Energy>
39.8259

> <b_lp_Chiralities_Consistent>
1

> <s_lp_Variant>
AV-unprocessed.smi:2351-2

> <Gold.Version>
5.8.1

> <Gold.Id.Protein>
6NUR|6NUR_protein|mol2

> <Gold.PLP.Fitness>
44.6647

> <Gold.PLP.PLP>
-36.2762

> <Gold.PLP.part.hbond>
-3.9179

> <Gold.PLP.part.metal>
0.0000

> <Gold.PLP.part.buried>
-3.5403

> <Gold.PLP.part.nonpolar>
-29.7366

> <Gold.PLP.part.repulsive>
0.3953

> <Gold.PLP.ligand.clash>
0.0000

> <Gold.PLP.ligand.torsion>
1.6101

> <Gold.PLP.Chemscore.Hbond>
2.8613

> <Gold.PLP.Chemscore.CHOScore>
1.0000

> <Gold.PLP.Chemscore.Metal>
0.0000

> <Gold.Chemscore.Hbonds>
donor molecule, donor type, donor heavy atom, donor atom, acceptor molecule, acceptor atom, score
      L1  H     3    24       P1 10175  0.99
      L1  H    11    28       P1 10175  1.00
      P1  H 11000 11005       L1     7  0.94
      L1  C     6    26       P1 10957  1.00

> <Gold.PLP.Chemscore.Internal.Correction>
0.0249

> <Gold.Rescore>
     Score         DG    S(hbond)    S(metal)    S(lipo)     H(rot)  DE(clash)    DE(int)     intcor
     16.08     -19.84       2.39        0.00      86.16       1.45       0.12       3.64       ----

> <Gold.Chemscore.Fitness>
16.0759

> <Gold.Chemscore.DG>
-19.8449

> <Gold.Chemscore.ZeroCoef>
-5.4800

> <Gold.Chemscore.Hbond>
2.3929

> <Gold.Chemscore.Metal>
0.0000

> <Gold.Chemscore.Lipo>
86.1554

> <Gold.Chemscore.Internal_Hbond>
0.0000

> <Gold.Chemscore.DEClash>
0.1250

> <Gold.Chemscore.DEInternal>
3.6440

> <Gold.Chemscore.Rot>
1.4483

> <Gold.Chemscore.Internal.Correction>
   9.000000E+99

> <Gold.Chemscore.Hbonds>
donor molecule, donor type, donor heavy atom, donor atom, acceptor molecule, acceptor atom, score
      L1  H     3    24       P1 10175  0.94
      L1  H    11    28       P1 10175  0.94
      P1  H 11000 11005       L1     7  0.14

> <Gold.Chemscore.Hbond.Weighted>
-7.9924

> <Gold.Chemscore.Metal.Weighted>
-0.0000

> <Gold.Chemscore.Lipo.Weighted>
-10.0802

> <Gold.Chemscore.Internal_Hbond.Weighted>
0.0000

> <Gold.Chemscore.DEClash.Weighted>
0.1250

> <Gold.Chemscore.DEInternal.Weighted>
3.6440

> <Gold.Chemscore.Rot.Weighted>
3.7077

> <Gold.Chemscore.Internal.Correction.Weighted>
   9.000000E+99

> <Gold.Protein.RotatedTorsions>
[ 6907 6896 6895 6894 ] final  145.12 input  -60.11 | X-H torsion
[ 7974 7965 7964 7962 ] final  -93.09 input  175.53 | X-H torsion
[ 8008 7997 7996 7995 ] final   -7.84 input   59.86 | X-H torsion
[ 10167 10162 10161 10158 ] final -149.93 input  -65.29 | X-H torsion
[ 10718 10713 10712 10709 ] final  175.94 input   66.30 | X-H torsion
[ 10763 10752 10751 10750 ] final  154.50 input  -60.55 | X-H torsion
[ 11005 11000 10999 10996 ] final   33.84 input  -57.11 | X-H torsion

> <Gold.Protein.ActiveResidues>
 VAL166  LYS551  ARG553  GLY616  TRP617  ASP618  TYR619  PRO620  LYS621  CYS622 
 ASP623  PHE694  ASN695  SER759  ASP760  ASP761  ALA762  ILE779  LEU786  VAL792 
 PHE793  MET794  SER795  GLU796  ALA797  LYS798  CYS799  TRP800  GLU811  SER814 

> <Gold.Protein.RotatedAtoms>
  152.1850  133.4733  159.4977 H   0  0  0  0  0  0  0  0  0  0  0  0  # atno 6907 bound_to 6896
  150.6941  134.1785  159.4248 H   0  0  0  0  0  0  0  0  0  0  0  0  # atno 6908 bound_to 6896
  151.9698  135.0082  160.0603 H   0  0  0  0  0  0  0  0  0  0  0  0  # atno 6909 bound_to 6896
  145.3911  140.9528  143.2340 H   0  0  0  0  0  0  0  0  0  0  0  0  # atno 7974 bound_to 7965
  154.5799  140.2396  155.8069 H   0  0  0  0  0  0  0  0  0  0  0  0  # atno 8008 bound_to 7997
  156.2171  140.3009  155.9822 H   0  0  0  0  0  0  0  0  0  0  0  0  # atno 8009 bound_to 7997
  155.2560  140.0412  157.2982 H   0  0  0  0  0  0  0  0  0  0  0  0  # atno 8010 bound_to 7997
  139.7399  143.8679  152.2559 H   0  0  0  0  0  0  0  0  0  0  0  0  # atno 10167 bound_to 10162
  156.9275  130.9960  151.2993 H   0  0  0  0  0  0  0  0  0  0  0  0  # atno 10718 bound_to 10713
  154.1534  135.2814  155.3129 H   0  0  0  0  0  0  0  0  0  0  0  0  # atno 10763 bound_to 10752
  154.6201  135.5470  153.7569 H   0  0  0  0  0  0  0  0  0  0  0  0  # atno 10764 bound_to 10752
  153.0214  135.6437  154.1677 H   0  0  0  0  0  0  0  0  0  0  0  0  # atno 10765 bound_to 10752
  140.2590  134.3214  155.7864 H   0  0  0  0  0  0  0  0  0  0  0  0  # atno 11005 bound_to 11000
  144.8439  139.5427  143.6887 LP  0  0  0  0  0  0  0  0  0  0  0  0  # atno 17320 bound_to 7965
  146.2797  139.6845  142.9238 LP  0  0  0  0  0  0  0  0  0  0  0  0  # atno 17321 bound_to 7965
  139.8626  144.7109  150.9081 LP  0  0  0  0  0  0  0  0  0  0  0  0  # atno 17342 bound_to 10162
  140.7784  143.3805  151.1486 LP  0  0  0  0  0  0  0  0  0  0  0  0  # atno 17343 bound_to 10162
  157.5868  130.8415  149.8601 LP  0  0  0  0  0  0  0  0  0  0  0  0  # atno 17370 bound_to 10713
  156.0462  130.3727  150.1311 LP  0  0  0  0  0  0  0  0  0  0  0  0  # atno 17371 bound_to 10713
  141.2192  133.7398  156.9157 LP  0  0  0  0  0  0  0  0  0  0  0  0  # atno 17394 bound_to 11000
  140.1483  134.9247  157.2559 LP  0  0  0  0  0  0  0  0  0  0  0  0  # atno 17395 bound_to 11000

$$$$
