AV-unprocessed.smi:2083|AV-procd|sdf|8495|dock6
  -GOLD-   2272011203D 1   1.00000     0.00000
 Structure written by MMmdl.
 45 46  0  0  0  0  0  0  0  0  2 V2000
  152.1488  140.6089  157.4365 C   0  0  0  0  0  0  0  0  0  0  0  0
  151.5291  139.8208  156.3343 C   0  0  0  0  0  0  0  0  0  0  0  0
  151.2087  138.4988  156.2013 C   0  0  0  0  0  0  0  0  0  0  0  0
  150.6514  138.4346  154.8966 C   0  0  0  0  0  0  0  0  0  0  0  0
  150.1867  137.2054  154.3625 N   0  0  0  0  0  0  0  0  0  0  0  0
  150.1822  136.0031  154.9630 C   0  0  0  0  0  0  0  0  0  0  0  0
  150.6121  135.7732  156.0937 O   0  0  0  0  0  0  0  0  0  0  0  0
  149.6495  135.0614  154.1697 N   0  0  0  0  0  0  0  0  0  0  0  0
  149.4645  133.6582  154.5315 C   0  0  0  0  0  0  0  0  0  0  0  0
  148.6889  132.8607  153.4511 C   0  0  1  0  0  0  0  0  0  0  0  0
  148.1142  131.5270  153.9672 C   0  0  0  0  0  0  0  0  0  0  0  0
  147.6194  133.6639  152.7884 N   0  3  1  0  0  0  0  0  0  0  0  0
  147.1411  133.1360  151.4814 C   0  0  0  0  0  0  0  0  0  0  0  0
  146.2448  134.1646  150.7750 C   0  0  0  0  0  0  0  0  0  0  0  0
  145.0650  134.5713  151.6704 C   0  0  0  0  0  0  0  0  0  0  0  0
  145.5480  135.0528  153.0516 C   0  0  2  0  0  0  0  0  0  0  0  0
  146.1793  136.4552  153.0047 C   0  0  0  0  0  0  0  0  0  0  0  0
  146.4885  134.0100  153.6918 C   0  0  0  0  0  0  0  0  0  0  0  0
  150.6317  139.6109  154.2886 N   0  0  0  0  0  0  0  0  0  0  0  0
  151.1946  140.5051  155.2068 O   0  0  0  0  0  0  0  0  0  0  0  0
  152.3553  139.9763  158.3000 H   0  0  0  0  0  0  0  0  0  0  0  0
  151.4859  141.4127  157.7565 H   0  0  0  0  0  0  0  0  0  0  0  0
  153.0891  141.0541  157.1114 H   0  0  0  0  0  0  0  0  0  0  0  0
  151.3523  137.7082  156.9228 H   0  0  0  0  0  0  0  0  0  0  0  0
  149.8084  137.2502  153.4279 H   0  0  0  0  0  0  0  0  0  0  0  0
  149.3232  135.3415  153.2561 H   0  0  0  0  0  0  0  0  0  0  0  0
  150.4326  133.1996  154.7368 H   0  0  0  0  0  0  0  0  0  0  0  0
  148.9187  133.6440  155.4743 H   0  0  0  0  0  0  0  0  0  0  0  0
  149.4019  132.5876  152.6716 H   0  0  0  0  0  0  0  0  0  0  0  0
  148.9083  130.8327  154.2420 H   0  0  0  0  0  0  0  0  0  0  0  0
  147.5132  131.0349  153.2020 H   0  0  0  0  0  0  0  0  0  0  0  0
  147.4867  131.6665  154.8474 H   0  0  0  0  0  0  0  0  0  0  0  0
  147.9837  132.8957  150.8338 H   0  0  0  0  0  0  0  0  0  0  0  0
  146.5806  132.2126  151.6321 H   0  0  0  0  0  0  0  0  0  0  0  0
  146.8317  135.0435  150.5064 H   0  0  0  0  0  0  0  0  0  0  0  0
  145.8716  133.7496  149.8382 H   0  0  0  0  0  0  0  0  0  0  0  0
  144.4666  135.3418  151.1830 H   0  0  0  0  0  0  0  0  0  0  0  0
  144.4060  133.7120  151.8006 H   0  0  0  0  0  0  0  0  0  0  0  0
  144.6686  135.1350  153.6915 H   0  0  0  0  0  0  0  0  0  0  0  0
  147.0895  136.4735  152.4051 H   0  0  0  0  0  0  0  0  0  0  0  0
  146.4384  136.8008  154.0057 H   0  0  0  0  0  0  0  0  0  0  0  0
  145.4869  137.1817  152.5782 H   0  0  0  0  0  0  0  0  0  0  0  0
  145.9234  133.1075  153.9271 H   0  0  0  0  0  0  0  0  0  0  0  0
  146.8663  134.3959  154.6394 H   0  0  0  0  0  0  0  0  0  0  0  0
  148.0599  134.5479  152.5768 H   0  0  0  0  0  0  0  0  0  0  0  0
  1  2  1  0  0  0  0
  1 21  1  0  0  0  0
  1 22  1  0  0  0  0
  1 23  1  0  0  0  0
  2 20  1  0  0  0  0
  2  3  2  0  0  0  0
  3  4  1  0  0  0  0
  3 24  1  0  0  0  0
  4  5  1  0  0  0  0
  4 19  2  0  0  0  0
  5  6  1  0  0  0  0
  5 25  1  0  0  0  0
  6  7  2  0  0  0  0
  6  8  1  0  0  0  0
  8  9  1  0  0  0  0
  8 26  1  0  0  0  0
  9 10  1  0  0  0  0
  9 27  1  0  0  0  0
  9 28  1  0  0  0  0
 10 11  1  0  0  0  0
 10 12  1  0  0  0  0
 10 29  1  0  0  0  0
 11 30  1  0  0  0  0
 11 31  1  0  0  0  0
 11 32  1  0  0  0  0
 12 18  1  0  0  0  0
 12 13  1  0  0  0  0
 12 45  1  0  0  0  0
 13 14  1  0  0  0  0
 13 33  1  0  0  0  0
 13 34  1  0  0  0  0
 14 15  1  0  0  0  0
 14 35  1  0  0  0  0
 14 36  1  0  0  0  0
 15 16  1  0  0  0  0
 15 37  1  0  0  0  0
 15 38  1  0  0  0  0
 16 17  1  0  0  0  0
 16 18  1  0  0  0  0
 16 39  1  0  0  0  0
 17 40  1  0  0  0  0
 17 41  1  0  0  0  0
 17 42  1  0  0  0  0
 18 43  1  0  0  0  0
 18 44  1  0  0  0  0
 19 20  1  0  0  0  0
M  CHG  1  12   1
M  END
> <s_m_source_file>
AV-unprocessed.smi

> <i_m_source_file_index>
2083

> <i_lp_mmshare_version>
43012

> <i_f3d_flags>
0

> <s_epik_input>
W0NIM11jMVtjSF1jKG5vMSlbTkhdQyg9TylbTkhdW0NIMl1bQ0BIXShbQ0gzXSlOMltDSDJdW0NIMl1bQ0gyXVtDQEBIXShbQ0gzXSlbQ0gyXTI=

> <s_epik_cmdline>
J2VwaWtfcHl0aG9uJywgJy1waCcsICc3LjAnLCAnLXRuJywgJzgnLCAnLW1hJywgJzIwMCcsICctbWV0YWxfYmluZGluZycsICctaW1hZScsICc8aW5maWxlLm1hZT4nLCAnLW9tYWUnLCAnPG91dGZpbGUubWFlPic=

> <r_epik_Ionization_Penalty>
0.00216453

> <r_epik_Ionization_Penalty_Charging>
0.00212879

> <r_epik_Ionization_Penalty_Neutral>
3.57418e-05

> <r_epik_State_Penalty>
0.00146033

> <r_epik_Charging_Adjusted_Penalty>
0.00358912

> <i_epik_Tot_Q>
1

> <i_epik_Tot_abs_Q>
1

> <r_epik_Metal_State_Penalty>
0.0215827

> <b_epik_Metal_Only>
0

> <s_lp_Force_Field>
OPLS_2005

> <r_lp_Energy>
20.2755

> <b_lp_Chiralities_Consistent>
1

> <s_lp_Variant>
AV-unprocessed.smi:2083-6

> <Gold.Version>
5.8.1

> <Gold.Id.Protein>
6NUR|6NUR_protein|mol2

> <Gold.PLP.Fitness>
39.7133

> <Gold.PLP.PLP>
-28.6029

> <Gold.PLP.part.hbond>
-5.2961

> <Gold.PLP.part.metal>
0.0000

> <Gold.PLP.part.buried>
-2.2783

> <Gold.PLP.part.nonpolar>
-20.6957

> <Gold.PLP.part.repulsive>
0.2936

> <Gold.PLP.ligand.clash>
0.0000

> <Gold.PLP.ligand.torsion>
0.3464

> <Gold.PLP.Chemscore.Hbond>
3.8940

> <Gold.PLP.Chemscore.CHOScore>
0.0000

> <Gold.PLP.Chemscore.Metal>
0.0000

> <Gold.Chemscore.Hbonds>
donor molecule, donor type, donor heavy atom, donor atom, acceptor molecule, acceptor atom, score
      L1  H     5    25       P1  7948  0.94
      L1  H     8    26       P1  7948  0.80
      L1  H    12    45       P1  7948  2.00

> <Gold.PLP.Chemscore.Internal.Correction>
0.1212

> <Gold.Rescore>
     Score         DG    S(hbond)    S(metal)    S(lipo)     H(rot)  DE(clash)    DE(int)     intcor
     14.42     -16.29       2.46        0.00      56.14       1.55       0.04       1.83       ----

> <Gold.Chemscore.Fitness>
14.4168

> <Gold.Chemscore.DG>
-16.2871

> <Gold.Chemscore.ZeroCoef>
-5.4800

> <Gold.Chemscore.Hbond>
2.4552

> <Gold.Chemscore.Metal>
0.0000

> <Gold.Chemscore.Lipo>
56.1354

> <Gold.Chemscore.Internal_Hbond>
0.0000

> <Gold.Chemscore.DEClash>
0.0407

> <Gold.Chemscore.DEInternal>
1.8295

> <Gold.Chemscore.Rot>
1.5474

> <Gold.Chemscore.Internal.Correction>
   9.000000E+99

> <Gold.Chemscore.Hbonds>
donor molecule, donor type, donor heavy atom, donor atom, acceptor molecule, acceptor atom, score
      L1  H     5    25       P1  7948  0.47
      L1  H     8    26       P1  7948  0.12
      L1  H    12    45       P1  7948  0.43

> <Gold.Chemscore.Hbond.Weighted>
-8.2005

> <Gold.Chemscore.Metal.Weighted>
-0.0000

> <Gold.Chemscore.Lipo.Weighted>
-6.5678

> <Gold.Chemscore.Internal_Hbond.Weighted>
0.0000

> <Gold.Chemscore.DEClash.Weighted>
0.0407

> <Gold.Chemscore.DEInternal.Weighted>
1.8295

> <Gold.Chemscore.Rot.Weighted>
3.9612

> <Gold.Chemscore.Internal.Correction.Weighted>
   9.000000E+99

> <Gold.Protein.RotatedTorsions>
[ 6907 6896 6895 6894 ] final -140.50 input  -60.11 | X-H torsion
[ 7974 7965 7964 7962 ] final  132.19 input  175.53 | X-H torsion
[ 8008 7997 7996 7995 ] final  -11.48 input   59.86 | X-H torsion
[ 10167 10162 10161 10158 ] final -100.40 input  -65.29 | X-H torsion
[ 10718 10713 10712 10709 ] final -137.47 input   66.30 | X-H torsion
[ 10763 10752 10751 10750 ] final  -67.31 input  -60.55 | X-H torsion
[ 11005 11000 10999 10996 ] final -101.26 input  -57.11 | X-H torsion

> <Gold.Protein.ActiveResidues>
 VAL166  LYS551  ARG553  GLY616  TRP617  ASP618  TYR619  PRO620  LYS621  CYS622 
 ASP623  PHE694  ASN695  SER759  ASP760  ASP761  ALA762  ILE779  LEU786  VAL792 
 PHE793  MET794  SER795  GLU796  ALA797  LYS798  CYS799  TRP800  GLU811  SER814 

> <Gold.Protein.RotatedAtoms>
  151.0615  133.5540  159.2633 H   0  0  0  0  0  0  0  0  0  0  0  0  # atno 6907 bound_to 6896
  151.2513  135.0622  159.9073 H   0  0  0  0  0  0  0  0  0  0  0  0  # atno 6908 bound_to 6896
  152.5398  134.0375  159.8106 H   0  0  0  0  0  0  0  0  0  0  0  0  # atno 6909 bound_to 6896
  144.9994  139.4327  143.5299 H   0  0  0  0  0  0  0  0  0  0  0  0  # atno 7974 bound_to 7965
  154.5461  140.2301  155.8561 H   0  0  0  0  0  0  0  0  0  0  0  0  # atno 8008 bound_to 7997
  156.1904  140.3078  155.9282 H   0  0  0  0  0  0  0  0  0  0  0  0  # atno 8009 bound_to 7997
  155.3162  140.0438  157.3028 H   0  0  0  0  0  0  0  0  0  0  0  0  # atno 8010 bound_to 7997
  140.2523  143.3464  152.0703 H   0  0  0  0  0  0  0  0  0  0  0  0  # atno 10167 bound_to 10162
  156.2884  130.7361  151.1379 H   0  0  0  0  0  0  0  0  0  0  0  0  # atno 10718 bound_to 10713
  154.3726  135.6092  153.5748 H   0  0  0  0  0  0  0  0  0  0  0  0  # atno 10763 bound_to 10752
  152.9790  135.5841  154.4504 H   0  0  0  0  0  0  0  0  0  0  0  0  # atno 10764 bound_to 10752
  154.4261  135.2847  155.1921 H   0  0  0  0  0  0  0  0  0  0  0  0  # atno 10765 bound_to 10752
  141.1238  133.8464  157.1209 H   0  0  0  0  0  0  0  0  0  0  0  0  # atno 11005 bound_to 11000
  146.3449  139.9374  142.8745 LP  0  0  0  0  0  0  0  0  0  0  0  0  # atno 17320 bound_to 7965
  145.2174  140.9921  143.4065 LP  0  0  0  0  0  0  0  0  0  0  0  0  # atno 17321 bound_to 7965
  139.5042  144.6771  151.6101 LP  0  0  0  0  0  0  0  0  0  0  0  0  # atno 17342 bound_to 10162
  140.6031  143.9574  150.6400 LP  0  0  0  0  0  0  0  0  0  0  0  0  # atno 17343 bound_to 10162
  157.7335  131.0590  150.5572 LP  0  0  0  0  0  0  0  0  0  0  0  0  # atno 17370 bound_to 10713
  156.5685  130.4274  149.6030 LP  0  0  0  0  0  0  0  0  0  0  0  0  # atno 17371 bound_to 10713
  140.0217  134.9942  157.0606 LP  0  0  0  0  0  0  0  0  0  0  0  0  # atno 17394 bound_to 11000
  140.4428  134.1663  155.7175 LP  0  0  0  0  0  0  0  0  0  0  0  0  # atno 17395 bound_to 11000

$$$$
