#       Name:                AV-unprocessed.smi:1204
#       Creating user name   scv26
#       Creation time:       Fri Mar 27 04:06:20 2020


#       File generated by GOLD software.
#

@<TRIPOS>MOLECULE
AV-unprocessed.smi:1204
    34    35     1
SMALL
NO_CHARGES


@<TRIPOS>ATOM
      1 ****        -0.6191   1.7316  -0.9279 O.2            1 S1                 0.0000
      2 ****        -0.0202   0.7173  -0.5676 C.2            1 S1                 0.0000
      3 ****        -0.6165  -0.4578  -0.2882 N.am           1 S1                 0.0000
      4 ****        -2.0007  -0.7744  -0.3133 C.ar           1 S1                 0.0000
      5 ****        -2.3150  -2.1120   0.0175 C.ar           1 S1                 0.0000
      6 ****        -3.6611  -2.5267   0.0239 C.ar           1 S1                 0.0000
      7 ****        -4.6599  -1.5914  -0.3006 C.ar           1 S1                 0.0000
      8 ****        -4.2616  -0.2799  -0.6183 C.ar           1 S1                 0.0000
      9 ****        -2.9722   0.1194  -0.6257 N.ar           1 S1                 0.0000
     10 ****         1.5100   0.7296  -0.4373 C.3            1 S1                 0.0000
     11 ****         2.1063   2.1562  -0.3937 C.3            1 S1                 0.0000
     12 ****         3.5165   2.0718  -0.2318 O.3            1 S1                 0.0000
     13 ****         3.8604   1.3968   0.9700 C.3            1 S1                 0.0000
     14 ****         3.2796  -0.0259   0.9258 C.3            1 S1                 0.0000
     15 ****         1.8696   0.0530   0.7651 O.3            1 S1                 0.0000
     16 ****        -0.0024  -1.2113  -0.0158 H              1 S1                 0.0000
     17 ****        -1.5348  -2.8174   0.2648 H              1 S1                 0.0000
     18 ****        -3.9219  -3.5445   0.2736 H              1 S1                 0.0000
     19 ****        -5.7029  -1.8712  -0.3064 H              1 S1                 0.0000
     20 ****        -4.9970   0.4686  -0.8735 H              1 S1                 0.0000
     21 ****         1.9182   0.1875  -1.2922 H              1 S1                 0.0000
     22 ****         1.9004   2.6891  -1.3227 H              1 S1                 0.0000
     23 ****         1.6729   2.7433   0.4181 H              1 S1                 0.0000
     24 ****         4.9462   1.3605   1.0606 H              1 S1                 0.0000
     25 ****         3.4829   1.9462   1.8339 H              1 S1                 0.0000
     26 ****         3.7200  -0.6017   0.1104 H              1 S1                 0.0000
     27 ****         3.5035  -0.5558   1.8517 H              1 S1                 0.0000
     28 ****        -1.6138   1.7153  -1.0296 LP             1 S1                 0.0000
     29 ****        -0.1107   2.5712  -1.1187 LP             1 S1                 0.0000
     30 ****        -2.7360   1.0627  -0.8587 LP             1 S1                 0.0000
     31 ****         3.8970   2.9962  -0.2062 LP             1 S1                 0.0000
     32 ****         3.9038   1.5732  -1.0073 LP             1 S1                 0.0000
     33 ****         1.4945  -0.8737   0.7395 LP             1 S1                 0.0000
     34 ****         1.4824   0.5479   1.5430 LP             1 S1                 0.0000
@<TRIPOS>BOND
    1    1    2 2     
    2    2    3 am    
    3    2   10 1     
    4    3    4 1     
    5    3   16 1     
    6    4    9 ar    
    7    4    5 ar    
    8    5    6 ar    
    9    5   17 1     
   10    6    7 ar    
   11    6   18 1     
   12    7    8 ar    
   13    7   19 1     
   14    8    9 ar    
   15    8   20 1     
   16   10   15 1     
   17   10   11 1     
   18   10   21 1     
   19   11   12 1     
   20   11   22 1     
   21   11   23 1     
   22   12   13 1     
   23   13   14 1     
   24   13   24 1     
   25   13   25 1     
   26   14   15 1     
   27   14   26 1     
   28   14   27 1     
   29    1   28 1     
   30    1   29 1     
   31    9   30 1     
   32   12   31 1     
   33   12   32 1     
   34   15   33 1     
   35   15   34 1     
@<TRIPOS>SUBSTRUCTURE
      1 S1             1
@<TRIPOS>SET
LONE_PAIRS      STATIC     ATOMS    <user>   **** ""
7 28 29 30 31 32 33 34
DONOR_HYDROGENS      STATIC     ATOMS    <user>   **** ""
1 16
ATOM$BLUE        STATIC     ATOMS    COLORGROUP SYSTEM
7 28 29 30 31 32 33 34
ATOM$RED        STATIC     ATOMS    COLORGROUP SYSTEM
1 16
