AV-unprocessed.smi:69|AV-procd|sdf|648|dock2
  -GOLD-   2262016543D 1   1.00000     0.00000
 Structure written by MMmdl.
 32 34  0  0  0  0  0  0  0  0  1 V2000
  152.5564  142.5187  161.7740 N   0  0  0  0  0  0  0  0  0  0  0  0
  152.2844  142.8692  160.5094 C   0  0  0  0  0  0  0  0  0  0  0  0
  152.2175  144.1874  160.2069 N   0  0  0  0  0  0  0  0  0  0  0  0
  151.9443  144.5630  158.9527 C   0  0  0  0  0  0  0  0  0  0  0  0
  151.7103  143.7976  157.8825 N   0  0  0  0  0  0  0  0  0  0  0  0
  151.7811  142.4700  158.1928 C   0  0  0  0  0  0  0  0  0  0  0  0
  152.0612  141.9253  159.4752 C   0  0  0  0  0  0  0  0  0  0  0  0
  152.0484  140.5383  159.4112 N   0  0  0  0  0  0  0  0  0  0  0  0
  151.7730  140.2832  158.1594 C   0  0  0  0  0  0  0  0  0  0  0  0
  151.5885  141.3914  157.3578 N   0  0  0  0  0  0  0  0  0  0  0  0
  151.2615  141.4696  155.8956 C   0  0  1  0  0  0  0  0  0  0  0  0
  151.3964  140.1945  155.3433 O   0  0  0  0  0  0  0  0  0  0  0  0
  150.1122  139.6056  155.1738 C   0  0  2  0  0  0  0  0  0  0  0  0
  150.1580  138.4456  154.1649 C   0  0  0  0  0  0  0  0  0  0  0  0
  148.9192  137.7690  154.1511 O   0  0  0  0  0  0  0  0  0  0  0  0
  149.2512  140.8076  154.7656 C   0  0  2  0  0  0  0  0  0  0  0  0
  149.4182  141.1138  153.3927 O   0  0  0  0  0  0  0  0  0  0  0  0
  149.8050  141.9302  155.6352 C   0  0  1  0  0  0  0  0  0  0  0  0
  149.0181  142.0557  156.8080 O   0  0  0  0  0  0  0  0  0  0  0  0
  152.0160  142.1383  155.4790 H   0  0  0  0  0  0  0  0  0  0  0  0
  149.7532  139.2454  156.1399 H   0  0  0  0  0  0  0  0  0  0  0  0
  148.1900  140.6245  154.9414 H   0  0  0  0  0  0  0  0  0  0  0  0
  149.8097  142.8912  155.1184 H   0  0  0  0  0  0  0  0  0  0  0  0
  152.6095  141.5414  162.0232 H   0  0  0  0  0  0  0  0  0  0  0  0
  152.7051  143.2307  162.4742 H   0  0  0  0  0  0  0  0  0  0  0  0
  151.9073  145.6288  158.7820 H   0  0  0  0  0  0  0  0  0  0  0  0
  151.6969  139.2705  157.7911 H   0  0  0  0  0  0  0  0  0  0  0  0
  150.3308  138.8297  153.1592 H   0  0  0  0  0  0  0  0  0  0  0  0
  150.9658  137.7494  154.3926 H   0  0  0  0  0  0  0  0  0  0  0  0
  148.9733  137.0547  153.5347 H   0  0  0  0  0  0  0  0  0  0  0  0
  149.3165  140.3184  152.8926 H   0  0  0  0  0  0  0  0  0  0  0  0
  148.6540  142.9280  156.8292 H   0  0  0  0  0  0  0  0  0  0  0  0
  1  2  1  0  0  0  0
  1 24  1  0  0  0  0
  1 25  1  0  0  0  0
  2  7  1  0  0  0  0
  2  3  2  0  0  0  0
  3  4  1  0  0  0  0
  4  5  2  0  0  0  0
  4 26  1  0  0  0  0
  5  6  1  0  0  0  0
  6 10  1  0  0  0  0
  6  7  2  0  0  0  0
  7  8  1  0  0  0  0
  8  9  2  0  0  0  0
  9 10  1  0  0  0  0
  9 27  1  0  0  0  0
 10 11  1  0  0  0  0
 11 20  1  0  0  0  0
 11 18  1  0  0  0  0
 11 12  1  0  0  0  0
 12 13  1  0  0  0  0
 13 21  1  0  0  0  0
 13 14  1  0  0  0  0
 13 16  1  0  0  0  0
 14 15  1  0  0  0  0
 14 28  1  0  0  0  0
 14 29  1  0  0  0  0
 15 30  1  0  0  0  0
 16 22  1  0  0  0  0
 16 17  1  0  0  0  0
 16 18  1  0  0  0  0
 17 31  1  0  0  0  0
 18 23  1  0  0  0  0
 18 19  1  0  0  0  0
 19 32  1  0  0  0  0
M  END
> <s_m_source_file>
AV-unprocessed.smi

> <i_m_source_file_index>
69

> <i_lp_mmshare_version>
43012

> <i_f3d_flags>
0

> <s_epik_input>
bjFbY0hdbmMoW05IMl0pYyhjMTIpbltjSF1uMltDQEBIXTNPW0NASF0oW0NIMl1bT0hdKVtDQEBIXShbT0hdKVtDQEhdM1tPSF0=

> <s_epik_cmdline>
J2VwaWtfcHl0aG9uJywgJy1waCcsICc3LjAnLCAnLXRuJywgJzgnLCAnLW1hJywgJzIwMCcsICctbWV0YWxfYmluZGluZycsICctaW1hZScsICc8aW5maWxlLm1hZT4nLCAnLW9tYWUnLCAnPG91dGZpbGUubWFlPic=

> <r_lp_tautomer_probability>
1

> <r_epik_Ionization_Penalty>
0.000428445

> <r_epik_Ionization_Penalty_Charging>
0

> <r_epik_Ionization_Penalty_Neutral>
0.000428445

> <r_epik_State_Penalty>
-0

> <r_epik_Charging_Adjusted_Penalty>
0

> <i_epik_Tot_Q>
0

> <i_epik_Tot_abs_Q>
0

> <r_epik_Metal_State_Penalty>
-0

> <b_epik_Metal_Only>
0

> <s_epik_Chemistry_Notes>
This compound contains an acetal/aminal-like group ( X-CH(R)-Y where X, Y are N, S, or O) that may be acid/base labile, releasing an aldehyde.

> <s_lp_Force_Field>
OPLS_2005

> <r_lp_Energy>
38.9041

> <b_lp_Chiralities_Consistent>
1

> <s_lp_Variant>
AV-unprocessed.smi:69-6

> <Gold.Version>
5.8.1

> <Gold.Id.Protein>
6NUR|6NUR_protein|mol2

> <Gold.PLP.Fitness>
45.9978

> <Gold.PLP.PLP>
-35.1967

> <Gold.PLP.part.hbond>
-5.8197

> <Gold.PLP.part.metal>
0.0000

> <Gold.PLP.part.buried>
-5.4801

> <Gold.PLP.part.nonpolar>
-23.0767

> <Gold.PLP.part.repulsive>
0.2911

> <Gold.PLP.ligand.clash>
0.0000

> <Gold.PLP.ligand.torsion>
0.2975

> <Gold.PLP.Chemscore.Hbond>
3.7672

> <Gold.PLP.Chemscore.CHOScore>
0.0000

> <Gold.PLP.Chemscore.Metal>
0.0000

> <Gold.Chemscore.Hbonds>
donor molecule, donor type, donor heavy atom, donor atom, acceptor molecule, acceptor atom, score
      L1  H    15    30       P1  7948  1.00
      L1  H    17    31       P1  7957  0.58
      L1  H    19    32       P1  8028  0.53
      P1  H  7989  7998       L1    12  0.67
      P1  H  8011  8017       L1    17  1.00

> <Gold.PLP.Chemscore.Internal.Correction>
0.0944

> <Gold.Rescore>
     Score         DG    S(hbond)    S(metal)    S(lipo)     H(rot)  DE(clash)    DE(int)     intcor
      9.09      -9.72       3.04        0.00      37.54       4.03       0.40       0.23       ----

> <Gold.Chemscore.Fitness>
9.0870

> <Gold.Chemscore.DG>
-9.7156

> <Gold.Chemscore.ZeroCoef>
-5.4800

> <Gold.Chemscore.Hbond>
3.0404

> <Gold.Chemscore.Metal>
0.0000

> <Gold.Chemscore.Lipo>
37.5364

> <Gold.Chemscore.Internal_Hbond>
0.0000

> <Gold.Chemscore.DEClash>
0.3970

> <Gold.Chemscore.DEInternal>
0.2316

> <Gold.Chemscore.Rot>
4.0277

> <Gold.Chemscore.Internal.Correction>
   9.000000E+99

> <Gold.Chemscore.Hbonds>
donor molecule, donor type, donor heavy atom, donor atom, acceptor molecule, acceptor atom, score
      L1  H    15    30       P1  7948  0.99
      L1  H    17    31       P1  7957  0.58
      L1  H    19    32       P1  8028  0.41
      P1  H  7989  7998       L1    12  0.01
      P1  H  8011  8017       L1    17  0.69

> <Gold.Chemscore.Hbond.Weighted>
-10.1548

> <Gold.Chemscore.Metal.Weighted>
-0.0000

> <Gold.Chemscore.Lipo.Weighted>
-4.3918

> <Gold.Chemscore.Internal_Hbond.Weighted>
0.0000

> <Gold.Chemscore.DEClash.Weighted>
0.3970

> <Gold.Chemscore.DEInternal.Weighted>
0.2316

> <Gold.Chemscore.Rot.Weighted>
10.3110

> <Gold.Chemscore.Internal.Correction.Weighted>
   9.000000E+99

> <Gold.Protein.RotatedTorsions>
[ 6907 6896 6895 6894 ] final  169.21 input  -60.11 | X-H torsion
[ 7974 7965 7964 7962 ] final  -88.93 input  175.53 | X-H torsion
[ 8008 7997 7996 7995 ] final   29.79 input   59.86 | X-H torsion
[ 10167 10162 10161 10158 ] final   10.57 input  -65.29 | X-H torsion
[ 10718 10713 10712 10709 ] final  -74.99 input   66.30 | X-H torsion
[ 10763 10752 10751 10750 ] final -164.86 input  -60.55 | X-H torsion
[ 11005 11000 10999 10996 ] final   34.59 input  -57.11 | X-H torsion

> <Gold.Protein.ActiveResidues>
 VAL166  LYS551  ARG553  GLY616  TRP617  ASP618  TYR619  PRO620  LYS621  CYS622 
 ASP623  PHE694  ASN695  SER759  ASP760  ASP761  ALA762  ILE779  LEU786  VAL792 
 PHE793  MET794  SER795  GLU796  ALA797  LYS798  CYS799  TRP800  GLU811  SER814 

> <Gold.Protein.RotatedAtoms>
  151.8355  133.3415  159.3626 H   0  0  0  0  0  0  0  0  0  0  0  0  # atno 6907 bound_to 6896
  150.7251  134.5441  159.5771 H   0  0  0  0  0  0  0  0  0  0  0  0  # atno 6908 bound_to 6896
  152.2904  134.7729  160.0430 H   0  0  0  0  0  0  0  0  0  0  0  0  # atno 6909 bound_to 6896
  145.4466  140.9560  143.2046 H   0  0  0  0  0  0  0  0  0  0  0  0  # atno 7974 bound_to 7965
  155.0801  140.3209  155.4604 H   0  0  0  0  0  0  0  0  0  0  0  0  # atno 8008 bound_to 7997
  156.2769  140.2096  156.5874 H   0  0  0  0  0  0  0  0  0  0  0  0  # atno 8009 bound_to 7997
  154.6985  140.0509  157.0422 H   0  0  0  0  0  0  0  0  0  0  0  0  # atno 8010 bound_to 7997
  140.6186  143.8253  150.7148 H   0  0  0  0  0  0  0  0  0  0  0  0  # atno 10167 bound_to 10162
  156.0223  130.4430  150.2976 H   0  0  0  0  0  0  0  0  0  0  0  0  # atno 10718 bound_to 10713
  154.6987  135.2984  154.9373 H   0  0  0  0  0  0  0  0  0  0  0  0  # atno 10763 bound_to 10752
  154.0312  135.6670  153.4785 H   0  0  0  0  0  0  0  0  0  0  0  0  # atno 10764 bound_to 10752
  153.0665  135.5085  154.8119 H   0  0  0  0  0  0  0  0  0  0  0  0  # atno 10765 bound_to 10752
  140.2513  134.3299  155.7889 H   0  0  0  0  0  0  0  0  0  0  0  0  # atno 11005 bound_to 11000
  144.8088  139.6001  143.7039 LP  0  0  0  0  0  0  0  0  0  0  0  0  # atno 17320 bound_to 7965
  146.2527  139.6235  142.9416 LP  0  0  0  0  0  0  0  0  0  0  0  0  # atno 17321 bound_to 7965
  140.1838  143.4092  152.1913 LP  0  0  0  0  0  0  0  0  0  0  0  0  # atno 17342 bound_to 10162
  139.5419  144.7264  151.4705 LP  0  0  0  0  0  0  0  0  0  0  0  0  # atno 17343 bound_to 10162
  157.1079  131.0213  151.3060 LP  0  0  0  0  0  0  0  0  0  0  0  0  # atno 17370 bound_to 10713
  157.4728  130.7719  149.7339 LP  0  0  0  0  0  0  0  0  0  0  0  0  # atno 17371 bound_to 10713
  141.2201  133.7355  156.9042 LP  0  0  0  0  0  0  0  0  0  0  0  0  # atno 17394 bound_to 11000
  140.1555  134.9201  157.2648 LP  0  0  0  0  0  0  0  0  0  0  0  0  # atno 17395 bound_to 11000

$$$$
