AV-unprocessed.smi:99|AV-procd|sdf|885|dock7
  -GOLD-   2262017363D 1   1.00000     0.00000
 Structure written by MMmdl.
 52 55  0  0  0  0  0  0  0  0  2 V2000
  153.2750  139.1937  158.2259 O   0  0  0  0  0  0  0  0  0  0  0  0
  152.3117  139.8970  157.9146 C   0  0  0  0  0  0  0  0  0  0  0  0
  151.3968  139.5428  156.9926 O   0  0  0  0  0  0  0  0  0  0  0  0
  151.6340  138.4304  156.1462 C   0  0  0  0  0  0  0  0  0  0  0  0
  151.0767  137.1663  156.8149 C   0  0  2  0  0  0  0  0  0  0  0  0
  151.5616  136.0310  156.1063 O   0  0  0  0  0  0  0  0  0  0  0  0
  150.6103  135.5571  155.1992 C   0  0  1  0  0  0  0  0  0  0  0  0
  150.3674  134.0895  155.4709 N   0  0  0  0  0  0  0  0  0  0  0  0
  151.0511  133.4288  156.4782 C   0  0  0  0  0  0  0  0  0  0  0  0
  150.8232  132.1264  156.7439 C   0  0  0  0  0  0  0  0  0  0  0  0
  149.8343  131.3970  155.9555 C   0  0  0  0  0  0  0  0  0  0  0  0
  149.6431  130.2063  156.1942 O   0  0  0  0  0  0  0  0  0  0  0  0
  149.1594  132.0760  154.9832 N   0  5  0  0  0  0  0  0  0  0  0  0
  149.3804  133.3969  154.7194 C   0  0  0  0  0  0  0  0  0  0  0  0
  148.7574  134.0270  153.8641 O   0  0  0  0  0  0  0  0  0  0  0  0
  149.3084  136.3462  155.4040 C   0  0  2  0  0  0  0  0  0  0  0  0
  149.0655  137.2561  154.3511 O   0  0  0  0  0  0  0  0  0  0  0  0
  149.5493  137.0796  156.7127 C   0  0  1  0  0  0  0  0  0  0  0  0
  149.0185  136.2952  157.7746 O   0  0  0  0  0  0  0  0  0  0  0  0
  148.6706  136.8527  158.9518 C   0  0  0  0  0  0  0  0  0  0  0  0
  148.7815  138.0552  159.1993 O   0  0  0  0  0  0  0  0  0  0  0  0
  148.1461  135.8536  159.9268 C   0  0  0  0  0  0  0  0  0  0  0  0
  147.7999  136.2731  161.2323 C   0  0  0  0  0  0  0  0  0  0  0  0
  147.3050  135.3502  162.1743 C   0  0  0  0  0  0  0  0  0  0  0  0
  147.1507  133.9966  161.8224 C   0  0  0  0  0  0  0  0  0  0  0  0
  147.4910  133.5668  160.5264 C   0  0  0  0  0  0  0  0  0  0  0  0
  147.9856  134.4880  159.5831 C   0  0  0  0  0  0  0  0  0  0  0  0
  152.0379  141.2334  158.5175 C   0  0  0  0  0  0  0  0  0  0  0  0
  151.0362  142.0572  157.9529 C   0  0  0  0  0  0  0  0  0  0  0  0
  150.7553  143.3234  158.5020 C   0  0  0  0  0  0  0  0  0  0  0  0
  151.4735  143.7819  159.6217 C   0  0  0  0  0  0  0  0  0  0  0  0
  152.4730  142.9724  160.1920 C   0  0  0  0  0  0  0  0  0  0  0  0
  152.7551  141.7056  159.6447 C   0  0  0  0  0  0  0  0  0  0  0  0
  151.1307  138.5998  155.1934 H   0  0  0  0  0  0  0  0  0  0  0  0
  152.7001  138.3233  155.9421 H   0  0  0  0  0  0  0  0  0  0  0  0
  151.4081  137.1341  157.8536 H   0  0  0  0  0  0  0  0  0  0  0  0
  151.0199  135.6173  154.1894 H   0  0  0  0  0  0  0  0  0  0  0  0
  151.7772  133.9568  157.0779 H   0  0  0  0  0  0  0  0  0  0  0  0
  151.3625  131.6280  157.5360 H   0  0  0  0  0  0  0  0  0  0  0  0
  148.4473  135.6778  155.4620 H   0  0  0  0  0  0  0  0  0  0  0  0
  148.9499  136.7605  153.5541 H   0  0  0  0  0  0  0  0  0  0  0  0
  149.0765  138.0633  156.7105 H   0  0  0  0  0  0  0  0  0  0  0  0
  147.9101  137.3073  161.5259 H   0  0  0  0  0  0  0  0  0  0  0  0
  147.0435  135.6821  163.1685 H   0  0  0  0  0  0  0  0  0  0  0  0
  146.7715  133.2890  162.5450 H   0  0  0  0  0  0  0  0  0  0  0  0
  147.3729  132.5284  160.2535 H   0  0  0  0  0  0  0  0  0  0  0  0
  148.2363  134.1234  158.5975 H   0  0  0  0  0  0  0  0  0  0  0  0
  150.4716  141.7263  157.0931 H   0  0  0  0  0  0  0  0  0  0  0  0
  149.9872  143.9431  158.0631 H   0  0  0  0  0  0  0  0  0  0  0  0
  151.2586  144.7530  160.0424 H   0  0  0  0  0  0  0  0  0  0  0  0
  153.0253  143.3230  161.0515 H   0  0  0  0  0  0  0  0  0  0  0  0
  153.5295  141.1104  160.1061 H   0  0  0  0  0  0  0  0  0  0  0  0
  1  2  2  0  0  0  0
  2  3  1  0  0  0  0
  2 28  1  0  0  0  0
  3  4  1  0  0  0  0
  4  5  1  0  0  0  0
  4 34  1  0  0  0  0
  4 35  1  0  0  0  0
  5 18  1  0  0  0  0
  5  6  1  0  0  0  0
  5 36  1  0  0  0  0
  6  7  1  0  0  0  0
  7  8  1  0  0  0  0
  7 16  1  0  0  0  0
  7 37  1  0  0  0  0
  8 14  1  0  0  0  0
  8  9  1  0  0  0  0
  9 10  2  0  0  0  0
  9 38  1  0  0  0  0
 10 11  1  0  0  0  0
 10 39  1  0  0  0  0
 11 12  2  0  0  0  0
 11 13  1  0  0  0  0
 13 14  1  0  0  0  0
 14 15  2  0  0  0  0
 16 17  1  0  0  0  0
 16 18  1  0  0  0  0
 16 40  1  0  0  0  0
 17 41  1  0  0  0  0
 18 19  1  0  0  0  0
 18 42  1  0  0  0  0
 19 20  1  0  0  0  0
 20 21  2  0  0  0  0
 20 22  1  0  0  0  0
 22 27  1  0  0  0  0
 22 23  2  0  0  0  0
 23 24  1  0  0  0  0
 23 43  1  0  0  0  0
 24 25  2  0  0  0  0
 24 44  1  0  0  0  0
 25 26  1  0  0  0  0
 25 45  1  0  0  0  0
 26 27  2  0  0  0  0
 26 46  1  0  0  0  0
 27 47  1  0  0  0  0
 28 33  1  0  0  0  0
 28 29  2  0  0  0  0
 29 30  1  0  0  0  0
 29 48  1  0  0  0  0
 30 31  2  0  0  0  0
 30 49  1  0  0  0  0
 31 32  1  0  0  0  0
 31 50  1  0  0  0  0
 32 33  2  0  0  0  0
 32 51  1  0  0  0  0
 33 52  1  0  0  0  0
M  CHG  1  13  -1
M  END
> <s_m_source_file>
AV-unprocessed.smi

> <i_m_source_file_index>
99

> <i_lp_mmshare_version>
43012

> <i_f3d_flags>
0

> <s_epik_input>
W2NIXTFbY0hdW2NIXVtjSF1bY0hdYzFDKD1PKU9bQ0gyXVtDQEBIXTJPW0NAQEhdKG4zW2NIXVtjSF1jKD1PKVtuSF1jMz1PKVtDQEBIXShbT0hdKVtDQEhdMk9DKD1PKWM0W2NIXVtjSF1bY0hdW2NIXVtjSF00

> <s_epik_cmdline>
J2VwaWtfcHl0aG9uJywgJy1waCcsICc3LjAnLCAnLXRuJywgJzgnLCAnLW1hJywgJzIwMCcsICctbWV0YWxfYmluZGluZycsICctaW1hZScsICc8aW5maWxlLm1hZT4nLCAnLW9tYWUnLCAnPG91dGZpbGUubWFlPic=

> <r_lp_tautomer_probability>
1

> <r_epik_Ionization_Penalty>
2.89159

> <r_epik_Ionization_Penalty_Charging>
2.1077e-08

> <r_epik_Ionization_Penalty_Neutral>
2.89159

> <r_epik_State_Penalty>
2.88671

> <r_epik_Charging_Adjusted_Penalty>
2.88671

> <i_epik_Tot_Q>
-1

> <i_epik_Tot_abs_Q>
1

> <r_epik_Metal_State_Penalty>
0.0727308

> <b_epik_Metal_Only>
1

> <s_epik_Chemistry_Notes>
This compound has an ester and may undergo hydrolysis at high or low pH. This compound contains an acetal/aminal-like group ( X-CH(R)-Y where X, Y are N, S, or O) that may be acid/base labile, releasing an aldehyde.

> <s_lp_Force_Field>
OPLS_2005

> <r_lp_Energy>
38.0652

> <b_lp_Chiralities_Consistent>
1

> <s_lp_Variant>
AV-unprocessed.smi:99-21

> <Gold.Version>
5.8.1

> <Gold.Id.Protein>
6NUR|6NUR_protein|mol2

> <Gold.PLP.Fitness>
60.3217

> <Gold.PLP.PLP>
-52.6422

> <Gold.PLP.part.hbond>
-5.0000

> <Gold.PLP.part.metal>
0.0000

> <Gold.PLP.part.buried>
-6.3414

> <Gold.PLP.part.nonpolar>
-42.6501

> <Gold.PLP.part.repulsive>
1.0400

> <Gold.PLP.ligand.clash>
0.0000

> <Gold.PLP.ligand.torsion>
0.7712

> <Gold.PLP.Chemscore.Hbond>
3.0000

> <Gold.PLP.Chemscore.CHOScore>
0.0000

> <Gold.PLP.Chemscore.Metal>
0.0000

> <Gold.Chemscore.Hbonds>
donor molecule, donor type, donor heavy atom, donor atom, acceptor molecule, acceptor atom, score
      L1  H    17    41       P1  7948  1.00
      P1  H  7997  8010       L1     1  1.00
      P1  H 10752 10763       L1     6  0.93

> <Gold.PLP.Chemscore.Internal.Correction>
0.2218

> <Gold.Rescore>
     Score         DG    S(hbond)    S(metal)    S(lipo)     H(rot)  DE(clash)    DE(int)     intcor
     17.50     -19.60       2.44        0.00     119.72       3.13       0.04       2.07       ----

> <Gold.Chemscore.Fitness>
17.4965

> <Gold.Chemscore.DG>
-19.6000

> <Gold.Chemscore.ZeroCoef>
-5.4800

> <Gold.Chemscore.Hbond>
2.4362

> <Gold.Chemscore.Metal>
0.0000

> <Gold.Chemscore.Lipo>
119.7236

> <Gold.Chemscore.Internal_Hbond>
0.0000

> <Gold.Chemscore.DEClash>
0.0369

> <Gold.Chemscore.DEInternal>
2.0666

> <Gold.Chemscore.Rot>
3.1346

> <Gold.Chemscore.Internal.Correction>
   9.000000E+99

> <Gold.Chemscore.Hbonds>
donor molecule, donor type, donor heavy atom, donor atom, acceptor molecule, acceptor atom, score
      L1  H    17    41       P1  7948  1.00
      P1  H  7997  8010       L1     1  0.41
      P1  H 10752 10763       L1     6  0.25

> <Gold.Chemscore.Hbond.Weighted>
-8.1369

> <Gold.Chemscore.Metal.Weighted>
-0.0000

> <Gold.Chemscore.Lipo.Weighted>
-14.0077

> <Gold.Chemscore.Internal_Hbond.Weighted>
0.0000

> <Gold.Chemscore.DEClash.Weighted>
0.0369

> <Gold.Chemscore.DEInternal.Weighted>
2.0666

> <Gold.Chemscore.Rot.Weighted>
8.0246

> <Gold.Chemscore.Internal.Correction.Weighted>
   9.000000E+99

> <Gold.Protein.RotatedTorsions>
[ 6907 6896 6895 6894 ] final   47.36 input  -60.11 | X-H torsion
[ 7974 7965 7964 7962 ] final    8.04 input  175.53 | X-H torsion
[ 8008 7997 7996 7995 ] final   16.12 input   59.86 | X-H torsion
[ 10167 10162 10161 10158 ] final   97.30 input  -65.29 | X-H torsion
[ 10718 10713 10712 10709 ] final  -45.08 input   66.30 | X-H torsion
[ 10763 10752 10751 10750 ] final  104.62 input  -60.55 | X-H torsion
[ 11005 11000 10999 10996 ] final -120.79 input  -57.11 | X-H torsion

> <Gold.Protein.ActiveResidues>
 VAL166  LYS551  ARG553  GLY616  TRP617  ASP618  TYR619  PRO620  LYS621  CYS622 
 ASP623  PHE694  ASN695  SER759  ASP760  ASP761  ALA762  ILE779  LEU786  VAL792 
 PHE793  MET794  SER795  GLU796  ALA797  LYS798  CYS799  TRP800  GLU811  SER814 

> <Gold.Protein.RotatedAtoms>
  152.2672  134.7971  160.0420 H   0  0  0  0  0  0  0  0  0  0  0  0  # atno 6907 bound_to 6896
  151.8597  133.3449  159.3708 H   0  0  0  0  0  0  0  0  0  0  0  0  # atno 6908 bound_to 6896
  150.7138  134.5146  159.5668 H   0  0  0  0  0  0  0  0  0  0  0  0  # atno 6909 bound_to 6896
  146.2420  139.9992  142.8417 H   0  0  0  0  0  0  0  0  0  0  0  0  # atno 7974 bound_to 7965
  154.8724  140.2961  155.5473 H   0  0  0  0  0  0  0  0  0  0  0  0  # atno 8008 bound_to 7997
  156.3021  140.2457  156.3648 H   0  0  0  0  0  0  0  0  0  0  0  0  # atno 8009 bound_to 7997
  154.8803  140.0398  157.1767 H   0  0  0  0  0  0  0  0  0  0  0  0  # atno 8010 bound_to 7997
  139.7814  144.6887  151.0017 H   0  0  0  0  0  0  0  0  0  0  0  0  # atno 10167 bound_to 10162
  156.2319  130.4173  149.8864 H   0  0  0  0  0  0  0  0  0  0  0  0  # atno 10718 bound_to 10713
  153.3683  135.3937  155.1770 H   0  0  0  0  0  0  0  0  0  0  0  0  # atno 10763 bound_to 10752
  154.8690  135.3696  154.5010 H   0  0  0  0  0  0  0  0  0  0  0  0  # atno 10764 bound_to 10752
  153.5476  135.7083  153.5667 H   0  0  0  0  0  0  0  0  0  0  0  0  # atno 10765 bound_to 10752
  141.0118  134.0254  157.3404 H   0  0  0  0  0  0  0  0  0  0  0  0  # atno 11005 bound_to 11000
  145.1431  140.9582  143.4477 LP  0  0  0  0  0  0  0  0  0  0  0  0  # atno 17320 bound_to 7965
  145.0277  139.3368  143.6040 LP  0  0  0  0  0  0  0  0  0  0  0  0  # atno 17321 bound_to 7965
  140.7818  143.4479  151.0455 LP  0  0  0  0  0  0  0  0  0  0  0  0  # atno 17342 bound_to 10162
  139.8159  143.7886  152.3174 LP  0  0  0  0  0  0  0  0  0  0  0  0  # atno 17343 bound_to 10162
  156.6475  130.8730  151.3525 LP  0  0  0  0  0  0  0  0  0  0  0  0  # atno 17370 bound_to 10713
  157.7137  130.9471  150.1179 LP  0  0  0  0  0  0  0  0  0  0  0  0  # atno 17371 bound_to 10713
  139.9094  135.0187  156.7626 LP  0  0  0  0  0  0  0  0  0  0  0  0  # atno 17394 bound_to 11000
  140.6722  133.9550  155.7863 LP  0  0  0  0  0  0  0  0  0  0  0  0  # atno 17395 bound_to 11000

$$$$
