AV-unprocessed.smi:2195|AV-procd|sdf|8906|dock1
  -GOLD-   2272012123D 1   1.00000     0.00000
 Structure written by MMmdl.
 40 42  0  0  0  0  0  0  0  0  2 V2000
  149.2458  131.5389  154.8280 C   0  0  0  0  0  0  0  0  0  0  0  0
  149.8787  132.8842  155.1193 C   0  0  0  0  0  0  0  0  0  0  0  0
  150.6680  133.0684  156.2718 C   0  0  0  0  0  0  0  0  0  0  0  0
  151.2528  134.3223  156.5339 C   0  0  0  0  0  0  0  0  0  0  0  0
  151.0604  135.4077  155.6544 C   0  0  0  0  0  0  0  0  0  0  0  0
  151.6703  136.5977  155.9882 O   0  0  0  0  0  0  0  0  0  0  0  0
  151.4902  137.7140  155.1255 C   0  0  0  0  0  0  0  0  0  0  0  0
  152.2225  138.9407  155.6942 C   0  0  2  0  0  0  0  0  0  0  0  0
  153.5738  138.6052  155.9408 O   0  0  0  0  0  0  0  0  0  0  0  0
  151.5427  139.5391  156.9427 C   0  0  0  0  0  0  0  0  0  0  0  0
  151.4256  141.0028  156.8838 N   0  0  0  0  0  0  0  0  0  0  0  0
  150.9546  141.7970  155.8845 C   0  0  0  0  0  0  0  0  0  0  0  0
  151.0423  143.0884  156.3082 N   0  3  0  0  0  0  0  0  0  0  0  0
  151.5787  143.1207  157.5971 C   0  0  0  0  0  0  0  0  0  0  0  0
  151.8574  144.1914  158.4412 C   0  0  0  0  0  0  0  0  0  0  0  0
  152.4084  143.8775  159.7010 C   0  0  0  0  0  0  0  0  0  0  0  0
  152.6635  142.5434  160.0793 C   0  0  0  0  0  0  0  0  0  0  0  0
  152.3762  141.4657  159.2160 C   0  0  0  0  0  0  0  0  0  0  0  0
  151.8295  141.7837  157.9732 C   0  0  0  0  0  0  0  0  0  0  0  0
  150.2630  135.2162  154.4979 C   0  0  0  0  0  0  0  0  0  0  0  0
  149.6773  133.9623  154.2354 C   0  0  0  0  0  0  0  0  0  0  0  0
  149.5902  130.7776  155.5285 H   0  0  0  0  0  0  0  0  0  0  0  0
  149.4993  131.2104  153.8198 H   0  0  0  0  0  0  0  0  0  0  0  0
  148.1605  131.6078  154.9047 H   0  0  0  0  0  0  0  0  0  0  0  0
  150.8289  132.2509  156.9591 H   0  0  0  0  0  0  0  0  0  0  0  0
  151.8571  134.4527  157.4196 H   0  0  0  0  0  0  0  0  0  0  0  0
  151.8447  137.4927  154.1172 H   0  0  0  0  0  0  0  0  0  0  0  0
  150.4255  137.9439  155.0593 H   0  0  0  0  0  0  0  0  0  0  0  0
  152.2406  139.7031  154.9144 H   0  0  0  0  0  0  0  0  0  0  0  0
  153.8511  137.9775  155.2909 H   0  0  0  0  0  0  0  0  0  0  0  0
  150.5316  139.1412  157.0368 H   0  0  0  0  0  0  0  0  0  0  0  0
  152.0654  139.2609  157.8584 H   0  0  0  0  0  0  0  0  0  0  0  0
  150.5771  141.4630  154.9287 H   0  0  0  0  0  0  0  0  0  0  0  0
  151.6650  145.2145  158.1531 H   0  0  0  0  0  0  0  0  0  0  0  0
  152.6415  144.6760  160.3903 H   0  0  0  0  0  0  0  0  0  0  0  0
  153.0896  142.3417  161.0514 H   0  0  0  0  0  0  0  0  0  0  0  0
  152.5817  140.4479  159.5133 H   0  0  0  0  0  0  0  0  0  0  0  0
  150.0843  136.0154  153.7948 H   0  0  0  0  0  0  0  0  0  0  0  0
  149.0709  133.8307  153.3511 H   0  0  0  0  0  0  0  0  0  0  0  0
  150.7560  143.8867  155.7561 H   0  0  0  0  0  0  0  0  0  0  0  0
  1  2  1  0  0  0  0
  1 22  1  0  0  0  0
  1 23  1  0  0  0  0
  1 24  1  0  0  0  0
  2 21  1  0  0  0  0
  2  3  2  0  0  0  0
  3  4  1  0  0  0  0
  3 25  1  0  0  0  0
  4  5  2  0  0  0  0
  4 26  1  0  0  0  0
  5  6  1  0  0  0  0
  5 20  1  0  0  0  0
  6  7  1  0  0  0  0
  7  8  1  0  0  0  0
  7 27  1  0  0  0  0
  7 28  1  0  0  0  0
  8  9  1  0  0  0  0
  8 10  1  0  0  0  0
  8 29  1  0  0  0  0
  9 30  1  0  0  0  0
 10 11  1  0  0  0  0
 10 31  1  0  0  0  0
 10 32  1  0  0  0  0
 11 19  1  0  0  0  0
 11 12  1  0  0  0  0
 12 13  2  0  0  0  0
 12 33  1  0  0  0  0
 13 14  1  0  0  0  0
 13 40  1  0  0  0  0
 14 19  2  0  0  0  0
 14 15  1  0  0  0  0
 15 16  2  0  0  0  0
 15 34  1  0  0  0  0
 16 17  1  0  0  0  0
 16 35  1  0  0  0  0
 17 18  2  0  0  0  0
 17 36  1  0  0  0  0
 18 19  1  0  0  0  0
 18 37  1  0  0  0  0
 20 21  2  0  0  0  0
 20 38  1  0  0  0  0
 21 39  1  0  0  0  0
M  CHG  1  13   1
M  END
> <s_m_source_file>
AV-unprocessed.smi

> <i_m_source_file_index>
2195

> <i_lp_mmshare_version>
43012

> <i_f3d_flags>
0

> <s_epik_input>
W0NIM11jMVtjSF1bY0hdYyhbY0hdW2NIXTEpT1tDSDJdW0NASF0oW09IXSlbQ0gyXW4oW2NIXW4yKWMoYzIzKVtjSF1bY0hdW2NIXVtjSF0z

> <s_epik_cmdline>
J2VwaWtfcHl0aG9uJywgJy1waCcsICc3LjAnLCAnLXRuJywgJzgnLCAnLW1hJywgJzIwMCcsICctbWV0YWxfYmluZGluZycsICctaW1hZScsICc8aW5maWxlLm1hZT4nLCAnLW9tYWUnLCAnPG91dGZpbGUubWFlPic=

> <r_lp_tautomer_probability>
1

> <r_epik_Ionization_Penalty>
1.3774

> <r_epik_Ionization_Penalty_Charging>
1.37739

> <r_epik_Ionization_Penalty_Neutral>
2.3993e-06

> <r_epik_State_Penalty>
1.45762

> <r_epik_Charging_Adjusted_Penalty>
2.83501

> <i_epik_Tot_Q>
1

> <i_epik_Tot_abs_Q>
1

> <r_epik_Metal_State_Penalty>
5.49752

> <b_epik_Metal_Only>
0

> <s_lp_Force_Field>
OPLS_2005

> <r_lp_Energy>
21.3932

> <b_lp_Chiralities_Consistent>
1

> <s_lp_Variant>
AV-unprocessed.smi:2195-3

> <Gold.Version>
5.8.1

> <Gold.Id.Protein>
6NUR|6NUR_protein|mol2

> <Gold.PLP.Fitness>
53.2161

> <Gold.PLP.PLP>
-45.7957

> <Gold.PLP.part.hbond>
-2.8796

> <Gold.PLP.part.metal>
0.0000

> <Gold.PLP.part.buried>
-4.3094

> <Gold.PLP.part.nonpolar>
-39.3229

> <Gold.PLP.part.repulsive>
0.1008

> <Gold.PLP.ligand.clash>
0.0000

> <Gold.PLP.ligand.torsion>
0.7800

> <Gold.PLP.Chemscore.Hbond>
2.9600

> <Gold.PLP.Chemscore.CHOScore>
0.0000

> <Gold.PLP.Chemscore.Metal>
0.0000

> <Gold.Chemscore.Hbonds>
donor molecule, donor type, donor heavy atom, donor atom, acceptor molecule, acceptor atom, score
      L1  H    13    40       P1  8028  1.15
      P1  H  7997  8010       L1     9  0.80

> <Gold.PLP.Chemscore.Internal.Correction>
0.1004

> <Gold.Rescore>
     Score         DG    S(hbond)    S(metal)    S(lipo)     H(rot)  DE(clash)    DE(int)     intcor
     19.44     -20.12       1.94        0.00     119.42       2.27       0.03       0.65       ----

> <Gold.Chemscore.Fitness>
19.4372

> <Gold.Chemscore.DG>
-20.1186

> <Gold.Chemscore.ZeroCoef>
-5.4800

> <Gold.Chemscore.Hbond>
1.9412

> <Gold.Chemscore.Metal>
0.0000

> <Gold.Chemscore.Lipo>
119.4199

> <Gold.Chemscore.Internal_Hbond>
0.0000

> <Gold.Chemscore.DEClash>
0.0275

> <Gold.Chemscore.DEInternal>
0.6540

> <Gold.Chemscore.Rot>
2.2723

> <Gold.Chemscore.Internal.Correction>
   9.000000E+99

> <Gold.Chemscore.Hbonds>
donor molecule, donor type, donor heavy atom, donor atom, acceptor molecule, acceptor atom, score
      L1  H    13    40       P1  8028  0.52
      P1  H  7997  8010       L1     9  0.39

> <Gold.Chemscore.Hbond.Weighted>
-6.4835

> <Gold.Chemscore.Metal.Weighted>
-0.0000

> <Gold.Chemscore.Lipo.Weighted>
-13.9721

> <Gold.Chemscore.Internal_Hbond.Weighted>
0.0000

> <Gold.Chemscore.DEClash.Weighted>
0.0275

> <Gold.Chemscore.DEInternal.Weighted>
0.6540

> <Gold.Chemscore.Rot.Weighted>
5.8170

> <Gold.Chemscore.Internal.Correction.Weighted>
   9.000000E+99

> <Gold.Protein.RotatedTorsions>
[ 6907 6896 6895 6894 ] final  -94.33 input  -60.11 | X-H torsion
[ 7974 7965 7964 7962 ] final   29.69 input  175.53 | X-H torsion
[ 8008 7997 7996 7995 ] final   84.88 input   59.86 | X-H torsion
[ 10167 10162 10161 10158 ] final   73.34 input  -65.29 | X-H torsion
[ 10718 10713 10712 10709 ] final  -69.74 input   66.30 | X-H torsion
[ 10763 10752 10751 10750 ] final   80.06 input  -60.55 | X-H torsion
[ 11005 11000 10999 10996 ] final   17.92 input  -57.11 | X-H torsion

> <Gold.Protein.ActiveResidues>
 VAL166  LYS551  ARG553  GLY616  TRP617  ASP618  TYR619  PRO620  LYS621  CYS622 
 ASP623  PHE694  ASN695  SER759  ASP760  ASP761  ALA762  ILE779  LEU786  VAL792 
 PHE793  MET794  SER795  GLU796  ALA797  LYS798  CYS799  TRP800  GLU811  SER814 

> <Gold.Protein.RotatedAtoms>
  150.6940  134.1828  159.4255 H   0  0  0  0  0  0  0  0  0  0  0  0  # atno 6907 bound_to 6896
  151.9802  135.0030  160.0566 H   0  0  0  0  0  0  0  0  0  0  0  0  # atno 6908 bound_to 6896
  152.1762  133.4641  159.4971 H   0  0  0  0  0  0  0  0  0  0  0  0  # atno 6909 bound_to 6896
  146.1656  139.6888  142.9003 H   0  0  0  0  0  0  0  0  0  0  0  0  # atno 7974 bound_to 7965
  155.9428  140.3407  155.6341 H   0  0  0  0  0  0  0  0  0  0  0  0  # atno 8008 bound_to 7997
  155.7018  140.0761  157.2425 H   0  0  0  0  0  0  0  0  0  0  0  0  # atno 8009 bound_to 7997
  154.4106  140.1638  156.2187 H   0  0  0  0  0  0  0  0  0  0  0  0  # atno 8010 bound_to 7997
  140.0255  144.5507  150.7548 H   0  0  0  0  0  0  0  0  0  0  0  0  # atno 10167 bound_to 10162
  156.0441  130.4318  150.2192 H   0  0  0  0  0  0  0  0  0  0  0  0  # atno 10718 bound_to 10713
  153.1003  135.4816  154.8854 H   0  0  0  0  0  0  0  0  0  0  0  0  # atno 10763 bound_to 10752
  154.7371  135.3073  154.8795 H   0  0  0  0  0  0  0  0  0  0  0  0  # atno 10764 bound_to 10752
  153.9413  135.6833  153.4797 H   0  0  0  0  0  0  0  0  0  0  0  0  # atno 10765 bound_to 10752
  140.4305  134.1425  155.7680 H   0  0  0  0  0  0  0  0  0  0  0  0  # atno 11005 bound_to 11000
  145.4475  141.0426  143.2823 LP  0  0  0  0  0  0  0  0  0  0  0  0  # atno 17320 bound_to 7965
  144.8088  139.6001  143.7039 LP  0  0  0  0  0  0  0  0  0  0  0  0  # atno 17321 bound_to 7965
  140.7324  143.2706  151.3902 LP  0  0  0  0  0  0  0  0  0  0  0  0  # atno 17342 bound_to 10162
  139.6111  144.1097  152.2299 LP  0  0  0  0  0  0  0  0  0  0  0  0  # atno 17343 bound_to 10162
  157.0284  131.0000  151.3319 LP  0  0  0  0  0  0  0  0  0  0  0  0  # atno 17370 bound_to 10713
  157.5295  130.8049  149.7900 LP  0  0  0  0  0  0  0  0  0  0  0  0  # atno 17371 bound_to 10713
  141.1747  133.8537  157.1458 LP  0  0  0  0  0  0  0  0  0  0  0  0  # atno 17394 bound_to 11000
  140.0137  134.9977  157.0449 LP  0  0  0  0  0  0  0  0  0  0  0  0  # atno 17395 bound_to 11000

$$$$
