AV-unprocessed.smi:234|AV-procd|sdf|1799|dock9
  -GOLD-   2262020373D 1   1.00000     0.00000
 Structure written by MMmdl.
 59 62  0  0  0  0  0  0  0  0  1 V2000
  146.7931  133.3944  152.0109 C   0  0  0  0  0  0  0  0  0  0  0  0
  146.6079  134.0922  153.3651 C   0  0  0  0  0  0  0  0  0  0  0  0
  147.6837  133.8207  154.2532 O   0  0  0  0  0  0  0  0  0  0  0  0
  147.7586  134.6790  155.3842 C   0  0  2  0  0  0  0  0  0  0  0  0
  148.1887  136.0900  154.9900 C   0  0  0  0  0  0  0  0  0  0  0  0
  148.9548  136.1143  156.3195 C   0  0  2  0  0  0  0  0  0  0  0  0
  150.2396  136.8179  156.2613 N   0  0  0  0  0  0  0  0  0  0  0  0
  151.2479  136.4947  157.2640 C   0  0  0  0  0  0  0  0  0  0  0  0
  150.2291  138.1427  155.9757 C   0  0  0  0  0  0  0  0  0  0  0  0
  149.6800  138.5108  154.7904 N   0  0  0  0  0  0  0  0  0  0  0  0
  149.6415  139.7988  154.4382 C   0  0  0  0  0  0  0  0  0  0  0  0
  150.0918  140.8607  155.1084 N   0  0  0  0  0  0  0  0  0  0  0  0
  150.6547  140.4970  156.2966 C   0  0  0  0  0  0  0  0  0  0  0  0
  150.7721  139.1707  156.8016 C   0  0  0  0  0  0  0  0  0  0  0  0
  151.4308  139.1937  158.0252 N   0  0  0  0  0  0  0  0  0  0  0  0
  151.6707  140.4581  158.2383 C   0  0  0  0  0  0  0  0  0  0  0  0
  151.2264  141.3156  157.2571 N   0  0  0  0  0  0  0  0  0  0  0  0
  151.3542  142.7678  157.2212 C   0  0  0  0  0  0  0  0  0  0  0  0
  151.1009  143.4642  158.5858 C   0  0  2  0  0  0  0  0  0  0  0  0
  149.7576  143.2172  158.9670 O   0  0  0  0  0  0  0  0  0  0  0  0
  151.3180  144.9673  158.5461 C   0  0  0  0  0  0  0  0  0  0  0  0
  151.5147  145.3317  160.0168 C   0  0  0  0  0  0  0  0  0  0  0  0
  151.9227  144.1358  160.6789 O   0  0  0  0  0  0  0  0  0  0  0  0
  152.0009  143.0424  159.7658 C   0  0  2  0  0  0  0  0  0  0  0  0
  153.4996  142.8872  159.4447 C   0  0  0  0  0  0  0  0  0  0  0  0
  149.0515  134.5630  156.2354 C   0  0  0  0  0  0  0  0  0  0  0  0
  148.8974  133.8086  157.5583 C   0  0  0  0  0  0  0  0  0  0  0  0
  150.2739  133.9704  155.5115 C   0  0  0  0  0  0  0  0  0  0  0  0
  145.9108  133.5308  151.3853 H   0  0  0  0  0  0  0  0  0  0  0  0
  146.9457  132.3229  152.1412 H   0  0  0  0  0  0  0  0  0  0  0  0
  147.6457  133.7918  151.4609 H   0  0  0  0  0  0  0  0  0  0  0  0
  146.4638  135.1644  153.2356 H   0  0  0  0  0  0  0  0  0  0  0  0
  145.6982  133.7149  153.8322 H   0  0  0  0  0  0  0  0  0  0  0  0
  146.8472  134.7038  155.9846 H   0  0  0  0  0  0  0  0  0  0  0  0
  148.8294  136.1166  154.1067 H   0  0  0  0  0  0  0  0  0  0  0  0
  147.3701  136.8060  154.9156 H   0  0  0  0  0  0  0  0  0  0  0  0
  148.3185  136.4326  157.1474 H   0  0  0  0  0  0  0  0  0  0  0  0
  151.2116  137.1986  158.0967 H   0  0  0  0  0  0  0  0  0  0  0  0
  152.2453  136.5330  156.8248 H   0  0  0  0  0  0  0  0  0  0  0  0
  151.1029  135.4949  157.6691 H   0  0  0  0  0  0  0  0  0  0  0  0
  149.1853  140.0084  153.4820 H   0  0  0  0  0  0  0  0  0  0  0  0
  152.1911  140.7891  159.1229 H   0  0  0  0  0  0  0  0  0  0  0  0
  152.3358  143.0233  156.8222 H   0  0  0  0  0  0  0  0  0  0  0  0
  150.6363  143.1415  156.4897 H   0  0  0  0  0  0  0  0  0  0  0  0
  149.7472  142.9666  159.8780 H   0  0  0  0  0  0  0  0  0  0  0  0
  152.2261  145.1998  157.9883 H   0  0  0  0  0  0  0  0  0  0  0  0
  150.4976  145.5134  158.0785 H   0  0  0  0  0  0  0  0  0  0  0  0
  152.2538  146.1231  160.1445 H   0  0  0  0  0  0  0  0  0  0  0  0
  150.5778  145.6712  160.4593 H   0  0  0  0  0  0  0  0  0  0  0  0
  151.6426  142.1269  160.2386 H   0  0  0  0  0  0  0  0  0  0  0  0
  153.6938  142.0594  158.7682 H   0  0  0  0  0  0  0  0  0  0  0  0
  154.0657  142.6935  160.3560 H   0  0  0  0  0  0  0  0  0  0  0  0
  153.9126  143.7883  158.9913 H   0  0  0  0  0  0  0  0  0  0  0  0
  149.7913  133.8839  158.1767 H   0  0  0  0  0  0  0  0  0  0  0  0
  148.7084  132.7476  157.3972 H   0  0  0  0  0  0  0  0  0  0  0  0
  148.0653  134.1975  158.1458 H   0  0  0  0  0  0  0  0  0  0  0  0
  151.1821  134.0691  156.1063 H   0  0  0  0  0  0  0  0  0  0  0  0
  150.4626  134.4593  154.5555 H   0  0  0  0  0  0  0  0  0  0  0  0
  150.1395  132.9085  155.3047 H   0  0  0  0  0  0  0  0  0  0  0  0
  1  2  1  0  0  0  0
  1 29  1  0  0  0  0
  1 30  1  0  0  0  0
  1 31  1  0  0  0  0
  2  3  1  0  0  0  0
  2 32  1  0  0  0  0
  2 33  1  0  0  0  0
  3  4  1  0  0  0  0
  4 26  1  0  0  0  0
  4  5  1  0  0  0  0
  4 34  1  0  0  0  0
  5  6  1  0  0  0  0
  5 35  1  0  0  0  0
  5 36  1  0  0  0  0
  6  7  1  0  0  0  0
  6 26  1  0  0  0  0
  6 37  1  0  0  0  0
  7  8  1  0  0  0  0
  7  9  1  0  0  0  0
  8 38  1  0  0  0  0
  8 39  1  0  0  0  0
  8 40  1  0  0  0  0
  9 14  1  0  0  0  0
  9 10  2  0  0  0  0
 10 11  1  0  0  0  0
 11 12  2  0  0  0  0
 11 41  1  0  0  0  0
 12 13  1  0  0  0  0
 13 17  1  0  0  0  0
 13 14  2  0  0  0  0
 14 15  1  0  0  0  0
 15 16  2  0  0  0  0
 16 17  1  0  0  0  0
 16 42  1  0  0  0  0
 17 18  1  0  0  0  0
 18 19  1  0  0  0  0
 18 43  1  0  0  0  0
 18 44  1  0  0  0  0
 19 24  1  0  0  0  0
 19 20  1  0  0  0  0
 19 21  1  0  0  0  0
 20 45  1  0  0  0  0
 21 22  1  0  0  0  0
 21 46  1  0  0  0  0
 21 47  1  0  0  0  0
 22 23  1  0  0  0  0
 22 48  1  0  0  0  0
 22 49  1  0  0  0  0
 23 24  1  0  0  0  0
 24 25  1  0  0  0  0
 24 50  1  0  0  0  0
 25 51  1  0  0  0  0
 25 52  1  0  0  0  0
 25 53  1  0  0  0  0
 26 27  1  0  0  0  0
 26 28  1  0  0  0  0
 27 54  1  0  0  0  0
 27 55  1  0  0  0  0
 27 56  1  0  0  0  0
 28 57  1  0  0  0  0
 28 58  1  0  0  0  0
 28 59  1  0  0  0  0
M  END
> <s_m_source_file>
AV-unprocessed.smi

> <i_m_source_file_index>
234

> <i_lp_mmshare_version>
43012

> <i_f3d_flags>
0

> <s_epik_input>
W0NIM11bQ0gyXU9bQ0BASF0oQzEoW0NIM10pW0NIM10pW0NIMl1bQ0BIXTFOKFtDSDNdKWMobltjSF1uMiljKGMyMyluW2NIXW4zW0NIMl1bQ0BAXTQoW09IXSlbQ0gyXVtDSDJdT1tDQEhdNFtDSDNd

> <s_epik_cmdline>
J2VwaWtfcHl0aG9uJywgJy1waCcsICc3LjAnLCAnLXRuJywgJzgnLCAnLW1hJywgJzIwMCcsICctbWV0YWxfYmluZGluZycsICctaW1hZScsICc8aW5maWxlLm1hZT4nLCAnLW9tYWUnLCAnPG91dGZpbGUubWFlPic=

> <r_lp_tautomer_probability>
1

> <r_epik_Ionization_Penalty>
0.00349132

> <r_epik_Ionization_Penalty_Charging>
0

> <r_epik_Ionization_Penalty_Neutral>
0.00349132

> <r_epik_State_Penalty>
0.00242418

> <r_epik_Charging_Adjusted_Penalty>
0.00242418

> <i_epik_Tot_Q>
0

> <i_epik_Tot_abs_Q>
0

> <r_epik_Metal_State_Penalty>
-0

> <b_epik_Metal_Only>
0

> <s_lp_Force_Field>
OPLS_2005

> <r_lp_Energy>
51.2497

> <b_lp_Chiralities_Consistent>
1

> <s_lp_Variant>
AV-unprocessed.smi:234-15

> <Gold.Version>
5.8.1

> <Gold.Id.Protein>
6NUR|6NUR_protein|mol2

> <Gold.PLP.Fitness>
43.0317

> <Gold.PLP.PLP>
-40.6507

> <Gold.PLP.part.hbond>
-1.3181

> <Gold.PLP.part.metal>
0.0000

> <Gold.PLP.part.buried>
-6.3753

> <Gold.PLP.part.nonpolar>
-32.9732

> <Gold.PLP.part.repulsive>
0.4922

> <Gold.PLP.ligand.clash>
0.0000

> <Gold.PLP.ligand.torsion>
0.8627

> <Gold.PLP.Chemscore.Hbond>
0.0211

> <Gold.PLP.Chemscore.CHOScore>
1.0000

> <Gold.PLP.Chemscore.Metal>
0.0000

> <Gold.Chemscore.Hbonds>
donor molecule, donor type, donor heavy atom, donor atom, acceptor molecule, acceptor atom, score
      P1  H  7989  7998       L1    12  0.06
      L1  C    11    41       P1  7957  1.00

> <Gold.PLP.Chemscore.Internal.Correction>
1.0432

> <Gold.Rescore>
     Score         DG    S(hbond)    S(metal)    S(lipo)     H(rot)  DE(clash)    DE(int)     intcor
      7.44     -11.14       0.00        0.00     105.73       2.62       0.08       3.62       ----

> <Gold.Chemscore.Fitness>
7.4353

> <Gold.Chemscore.DG>
-11.1388

> <Gold.Chemscore.ZeroCoef>
-5.4800

> <Gold.Chemscore.Hbond>
0.0000

> <Gold.Chemscore.Metal>
0.0000

> <Gold.Chemscore.Lipo>
105.7338

> <Gold.Chemscore.Internal_Hbond>
0.0000

> <Gold.Chemscore.DEClash>
0.0842

> <Gold.Chemscore.DEInternal>
3.6193

> <Gold.Chemscore.Rot>
2.6219

> <Gold.Chemscore.Internal.Correction>
   9.000000E+99

> <Gold.Chemscore.Hbond.Weighted>
-0.0000

> <Gold.Chemscore.Metal.Weighted>
-0.0000

> <Gold.Chemscore.Lipo.Weighted>
-12.3709

> <Gold.Chemscore.Internal_Hbond.Weighted>
0.0000

> <Gold.Chemscore.DEClash.Weighted>
0.0842

> <Gold.Chemscore.DEInternal.Weighted>
3.6193

> <Gold.Chemscore.Rot.Weighted>
6.7121

> <Gold.Chemscore.Internal.Correction.Weighted>
   9.000000E+99

> <Gold.Protein.RotatedTorsions>
[ 6907 6896 6895 6894 ] final -104.03 input  -60.11 | X-H torsion
[ 7974 7965 7964 7962 ] final   61.64 input  175.53 | X-H torsion
[ 8008 7997 7996 7995 ] final  137.59 input   59.86 | X-H torsion
[ 10167 10162 10161 10158 ] final  167.96 input  -65.29 | X-H torsion
[ 10718 10713 10712 10709 ] final  -68.69 input   66.30 | X-H torsion
[ 10763 10752 10751 10750 ] final  145.26 input  -60.55 | X-H torsion
[ 11005 11000 10999 10996 ] final   81.69 input  -57.11 | X-H torsion

> <Gold.Protein.ActiveResidues>
 VAL166  LYS551  ARG553  GLY616  TRP617  ASP618  TYR619  PRO620  LYS621  CYS622 
 ASP623  PHE694  ASN695  SER759  ASP760  ASP761  ALA762  ILE779  LEU786  VAL792 
 PHE793  MET794  SER795  GLU796  ALA797  LYS798  CYS799  TRP800  GLU811  SER814 

> <Gold.Protein.RotatedAtoms>
  150.7268  134.0339  159.3742 H   0  0  0  0  0  0  0  0  0  0  0  0  # atno 6907 bound_to 6896
  151.8310  135.0619  160.0446 H   0  0  0  0  0  0  0  0  0  0  0  0  # atno 6908 bound_to 6896
  152.2934  133.5547  159.5608 H   0  0  0  0  0  0  0  0  0  0  0  0  # atno 6909 bound_to 6896
  145.8825  139.3453  143.0698 H   0  0  0  0  0  0  0  0  0  0  0  0  # atno 7974 bound_to 7965
  156.3001  140.2415  156.3934 H   0  0  0  0  0  0  0  0  0  0  0  0  # atno 8008 bound_to 7997
  154.8593  140.0420  157.1674 H   0  0  0  0  0  0  0  0  0  0  0  0  # atno 8009 bound_to 7997
  154.8914  140.2964  155.5372 H   0  0  0  0  0  0  0  0  0  0  0  0  # atno 8010 bound_to 7997
  139.4957  144.3866  151.9563 H   0  0  0  0  0  0  0  0  0  0  0  0  # atno 10167 bound_to 10162
  156.0492  130.4299  150.2038 H   0  0  0  0  0  0  0  0  0  0  0  0  # atno 10718 bound_to 10713
  154.0024  135.2922  155.3401 H   0  0  0  0  0  0  0  0  0  0  0  0  # atno 10763 bound_to 10752
  154.7151  135.5133  153.8729 H   0  0  0  0  0  0  0  0  0  0  0  0  # atno 10764 bound_to 10752
  153.0760  135.6663  154.0265 H   0  0  0  0  0  0  0  0  0  0  0  0  # atno 10765 bound_to 10752
  139.9089  134.8015  156.2074 H   0  0  0  0  0  0  0  0  0  0  0  0  # atno 11005 bound_to 11000
  145.9007  140.9245  143.0504 LP  0  0  0  0  0  0  0  0  0  0  0  0  # atno 17320 bound_to 7965
  144.6727  140.1028  143.7459 LP  0  0  0  0  0  0  0  0  0  0  0  0  # atno 17321 bound_to 7965
  140.3303  144.3324  150.5989 LP  0  0  0  0  0  0  0  0  0  0  0  0  # atno 17342 bound_to 10162
  140.5650  143.2187  151.7699 LP  0  0  0  0  0  0  0  0  0  0  0  0  # atno 17343 bound_to 10162
  157.0123  130.9954  151.3362 LP  0  0  0  0  0  0  0  0  0  0  0  0  # atno 17370 bound_to 10713
  157.5401  130.8114  149.8019 LP  0  0  0  0  0  0  0  0  0  0  0  0  # atno 17371 bound_to 10713
  141.0486  133.6900  156.1730 LP  0  0  0  0  0  0  0  0  0  0  0  0  # atno 17394 bound_to 11000
  140.6845  134.4732  157.5589 LP  0  0  0  0  0  0  0  0  0  0  0  0  # atno 17395 bound_to 11000

$$$$
