AV-unprocessed.smi:3281|AV-procd|sdf|12556|dock8
  -GOLD-   2272018473D 1   1.00000     0.00000
 Structure written by MMmdl.
 37 38  0  0  0  0  0  0  0  0  2 V2000
  155.4177  141.3379  161.2453 C   0  0  0  0  0  0  0  0  0  0  0  0
  154.5279  142.3697  161.9462 C   0  0  0  0  0  0  0  0  0  0  0  0
  153.5335  143.0069  161.0326 C   0  0  0  0  0  0  0  0  0  0  0  0
  152.6517  144.0172  161.3277 C   0  0  0  0  0  0  0  0  0  0  0  0
  151.8497  144.3997  160.2498 N   0  0  0  0  0  0  0  0  0  0  0  0
  152.0978  143.6838  159.1510 C   0  0  0  0  0  0  0  0  0  0  0  0
  151.4080  143.9111  157.8481 C   0  0  0  0  0  0  0  0  0  0  0  0
  151.1214  142.6006  157.1046 C   0  0  0  0  0  0  0  0  0  0  0  0
  149.7080  142.5336  156.6777 N   0  3  0  0  0  0  0  0  0  0  0  0
  149.4364  141.6612  155.5130 C   0  0  2  0  0  0  0  0  0  0  0  0
  147.9207  141.4145  155.3409 C   0  0  0  0  0  0  0  0  0  0  0  0
  147.5912  140.5482  154.1135 C   0  0  0  0  0  0  0  0  0  0  0  0
  148.2304  139.1552  154.1858 C   0  0  0  0  0  0  0  0  0  0  0  0
  150.0383  139.2714  154.2281 S   0  0  0  0  0  0  0  0  0  0  0  0
  150.2015  140.3366  155.6863 C   0  0  0  0  0  0  0  0  0  0  0  0
  153.3766  142.4960  159.3713 S   0  0  0  0  0  0  0  0  0  0  0  0
  156.1259  140.8960  161.9465 H   0  0  0  0  0  0  0  0  0  0  0  0
  155.9908  141.7936  160.4373 H   0  0  0  0  0  0  0  0  0  0  0  0
  154.8217  140.5300  160.8199 H   0  0  0  0  0  0  0  0  0  0  0  0
  154.0065  141.8901  162.7753 H   0  0  0  0  0  0  0  0  0  0  0  0
  155.1547  143.1425  162.3921 H   0  0  0  0  0  0  0  0  0  0  0  0
  152.5307  144.5227  162.2746 H   0  0  0  0  0  0  0  0  0  0  0  0
  150.4779  144.4482  158.0381 H   0  0  0  0  0  0  0  0  0  0  0  0
  152.0277  144.5659  157.2335 H   0  0  0  0  0  0  0  0  0  0  0  0
  151.7755  142.5236  156.2361 H   0  0  0  0  0  0  0  0  0  0  0  0
  151.3435  141.7523  157.7536 H   0  0  0  0  0  0  0  0  0  0  0  0
  149.1797  142.1695  157.4579 H   0  0  0  0  0  0  0  0  0  0  0  0
  149.8233  142.1588  154.6220 H   0  0  0  0  0  0  0  0  0  0  0  0
  147.5181  140.9423  156.2382 H   0  0  0  0  0  0  0  0  0  0  0  0
  147.3940  142.3624  155.2346 H   0  0  0  0  0  0  0  0  0  0  0  0
  146.5093  140.4409  154.0303 H   0  0  0  0  0  0  0  0  0  0  0  0
  147.9172  141.0557  153.2046 H   0  0  0  0  0  0  0  0  0  0  0  0
  147.8855  138.6223  155.0726 H   0  0  0  0  0  0  0  0  0  0  0  0
  147.9384  138.5596  153.3206 H   0  0  0  0  0  0  0  0  0  0  0  0
  151.2630  140.5287  155.8465 H   0  0  0  0  0  0  0  0  0  0  0  0
  149.8400  139.7945  156.5611 H   0  0  0  0  0  0  0  0  0  0  0  0
  149.3753  143.4653  156.4742 H   0  0  0  0  0  0  0  0  0  0  0  0
  1  2  1  0  0  0  0
  1 17  1  0  0  0  0
  1 18  1  0  0  0  0
  1 19  1  0  0  0  0
  2  3  1  0  0  0  0
  2 20  1  0  0  0  0
  2 21  1  0  0  0  0
  3 16  1  0  0  0  0
  3  4  2  0  0  0  0
  4  5  1  0  0  0  0
  4 22  1  0  0  0  0
  5  6  2  0  0  0  0
  6  7  1  0  0  0  0
  6 16  1  0  0  0  0
  7  8  1  0  0  0  0
  7 23  1  0  0  0  0
  7 24  1  0  0  0  0
  8  9  1  0  0  0  0
  8 25  1  0  0  0  0
  8 26  1  0  0  0  0
  9 10  1  0  0  0  0
  9 27  1  0  0  0  0
  9 37  1  0  0  0  0
 10 15  1  0  0  0  0
 10 11  1  0  0  0  0
 10 28  1  0  0  0  0
 11 12  1  0  0  0  0
 11 29  1  0  0  0  0
 11 30  1  0  0  0  0
 12 13  1  0  0  0  0
 12 31  1  0  0  0  0
 12 32  1  0  0  0  0
 13 14  1  0  0  0  0
 13 33  1  0  0  0  0
 13 34  1  0  0  0  0
 14 15  1  0  0  0  0
 15 35  1  0  0  0  0
 15 36  1  0  0  0  0
M  CHG  1   9   1
M  END
> <s_m_source_file>
AV-unprocessed.smi

> <i_m_source_file_index>
3281

> <i_lp_mmshare_version>
43012

> <i_f3d_flags>
0

> <s_epik_input>
W0NIM11bQ0gyXWMxW2NIXW5jKHMxKVtDSDJdW0NIMl1bTkhdW0NAQEhdMltDSDJdW0NIMl1bQ0gyXVNbQ0gyXTI=

> <s_epik_cmdline>
J2VwaWtfcHl0aG9uJywgJy1waCcsICc3LjAnLCAnLXRuJywgJzgnLCAnLW1hJywgJzIwMCcsICctbWV0YWxfYmluZGluZycsICctaW1hZScsICc8aW5maWxlLm1hZT4nLCAnLW9tYWUnLCAnPG91dGZpbGUubWFlPic=

> <r_epik_Ionization_Penalty>
0.00827702

> <r_epik_Ionization_Penalty_Charging>
0.00826679

> <r_epik_Ionization_Penalty_Neutral>
1.02314e-05

> <r_epik_State_Penalty>
0.00622064

> <r_epik_Charging_Adjusted_Penalty>
0.0144874

> <i_epik_Tot_Q>
1

> <i_epik_Tot_abs_Q>
1

> <r_epik_Metal_State_Penalty>
0.0062521

> <b_epik_Metal_Only>
0

> <s_lp_Force_Field>
OPLS_2005

> <r_lp_Energy>
-1.10641

> <b_lp_Chiralities_Consistent>
1

> <s_lp_Variant>
AV-unprocessed.smi:3281-1

> <Gold.Version>
5.8.1

> <Gold.Id.Protein>
6NUR|6NUR_protein|mol2

> <Gold.PLP.Fitness>
47.2179

> <Gold.PLP.PLP>
-42.9936

> <Gold.PLP.part.hbond>
-0.8613

> <Gold.PLP.part.metal>
0.0000

> <Gold.PLP.part.buried>
-1.6873

> <Gold.PLP.part.nonpolar>
-40.5657

> <Gold.PLP.part.repulsive>
0.1625

> <Gold.PLP.ligand.clash>
0.0000

> <Gold.PLP.ligand.torsion>
0.9004

> <Gold.PLP.Chemscore.Hbond>
2.0000

> <Gold.PLP.Chemscore.CHOScore>
0.0000

> <Gold.PLP.Chemscore.Metal>
0.0000

> <Gold.Chemscore.Hbonds>
donor molecule, donor type, donor heavy atom, donor atom, acceptor molecule, acceptor atom, score
      L1  H     9    37       P1  8028  2.00

> <Gold.PLP.Chemscore.Internal.Correction>
0.0252

> <Gold.Rescore>
     Score         DG    S(hbond)    S(metal)    S(lipo)     H(rot)  DE(clash)    DE(int)     intcor
     18.17     -18.79       0.98        0.00     115.87       1.38       0.03       0.59       ----

> <Gold.Chemscore.Fitness>
18.1733

> <Gold.Chemscore.DG>
-18.7863

> <Gold.Chemscore.ZeroCoef>
-5.4800

> <Gold.Chemscore.Hbond>
0.9801

> <Gold.Chemscore.Metal>
0.0000

> <Gold.Chemscore.Lipo>
115.8719

> <Gold.Chemscore.Internal_Hbond>
0.0000

> <Gold.Chemscore.DEClash>
0.0256

> <Gold.Chemscore.DEInternal>
0.5875

> <Gold.Chemscore.Rot>
1.3767

> <Gold.Chemscore.Internal.Correction>
   9.000000E+99

> <Gold.Chemscore.Hbonds>
donor molecule, donor type, donor heavy atom, donor atom, acceptor molecule, acceptor atom, score
      L1  H     9    37       P1  8028  0.96

> <Gold.Chemscore.Hbond.Weighted>
-3.2737

> <Gold.Chemscore.Metal.Weighted>
-0.0000

> <Gold.Chemscore.Lipo.Weighted>
-13.5570

> <Gold.Chemscore.Internal_Hbond.Weighted>
0.0000

> <Gold.Chemscore.DEClash.Weighted>
0.0256

> <Gold.Chemscore.DEInternal.Weighted>
0.5875

> <Gold.Chemscore.Rot.Weighted>
3.5243

> <Gold.Chemscore.Internal.Correction.Weighted>
   9.000000E+99

> <Gold.Protein.RotatedTorsions>
[ 6907 6896 6895 6894 ] final  167.57 input  -60.11 | X-H torsion
[ 7974 7965 7964 7962 ] final  -83.59 input  175.53 | X-H torsion
[ 8008 7997 7996 7995 ] final   73.40 input   59.86 | X-H torsion
[ 10167 10162 10161 10158 ] final   87.48 input  -65.29 | X-H torsion
[ 10718 10713 10712 10709 ] final  139.95 input   66.30 | X-H torsion
[ 10763 10752 10751 10750 ] final -105.05 input  -60.55 | X-H torsion
[ 11005 11000 10999 10996 ] final  -66.29 input  -57.11 | X-H torsion

> <Gold.Protein.ActiveResidues>
 VAL166  LYS551  ARG553  GLY616  TRP617  ASP618  TYR619  PRO620  LYS621  CYS622 
 ASP623  PHE694  ASN695  SER759  ASP760  ASP761  ALA762  ILE779  LEU786  VAL792 
 PHE793  MET794  SER795  GLU796  ALA797  LYS798  CYS799  TRP800  GLU811  SER814 

> <Gold.Protein.RotatedAtoms>
  151.8613  133.3457  159.3704 H   0  0  0  0  0  0  0  0  0  0  0  0  # atno 6907 bound_to 6896
  150.7178  134.5204  159.5660 H   0  0  0  0  0  0  0  0  0  0  0  0  # atno 6908 bound_to 6896
  152.2718  134.7925  160.0464 H   0  0  0  0  0  0  0  0  0  0  0  0  # atno 6909 bound_to 6896
  145.5180  140.9534  143.1671 H   0  0  0  0  0  0  0  0  0  0  0  0  # atno 7974 bound_to 7965
  155.7831  140.3481  155.5308 H   0  0  0  0  0  0  0  0  0  0  0  0  # atno 8008 bound_to 7997
  155.8709  140.0986  157.1571 H   0  0  0  0  0  0  0  0  0  0  0  0  # atno 8009 bound_to 7997
  154.4017  140.1340  156.4064 H   0  0  0  0  0  0  0  0  0  0  0  0  # atno 8010 bound_to 7997
  139.8769  144.6462  150.8886 H   0  0  0  0  0  0  0  0  0  0  0  0  # atno 10167 bound_to 10162
  157.4087  131.1025  151.0477 H   0  0  0  0  0  0  0  0  0  0  0  0  # atno 10718 bound_to 10713
  154.7920  135.4763  154.0075 H   0  0  0  0  0  0  0  0  0  0  0  0  # atno 10763 bound_to 10752
  153.1646  135.6814  153.8701 H   0  0  0  0  0  0  0  0  0  0  0  0  # atno 10764 bound_to 10752
  153.8304  135.3192  155.3396 H   0  0  0  0  0  0  0  0  0  0  0  0  # atno 10765 bound_to 10752
  141.1478  133.6697  156.6117 H   0  0  0  0  0  0  0  0  0  0  0  0  # atno 11005 bound_to 11000
  144.7691  139.6775  143.7202 LP  0  0  0  0  0  0  0  0  0  0  0  0  # atno 17320 bound_to 7965
  146.2124  139.5490  142.9672 LP  0  0  0  0  0  0  0  0  0  0  0  0  # atno 17321 bound_to 7965
  140.7751  143.3617  151.1815 LP  0  0  0  0  0  0  0  0  0  0  0  0  # atno 17342 bound_to 10162
  139.7232  143.9191  152.2993 LP  0  0  0  0  0  0  0  0  0  0  0  0  # atno 17343 bound_to 10162
  157.1450  130.6159  149.5566 LP  0  0  0  0  0  0  0  0  0  0  0  0  # atno 17370 bound_to 10713
  155.9844  130.4868  150.6981 LP  0  0  0  0  0  0  0  0  0  0  0  0  # atno 17371 bound_to 10713
  140.3609  134.7688  157.4533 LP  0  0  0  0  0  0  0  0  0  0  0  0  # atno 17394 bound_to 11000
  140.0786  134.5763  155.8565 LP  0  0  0  0  0  0  0  0  0  0  0  0  # atno 17395 bound_to 11000

$$$$
