AV-unprocessed.smi:1209|AV-procd|sdf|5076|dock9
  -GOLD-   22720 4123D 1   1.00000     0.00000
 Structure written by MMmdl.
 49 51  0  0  0  0  0  0  0  0  2 V2000
  147.8750  135.6529  161.1677 C   0  0  0  0  0  0  0  0  0  0  0  0
  148.1187  136.1311  159.7775 C   0  0  0  0  0  0  0  0  0  0  0  0
  147.3910  136.9011  158.9153 C   0  0  0  0  0  0  0  0  0  0  0  0
  148.2074  136.9661  157.7526 C   0  0  0  0  0  0  0  0  0  0  0  0
  147.9402  137.6850  156.4587 C   0  0  0  0  0  0  0  0  0  0  0  0
  148.7630  138.9147  156.3255 N   0  3  2  0  0  0  0  0  0  0  0  0
  148.6364  139.8166  157.4980 C   0  0  0  0  0  0  0  0  0  0  0  0
  148.5211  139.6132  155.0364 C   0  0  0  0  0  0  0  0  0  0  0  0
  149.7228  140.4762  154.5900 C   0  0  1  0  0  0  0  0  0  0  0  0
  149.4337  141.0421  153.3278 O   0  0  0  0  0  0  0  0  0  0  0  0
  150.0469  141.6315  155.5577 C   0  0  0  0  0  0  0  0  0  0  0  0
  151.0218  141.2560  156.5650 N   0  0  0  0  0  0  0  0  0  0  0  0
  151.8254  140.1751  156.5516 C   0  0  0  0  0  0  0  0  0  0  0  0
  152.6400  140.0103  157.5897 N   0  0  0  0  0  0  0  0  0  0  0  0
  152.3345  141.1163  158.3643 C   0  0  0  0  0  0  0  0  0  0  0  0
  152.8482  141.5342  159.6113 C   0  0  0  0  0  0  0  0  0  0  0  0
  152.3755  142.7126  160.2319 C   0  0  0  0  0  0  0  0  0  0  0  0
  152.9569  143.1256  161.5727 C   0  0  0  0  0  0  0  0  0  0  0  0
  151.3727  143.4934  159.6035 C   0  0  0  0  0  0  0  0  0  0  0  0
  150.8455  144.7606  160.2531 C   0  0  0  0  0  0  0  0  0  0  0  0
  150.8511  143.0923  158.3563 C   0  0  0  0  0  0  0  0  0  0  0  0
  151.3285  141.9174  157.7495 C   0  0  0  0  0  0  0  0  0  0  0  0
  149.3364  136.2944  157.9072 N   0  0  0  0  0  0  0  0  0  0  0  0
  149.2878  135.7561  159.1979 O   0  0  0  0  0  0  0  0  0  0  0  0
  146.9130  136.0068  161.5391 H   0  0  0  0  0  0  0  0  0  0  0  0
  148.6514  136.0135  161.8427 H   0  0  0  0  0  0  0  0  0  0  0  0
  147.8715  134.5635  161.2064 H   0  0  0  0  0  0  0  0  0  0  0  0
  146.4235  137.3481  159.0896 H   0  0  0  0  0  0  0  0  0  0  0  0
  148.1567  137.0054  155.6331 H   0  0  0  0  0  0  0  0  0  0  0  0
  146.8835  137.9420  156.3721 H   0  0  0  0  0  0  0  0  0  0  0  0
  147.6120  140.1765  157.6037 H   0  0  0  0  0  0  0  0  0  0  0  0
  149.2903  140.6828  157.4105 H   0  0  0  0  0  0  0  0  0  0  0  0
  148.9128  139.3082  158.4216 H   0  0  0  0  0  0  0  0  0  0  0  0
  148.3137  138.8898  154.2467 H   0  0  0  0  0  0  0  0  0  0  0  0
  147.6175  140.2148  155.1383 H   0  0  0  0  0  0  0  0  0  0  0  0
  150.6152  139.8602  154.4845 H   0  0  0  0  0  0  0  0  0  0  0  0
  149.5042  140.3684  152.6682 H   0  0  0  0  0  0  0  0  0  0  0  0
  150.4382  142.4881  155.0069 H   0  0  0  0  0  0  0  0  0  0  0  0
  149.1426  141.9744  156.0623 H   0  0  0  0  0  0  0  0  0  0  0  0
  151.8061  139.4658  155.7369 H   0  0  0  0  0  0  0  0  0  0  0  0
  153.6117  140.9389  160.0903 H   0  0  0  0  0  0  0  0  0  0  0  0
  153.4574  144.0905  161.4894 H   0  0  0  0  0  0  0  0  0  0  0  0
  153.6872  142.3996  161.9317 H   0  0  0  0  0  0  0  0  0  0  0  0
  152.1707  143.2066  162.3235 H   0  0  0  0  0  0  0  0  0  0  0  0
  150.0840  145.2372  159.6351 H   0  0  0  0  0  0  0  0  0  0  0  0
  151.6526  145.4781  160.4024 H   0  0  0  0  0  0  0  0  0  0  0  0
  150.3973  144.5356  161.2209 H   0  0  0  0  0  0  0  0  0  0  0  0
  150.0873  143.6787  157.8678 H   0  0  0  0  0  0  0  0  0  0  0  0
  149.7229  138.6000  156.2950 H   0  0  0  0  0  0  0  0  0  0  0  0
  1  2  1  0  0  0  0
  1 25  1  0  0  0  0
  1 26  1  0  0  0  0
  1 27  1  0  0  0  0
  2 24  1  0  0  0  0
  2  3  2  0  0  0  0
  3  4  1  0  0  0  0
  3 28  1  0  0  0  0
  4  5  1  0  0  0  0
  4 23  2  0  0  0  0
  5  6  1  0  0  0  0
  5 29  1  0  0  0  0
  5 30  1  0  0  0  0
  6  7  1  0  0  0  0
  6  8  1  0  0  0  0
  6 49  1  0  0  0  0
  7 31  1  0  0  0  0
  7 32  1  0  0  0  0
  7 33  1  0  0  0  0
  8  9  1  0  0  0  0
  8 34  1  0  0  0  0
  8 35  1  0  0  0  0
  9 10  1  0  0  0  0
  9 11  1  0  0  0  0
  9 36  1  0  0  0  0
 10 37  1  0  0  0  0
 11 12  1  0  0  0  0
 11 38  1  0  0  0  0
 11 39  1  0  0  0  0
 12 22  1  0  0  0  0
 12 13  1  0  0  0  0
 13 14  2  0  0  0  0
 13 40  1  0  0  0  0
 14 15  1  0  0  0  0
 15 22  2  0  0  0  0
 15 16  1  0  0  0  0
 16 17  2  0  0  0  0
 16 41  1  0  0  0  0
 17 18  1  0  0  0  0
 17 19  1  0  0  0  0
 18 42  1  0  0  0  0
 18 43  1  0  0  0  0
 18 44  1  0  0  0  0
 19 20  1  0  0  0  0
 19 21  2  0  0  0  0
 20 45  1  0  0  0  0
 20 46  1  0  0  0  0
 20 47  1  0  0  0  0
 21 22  1  0  0  0  0
 21 48  1  0  0  0  0
 23 24  1  0  0  0  0
M  CHG  1   6   1
M  END
> <s_m_source_file>
AV-unprocessed.smi

> <i_m_source_file_index>
1209

> <i_lp_mmshare_version>
43012

> <i_f3d_flags>
0

> <s_epik_input>
W0NIM11jMVtjSF1jKG5vMSlbQ0gyXU4oW0NIM10pW0NIMl1bQ0BIXShbT0hdKVtDSDJdbihbY0hdbjIpYyhjMjMpW2NIXWMoW0NIM10pYyhbY0hdMylbQ0gzXQ==

> <s_epik_cmdline>
J2VwaWtfcHl0aG9uJywgJy1waCcsICc3LjAnLCAnLXRuJywgJzgnLCAnLW1hJywgJzIwMCcsICctbWV0YWxfYmluZGluZycsICctaW1hZScsICc8aW5maWxlLm1hZT4nLCAnLW9tYWUnLCAnPG91dGZpbGUubWFlPic=

> <r_epik_Ionization_Penalty>
2.05249

> <r_epik_Ionization_Penalty_Charging>
1.96618

> <r_epik_Ionization_Penalty_Neutral>
0.0863156

> <r_epik_State_Penalty>
2.19215

> <r_epik_Charging_Adjusted_Penalty>
4.15833

> <i_epik_Tot_Q>
1

> <i_epik_Tot_abs_Q>
1

> <r_epik_Metal_State_Penalty>
2.17654

> <b_epik_Metal_Only>
0

> <s_lp_Force_Field>
OPLS_2005

> <r_lp_Energy>
8.03996

> <b_lp_Chiralities_Consistent>
1

> <s_lp_Variant>
AV-unprocessed.smi:1209-8

> <Gold.Version>
5.8.1

> <Gold.Id.Protein>
6NUR|6NUR_protein|mol2

> <Gold.PLP.Fitness>
52.9889

> <Gold.PLP.PLP>
-43.2518

> <Gold.PLP.part.hbond>
-4.5013

> <Gold.PLP.part.metal>
0.0000

> <Gold.PLP.part.buried>
-5.6129

> <Gold.PLP.part.nonpolar>
-32.2204

> <Gold.PLP.part.repulsive>
0.0018

> <Gold.PLP.ligand.clash>
0.0000

> <Gold.PLP.ligand.torsion>
0.9967

> <Gold.PLP.Chemscore.Hbond>
3.8800

> <Gold.PLP.Chemscore.CHOScore>
0.0000

> <Gold.PLP.Chemscore.Metal>
0.0000

> <Gold.Chemscore.Hbonds>
donor molecule, donor type, donor heavy atom, donor atom, acceptor molecule, acceptor atom, score
      L1  H    10    37       P1  7957  0.93
      P1  H  6896  6908       L1    24  1.00
      P1  H  7997  8010       L1    14  1.00
      P1  H  8011  8017       L1    10  0.90

> <Gold.PLP.Chemscore.Internal.Correction>
0.0906

> <Gold.Rescore>
     Score         DG    S(hbond)    S(metal)    S(lipo)     H(rot)  DE(clash)    DE(int)     intcor
     20.26     -21.47       2.96        0.00     107.70       2.53       0.04       1.18       ----

> <Gold.Chemscore.Fitness>
20.2572

> <Gold.Chemscore.DG>
-21.4726

> <Gold.Chemscore.ZeroCoef>
-5.4800

> <Gold.Chemscore.Hbond>
2.9572

> <Gold.Chemscore.Metal>
0.0000

> <Gold.Chemscore.Lipo>
107.6981

> <Gold.Chemscore.Internal_Hbond>
0.0000

> <Gold.Chemscore.DEClash>
0.0388

> <Gold.Chemscore.DEInternal>
1.1766

> <Gold.Chemscore.Rot>
2.5332

> <Gold.Chemscore.Internal.Correction>
   9.000000E+99

> <Gold.Chemscore.Hbonds>
donor molecule, donor type, donor heavy atom, donor atom, acceptor molecule, acceptor atom, score
      L1  H    10    37       P1  7957  0.85
      P1  H  6896  6908       L1    24  0.85
      P1  H  7997  8010       L1    14  0.22
      P1  H  8011  8017       L1    10  0.18

> <Gold.Chemscore.Hbond.Weighted>
-9.8770

> <Gold.Chemscore.Metal.Weighted>
-0.0000

> <Gold.Chemscore.Lipo.Weighted>
-12.6007

> <Gold.Chemscore.Internal_Hbond.Weighted>
0.0000

> <Gold.Chemscore.DEClash.Weighted>
0.0388

> <Gold.Chemscore.DEInternal.Weighted>
1.1766

> <Gold.Chemscore.Rot.Weighted>
6.4851

> <Gold.Chemscore.Internal.Correction.Weighted>
   9.000000E+99

> <Gold.Protein.RotatedTorsions>
[ 6907 6896 6895 6894 ] final  164.42 input  -60.11 | X-H torsion
[ 7974 7965 7964 7962 ] final  148.59 input  175.53 | X-H torsion
[ 8008 7997 7996 7995 ] final   59.69 input   59.86 | X-H torsion
[ 10167 10162 10161 10158 ] final  174.51 input  -65.29 | X-H torsion
[ 10718 10713 10712 10709 ] final   36.27 input   66.30 | X-H torsion
[ 10763 10752 10751 10750 ] final -177.93 input  -60.55 | X-H torsion
[ 11005 11000 10999 10996 ] final  -10.95 input  -57.11 | X-H torsion

> <Gold.Protein.ActiveResidues>
 VAL166  LYS551  ARG553  GLY616  TRP617  ASP618  TYR619  PRO620  LYS621  CYS622 
 ASP623  PHE694  ASN695  SER759  ASP760  ASP761  ALA762  ILE779  LEU786  VAL792 
 PHE793  MET794  SER795  GLU796  ALA797  LYS798  CYS799  TRP800  GLU811  SER814 

> <Gold.Protein.RotatedAtoms>
  151.9102  133.3559  159.3860 H   0  0  0  0  0  0  0  0  0  0  0  0  # atno 6907 bound_to 6896
  150.7060  134.4740  159.5448 H   0  0  0  0  0  0  0  0  0  0  0  0  # atno 6908 bound_to 6896
  152.2345  134.8290  160.0520 H   0  0  0  0  0  0  0  0  0  0  0  0  # atno 6909 bound_to 6896
  144.8502  139.6174  143.5977 H   0  0  0  0  0  0  0  0  0  0  0  0  # atno 7974 bound_to 7965
  155.5703  140.3490  155.4513 H   0  0  0  0  0  0  0  0  0  0  0  0  # atno 8008 bound_to 7997
  156.0449  140.1304  157.0140 H   0  0  0  0  0  0  0  0  0  0  0  0  # atno 8009 bound_to 7997
  154.4408  140.1016  156.6276 H   0  0  0  0  0  0  0  0  0  0  0  0  # atno 8010 bound_to 7997
  139.5144  144.3138  152.0267 H   0  0  0  0  0  0  0  0  0  0  0  0  # atno 10167 bound_to 10162
  157.3328  130.7507  149.6859 H   0  0  0  0  0  0  0  0  0  0  0  0  # atno 10718 bound_to 10713
  154.5540  135.2815  155.0982 H   0  0  0  0  0  0  0  0  0  0  0  0  # atno 10763 bound_to 10752
  154.2417  135.6355  153.5213 H   0  0  0  0  0  0  0  0  0  0  0  0  # atno 10764 bound_to 10752
  153.0010  135.5561  154.6114 H   0  0  0  0  0  0  0  0  0  0  0  0  # atno 10765 bound_to 10752
  140.7502  133.8599  155.9038 H   0  0  0  0  0  0  0  0  0  0  0  0  # atno 11005 bound_to 11000
  146.2778  139.6798  142.9250 LP  0  0  0  0  0  0  0  0  0  0  0  0  # atno 17320 bound_to 7965
  145.4516  141.0428  143.2801 LP  0  0  0  0  0  0  0  0  0  0  0  0  # atno 17321 bound_to 7965
  140.2582  144.4096  150.6196 LP  0  0  0  0  0  0  0  0  0  0  0  0  # atno 17342 bound_to 10162
  140.6176  143.2173  151.6759 LP  0  0  0  0  0  0  0  0  0  0  0  0  # atno 17343 bound_to 10162
  155.9698  130.4190  150.4355 LP  0  0  0  0  0  0  0  0  0  0  0  0  # atno 17370 bound_to 10713
  157.2390  131.0521  151.2448 LP  0  0  0  0  0  0  0  0  0  0  0  0  # atno 17371 bound_to 10713
  140.9758  134.1471  157.4537 LP  0  0  0  0  0  0  0  0  0  0  0  0  # atno 17394 bound_to 11000
  139.8789  134.9994  156.5952 LP  0  0  0  0  0  0  0  0  0  0  0  0  # atno 17395 bound_to 11000

$$$$
