#       Name:                AV-unprocessed.smi:2743
#       Creating user name   scv26
#       Creation time:       Fri Mar 27 15:01:58 2020


#       File generated by GOLD software.
#

@<TRIPOS>MOLECULE
AV-unprocessed.smi:2743
    42    43     1
SMALL
NO_CHARGES


@<TRIPOS>ATOM
      1 ****        -5.1365   3.2724   1.1634 N.1            1 S1                 0.0000
      2 ****        -4.4490   2.3419   1.1973 C.1            1 S1                 0.0000
      3 ****        -3.5769   1.1561   1.2412 C.3            1 S1                 0.0000
      4 ****        -2.0976   1.4789   1.0293 C.2            1 S1                 0.0000
      5 ****        -1.7502   2.5814   0.6062 O.2            1 S1                 0.0000
      6 ****        -1.2347   0.4934   1.3200 N.am           1 S1                 0.0000
      7 ****         0.2196   0.5610   1.1767 C.3            1 S1                 0.0000
      8 ****         0.7487  -0.1945  -0.0796 C.3            1 S1                 0.0000
      9 ****         0.2017  -1.6397  -0.0510 C.ar           1 S1                 0.0000
     10 ****         0.5984  -2.5270   0.9784 C.ar           1 S1                 0.0000
     11 ****         0.0821  -3.8374   0.9994 C.ar           1 S1                 0.0000
     12 ****        -0.7904  -4.3049   0.0842 N.ar           1 S1                 0.0000
     13 ****        -1.1807  -3.4629  -0.8940 C.ar           1 S1                 0.0000
     14 ****        -0.7226  -2.1350  -1.0054 C.ar           1 S1                 0.0000
     15 ****         0.3350   0.5505  -1.3880 C.3            1 S1                 0.0000
     16 ****         1.0082   1.9216  -1.5791 C.3            1 S1                 0.0000
     17 ****         2.5347   1.7972  -1.5399 C.3            1 S1                 0.0000
     18 ****         2.9908   1.1187  -0.2438 C.3            1 S1                 0.0000
     19 ****         2.3049  -0.2465  -0.0495 C.3            1 S1                 0.0000
     20 ****        -3.7175   0.6700   2.2071 H              1 S1                 0.0000
     21 ****        -3.9096   0.4617   0.4694 H              1 S1                 0.0000
     22 ****        -1.6131  -0.3797   1.6580 H              1 S1                 0.0000
     23 ****         0.5587   1.5961   1.2005 H              1 S1                 0.0000
     24 ****         0.6384   0.1098   2.0765 H              1 S1                 0.0000
     25 ****         1.2847  -2.2176   1.7519 H              1 S1                 0.0000
     26 ****         0.3759  -4.5265   1.7772 H              1 S1                 0.0000
     27 ****        -1.8852  -3.8579  -1.6109 H              1 S1                 0.0000
     28 ****        -1.0965  -1.5314  -1.8174 H              1 S1                 0.0000
     29 ****         0.6093  -0.0600  -2.2496 H              1 S1                 0.0000
     30 ****        -0.7462   0.6784  -1.4401 H              1 S1                 0.0000
     31 ****         0.7012   2.3491  -2.5340 H              1 S1                 0.0000
     32 ****         0.6722   2.6230  -0.8159 H              1 S1                 0.0000
     33 ****         2.8772   1.2163  -2.3974 H              1 S1                 0.0000
     34 ****         2.9933   2.7822  -1.6291 H              1 S1                 0.0000
     35 ****         4.0726   0.9846  -0.2639 H              1 S1                 0.0000
     36 ****         2.7848   1.7689   0.6064 H              1 S1                 0.0000
     37 ****         2.6628  -0.6783   0.8848 H              1 S1                 0.0000
     38 ****         2.6522  -0.9155  -0.8386 H              1 S1                 0.0000
     39 ****        -5.7305   4.0764   1.1341 LP             1 S1                 0.0000
     40 ****        -2.4383   3.2764   0.3974 LP             1 S1                 0.0000
     41 ****        -0.7799   2.7821   0.4712 LP             1 S1                 0.0000
     42 ****        -1.1357  -5.2423   0.1291 LP             1 S1                 0.0000
@<TRIPOS>BOND
    1    1    2 3     
    2    2    3 1     
    3    3    4 1     
    4    3   20 1     
    5    3   21 1     
    6    4    5 2     
    7    4    6 am    
    8    6    7 1     
    9    6   22 1     
   10    7    8 1     
   11    7   23 1     
   12    7   24 1     
   13    8   19 1     
   14    8    9 1     
   15    8   15 1     
   16    9   14 ar    
   17    9   10 ar    
   18   10   11 ar    
   19   10   25 1     
   20   11   12 ar    
   21   11   26 1     
   22   12   13 ar    
   23   13   14 ar    
   24   13   27 1     
   25   14   28 1     
   26   15   16 1     
   27   15   29 1     
   28   15   30 1     
   29   16   17 1     
   30   16   31 1     
   31   16   32 1     
   32   17   18 1     
   33   17   33 1     
   34   17   34 1     
   35   18   19 1     
   36   18   35 1     
   37   18   36 1     
   38   19   37 1     
   39   19   38 1     
   40    1   39 1     
   41    5   40 1     
   42    5   41 1     
   43   12   42 1     
@<TRIPOS>SUBSTRUCTURE
      1 S1             1
@<TRIPOS>SET
LONE_PAIRS      STATIC     ATOMS    <user>   **** ""
4 39 40 41 42
DONOR_HYDROGENS      STATIC     ATOMS    <user>   **** ""
1 22
ATOM$BLUE        STATIC     ATOMS    COLORGROUP SYSTEM
4 39 40 41 42
ATOM$RED        STATIC     ATOMS    COLORGROUP SYSTEM
1 22
