AV-unprocessed.smi:107|AV-procd|sdf|1015|dock5
  -GOLD-   2262018 13D 1   1.00000     0.00000
 Structure written by MMmdl.
 31 32  0  0  0  0  0  0  0  0  1 V2000
  151.7150  144.6626  158.2138 C   0  0  0  0  0  0  0  0  0  0  0  0
  151.4768  143.1714  158.3841 C   0  0  0  0  0  0  0  0  0  0  0  0
  150.7160  142.4524  157.5196 C   0  0  0  0  0  0  0  0  0  0  0  0
  150.4847  141.0896  157.6453 N   0  0  0  0  0  0  0  0  0  0  0  0
  149.6330  140.3459  156.6418 C   0  0  2  0  0  0  0  0  0  0  0  0
  150.2061  140.4909  155.2310 C   0  0  0  0  0  0  0  0  0  0  0  0
  148.9450  140.6191  154.4023 C   0  0  2  0  0  0  0  0  0  0  0  0
  149.2064  141.3157  153.2013 O   0  0  0  0  0  0  0  0  0  0  0  0
  148.0235  141.3980  155.3462 C   0  0  1  0  0  0  0  0  0  0  0  0
  146.5217  141.2042  155.0854 C   0  0  0  0  0  0  0  0  0  0  0  0
  146.2374  141.3268  153.7081 O   0  0  0  0  0  0  0  0  0  0  0  0
  148.3469  140.8946  156.6410 O   0  0  0  0  0  0  0  0  0  0  0  0
  151.0812  140.3831  158.7104 C   0  0  0  0  0  0  0  0  0  0  0  0
  150.9491  139.1705  158.8704 O   0  0  0  0  0  0  0  0  0  0  0  0
  151.8583  141.1213  159.6013 N   0  0  0  0  0  0  0  0  0  0  0  0
  152.1042  142.4943  159.5222 C   0  0  0  0  0  0  0  0  0  0  0  0
  152.8065  143.0354  160.3745 O   0  0  0  0  0  0  0  0  0  0  0  0
  152.2846  140.6201  160.3671 H   0  0  0  0  0  0  0  0  0  0  0  0
  151.1882  145.0599  157.3458 H   0  0  0  0  0  0  0  0  0  0  0  0
  152.7784  144.8650  158.0811 H   0  0  0  0  0  0  0  0  0  0  0  0
  151.3694  145.2078  159.0927 H   0  0  0  0  0  0  0  0  0  0  0  0
  150.2734  142.9727  156.6839 H   0  0  0  0  0  0  0  0  0  0  0  0
  149.5459  139.3091  156.9703 H   0  0  0  0  0  0  0  0  0  0  0  0
  150.8057  141.4011  155.1689 H   0  0  0  0  0  0  0  0  0  0  0  0
  150.8278  139.6356  154.9648 H   0  0  0  0  0  0  0  0  0  0  0  0
  148.5355  139.6311  154.1871 H   0  0  0  0  0  0  0  0  0  0  0  0
  149.1464  140.7046  152.4823 H   0  0  0  0  0  0  0  0  0  0  0  0
  148.2778  142.4593  155.3315 H   0  0  0  0  0  0  0  0  0  0  0  0
  146.1827  140.2325  155.4455 H   0  0  0  0  0  0  0  0  0  0  0  0
  145.9491  141.9629  155.6192 H   0  0  0  0  0  0  0  0  0  0  0  0
  145.4272  140.8749  153.5273 H   0  0  0  0  0  0  0  0  0  0  0  0
  1  2  1  0  0  0  0
  1 19  1  0  0  0  0
  1 20  1  0  0  0  0
  1 21  1  0  0  0  0
  2 16  1  0  0  0  0
  2  3  2  0  0  0  0
  3  4  1  0  0  0  0
  3 22  1  0  0  0  0
  4  5  1  0  0  0  0
  4 13  1  0  0  0  0
  5 12  1  0  0  0  0
  5  6  1  0  0  0  0
  5 23  1  0  0  0  0
  6  7  1  0  0  0  0
  6 24  1  0  0  0  0
  6 25  1  0  0  0  0
  7  8  1  0  0  0  0
  7  9  1  0  0  0  0
  7 26  1  0  0  0  0
  8 27  1  0  0  0  0
  9 10  1  0  0  0  0
  9 12  1  0  0  0  0
  9 28  1  0  0  0  0
 10 11  1  0  0  0  0
 10 29  1  0  0  0  0
 10 30  1  0  0  0  0
 11 31  1  0  0  0  0
 13 14  2  0  0  0  0
 13 15  1  0  0  0  0
 15 18  1  0  0  0  0
 15 16  1  0  0  0  0
 16 17  2  0  0  0  0
M  END
> <s_m_source_file>
AV-unprocessed.smi

> <i_m_source_file_index>
107

> <i_lp_mmshare_version>
43012

> <i_f3d_flags>
0

> <s_epik_input>
Tz1jMVtuSF1jKD1PKW4oW2NIXWMxW0NIM10pW0NAQEhdMltDSDJdW0NAQEhdKFtPSF0pW0NASF0oTzIpW0NIMl1bT0hd

> <s_epik_cmdline>
J2VwaWtfcHl0aG9uJywgJy1waCcsICc3LjAnLCAnLXRuJywgJzgnLCAnLW1hJywgJzIwMCcsICctbWV0YWxfYmluZGluZycsICctaW1hZScsICc8aW5maWxlLm1hZT4nLCAnLW9tYWUnLCAnPG91dGZpbGUubWFlPic=

> <r_lp_tautomer_probability>
0.999537

> <r_epik_Ionization_Penalty>
0.00121888

> <r_epik_Ionization_Penalty_Charging>
0.00121876

> <r_epik_Ionization_Penalty_Neutral>
1.19946e-07

> <r_epik_State_Penalty>
0.000805124

> <r_epik_Charging_Adjusted_Penalty>
0.00202389

> <i_epik_Tot_Q>
0

> <i_epik_Tot_abs_Q>
0

> <r_epik_Metal_State_Penalty>
0.662472

> <b_epik_Metal_Only>
0

> <s_epik_Chemistry_Notes>
This compound contains an acetal/aminal-like group ( X-CH(R)-Y where X, Y are N, S, or O) that may be acid/base labile, releasing an aldehyde.

> <s_lp_Force_Field>
OPLS_2005

> <r_lp_Energy>
24.0727

> <b_lp_Chiralities_Consistent>
1

> <s_lp_Variant>
AV-unprocessed.smi:107-3

> <Gold.Version>
5.8.1

> <Gold.Id.Protein>
6NUR|6NUR_protein|mol2

> <Gold.PLP.Fitness>
41.7892

> <Gold.PLP.PLP>
-30.8327

> <Gold.PLP.part.hbond>
-3.4395

> <Gold.PLP.part.metal>
0.0000

> <Gold.PLP.part.buried>
-5.7810

> <Gold.PLP.part.nonpolar>
-22.9825

> <Gold.PLP.part.repulsive>
0.2148

> <Gold.PLP.ligand.clash>
0.0000

> <Gold.PLP.ligand.torsion>
0.1131

> <Gold.PLP.Chemscore.Hbond>
2.7250

> <Gold.PLP.Chemscore.CHOScore>
1.0000

> <Gold.PLP.Chemscore.Metal>
0.0000

> <Gold.Chemscore.Hbonds>
donor molecule, donor type, donor heavy atom, donor atom, acceptor molecule, acceptor atom, score
      L1  H     8    27       P1  7957  1.00
      L1  H    11    31       P1 10175  0.91
      P1  H  8011  8017       L1     8  0.63
      L1  C     3    22       P1  8028  1.00

> <Gold.PLP.Chemscore.Internal.Correction>
0.0077

> <Gold.Rescore>
     Score         DG    S(hbond)    S(metal)    S(lipo)     H(rot)  DE(clash)    DE(int)     intcor
     11.45     -11.53       2.08        0.00      52.06       2.73       0.00       0.08       ----

> <Gold.Chemscore.Fitness>
11.4462

> <Gold.Chemscore.DG>
-11.5285

> <Gold.Chemscore.ZeroCoef>
-5.4800

> <Gold.Chemscore.Hbond>
2.0763

> <Gold.Chemscore.Metal>
0.0000

> <Gold.Chemscore.Lipo>
52.0569

> <Gold.Chemscore.Internal_Hbond>
0.0000

> <Gold.Chemscore.DEClash>
0.0000

> <Gold.Chemscore.DEInternal>
0.0823

> <Gold.Chemscore.Rot>
2.7253

> <Gold.Chemscore.Internal.Correction>
   9.000000E+99

> <Gold.Chemscore.Hbonds>
donor molecule, donor type, donor heavy atom, donor atom, acceptor molecule, acceptor atom, score
      L1  H     8    27       P1  7957  0.93
      L1  H    11    31       P1 10175  0.67
      P1  H  8011  8017       L1     8  0.05

> <Gold.Chemscore.Hbond.Weighted>
-6.9347

> <Gold.Chemscore.Metal.Weighted>
-0.0000

> <Gold.Chemscore.Lipo.Weighted>
-6.0907

> <Gold.Chemscore.Internal_Hbond.Weighted>
0.0000

> <Gold.Chemscore.DEClash.Weighted>
0.0000

> <Gold.Chemscore.DEInternal.Weighted>
0.0823

> <Gold.Chemscore.Rot.Weighted>
6.9769

> <Gold.Chemscore.Internal.Correction.Weighted>
   9.000000E+99

> <Gold.Protein.RotatedTorsions>
[ 6907 6896 6895 6894 ] final   81.41 input  -60.11 | X-H torsion
[ 7974 7965 7964 7962 ] final   73.45 input  175.53 | X-H torsion
[ 8008 7997 7996 7995 ] final  150.27 input   59.86 | X-H torsion
[ 10167 10162 10161 10158 ] final  139.22 input  -65.29 | X-H torsion
[ 10718 10713 10712 10709 ] final  115.28 input   66.30 | X-H torsion
[ 10763 10752 10751 10750 ] final -115.35 input  -60.55 | X-H torsion
[ 11005 11000 10999 10996 ] final   14.59 input  -57.11 | X-H torsion

> <Gold.Protein.ActiveResidues>
 VAL166  LYS551  ARG553  GLY616  TRP617  ASP618  TYR619  PRO620  LYS621  CYS622 
 ASP623  PHE694  ASN695  SER759  ASP760  ASP761  ALA762  ILE779  LEU786  VAL792 
 PHE793  MET794  SER795  GLU796  ALA797  LYS798  CYS799  TRP800  GLU811  SER814 

> <Gold.Protein.RotatedAtoms>
  152.5267  134.3209  159.9147 H   0  0  0  0  0  0  0  0  0  0  0  0  # atno 6907 bound_to 6896
  151.3158  133.4054  159.2658 H   0  0  0  0  0  0  0  0  0  0  0  0  # atno 6908 bound_to 6896
  151.0000  134.9331  159.8006 H   0  0  0  0  0  0  0  0  0  0  0  0  # atno 6909 bound_to 6896
  145.7407  139.2720  143.1488 H   0  0  0  0  0  0  0  0  0  0  0  0  # atno 7974 bound_to 7965
  156.2722  140.2079  156.5991 H   0  0  0  0  0  0  0  0  0  0  0  0  # atno 8008 bound_to 7997
  154.6921  140.0529  157.0397 H   0  0  0  0  0  0  0  0  0  0  0  0  # atno 8009 bound_to 7997
  155.0852  140.3191  155.4592 H   0  0  0  0  0  0  0  0  0  0  0  0  # atno 8010 bound_to 7997
  139.5085  144.6307  151.5824 H   0  0  0  0  0  0  0  0  0  0  0  0  # atno 10167 bound_to 10162
  157.6231  131.1010  150.7307 H   0  0  0  0  0  0  0  0  0  0  0  0  # atno 10718 bound_to 10713
  154.8477  135.4385  154.1649 H   0  0  0  0  0  0  0  0  0  0  0  0  # atno 10763 bound_to 10752
  153.2777  135.6951  153.7423 H   0  0  0  0  0  0  0  0  0  0  0  0  # atno 10764 bound_to 10752
  153.6639  135.3430  155.3110 H   0  0  0  0  0  0  0  0  0  0  0  0  # atno 10765 bound_to 10752
  140.4678  134.1062  155.7727 H   0  0  0  0  0  0  0  0  0  0  0  0  # atno 11005 bound_to 11000
  146.0450  140.8127  142.9810 LP  0  0  0  0  0  0  0  0  0  0  0  0  # atno 17320 bound_to 7965
  144.6871  140.2967  143.7269 LP  0  0  0  0  0  0  0  0  0  0  0  0  # atno 17321 bound_to 7965
  140.6039  143.9560  150.6405 LP  0  0  0  0  0  0  0  0  0  0  0  0  # atno 17342 bound_to 10162
  140.2780  143.3409  152.1177 LP  0  0  0  0  0  0  0  0  0  0  0  0  # atno 17343 bound_to 10162
  156.7661  130.4814  149.5427 LP  0  0  0  0  0  0  0  0  0  0  0  0  # atno 17370 bound_to 10713
  156.1388  130.6230  151.0438 LP  0  0  0  0  0  0  0  0  0  0  0  0  # atno 17371 bound_to 10713
  141.1591  133.8826  157.1896 LP  0  0  0  0  0  0  0  0  0  0  0  0  # atno 17394 bound_to 11000
  139.9904  135.0066  156.9962 LP  0  0  0  0  0  0  0  0  0  0  0  0  # atno 17395 bound_to 11000

$$$$
