#       Name:                AV-unprocessed.smi:2953
#       Creating user name   scv26
#       Creation time:       Fri Mar 27 16:18:46 2020


#       File generated by GOLD software.
#

@<TRIPOS>MOLECULE
AV-unprocessed.smi:2953
    50    52     1
SMALL
NO_CHARGES


@<TRIPOS>ATOM
      1 ****         6.1867  -0.2377   4.3619 C.3            1 S1                 0.0000
      2 ****         7.2281   0.6706   4.9880 C.ar           1 S1                 0.0000
      3 ****         7.9090   0.2272   6.1411 C.ar           1 S1                 0.0000
      4 ****         8.8865   1.0365   6.7466 C.ar           1 S1                 0.0000
      5 ****         9.1856   2.2960   6.1997 C.ar           1 S1                 0.0000
      6 ****         8.5073   2.7459   5.0512 C.ar           1 S1                 0.0000
      7 ****         7.5184   1.9397   4.4291 C.ar           1 S1                 0.0000
      8 ****         6.8183   2.3321   3.3046 O.3            1 S1                 0.0000
      9 ****         7.2834   3.4744   2.5955 C.3            1 S1                 0.0000
     10 ****         6.5028   3.6507   1.2857 C.3            1 S1                 0.0000
     11 ****         5.1194   4.0504   1.5067 N.pl3          1 S1                 0.0000
     12 ****         4.0026   3.2808   1.6049 C.2            1 S1                 0.0000
     13 ****         4.0263   1.7770   1.5059 C.3            1 S1                 0.0000
     14 ****         3.3174   1.1067   2.6914 C.3            1 S1                 0.0000
     15 ****         3.3889   1.3909   0.2521 N.am           1 S1                 0.0000
     16 ****         4.0277   1.2924  -0.9203 C.2            1 S1                 0.0000
     17 ****         5.2270   1.5216  -1.0533 O.2            1 S1                 0.0000
     18 ****         2.8562   3.9502   1.7538 N.2            1 S1                 0.0000
     19 ****         3.2688   5.2657   1.7987 C.ar           1 S1                 0.0000
     20 ****         2.5251   6.4565   1.9594 C.ar           1 S1                 0.0000
     21 ****         3.1755   7.7076   1.9751 C.ar           1 S1                 0.0000
     22 ****         4.5756   7.7853   1.8291 C.ar           1 S1                 0.0000
     23 ****         5.3344   6.6105   1.6648 C.ar           1 S1                 0.0000
     24 ****         4.6801   5.3636   1.6511 C.ar           1 S1                 0.0000
     25 ****         6.4249  -1.2851   4.5499 H              1 S1                 0.0000
     26 ****         6.1316  -0.1021   3.2819 H              1 S1                 0.0000
     27 ****         5.2068  -0.0329   4.7920 H              1 S1                 0.0000
     28 ****         7.6837  -0.7402   6.5657 H              1 S1                 0.0000
     29 ****         9.4054   0.6914   7.6288 H              1 S1                 0.0000
     30 ****         9.9354   2.9203   6.6628 H              1 S1                 0.0000
     31 ****         8.7637   3.7222   4.6695 H              1 S1                 0.0000
     32 ****         7.1778   4.3720   3.2066 H              1 S1                 0.0000
     33 ****         8.3415   3.3534   2.3581 H              1 S1                 0.0000
     34 ****         6.9813   4.4265   0.6873 H              1 S1                 0.0000
     35 ****         6.5449   2.7492   0.6762 H              1 S1                 0.0000
     36 ****         5.0529   1.4143   1.5107 H              1 S1                 0.0000
     37 ****         3.7589   1.4250   3.6355 H              1 S1                 0.0000
     38 ****         3.3970   0.0208   2.6337 H              1 S1                 0.0000
     39 ****         2.2573   1.3605   2.7224 H              1 S1                 0.0000
     40 ****         2.3976   1.2009   0.2765 H              1 S1                 0.0000
     41 ****         3.3517   0.9861  -1.7339 H              1 S1                 0.0000
     42 ****         1.4520   6.4075   2.0715 H              1 S1                 0.0000
     43 ****         2.5976   8.6114   2.0995 H              1 S1                 0.0000
     44 ****         5.0665   8.7474   1.8429 H              1 S1                 0.0000
     45 ****         6.4068   6.6680   1.5528 H              1 S1                 0.0000
     46 ****         5.8786   2.5209   3.5897 LP             1 S1                 0.0000
     47 ****         6.8247   1.5624   2.6663 LP             1 S1                 0.0000
     48 ****         5.7742   1.7967  -0.2628 LP             1 S1                 0.0000
     49 ****         5.6563   1.4332  -1.9522 LP             1 S1                 0.0000
     50 ****         1.9267   3.5868   1.8171 LP             1 S1                 0.0000
@<TRIPOS>BOND
    1    1    2 1     
    2    1   25 1     
    3    1   26 1     
    4    1   27 1     
    5    2    7 ar    
    6    2    3 ar    
    7    3    4 ar    
    8    3   28 1     
    9    4    5 ar    
   10    4   29 1     
   11    5    6 ar    
   12    5   30 1     
   13    6    7 ar    
   14    6   31 1     
   15    7    8 1     
   16    8    9 1     
   17    9   10 1     
   18    9   32 1     
   19    9   33 1     
   20   10   11 1     
   21   10   34 1     
   22   10   35 1     
   23   11   24 1     
   24   11   12 1     
   25   12   13 1     
   26   12   18 2     
   27   13   14 1     
   28   13   15 1     
   29   13   36 1     
   30   14   37 1     
   31   14   38 1     
   32   14   39 1     
   33   15   16 am    
   34   15   40 1     
   35   16   17 2     
   36   16   41 1     
   37   18   19 1     
   38   19   24 ar    
   39   19   20 ar    
   40   20   21 ar    
   41   20   42 1     
   42   21   22 ar    
   43   21   43 1     
   44   22   23 ar    
   45   22   44 1     
   46   23   24 ar    
   47   23   45 1     
   48    8   46 1     
   49    8   47 1     
   50   17   48 1     
   51   17   49 1     
   52   18   50 1     
@<TRIPOS>SUBSTRUCTURE
      1 S1             1
@<TRIPOS>SET
LONE_PAIRS      STATIC     ATOMS    <user>   **** ""
5 46 47 48 49 50
DONOR_HYDROGENS      STATIC     ATOMS    <user>   **** ""
1 40
ATOM$BLUE        STATIC     ATOMS    COLORGROUP SYSTEM
5 46 47 48 49 50
ATOM$RED        STATIC     ATOMS    COLORGROUP SYSTEM
1 40
