AV-unprocessed.smi:1196|AV-procd|sdf|5003|dock6
  -GOLD-   22720 4 13D 1   1.00000     0.00000
 Structure written by MMmdl.
 36 37  0  0  0  0  0  0  0  0  2 V2000
  154.3466  141.7593  159.6496 C   0  0  0  0  0  0  0  0  0  0  0  0
  153.0567  141.4146  160.4110 C   0  0  1  0  0  0  0  0  0  0  0  0
  152.4834  142.6472  161.1365 C   0  0  0  0  0  0  0  0  0  0  0  0
  151.9634  143.6395  160.2119 N   0  0  0  0  0  0  0  0  0  0  0  0
  151.8180  144.9966  160.4075 C   0  0  0  0  0  0  0  0  0  0  0  0
  151.2835  145.5168  159.2637 C   0  0  0  0  0  0  0  0  0  0  0  0
  151.1326  144.3841  158.4155 C   0  0  0  0  0  0  0  0  0  0  0  0
  151.5431  143.2624  158.9846 N   0  0  0  0  0  0  0  0  0  0  0  0
  152.0637  140.8672  159.4891 N   0  0  0  0  0  0  0  0  0  0  0  0
  152.3116  139.9902  158.5047 C   0  0  0  0  0  0  0  0  0  0  0  0
  153.4377  139.5596  158.2529 O   0  0  0  0  0  0  0  0  0  0  0  0
  151.0950  139.5436  157.6884 C   0  0  0  0  0  0  0  0  0  0  0  0
  150.4041  140.6951  156.9320 C   0  0  0  0  0  0  0  0  0  0  0  0
  149.3090  140.2032  155.9623 C   0  0  1  0  0  0  0  0  0  0  0  0
  148.2004  141.1396  155.8891 N   0  5  0  0  0  0  0  0  0  0  0  0
  148.0600  141.5385  154.6030 C   0  0  0  0  0  0  0  0  0  0  0  0
  147.2263  142.3158  154.1436 O   0  0  0  0  0  0  0  0  0  0  0  0
  148.9847  140.9652  153.8258 N   0  0  0  0  0  0  0  0  0  0  0  0
  149.7866  140.1672  154.5232 C   0  0  0  0  0  0  0  0  0  0  0  0
  150.7389  139.5112  154.1031 O   0  0  0  0  0  0  0  0  0  0  0  0
  155.1042  142.1593  160.3239 H   0  0  0  0  0  0  0  0  0  0  0  0
  154.1637  142.5051  158.8755 H   0  0  0  0  0  0  0  0  0  0  0  0
  154.7701  140.8766  159.1690 H   0  0  0  0  0  0  0  0  0  0  0  0
  153.2993  140.6636  161.1653 H   0  0  0  0  0  0  0  0  0  0  0  0
  151.6663  142.3468  161.7936 H   0  0  0  0  0  0  0  0  0  0  0  0
  153.2400  143.1087  161.7736 H   0  0  0  0  0  0  0  0  0  0  0  0
  152.1020  145.4724  161.3346 H   0  0  0  0  0  0  0  0  0  0  0  0
  151.0360  146.5487  159.0642 H   0  0  0  0  0  0  0  0  0  0  0  0
  150.7410  144.3446  157.4097 H   0  0  0  0  0  0  0  0  0  0  0  0
  151.1070  141.1609  159.6256 H   0  0  0  0  0  0  0  0  0  0  0  0
  151.4132  138.7822  156.9748 H   0  0  0  0  0  0  0  0  0  0  0  0
  150.3875  139.0626  158.3645 H   0  0  0  0  0  0  0  0  0  0  0  0
  149.9796  141.4068  157.6429 H   0  0  0  0  0  0  0  0  0  0  0  0
  151.1587  141.2454  156.3670 H   0  0  0  0  0  0  0  0  0  0  0  0
  148.9875  139.1986  156.2404 H   0  0  0  0  0  0  0  0  0  0  0  0
  149.0680  141.1271  152.8334 H   0  0  0  0  0  0  0  0  0  0  0  0
  1  2  1  0  0  0  0
  1 21  1  0  0  0  0
  1 22  1  0  0  0  0
  1 23  1  0  0  0  0
  2  3  1  0  0  0  0
  2  9  1  0  0  0  0
  2 24  1  0  0  0  0
  3  4  1  0  0  0  0
  3 25  1  0  0  0  0
  3 26  1  0  0  0  0
  4  8  1  0  0  0  0
  4  5  1  0  0  0  0
  5  6  2  0  0  0  0
  5 27  1  0  0  0  0
  6  7  1  0  0  0  0
  6 28  1  0  0  0  0
  7  8  2  0  0  0  0
  7 29  1  0  0  0  0
  9 10  1  0  0  0  0
  9 30  1  0  0  0  0
 10 11  2  0  0  0  0
 10 12  1  0  0  0  0
 12 13  1  0  0  0  0
 12 31  1  0  0  0  0
 12 32  1  0  0  0  0
 13 14  1  0  0  0  0
 13 33  1  0  0  0  0
 13 34  1  0  0  0  0
 14 19  1  0  0  0  0
 14 15  1  0  0  0  0
 14 35  1  0  0  0  0
 15 16  1  0  0  0  0
 16 17  2  0  0  0  0
 16 18  1  0  0  0  0
 18 19  1  0  0  0  0
 18 36  1  0  0  0  0
 19 20  2  0  0  0  0
M  CHG  1  15  -1
M  END
> <s_m_source_file>
AV-unprocessed.smi

> <i_m_source_file_index>
1196

> <i_lp_mmshare_version>
43012

> <i_f3d_flags>
0

> <s_epik_input>
bjFbY0hdW2NIXVtjSF1uMVtDSDJdW0NAQEhdKFtDSDNdKVtOSF1DKD1PKVtDSDJdW0NIMl1bQ0BASF0yW05IXUMoPU8pW05IXUMyPU8=

> <s_epik_cmdline>
J2VwaWtfcHl0aG9uJywgJy1waCcsICc3LjAnLCAnLXRuJywgJzgnLCAnLW1hJywgJzIwMCcsICctbWV0YWxfYmluZGluZycsICctaW1hZScsICc8aW5maWxlLm1hZT4nLCAnLW9tYWUnLCAnPG91dGZpbGUubWFlPic=

> <r_lp_tautomer_probability>
1

> <r_epik_Ionization_Penalty>
5.79547

> <r_epik_Ionization_Penalty_Charging>
5.79516

> <r_epik_Ionization_Penalty_Neutral>
0.000313087

> <r_epik_State_Penalty>
5.80096

> <r_epik_Charging_Adjusted_Penalty>
11.5961

> <i_epik_Tot_Q>
-1

> <i_epik_Tot_abs_Q>
1

> <r_epik_Metal_State_Penalty>
2.14443

> <b_epik_Metal_Only>
1

> <s_lp_Force_Field>
OPLS_2005

> <r_lp_Energy>
12.8227

> <b_lp_Chiralities_Consistent>
1

> <s_lp_Variant>
AV-unprocessed.smi:1196-8

> <Gold.Version>
5.8.1

> <Gold.Id.Protein>
6NUR|6NUR_protein|mol2

> <Gold.PLP.Fitness>
47.8906

> <Gold.PLP.PLP>
-39.5991

> <Gold.PLP.part.hbond>
-3.0000

> <Gold.PLP.part.metal>
0.0000

> <Gold.PLP.part.buried>
-5.4110

> <Gold.PLP.part.nonpolar>
-31.1145

> <Gold.PLP.part.repulsive>
0.8024

> <Gold.PLP.ligand.clash>
0.0000

> <Gold.PLP.ligand.torsion>
1.1443

> <Gold.PLP.Chemscore.Hbond>
2.5480

> <Gold.PLP.Chemscore.CHOScore>
0.9674

> <Gold.PLP.Chemscore.Metal>
0.0000

> <Gold.Chemscore.Hbonds>
donor molecule, donor type, donor heavy atom, donor atom, acceptor molecule, acceptor atom, score
      L1  H    18    36       P1  7957  0.72
      P1  H  7989  7998       L1    20  0.80
      P1  H  7997  8010       L1    11  1.00
      L1  C     7    29       P1  8028  0.96

> <Gold.PLP.Chemscore.Internal.Correction>
0.0340

> <Gold.Rescore>
     Score         DG    S(hbond)    S(metal)    S(lipo)     H(rot)  DE(clash)    DE(int)     intcor
     11.80     -14.22       2.00        0.00      81.10       2.89       0.03       2.39       ----

> <Gold.Chemscore.Fitness>
11.8039

> <Gold.Chemscore.DG>
-14.2236

> <Gold.Chemscore.ZeroCoef>
-5.4800

> <Gold.Chemscore.Hbond>
1.9956

> <Gold.Chemscore.Metal>
0.0000

> <Gold.Chemscore.Lipo>
81.0965

> <Gold.Chemscore.Internal_Hbond>
0.0000

> <Gold.Chemscore.DEClash>
0.0272

> <Gold.Chemscore.DEInternal>
2.3924

> <Gold.Chemscore.Rot>
2.8946

> <Gold.Chemscore.Internal.Correction>
   9.000000E+99

> <Gold.Chemscore.Hbonds>
donor molecule, donor type, donor heavy atom, donor atom, acceptor molecule, acceptor atom, score
      L1  H    18    36       P1  7957  0.68
      P1  H  7989  7998       L1    20  0.12
      P1  H  7997  8010       L1    11  0.99

> <Gold.Chemscore.Hbond.Weighted>
-6.6654

> <Gold.Chemscore.Metal.Weighted>
-0.0000

> <Gold.Chemscore.Lipo.Weighted>
-9.4883

> <Gold.Chemscore.Internal_Hbond.Weighted>
0.0000

> <Gold.Chemscore.DEClash.Weighted>
0.0272

> <Gold.Chemscore.DEInternal.Weighted>
2.3924

> <Gold.Chemscore.Rot.Weighted>
7.4101

> <Gold.Chemscore.Internal.Correction.Weighted>
   9.000000E+99

> <Gold.Protein.RotatedTorsions>
[ 6907 6896 6895 6894 ] final  168.92 input  -60.11 | X-H torsion
[ 7974 7965 7964 7962 ] final  -45.19 input  175.53 | X-H torsion
[ 8008 7997 7996 7995 ] final   19.63 input   59.86 | X-H torsion
[ 10167 10162 10161 10158 ] final   41.86 input  -65.29 | X-H torsion
[ 10718 10713 10712 10709 ] final  151.13 input   66.30 | X-H torsion
[ 10763 10752 10751 10750 ] final  -38.32 input  -60.55 | X-H torsion
[ 11005 11000 10999 10996 ] final  -89.63 input  -57.11 | X-H torsion

> <Gold.Protein.ActiveResidues>
 VAL166  LYS551  ARG553  GLY616  TRP617  ASP618  TYR619  PRO620  LYS621  CYS622 
 ASP623  PHE694  ASN695  SER759  ASP760  ASP761  ALA762  ILE779  LEU786  VAL792 
 PHE793  MET794  SER795  GLU796  ALA797  LYS798  CYS799  TRP800  GLU811  SER814 

> <Gold.Protein.RotatedAtoms>
  151.8400  133.3422  159.3639 H   0  0  0  0  0  0  0  0  0  0  0  0  # atno 6907 bound_to 6896
  150.7237  134.5400  159.5752 H   0  0  0  0  0  0  0  0  0  0  0  0  # atno 6908 bound_to 6896
  152.2872  134.7763  160.0436 H   0  0  0  0  0  0  0  0  0  0  0  0  # atno 6909 bound_to 6896
  145.9845  140.7248  142.9347 H   0  0  0  0  0  0  0  0  0  0  0  0  # atno 7974 bound_to 7965
  154.9236  140.3030  155.5204 H   0  0  0  0  0  0  0  0  0  0  0  0  # atno 8008 bound_to 7997
  156.3008  140.2367  156.4224 H   0  0  0  0  0  0  0  0  0  0  0  0  # atno 8009 bound_to 7997
  154.8307  140.0418  157.1463 H   0  0  0  0  0  0  0  0  0  0  0  0  # atno 8010 bound_to 7997
  140.3601  144.2239  150.6139 H   0  0  0  0  0  0  0  0  0  0  0  0  # atno 10167 bound_to 10162
  157.2746  131.0823  151.1575 H   0  0  0  0  0  0  0  0  0  0  0  0  # atno 10718 bound_to 10713
  153.9108  135.6792  153.4751 H   0  0  0  0  0  0  0  0  0  0  0  0  # atno 10763 bound_to 10752
  153.1079  135.4797  154.8981 H   0  0  0  0  0  0  0  0  0  0  0  0  # atno 10764 bound_to 10752
  154.7528  135.3189  154.8481 H   0  0  0  0  0  0  0  0  0  0  0  0  # atno 10765 bound_to 10752
  141.1581  133.7642  156.9622 H   0  0  0  0  0  0  0  0  0  0  0  0  # atno 11005 bound_to 11000
  144.6871  140.2965  143.7270 LP  0  0  0  0  0  0  0  0  0  0  0  0  # atno 17320 bound_to 7965
  145.7720  139.1861  143.2207 LP  0  0  0  0  0  0  0  0  0  0  0  0  # atno 17321 bound_to 7965
  140.5135  143.2284  151.8499 LP  0  0  0  0  0  0  0  0  0  0  0  0  # atno 17342 bound_to 10162
  139.4815  144.4922  151.9171 LP  0  0  0  0  0  0  0  0  0  0  0  0  # atno 17343 bound_to 10162
  157.3033  130.6854  149.6176 LP  0  0  0  0  0  0  0  0  0  0  0  0  # atno 17370 bound_to 10713
  155.9663  130.4385  150.5221 LP  0  0  0  0  0  0  0  0  0  0  0  0  # atno 17371 bound_to 10713
  140.1185  134.9432  157.2169 LP  0  0  0  0  0  0  0  0  0  0  0  0  # atno 17394 bound_to 11000
  140.3102  134.3032  155.7268 LP  0  0  0  0  0  0  0  0  0  0  0  0  # atno 17395 bound_to 11000

$$$$
