AV-unprocessed.smi:148|AV-procd|sdf|1211|dock9
  -GOLD-   2262018383D 1   1.00000     0.00000
 Structure written by MMmdl.
 63 67  0  0  0  0  0  0  0  0  1 V2000
  150.1733  145.2641  159.1716 O   0  0  0  0  0  0  0  0  0  0  0  0
  151.0424  144.6568  158.2386 C   0  0  0  0  0  0  0  0  0  0  0  0
  151.6050  143.3297  158.8003 C   0  0  1  0  0  0  0  0  0  0  0  0
  152.2035  142.4701  157.6591 C   0  0  0  0  0  0  0  0  0  0  0  0
  151.2073  141.7046  156.9309 N   0  0  0  0  0  0  0  0  0  0  0  0
  149.8559  141.9584  156.8632 C   0  0  0  0  0  0  0  0  0  0  0  0
  149.1688  141.1191  156.1376 N   0  0  0  0  0  0  0  0  0  0  0  0
  150.1177  140.2140  155.6774 C   0  0  0  0  0  0  0  0  0  0  0  0
  150.0717  139.0555  154.8515 C   0  0  0  0  0  0  0  0  0  0  0  0
  148.9498  138.5544  154.2879 N   0  0  0  0  0  0  0  0  0  0  0  0
  148.2060  139.6226  153.6206 C   0  0  0  0  0  0  0  0  0  0  0  0
  147.0720  139.0581  152.7565 C   0  0  0  0  0  0  0  0  0  0  0  0
  146.1560  138.1676  153.6012 C   0  0  0  0  0  0  0  0  0  0  0  0
  146.9771  137.0578  154.2711 C   0  0  0  0  0  0  0  0  0  0  0  0
  148.1484  137.6314  155.1141 C   0  0  1  0  0  0  0  0  0  0  0  0
  149.0164  136.5254  155.8065 C   0  0  2  0  0  0  0  0  0  0  0  0
  149.9317  135.7461  154.8331 C   0  0  0  0  0  0  0  0  0  0  0  0
  149.5980  134.2558  154.9923 C   0  0  0  0  0  0  0  0  0  0  0  0
  148.2286  134.2119  155.6676 C   0  0  0  0  0  0  0  0  0  0  0  0
  148.2529  135.4319  156.5863 C   0  0  2  0  0  0  0  0  0  0  0  0
  146.9722  135.8045  157.0544 O   0  0  0  0  0  0  0  0  0  0  0  0
  151.2343  138.4059  154.5988 N   0  0  0  0  0  0  0  0  0  0  0  0
  152.3764  138.8505  155.1316 C   0  0  0  0  0  0  0  0  0  0  0  0
  152.5731  139.9072  155.9235 N   0  0  0  0  0  0  0  0  0  0  0  0
  151.4049  140.5670  156.1694 C   0  0  0  0  0  0  0  0  0  0  0  0
  152.5956  143.5273  159.9818 C   0  0  2  0  0  0  0  0  0  0  0  0
  153.4418  142.3047  160.3424 C   0  0  0  0  0  0  0  0  0  0  0  0
  153.1987  142.1100  161.8380 C   0  0  0  0  0  0  0  0  0  0  0  0
  152.8392  143.4043  162.2920 O   0  0  0  0  0  0  0  0  0  0  0  0
  151.9622  143.9439  161.3172 C   0  0  0  0  0  0  0  0  0  0  0  0
  150.3259  146.1966  159.1636 H   0  0  0  0  0  0  0  0  0  0  0  0
  150.4974  144.4938  157.3091 H   0  0  0  0  0  0  0  0  0  0  0  0
  151.8357  145.3698  158.0196 H   0  0  0  0  0  0  0  0  0  0  0  0
  150.7597  142.7760  159.2124 H   0  0  0  0  0  0  0  0  0  0  0  0
  152.7258  143.1005  156.9386 H   0  0  0  0  0  0  0  0  0  0  0  0
  152.9469  141.7783  158.0572 H   0  0  0  0  0  0  0  0  0  0  0  0
  149.3929  142.7951  157.3661 H   0  0  0  0  0  0  0  0  0  0  0  0
  147.7948  140.3010  154.3698 H   0  0  0  0  0  0  0  0  0  0  0  0
  148.8792  140.2110  152.9949 H   0  0  0  0  0  0  0  0  0  0  0  0
  146.4998  139.8721  152.3113 H   0  0  0  0  0  0  0  0  0  0  0  0
  147.4907  138.4808  151.9312 H   0  0  0  0  0  0  0  0  0  0  0  0
  145.6549  138.7672  154.3620 H   0  0  0  0  0  0  0  0  0  0  0  0
  145.3736  137.7332  152.9783 H   0  0  0  0  0  0  0  0  0  0  0  0
  146.3065  136.4648  154.8901 H   0  0  0  0  0  0  0  0  0  0  0  0
  147.3513  136.3865  153.4988 H   0  0  0  0  0  0  0  0  0  0  0  0
  147.6990  138.2346  155.9031 H   0  0  0  0  0  0  0  0  0  0  0  0
  149.6486  137.0125  156.5494 H   0  0  0  0  0  0  0  0  0  0  0  0
  149.7786  136.0564  153.8001 H   0  0  0  0  0  0  0  0  0  0  0  0
  150.9840  135.9305  155.0528 H   0  0  0  0  0  0  0  0  0  0  0  0
  149.6085  133.7224  154.0414 H   0  0  0  0  0  0  0  0  0  0  0  0
  150.3381  133.7851  155.6408 H   0  0  0  0  0  0  0  0  0  0  0  0
  147.4434  134.3042  154.9174 H   0  0  0  0  0  0  0  0  0  0  0  0
  148.0602  133.2815  156.2108 H   0  0  0  0  0  0  0  0  0  0  0  0
  148.8443  135.1688  157.4651 H   0  0  0  0  0  0  0  0  0  0  0  0
  146.7043  136.5901  156.6029 H   0  0  0  0  0  0  0  0  0  0  0  0
  153.2593  138.2781  154.8879 H   0  0  0  0  0  0  0  0  0  0  0  0
  153.3120  144.3030  159.7096 H   0  0  0  0  0  0  0  0  0  0  0  0
  153.2008  141.4091  159.7704 H   0  0  0  0  0  0  0  0  0  0  0  0
  154.4955  142.5227  160.1628 H   0  0  0  0  0  0  0  0  0  0  0  0
  152.3685  141.4222  162.0080 H   0  0  0  0  0  0  0  0  0  0  0  0
  154.0744  141.7265  162.3618 H   0  0  0  0  0  0  0  0  0  0  0  0
  151.8738  145.0258  161.4183 H   0  0  0  0  0  0  0  0  0  0  0  0
  150.9728  143.5106  161.4614 H   0  0  0  0  0  0  0  0  0  0  0  0
  1  2  1  0  0  0  0
  1 31  1  0  0  0  0
  2  3  1  0  0  0  0
  2 32  1  0  0  0  0
  2 33  1  0  0  0  0
  3  4  1  0  0  0  0
  3 26  1  0  0  0  0
  3 34  1  0  0  0  0
  4  5  1  0  0  0  0
  4 35  1  0  0  0  0
  4 36  1  0  0  0  0
  5 25  1  0  0  0  0
  5  6  1  0  0  0  0
  6  7  2  0  0  0  0
  6 37  1  0  0  0  0
  7  8  1  0  0  0  0
  8 25  2  0  0  0  0
  8  9  1  0  0  0  0
  9 10  1  0  0  0  0
  9 22  2  0  0  0  0
 10 15  1  0  0  0  0
 10 11  1  0  0  0  0
 11 12  1  0  0  0  0
 11 38  1  0  0  0  0
 11 39  1  0  0  0  0
 12 13  1  0  0  0  0
 12 40  1  0  0  0  0
 12 41  1  0  0  0  0
 13 14  1  0  0  0  0
 13 42  1  0  0  0  0
 13 43  1  0  0  0  0
 14 15  1  0  0  0  0
 14 44  1  0  0  0  0
 14 45  1  0  0  0  0
 15 16  1  0  0  0  0
 15 46  1  0  0  0  0
 16 20  1  0  0  0  0
 16 17  1  0  0  0  0
 16 47  1  0  0  0  0
 17 18  1  0  0  0  0
 17 48  1  0  0  0  0
 17 49  1  0  0  0  0
 18 19  1  0  0  0  0
 18 50  1  0  0  0  0
 18 51  1  0  0  0  0
 19 20  1  0  0  0  0
 19 52  1  0  0  0  0
 19 53  1  0  0  0  0
 20 21  1  0  0  0  0
 20 54  1  0  0  0  0
 21 55  1  0  0  0  0
 22 23  1  0  0  0  0
 23 24  2  0  0  0  0
 23 56  1  0  0  0  0
 24 25  1  0  0  0  0
 26 30  1  0  0  0  0
 26 27  1  0  0  0  0
 26 57  1  0  0  0  0
 27 28  1  0  0  0  0
 27 58  1  0  0  0  0
 27 59  1  0  0  0  0
 28 29  1  0  0  0  0
 28 60  1  0  0  0  0
 28 61  1  0  0  0  0
 29 30  1  0  0  0  0
 30 62  1  0  0  0  0
 30 63  1  0  0  0  0
M  END
> <s_m_source_file>
AV-unprocessed.smi

> <i_m_source_file_index>
148

> <i_lp_mmshare_version>
43012

> <i_f3d_flags>
0

> <s_epik_input>
W0NIMl0xT1tDSDJdW0NIMl1bQ0BIXTFbQ0BIXShbQ0gyXVtPSF0pW0NIMl1uKFtjSF1uMiljKGMyMyluW2NIXW5jM040W0NIMl1bQ0gyXVtDSDJdW0NIMl1bQ0BIXTRbQ0BASF01W0NIMl1bQ0gyXVtDSDJdW0NASF01W09IXQ==

> <s_epik_cmdline>
J2VwaWtfcHl0aG9uJywgJy1waCcsICc3LjAnLCAnLXRuJywgJzgnLCAnLW1hJywgJzIwMCcsICctbWV0YWxfYmluZGluZycsICctaW1hZScsICc8aW5maWxlLm1hZT4nLCAnLW9tYWUnLCAnPG91dGZpbGUubWFlPic=

> <r_lp_tautomer_probability>
1

> <r_epik_Ionization_Penalty>
0.00556303

> <r_epik_Ionization_Penalty_Charging>
0

> <r_epik_Ionization_Penalty_Neutral>
0.00556303

> <r_epik_State_Penalty>
0.00401767

> <r_epik_Charging_Adjusted_Penalty>
0.00401767

> <i_epik_Tot_Q>
0

> <i_epik_Tot_abs_Q>
0

> <r_epik_Metal_State_Penalty>
-0

> <b_epik_Metal_Only>
0

> <s_lp_Force_Field>
OPLS_2005

> <r_lp_Energy>
71.509

> <b_lp_Chiralities_Consistent>
1

> <s_lp_Variant>
AV-unprocessed.smi:148-10

> <Gold.Version>
5.8.1

> <Gold.Id.Protein>
6NUR|6NUR_protein|mol2

> <Gold.PLP.Fitness>
48.1100

> <Gold.PLP.PLP>
-46.4819

> <Gold.PLP.part.hbond>
-2.3300

> <Gold.PLP.part.metal>
0.0000

> <Gold.PLP.part.buried>
-3.7258

> <Gold.PLP.part.nonpolar>
-39.7562

> <Gold.PLP.part.repulsive>
0.5336

> <Gold.PLP.ligand.clash>
0.0000

> <Gold.PLP.ligand.torsion>
1.5461

> <Gold.PLP.Chemscore.Hbond>
1.0000

> <Gold.PLP.Chemscore.CHOScore>
0.4510

> <Gold.PLP.Chemscore.Metal>
0.0000

> <Gold.Chemscore.Hbonds>
donor molecule, donor type, donor heavy atom, donor atom, acceptor molecule, acceptor atom, score
      P1  H  7997  8009       L1    24  1.00
      L1  C     6    37       P1  8028  0.49

> <Gold.PLP.Chemscore.Internal.Correction>
0.3674

> <Gold.Rescore>
     Score         DG    S(hbond)    S(metal)    S(lipo)     H(rot)  DE(clash)    DE(int)     intcor
     10.35     -13.06       0.93        0.00     110.99       3.32       1.31       1.41       ----

> <Gold.Chemscore.Fitness>
10.3487

> <Gold.Chemscore.DG>
-13.0603

> <Gold.Chemscore.ZeroCoef>
-5.4800

> <Gold.Chemscore.Hbond>
0.9264

> <Gold.Chemscore.Metal>
0.0000

> <Gold.Chemscore.Lipo>
110.9921

> <Gold.Chemscore.Internal_Hbond>
0.0000

> <Gold.Chemscore.DEClash>
1.3055

> <Gold.Chemscore.DEInternal>
1.4061

> <Gold.Chemscore.Rot>
3.3203

> <Gold.Chemscore.Internal.Correction>
   9.000000E+99

> <Gold.Chemscore.Hbonds>
donor molecule, donor type, donor heavy atom, donor atom, acceptor molecule, acceptor atom, score
      P1  H  7997  8009       L1    24  0.70

> <Gold.Chemscore.Hbond.Weighted>
-3.0943

> <Gold.Chemscore.Metal.Weighted>
-0.0000

> <Gold.Chemscore.Lipo.Weighted>
-12.9861

> <Gold.Chemscore.Internal_Hbond.Weighted>
0.0000

> <Gold.Chemscore.DEClash.Weighted>
1.3055

> <Gold.Chemscore.DEInternal.Weighted>
1.4061

> <Gold.Chemscore.Rot.Weighted>
8.5000

> <Gold.Chemscore.Internal.Correction.Weighted>
   9.000000E+99

> <Gold.Protein.RotatedTorsions>
[ 6907 6896 6895 6894 ] final  164.11 input  -60.11 | X-H torsion
[ 7974 7965 7964 7962 ] final  -89.86 input  175.53 | X-H torsion
[ 8008 7997 7996 7995 ] final -151.50 input   59.86 | X-H torsion
[ 10167 10162 10161 10158 ] final    0.56 input  -65.29 | X-H torsion
[ 10718 10713 10712 10709 ] final   78.93 input   66.30 | X-H torsion
[ 10763 10752 10751 10750 ] final   51.27 input  -60.55 | X-H torsion
[ 11005 11000 10999 10996 ] final  166.38 input  -57.11 | X-H torsion

> <Gold.Protein.ActiveResidues>
 VAL166  LYS551  ARG553  GLY616  TRP617  ASP618  TYR619  PRO620  LYS621  CYS622 
 ASP623  PHE694  ASN695  SER759  ASP760  ASP761  ALA762  ILE779  LEU786  VAL792 
 PHE793  MET794  SER795  GLU796  ALA797  LYS798  CYS799  TRP800  GLU811  SER814 

> <Gold.Protein.RotatedAtoms>
  151.9149  133.3570  159.3876 H   0  0  0  0  0  0  0  0  0  0  0  0  # atno 6907 bound_to 6896
  150.7050  134.4694  159.5427 H   0  0  0  0  0  0  0  0  0  0  0  0  # atno 6908 bound_to 6896
  152.2307  134.8324  160.0525 H   0  0  0  0  0  0  0  0  0  0  0  0  # atno 6909 bound_to 6896
  145.4341  140.9557  143.2111 H   0  0  0  0  0  0  0  0  0  0  0  0  # atno 7974 bound_to 7965
  155.6403  140.0701  157.2620 H   0  0  0  0  0  0  0  0  0  0  0  0  # atno 8008 bound_to 7997
  154.4185  140.1751  156.1615 H   0  0  0  0  0  0  0  0  0  0  0  0  # atno 8009 bound_to 7997
  155.9861  140.3349  155.6712 H   0  0  0  0  0  0  0  0  0  0  0  0  # atno 8010 bound_to 7997
  140.6723  143.7013  150.7949 H   0  0  0  0  0  0  0  0  0  0  0  0  # atno 10167 bound_to 10162
  157.6760  130.9891  150.1858 H   0  0  0  0  0  0  0  0  0  0  0  0  # atno 10718 bound_to 10713
  152.9785  135.5851  154.4389 H   0  0  0  0  0  0  0  0  0  0  0  0  # atno 10763 bound_to 10752
  154.3992  135.2768  155.2109 H   0  0  0  0  0  0  0  0  0  0  0  0  # atno 10764 bound_to 10752
  154.3947  135.6117  153.5917 H   0  0  0  0  0  0  0  0  0  0  0  0  # atno 10765 bound_to 10752
  140.2659  134.7865  157.3632 H   0  0  0  0  0  0  0  0  0  0  0  0  # atno 11005 bound_to 11000
  144.8163  139.5870  143.7007 LP  0  0  0  0  0  0  0  0  0  0  0  0  # atno 17320 bound_to 7965
  146.2591  139.6369  142.9374 LP  0  0  0  0  0  0  0  0  0  0  0  0  # atno 17321 bound_to 7965
  140.0701  143.5070  152.2584 LP  0  0  0  0  0  0  0  0  0  0  0  0  # atno 17342 bound_to 10162
  139.5998  144.7579  151.3200 LP  0  0  0  0  0  0  0  0  0  0  0  0  # atno 17343 bound_to 10162
  156.2580  130.3707  149.8161 LP  0  0  0  0  0  0  0  0  0  0  0  0  # atno 17370 bound_to 10713
  156.5914  130.8508  151.3409 LP  0  0  0  0  0  0  0  0  0  0  0  0  # atno 17371 bound_to 10713
  140.1420  134.4960  155.8024 LP  0  0  0  0  0  0  0  0  0  0  0  0  # atno 17394 bound_to 11000
  141.2184  133.6829  156.7227 LP  0  0  0  0  0  0  0  0  0  0  0  0  # atno 17395 bound_to 11000

$$$$
