AV-unprocessed.smi:1983|AV-procd|sdf|8033|dock3
  -GOLD-   2272010223D 1   1.00000     0.00000
 Structure written by MMmdl.
 49 50  0  0  0  0  0  0  0  0  1 V2000
  149.1014  133.3505  154.6875 C   0  0  0  0  0  0  0  0  0  0  0  0
  149.2226  134.6319  155.5262 C   0  0  1  0  0  0  0  0  0  0  0  0
  150.5333  134.6793  156.3364 C   0  0  0  0  0  0  0  0  0  0  0  0
  150.5860  133.6089  157.2552 O   0  0  0  0  0  0  0  0  0  0  0  0
  149.1308  135.7905  154.6420 N   0  0  0  0  0  0  0  0  0  0  0  0
  148.7212  137.0138  155.0066 C   0  0  0  0  0  0  0  0  0  0  0  0
  148.3693  137.3141  156.1474 O   0  0  0  0  0  0  0  0  0  0  0  0
  148.7513  137.8743  153.9796 N   0  0  0  0  0  0  0  0  0  0  0  0
  148.3870  139.2852  154.0631 C   0  0  0  0  0  0  0  0  0  0  0  0
  149.2098  140.0943  155.0571 C   0  0  0  0  0  0  0  0  0  0  0  0
  150.6100  139.9516  155.0939 C   0  0  0  0  0  0  0  0  0  0  0  0
  151.3531  140.6986  156.0277 C   0  0  0  0  0  0  0  0  0  0  0  0
  150.6730  141.5756  156.9103 C   0  0  0  0  0  0  0  0  0  0  0  0
  151.3541  142.3454  157.8798 N   0  0  0  0  0  0  0  0  0  0  0  0
  152.2344  141.6670  158.8245 C   0  0  0  0  0  0  0  0  0  0  0  0
  152.5537  142.5843  160.0179 C   0  0  1  0  0  0  0  0  0  0  0  0
  153.5856  141.9558  160.9603 C   0  0  0  0  0  0  0  0  0  0  0  0
  153.0817  143.8220  159.5439 O   0  0  0  0  0  0  0  0  0  0  0  0
  152.2212  144.5350  158.6527 C   0  0  2  0  0  0  0  0  0  0  0  0
  150.9998  145.1331  159.3737 C   0  0  0  0  0  0  0  0  0  0  0  0
  151.8482  143.6511  157.4463 C   0  0  0  0  0  0  0  0  0  0  0  0
  149.3247  141.7051  156.8738 N   0  0  0  0  0  0  0  0  0  0  0  0
  148.6179  140.9858  155.9772 C   0  0  0  0  0  0  0  0  0  0  0  0
  149.1172  132.4618  155.3191 H   0  0  0  0  0  0  0  0  0  0  0  0
  149.9203  133.2640  153.9724 H   0  0  0  0  0  0  0  0  0  0  0  0
  148.1662  133.3351  154.1271 H   0  0  0  0  0  0  0  0  0  0  0  0
  148.3785  134.6630  156.2183 H   0  0  0  0  0  0  0  0  0  0  0  0
  151.4028  134.6410  155.6793 H   0  0  0  0  0  0  0  0  0  0  0  0
  150.6024  135.6062  156.9067 H   0  0  0  0  0  0  0  0  0  0  0  0
  150.6603  132.8007  156.7711 H   0  0  0  0  0  0  0  0  0  0  0  0
  149.4017  135.6482  153.6802 H   0  0  0  0  0  0  0  0  0  0  0  0
  149.0546  137.5333  153.0790 H   0  0  0  0  0  0  0  0  0  0  0  0
  148.5187  139.7268  153.0752 H   0  0  0  0  0  0  0  0  0  0  0  0
  147.3259  139.3772  154.3024 H   0  0  0  0  0  0  0  0  0  0  0  0
  151.1129  139.2795  154.4141 H   0  0  0  0  0  0  0  0  0  0  0  0
  152.4269  140.5882  156.0398 H   0  0  0  0  0  0  0  0  0  0  0  0
  151.7617  140.7581  159.1979 H   0  0  0  0  0  0  0  0  0  0  0  0
  153.1525  141.3762  158.3118 H   0  0  0  0  0  0  0  0  0  0  0  0
  151.6447  142.7678  160.5912 H   0  0  0  0  0  0  0  0  0  0  0  0
  153.2237  141.0092  161.3624 H   0  0  0  0  0  0  0  0  0  0  0  0
  153.7966  142.6151  161.8025 H   0  0  0  0  0  0  0  0  0  0  0  0
  154.5264  141.7631  160.4440 H   0  0  0  0  0  0  0  0  0  0  0  0
  152.8049  145.3758  158.2772 H   0  0  0  0  0  0  0  0  0  0  0  0
  150.4394  145.7861  158.7043 H   0  0  0  0  0  0  0  0  0  0  0  0
  151.3084  145.7289  160.2327 H   0  0  0  0  0  0  0  0  0  0  0  0
  150.3104  144.3663  159.7262 H   0  0  0  0  0  0  0  0  0  0  0  0
  152.7301  143.4894  156.8254 H   0  0  0  0  0  0  0  0  0  0  0  0
  151.1229  144.1789  156.8270 H   0  0  0  0  0  0  0  0  0  0  0  0
  147.5478  141.1280  156.0052 H   0  0  0  0  0  0  0  0  0  0  0  0
  1  2  1  0  0  0  0
  1 24  1  0  0  0  0
  1 25  1  0  0  0  0
  1 26  1  0  0  0  0
  2  3  1  0  0  0  0
  2  5  1  0  0  0  0
  2 27  1  0  0  0  0
  3  4  1  0  0  0  0
  3 28  1  0  0  0  0
  3 29  1  0  0  0  0
  4 30  1  0  0  0  0
  5  6  1  0  0  0  0
  5 31  1  0  0  0  0
  6  7  2  0  0  0  0
  6  8  1  0  0  0  0
  8  9  1  0  0  0  0
  8 32  1  0  0  0  0
  9 10  1  0  0  0  0
  9 33  1  0  0  0  0
  9 34  1  0  0  0  0
 10 23  1  0  0  0  0
 10 11  2  0  0  0  0
 11 12  1  0  0  0  0
 11 35  1  0  0  0  0
 12 13  2  0  0  0  0
 12 36  1  0  0  0  0
 13 14  1  0  0  0  0
 13 22  1  0  0  0  0
 14 21  1  0  0  0  0
 14 15  1  0  0  0  0
 15 16  1  0  0  0  0
 15 37  1  0  0  0  0
 15 38  1  0  0  0  0
 16 17  1  0  0  0  0
 16 18  1  0  0  0  0
 16 39  1  0  0  0  0
 17 40  1  0  0  0  0
 17 41  1  0  0  0  0
 17 42  1  0  0  0  0
 18 19  1  0  0  0  0
 19 20  1  0  0  0  0
 19 21  1  0  0  0  0
 19 43  1  0  0  0  0
 20 44  1  0  0  0  0
 20 45  1  0  0  0  0
 20 46  1  0  0  0  0
 21 47  1  0  0  0  0
 21 48  1  0  0  0  0
 22 23  2  0  0  0  0
 23 49  1  0  0  0  0
M  END
> <s_m_source_file>
AV-unprocessed.smi

> <i_m_source_file_index>
1983

> <i_lp_mmshare_version>
43012

> <i_f3d_flags>
0

> <s_epik_input>
W09IXVtDSDJdW0NAQEhdKFtDSDNdKVtOSF1DKD1PKVtOSF1bQ0gyXWMxW2NIXVtjSF1jKG5bY0hdMSlOMltDSDJdW0NAQEhdKFtDSDNdKU9bQ0BASF0oW0NIM10pW0NIMl0y

> <s_epik_cmdline>
J2VwaWtfcHl0aG9uJywgJy1waCcsICc3LjAnLCAnLXRuJywgJzgnLCAnLW1hJywgJzIwMCcsICctbWV0YWxfYmluZGluZycsICctaW1hZScsICc8aW5maWxlLm1hZT4nLCAnLW9tYWUnLCAnPG91dGZpbGUubWFlPic=

> <r_lp_tautomer_probability>
1

> <r_epik_Ionization_Penalty>
0.00801967

> <r_epik_Ionization_Penalty_Charging>
0

> <r_epik_Ionization_Penalty_Neutral>
0.00801967

> <r_epik_State_Penalty>
0.00598289

> <r_epik_Charging_Adjusted_Penalty>
0.00598289

> <i_epik_Tot_Q>
0

> <i_epik_Tot_abs_Q>
0

> <r_epik_Metal_State_Penalty>
0.00590297

> <b_epik_Metal_Only>
0

> <s_lp_Force_Field>
OPLS_2005

> <r_lp_Energy>
16.4024

> <b_lp_Chiralities_Consistent>
1

> <s_lp_Variant>
AV-unprocessed.smi:1983-6

> <Gold.Version>
5.8.1

> <Gold.Id.Protein>
6NUR|6NUR_protein|mol2

> <Gold.PLP.Fitness>
49.5563

> <Gold.PLP.PLP>
-42.9067

> <Gold.PLP.part.hbond>
-3.0000

> <Gold.PLP.part.metal>
0.0000

> <Gold.PLP.part.buried>
-5.0103

> <Gold.PLP.part.nonpolar>
-35.3798

> <Gold.PLP.part.repulsive>
0.2011

> <Gold.PLP.ligand.clash>
0.0000

> <Gold.PLP.ligand.torsion>
0.8966

> <Gold.PLP.Chemscore.Hbond>
2.6560

> <Gold.PLP.Chemscore.CHOScore>
0.0000

> <Gold.PLP.Chemscore.Metal>
0.0000

> <Gold.Chemscore.Hbonds>
donor molecule, donor type, donor heavy atom, donor atom, acceptor molecule, acceptor atom, score
      L1  H     5    31       P1  7948  0.86
      L1  H     8    32       P1  7948  0.98
      P1  H  6896  6909       L1     4  0.82

> <Gold.PLP.Chemscore.Internal.Correction>
0.4748

> <Gold.Rescore>
     Score         DG    S(hbond)    S(metal)    S(lipo)     H(rot)  DE(clash)    DE(int)     intcor
     18.75     -19.88       2.61        0.00     105.75       2.61       0.27       0.86       ----

> <Gold.Chemscore.Fitness>
18.7538

> <Gold.Chemscore.DG>
-19.8787

> <Gold.Chemscore.ZeroCoef>
-5.4800

> <Gold.Chemscore.Hbond>
2.6069

> <Gold.Chemscore.Metal>
0.0000

> <Gold.Chemscore.Lipo>
105.7473

> <Gold.Chemscore.Internal_Hbond>
0.0000

> <Gold.Chemscore.DEClash>
0.2666

> <Gold.Chemscore.DEInternal>
0.8583

> <Gold.Chemscore.Rot>
2.6097

> <Gold.Chemscore.Internal.Correction>
   9.000000E+99

> <Gold.Chemscore.Hbonds>
donor molecule, donor type, donor heavy atom, donor atom, acceptor molecule, acceptor atom, score
      L1  H     5    31       P1  7948  0.34
      L1  H     8    32       P1  7948  0.92
      P1  H  6896  6909       L1     4  0.76

> <Gold.Chemscore.Hbond.Weighted>
-8.7072

> <Gold.Chemscore.Metal.Weighted>
-0.0000

> <Gold.Chemscore.Lipo.Weighted>
-12.3724

> <Gold.Chemscore.Internal_Hbond.Weighted>
0.0000

> <Gold.Chemscore.DEClash.Weighted>
0.2666

> <Gold.Chemscore.DEInternal.Weighted>
0.8583

> <Gold.Chemscore.Rot.Weighted>
6.6809

> <Gold.Chemscore.Internal.Correction.Weighted>
   9.000000E+99

> <Gold.Protein.RotatedTorsions>
[ 6907 6896 6895 6894 ] final  -15.69 input  -60.11 | X-H torsion
[ 7974 7965 7964 7962 ] final -101.61 input  175.53 | X-H torsion
[ 8008 7997 7996 7995 ] final   16.30 input   59.86 | X-H torsion
[ 10167 10162 10161 10158 ] final   41.72 input  -65.29 | X-H torsion
[ 10718 10713 10712 10709 ] final   64.49 input   66.30 | X-H torsion
[ 10763 10752 10751 10750 ] final  -61.87 input  -60.55 | X-H torsion
[ 11005 11000 10999 10996 ] final  173.99 input  -57.11 | X-H torsion

> <Gold.Protein.ActiveResidues>
 VAL166  LYS551  ARG553  GLY616  TRP617  ASP618  TYR619  PRO620  LYS621  CYS622 
 ASP623  PHE694  ASN695  SER759  ASP760  ASP761  ALA762  ILE779  LEU786  VAL792 
 PHE793  MET794  SER795  GLU796  ALA797  LYS798  CYS799  TRP800  GLU811  SER814 

> <Gold.Protein.RotatedAtoms>
  151.3201  135.0816  159.9302 H   0  0  0  0  0  0  0  0  0  0  0  0  # atno 6907 bound_to 6896
  152.5258  133.9647  159.7744 H   0  0  0  0  0  0  0  0  0  0  0  0  # atno 6908 bound_to 6896
  150.9967  133.6044  159.2731 H   0  0  0  0  0  0  0  0  0  0  0  0  # atno 6909 bound_to 6896
  145.2794  140.9322  143.2940 H   0  0  0  0  0  0  0  0  0  0  0  0  # atno 7974 bound_to 7965
  154.8750  140.2964  155.5459 H   0  0  0  0  0  0  0  0  0  0  0  0  # atno 8008 bound_to 7997
  156.3022  140.2453  156.3678 H   0  0  0  0  0  0  0  0  0  0  0  0  # atno 8009 bound_to 7997
  154.8777  140.0399  157.1752 H   0  0  0  0  0  0  0  0  0  0  0  0  # atno 8010 bound_to 7997
  140.3615  144.2222  150.6138 H   0  0  0  0  0  0  0  0  0  0  0  0  # atno 10167 bound_to 10162
  157.6043  130.9163  149.9853 H   0  0  0  0  0  0  0  0  0  0  0  0  # atno 10718 bound_to 10713
  154.2912  135.6253  153.5386 H   0  0  0  0  0  0  0  0  0  0  0  0  # atno 10763 bound_to 10752
  152.9852  135.5656  154.5388 H   0  0  0  0  0  0  0  0  0  0  0  0  # atno 10764 bound_to 10752
  154.4999  135.2871  155.1405 H   0  0  0  0  0  0  0  0  0  0  0  0  # atno 10765 bound_to 10752
  140.3464  134.7232  157.4238 H   0  0  0  0  0  0  0  0  0  0  0  0  # atno 11005 bound_to 11000
  144.9266  139.4348  143.6515 LP  0  0  0  0  0  0  0  0  0  0  0  0  # atno 17320 bound_to 7965
  146.3221  139.8155  142.8937 LP  0  0  0  0  0  0  0  0  0  0  0  0  # atno 17321 bound_to 7965
  140.5122  143.2287  151.8518 LP  0  0  0  0  0  0  0  0  0  0  0  0  # atno 17342 bound_to 10162
  139.4813  144.4936  151.9152 LP  0  0  0  0  0  0  0  0  0  0  0  0  # atno 17343 bound_to 10162
  156.1125  130.3649  150.0025 LP  0  0  0  0  0  0  0  0  0  0  0  0  # atno 17370 bound_to 10713
  156.8121  130.9328  151.3644 LP  0  0  0  0  0  0  0  0  0  0  0  0  # atno 17371 bound_to 10713
  140.0739  134.5825  155.8612 LP  0  0  0  0  0  0  0  0  0  0  0  0  # atno 17394 bound_to 11000
  141.2024  133.6625  156.6005 LP  0  0  0  0  0  0  0  0  0  0  0  0  # atno 17395 bound_to 11000

$$$$
