#       Name:                AV-unprocessed.smi:2902
#       Creating user name   scv26
#       Creation time:       Fri Mar 27 16:04:16 2020


#       File generated by GOLD software.
#

@<TRIPOS>MOLECULE
AV-unprocessed.smi:2902
    53    54     1
SMALL
NO_CHARGES


@<TRIPOS>ATOM
      1 ****        -3.6936  -1.9838   2.0355 C.3            1 S1                 0.0000
      2 ****        -2.1649  -2.0775   1.9526 C.3            1 S1                 0.0000
      3 ****        -1.5801  -1.2476   0.7943 C.3            1 S1                 0.0000
      4 ****        -2.0006  -1.8485  -0.4316 O.3            1 S1                 0.0000
      5 ****        -1.7421  -1.1244  -1.6333 C.3            1 S1                 0.0000
      6 ****        -2.5303   0.1841  -1.7456 C.3            1 S1                 0.0000
      7 ****        -2.6160   0.4653  -3.2503 C.3            1 S1                 0.0000
      8 ****        -2.3935  -0.8826  -3.9546 C.3            1 S1                 0.0000
      9 ****        -2.2276  -1.9225  -2.8417 C.3            1 S1                 0.0000
     10 ****        -0.0454  -1.1912   0.8641 C.2            1 S1                 0.0000
     11 ****         0.6098  -2.2195   1.0344 O.2            1 S1                 0.0000
     12 ****         0.5092   0.0211   0.7100 N.am           1 S1                 0.0000
     13 ****         1.9411   0.3106   0.7101 C.3            1 S1                 0.0000
     14 ****         2.4978   0.1257  -0.7153 C.3            1 S1                 0.0000
     15 ****         2.1907   1.7263   1.2896 C.3            1 S1                 0.0000
     16 ****         1.6883   1.8811   2.7371 C.3            1 S1                 0.0000
     17 ****         3.5952   2.1030   1.2106 N.pl3          1 S1                 0.0000
     18 ****         4.6807   1.5429   1.7504 C.2            1 S1                 0.0000
     19 ****         5.8098   2.1754   1.4640 N.2            1 S1                 0.0000
     20 ****         5.3139   3.1889   0.6939 C.2            1 S1                 0.0000
     21 ****         3.9932   3.1935   0.5134 N.2            1 S1                 0.0000
     22 ****        -4.0739  -2.5719   2.8708 H              1 S1                 0.0000
     23 ****        -4.1623  -2.3584   1.1252 H              1 S1                 0.0000
     24 ****        -4.0178  -0.9529   2.1796 H              1 S1                 0.0000
     25 ****        -1.7436  -1.7369   2.8997 H              1 S1                 0.0000
     26 ****        -1.8746  -3.1237   1.8470 H              1 S1                 0.0000
     27 ****        -1.9790  -0.2345   0.8686 H              1 S1                 0.0000
     28 ****        -0.6768  -0.9269  -1.7609 H              1 S1                 0.0000
     29 ****        -3.5352   0.0415  -1.3454 H              1 S1                 0.0000
     30 ****        -2.0674   1.0042  -1.1959 H              1 S1                 0.0000
     31 ****        -3.5757   0.9096  -3.5156 H              1 S1                 0.0000
     32 ****        -1.8378   1.1693  -3.5474 H              1 S1                 0.0000
     33 ****        -3.2179  -1.1385  -4.6210 H              1 S1                 0.0000
     34 ****        -1.4877  -0.8347  -4.5604 H              1 S1                 0.0000
     35 ****        -1.5455  -2.7280  -3.1153 H              1 S1                 0.0000
     36 ****        -3.1967  -2.3715  -2.6186 H              1 S1                 0.0000
     37 ****        -0.1106   0.8057   0.5691 H              1 S1                 0.0000
     38 ****         2.4443  -0.4076   1.3605 H              1 S1                 0.0000
     39 ****         3.5803   0.2483  -0.7463 H              1 S1                 0.0000
     40 ****         2.0611   0.8476  -1.4063 H              1 S1                 0.0000
     41 ****         2.2799  -0.8723  -1.0974 H              1 S1                 0.0000
     42 ****         1.6315   2.4361   0.6765 H              1 S1                 0.0000
     43 ****         0.6126   1.7206   2.8095 H              1 S1                 0.0000
     44 ****         1.8911   2.8838   3.1149 H              1 S1                 0.0000
     45 ****         2.1755   1.1698   3.4047 H              1 S1                 0.0000
     46 ****         4.6439   0.6542   2.3635 H              1 S1                 0.0000
     47 ****         5.9450   3.9473   0.2545 H              1 S1                 0.0000
     48 ****        -2.9885  -1.9922  -0.3732 LP             1 S1                 0.0000
     49 ****        -1.5391  -2.7324  -0.5075 LP             1 S1                 0.0000
     50 ****         0.1440  -3.0994   1.1284 LP             1 S1                 0.0000
     51 ****         1.6079  -2.1749   1.0787 LP             1 S1                 0.0000
     52 ****         6.7508   1.9703   1.7333 LP             1 S1                 0.0000
     53 ****         3.4358   3.8405  -0.0068 LP             1 S1                 0.0000
@<TRIPOS>BOND
    1    1    2 1     
    2    1   22 1     
    3    1   23 1     
    4    1   24 1     
    5    2    3 1     
    6    2   25 1     
    7    2   26 1     
    8    3    4 1     
    9    3   10 1     
   10    3   27 1     
   11    4    5 1     
   12    5    9 1     
   13    5    6 1     
   14    5   28 1     
   15    6    7 1     
   16    6   29 1     
   17    6   30 1     
   18    7    8 1     
   19    7   31 1     
   20    7   32 1     
   21    8    9 1     
   22    8   33 1     
   23    8   34 1     
   24    9   35 1     
   25    9   36 1     
   26   10   11 2     
   27   10   12 am    
   28   12   13 1     
   29   12   37 1     
   30   13   14 1     
   31   13   15 1     
   32   13   38 1     
   33   14   39 1     
   34   14   40 1     
   35   14   41 1     
   36   15   16 1     
   37   15   17 1     
   38   15   42 1     
   39   16   43 1     
   40   16   44 1     
   41   16   45 1     
   42   17   21 1     
   43   17   18 1     
   44   18   19 2     
   45   18   46 1     
   46   19   20 1     
   47   20   21 2     
   48   20   47 1     
   49    4   48 1     
   50    4   49 1     
   51   11   50 1     
   52   11   51 1     
   53   19   52 1     
   54   21   53 1     
@<TRIPOS>SUBSTRUCTURE
      1 S1             1
@<TRIPOS>SET
LONE_PAIRS      STATIC     ATOMS    <user>   **** ""
6 48 49 50 51 52 53
DONOR_HYDROGENS      STATIC     ATOMS    <user>   **** ""
1 37
ATOM$BLUE        STATIC     ATOMS    COLORGROUP SYSTEM
6 48 49 50 51 52 53
ATOM$RED        STATIC     ATOMS    COLORGROUP SYSTEM
1 37
