AV-unprocessed.smi:1|AV-procd|sdf|9|dock2
  -GOLD-   2262015 93D 1   1.00000     0.00000
 Structure written by MMmdl.
 57 62  0  0  0  0  0  0  0  0  1 V2000
  151.4229  144.7297  158.5015 O   0  0  0  0  0  0  0  0  0  0  0  0
  152.0581  143.6978  158.7350 C   0  0  0  0  0  0  0  0  0  0  0  0
  152.3629  142.6495  157.8771 N   0  0  0  0  0  0  0  0  0  0  0  0
  151.4124  142.0043  157.2718 C   0  0  0  0  0  0  0  0  0  0  0  0
  150.0181  142.1422  157.2819 N   0  0  0  0  0  0  0  0  0  0  0  0
  149.1085  141.3623  156.5507 C   0  0  0  0  0  0  0  0  0  0  0  0
  149.4377  140.3840  155.7498 N   0  0  0  0  0  0  0  0  0  0  0  0
  150.8130  140.2051  155.7055 C   0  0  0  0  0  0  0  0  0  0  0  0
  151.8006  140.8988  156.3701 C   0  0  0  0  0  0  0  0  0  0  0  0
  153.0576  140.4006  156.0458 N   0  0  0  0  0  0  0  0  0  0  0  0
  152.7714  139.4235  155.1894 C   0  0  0  0  0  0  0  0  0  0  0  0
  151.4602  139.2510  154.9266 N   0  0  0  0  0  0  0  0  0  0  0  0
  150.8162  138.2519  154.0109 C   0  0  2  0  0  0  0  0  0  0  0  0
  149.5227  138.6848  153.7140 O   0  0  0  0  0  0  0  0  0  0  0  0
  148.5868  138.0036  154.5402 C   0  0  1  0  0  0  0  0  0  0  0  0
  147.1886  138.0625  153.9189 C   0  0  0  0  0  0  0  0  0  0  0  0
  147.1456  137.1792  152.8106 O   0  0  0  0  0  0  0  0  0  0  0  0
  145.9857  136.9639  152.1620 C   0  0  0  0  0  0  0  0  0  0  0  0
  145.0119  137.7160  152.2375 O   0  0  0  0  0  0  0  0  0  0  0  0
  146.0027  135.7169  151.3439 C   0  0  0  0  0  0  0  0  0  0  0  0
  144.9409  135.4638  150.4443 C   0  0  0  0  0  0  0  0  0  0  0  0
  144.9288  134.2942  149.6597 C   0  0  0  0  0  0  0  0  0  0  0  0
  145.9789  133.3635  149.7646 C   0  0  0  0  0  0  0  0  0  0  0  0
  147.0413  133.6040  150.6551 C   0  0  0  0  0  0  0  0  0  0  0  0
  147.0549  134.7727  151.4411 C   0  0  0  0  0  0  0  0  0  0  0  0
  149.1734  136.5943  154.6060 C   0  0  2  0  0  0  0  0  0  0  0  0
  148.7685  135.9033  155.7746 O   0  0  0  0  0  0  0  0  0  0  0  0
  149.9203  136.1293  156.9634 S   0  0  0  0  0  0  0  0  0  0  0  0
  149.3983  137.1033  157.9340 O   0  0  0  0  0  0  0  0  0  0  0  0
  150.4350  134.8107  157.3624 O   0  0  0  0  0  0  0  0  0  0  0  0
  151.0850  136.8894  156.0408 O   0  0  0  0  0  0  0  0  0  0  0  0
  150.6837  136.8666  154.6784 C   0  0  2  0  0  0  0  0  0  0  0  0
  152.6134  143.5128  160.1093 C   0  0  0  0  0  0  0  0  0  0  0  0
  153.5183  142.4619  160.3699 C   0  0  0  0  0  0  0  0  0  0  0  0
  154.0318  142.2777  161.6684 C   0  0  0  0  0  0  0  0  0  0  0  0
  153.6409  143.1415  162.7099 C   0  0  0  0  0  0  0  0  0  0  0  0
  152.7362  144.1899  162.4530 C   0  0  0  0  0  0  0  0  0  0  0  0
  152.2214  144.3754  161.1548 C   0  0  0  0  0  0  0  0  0  0  0  0
  148.0643  141.6400  156.7025 H   0  0  0  0  0  0  0  0  0  0  0  0
  153.5454  138.8185  154.7413 H   0  0  0  0  0  0  0  0  0  0  0  0
  151.4396  138.2569  153.1161 H   0  0  0  0  0  0  0  0  0  0  0  0
  148.5832  138.4512  155.5354 H   0  0  0  0  0  0  0  0  0  0  0  0
  146.4298  137.8005  154.6577 H   0  0  0  0  0  0  0  0  0  0  0  0
  146.9778  139.0746  153.5712 H   0  0  0  0  0  0  0  0  0  0  0  0
  144.1236  136.1638  150.3466 H   0  0  0  0  0  0  0  0  0  0  0  0
  144.1121  134.1115  148.9768 H   0  0  0  0  0  0  0  0  0  0  0  0
  145.9700  132.4667  149.1628 H   0  0  0  0  0  0  0  0  0  0  0  0
  147.8480  132.8904  150.7362 H   0  0  0  0  0  0  0  0  0  0  0  0
  147.8855  134.9261  152.1148 H   0  0  0  0  0  0  0  0  0  0  0  0
  148.9294  136.0263  153.7074 H   0  0  0  0  0  0  0  0  0  0  0  0
  151.2637  136.1222  154.1321 H   0  0  0  0  0  0  0  0  0  0  0  0
  153.8200  141.7934  159.5764 H   0  0  0  0  0  0  0  0  0  0  0  0
  154.7237  141.4724  161.8658 H   0  0  0  0  0  0  0  0  0  0  0  0
  154.0339  142.9985  163.7057 H   0  0  0  0  0  0  0  0  0  0  0  0
  152.4350  144.8508  163.2523 H   0  0  0  0  0  0  0  0  0  0  0  0
  151.5250  145.1797  160.9663 H   0  0  0  0  0  0  0  0  0  0  0  0
  149.6345  142.8709  157.8665 H   0  0  0  0  0  0  0  0  0  0  0  0
  1  2  2  0  0  0  0
  2  3  1  0  0  0  0
  2 33  1  0  0  0  0
  3  4  2  0  0  0  0
  4  9  1  0  0  0  0
  4  5  1  0  0  0  0
  5  6  1  0  0  0  0
  5 57  1  0  0  0  0
  6  7  2  0  0  0  0
  6 39  1  0  0  0  0
  7  8  1  0  0  0  0
  8 12  1  0  0  0  0
  8  9  2  0  0  0  0
  9 10  1  0  0  0  0
 10 11  2  0  0  0  0
 11 12  1  0  0  0  0
 11 40  1  0  0  0  0
 12 13  1  0  0  0  0
 13 32  1  0  0  0  0
 13 14  1  0  0  0  0
 13 41  1  0  0  0  0
 14 15  1  0  0  0  0
 15 16  1  0  0  0  0
 15 26  1  0  0  0  0
 15 42  1  0  0  0  0
 16 17  1  0  0  0  0
 16 43  1  0  0  0  0
 16 44  1  0  0  0  0
 17 18  1  0  0  0  0
 18 19  2  0  0  0  0
 18 20  1  0  0  0  0
 20 25  1  0  0  0  0
 20 21  2  0  0  0  0
 21 22  1  0  0  0  0
 21 45  1  0  0  0  0
 22 23  2  0  0  0  0
 22 46  1  0  0  0  0
 23 24  1  0  0  0  0
 23 47  1  0  0  0  0
 24 25  2  0  0  0  0
 24 48  1  0  0  0  0
 25 49  1  0  0  0  0
 26 32  1  0  0  0  0
 26 27  1  0  0  0  0
 26 50  1  0  0  0  0
 27 28  1  0  0  0  0
 28 29  2  0  0  0  0
 28 30  2  0  0  0  0
 28 31  1  0  0  0  0
 31 32  1  0  0  0  0
 32 51  1  0  0  0  0
 33 38  1  0  0  0  0
 33 34  2  0  0  0  0
 34 35  1  0  0  0  0
 34 52  1  0  0  0  0
 35 36  2  0  0  0  0
 35 53  1  0  0  0  0
 36 37  1  0  0  0  0
 36 54  1  0  0  0  0
 37 38  2  0  0  0  0
 37 55  1  0  0  0  0
 38 56  1  0  0  0  0
M  END
> <s_m_source_file>
AV-unprocessed.smi

> <i_m_source_file_index>
1

> <i_lp_mmshare_version>
43012

> <i_f3d_flags>
0

> <s_epik_input>
W2NIXTFbY0hdW2NIXVtjSF1bY0hdYzFDKD1PKVtOSF1jKG5bY0hdbjIpYyhjMjMpbltjSF1uM1tDQEBIXShbQ0BIXShbQ0BIXTQ1KU9TKE81KSg9Tyk9TylPW0NASF00W0NIMl1PQyg9TyljNltjSF1bY0hdW2NIXVtjSF1bY0hdNg==

> <s_epik_cmdline>
J2VwaWtfcHl0aG9uJywgJy1waCcsICc3LjAnLCAnLXRuJywgJzgnLCAnLW1hJywgJzIwMCcsICctbWV0YWxfYmluZGluZycsICctaW1hZScsICc8aW5maWxlLm1hZT4nLCAnLW9tYWUnLCAnPG91dGZpbGUubWFlPic=

> <r_epik_Ionization_Penalty>
0.122545

> <r_epik_Ionization_Penalty_Charging>
0.122545

> <r_epik_Ionization_Penalty_Neutral>
7.8935e-16

> <r_epik_State_Penalty>
2.69178

> <r_epik_Charging_Adjusted_Penalty>
2.81433

> <i_epik_Tot_Q>
0

> <i_epik_Tot_abs_Q>
0

> <r_epik_Metal_State_Penalty>
3.02665

> <b_epik_Metal_Only>
0

> <s_epik_Chemistry_Notes>
This compound has an ester and may undergo hydrolysis at high or low pH. This compound contains an acetal/aminal-like group ( X-CH(R)-Y where X, Y are N, S, or O) that may be acid/base labile, releasing an aldehyde.

> <s_lp_Force_Field>
OPLS_2005

> <r_lp_Energy>
57.7872

> <b_lp_Chiralities_Consistent>
1

> <s_lp_Variant>
AV-unprocessed.smi:1-9

> <Gold.Version>
5.8.1

> <Gold.Id.Protein>
6NUR|6NUR_protein|mol2

> <Gold.PLP.Fitness>
58.7903

> <Gold.PLP.PLP>
-55.6491

> <Gold.PLP.part.hbond>
-2.0000

> <Gold.PLP.part.metal>
0.0000

> <Gold.PLP.part.buried>
-7.5279

> <Gold.PLP.part.nonpolar>
-49.9582

> <Gold.PLP.part.repulsive>
4.0741

> <Gold.PLP.ligand.clash>
0.0000

> <Gold.PLP.ligand.torsion>
1.5756

> <Gold.PLP.Chemscore.Hbond>
2.0000

> <Gold.PLP.Chemscore.CHOScore>
0.0000

> <Gold.PLP.Chemscore.Metal>
0.0000

> <Gold.Chemscore.Hbonds>
donor molecule, donor type, donor heavy atom, donor atom, acceptor molecule, acceptor atom, score
      P1  H  6896  6907       L1    30  0.49
      P1  H  7997  8010       L1    10  0.49

> <Gold.PLP.Chemscore.Internal.Correction>
0.2923

> <Gold.Rescore>
     Score         DG    S(hbond)    S(metal)    S(lipo)     H(rot)  DE(clash)    DE(int)     intcor
     13.85     -20.27       1.84        0.00     120.60       2.13       1.97       4.45       ----

> <Gold.Chemscore.Fitness>
13.8485

> <Gold.Chemscore.DG>
-20.2681

> <Gold.Chemscore.ZeroCoef>
-5.4800

> <Gold.Chemscore.Hbond>
1.8382

> <Gold.Chemscore.Metal>
0.0000

> <Gold.Chemscore.Lipo>
120.5958

> <Gold.Chemscore.Internal_Hbond>
0.0000

> <Gold.Chemscore.DEClash>
1.9742

> <Gold.Chemscore.DEInternal>
4.4454

> <Gold.Chemscore.Rot>
2.1333

> <Gold.Chemscore.Internal.Correction>
   9.000000E+99

> <Gold.Chemscore.Hbonds>
donor molecule, donor type, donor heavy atom, donor atom, acceptor molecule, acceptor atom, score
      P1  H  6896  6907       L1    30  0.47
      P1  H  7997  8010       L1    10  0.24

> <Gold.Chemscore.Hbond.Weighted>
-6.1398

> <Gold.Chemscore.Metal.Weighted>
-0.0000

> <Gold.Chemscore.Lipo.Weighted>
-14.1097

> <Gold.Chemscore.Internal_Hbond.Weighted>
0.0000

> <Gold.Chemscore.DEClash.Weighted>
1.9742

> <Gold.Chemscore.DEInternal.Weighted>
4.4454

> <Gold.Chemscore.Rot.Weighted>
5.4614

> <Gold.Chemscore.Internal.Correction.Weighted>
   9.000000E+99

> <Gold.Protein.RotatedTorsions>
[ 6907 6896 6895 6894 ] final  -96.77 input  -60.11 | X-H torsion
[ 7974 7965 7964 7962 ] final   61.10 input  175.53 | X-H torsion
[ 8008 7997 7996 7995 ] final   67.70 input   59.86 | X-H torsion
[ 10167 10162 10161 10158 ] final   53.94 input  -65.29 | X-H torsion
[ 10718 10713 10712 10709 ] final  -84.29 input   66.30 | X-H torsion
[ 10763 10752 10751 10750 ] final -147.69 input  -60.55 | X-H torsion
[ 11005 11000 10999 10996 ] final   49.41 input  -57.11 | X-H torsion

> <Gold.Protein.ActiveResidues>
 VAL166  LYS551  ARG553  GLY616  TRP617  ASP618  TYR619  PRO620  LYS621  CYS622 
 ASP623  PHE694  ASN695  SER759  ASP760  ASP761  ALA762  ILE779  LEU786  VAL792 
 PHE793  MET794  SER795  GLU796  ALA797  LYS798  CYS799  TRP800  GLU811  SER814 

> <Gold.Protein.RotatedAtoms>
  150.6997  134.1452  159.4119 H   0  0  0  0  0  0  0  0  0  0  0  0  # atno 6907 bound_to 6896
  151.9435  135.0200  160.0546 H   0  0  0  0  0  0  0  0  0  0  0  0  # atno 6908 bound_to 6896
  152.2073  133.4849  159.5127 H   0  0  0  0  0  0  0  0  0  0  0  0  # atno 6909 bound_to 6896
  145.8886  139.3495  143.0663 H   0  0  0  0  0  0  0  0  0  0  0  0  # atno 7974 bound_to 7965
  155.6969  140.3495  155.4917 H   0  0  0  0  0  0  0  0  0  0  0  0  # atno 8008 bound_to 7997
  155.9474  140.1113  157.1027 H   0  0  0  0  0  0  0  0  0  0  0  0  # atno 8009 bound_to 7997
  154.4115  140.1201  156.4994 H   0  0  0  0  0  0  0  0  0  0  0  0  # atno 8010 bound_to 7997
  140.2354  144.3641  150.6399 H   0  0  0  0  0  0  0  0  0  0  0  0  # atno 10167 bound_to 10162
  156.0008  130.4693  150.4387 H   0  0  0  0  0  0  0  0  0  0  0  0  # atno 10718 bound_to 10713
  154.8273  135.3354  154.6857 H   0  0  0  0  0  0  0  0  0  0  0  0  # atno 10763 bound_to 10752
  153.7482  135.6941  153.4956 H   0  0  0  0  0  0  0  0  0  0  0  0  # atno 10764 bound_to 10752
  153.2195  135.4454  155.0424 H   0  0  0  0  0  0  0  0  0  0  0  0  # atno 10765 bound_to 10752
  140.1106  134.4960  155.8681 H   0  0  0  0  0  0  0  0  0  0  0  0  # atno 11005 bound_to 11000
  145.8936  140.9288  143.0539 LP  0  0  0  0  0  0  0  0  0  0  0  0  # atno 17320 bound_to 7965
  144.6729  140.0938  143.7464 LP  0  0  0  0  0  0  0  0  0  0  0  0  # atno 17321 bound_to 7965
  140.6154  143.2172  151.6803 LP  0  0  0  0  0  0  0  0  0  0  0  0  # atno 17342 bound_to 10162
  139.5095  144.3573  152.0595 LP  0  0  0  0  0  0  0  0  0  0  0  0  # atno 17343 bound_to 10162
  157.2430  131.0529  151.2425 LP  0  0  0  0  0  0  0  0  0  0  0  0  # atno 17370 bound_to 10713
  157.3602  130.7127  149.6497 LP  0  0  0  0  0  0  0  0  0  0  0  0  # atno 17371 bound_to 10713
  141.2129  133.6726  156.6696 LP  0  0  0  0  0  0  0  0  0  0  0  0  # atno 17394 bound_to 11000
  140.3097  134.8096  157.4166 LP  0  0  0  0  0  0  0  0  0  0  0  0  # atno 17395 bound_to 11000

$$$$
