AV-unprocessed.smi:1965|AV-procd|sdf|7943|dock9
  -GOLD-   2272010113D 1   1.00000     0.00000
 Structure written by MMmdl.
 36 38  0  0  0  0  0  0  0  0  3 V2000
  151.5127  143.7555  156.6742 O   0  0  0  0  0  0  0  0  0  0  0  0
  151.0167  142.8138  157.2909 C   0  0  0  0  0  0  0  0  0  0  0  0
  150.1804  141.9032  156.7278 N   0  5  0  0  0  0  0  0  0  0  0  0
  150.6289  140.8652  155.9974 C   0  0  0  0  0  0  0  0  0  0  0  0
  150.0398  140.4572  154.8674 N   0  0  0  0  0  0  0  0  0  0  0  0
  150.6676  139.3576  154.2796 C   0  0  0  0  0  0  0  0  0  0  0  0
  151.7604  138.9181  154.9782 C   0  0  0  0  0  0  0  0  0  0  0  0
  152.0396  139.8822  156.4002 S   0  0  0  0  0  0  0  0  0  0  0  0
  151.3075  142.6657  158.5962 N   0  0  0  0  0  0  0  0  0  0  0  0
  152.1859  143.5143  159.3937 C   0  0  1  0  0  0  0  0  0  0  0  0
  151.4318  144.4180  160.3932 C   0  0  0  0  0  0  0  0  0  0  0  0
  152.1877  144.2635  161.7169 C   0  0  0  0  0  0  0  0  0  0  0  0
  152.7121  142.8943  161.6446 N   0  3  2  0  0  0  0  0  0  0  0  0
  153.7218  142.4785  162.6398 C   0  0  0  0  0  0  0  0  0  0  0  0
  154.0037  140.9714  162.4580 C   0  0  0  0  0  0  0  0  0  0  0  0
  154.3699  140.6171  160.9991 C   0  0  0  0  0  0  0  0  0  0  0  0
  153.3348  141.1786  160.0021 C   0  0  0  0  0  0  0  0  0  0  0  0
  153.1609  142.6876  160.2576 C   0  0  1  0  0  0  0  0  0  0  0  0
  150.2679  138.9519  153.3621 H   0  0  0  0  0  0  0  0  0  0  0  0
  152.4180  138.0949  154.7426 H   0  0  0  0  0  0  0  0  0  0  0  0
  150.8810  141.8838  159.0714 H   0  0  0  0  0  0  0  0  0  0  0  0
  152.7733  144.1320  158.7117 H   0  0  0  0  0  0  0  0  0  0  0  0
  151.3828  145.4559  160.0629 H   0  0  0  0  0  0  0  0  0  0  0  0
  150.4063  144.0679  160.5220 H   0  0  0  0  0  0  0  0  0  0  0  0
  153.0152  144.9728  161.7706 H   0  0  0  0  0  0  0  0  0  0  0  0
  151.5471  144.4107  162.5870 H   0  0  0  0  0  0  0  0  0  0  0  0
  154.6349  143.0624  162.5142 H   0  0  0  0  0  0  0  0  0  0  0  0
  153.3480  142.6727  163.6456 H   0  0  0  0  0  0  0  0  0  0  0  0
  154.8019  140.6564  163.1306 H   0  0  0  0  0  0  0  0  0  0  0  0
  153.1175  140.4053  162.7483 H   0  0  0  0  0  0  0  0  0  0  0  0
  155.3539  141.0260  160.7659 H   0  0  0  0  0  0  0  0  0  0  0  0
  154.4517  139.5358  160.8847 H   0  0  0  0  0  0  0  0  0  0  0  0
  153.6648  141.0000  158.9781 H   0  0  0  0  0  0  0  0  0  0  0  0
  152.3842  140.6571  160.1243 H   0  0  0  0  0  0  0  0  0  0  0  0
  154.1400  143.1616  160.1572 H   0  0  0  0  0  0  0  0  0  0  0  0
  151.9118  142.2909  161.7710 H   0  0  0  0  0  0  0  0  0  0  0  0
  1  2  2  0  0  0  0
  2  3  1  0  0  0  0
  2  9  1  0  0  0  0
  3  4  1  0  0  0  0
  4  8  1  0  0  0  0
  4  5  2  0  0  0  0
  5  6  1  0  0  0  0
  6  7  2  0  0  0  0
  6 19  1  0  0  0  0
  7  8  1  0  0  0  0
  7 20  1  0  0  0  0
  9 10  1  0  0  0  0
  9 21  1  0  0  0  0
 10 18  1  0  0  0  0
 10 11  1  0  0  0  0
 10 22  1  0  0  0  0
 11 12  1  0  0  0  0
 11 23  1  0  0  0  0
 11 24  1  0  0  0  0
 12 13  1  0  0  0  0
 12 25  1  0  0  0  0
 12 26  1  0  0  0  0
 13 18  1  0  0  0  0
 13 14  1  0  0  0  0
 13 36  1  0  0  0  0
 14 15  1  0  0  0  0
 14 27  1  0  0  0  0
 14 28  1  0  0  0  0
 15 16  1  0  0  0  0
 15 29  1  0  0  0  0
 15 30  1  0  0  0  0
 16 17  1  0  0  0  0
 16 31  1  0  0  0  0
 16 32  1  0  0  0  0
 17 18  1  0  0  0  0
 17 33  1  0  0  0  0
 17 34  1  0  0  0  0
 18 35  1  0  0  0  0
M  CHG  1   3  -1
M  CHG  1  13   1
M  END
> <s_m_source_file>
AV-unprocessed.smi

> <i_m_source_file_index>
1965

> <i_lp_mmshare_version>
43012

> <i_f3d_flags>
0

> <s_epik_input>
czFbY0hdW2NIXW5jMVtOSF1DKD1PKVtOSF1bQ0BIXShbQ0gyXVtDSDJdMilbQ0BASF0oTjIzKVtDSDJdW0NIMl1bQ0gyXVtDSDJdMw==

> <s_epik_cmdline>
J2VwaWtfcHl0aG9uJywgJy1waCcsICc3LjAnLCAnLXRuJywgJzgnLCAnLW1hJywgJzIwMCcsICctbWV0YWxfYmluZGluZycsICctaW1hZScsICc8aW5maWxlLm1hZT4nLCAnLW9tYWUnLCAnPG91dGZpbGUubWFlPic=

> <r_lp_tautomer_probability>
1

> <r_epik_Ionization_Penalty>
7.4116

> <r_epik_Ionization_Penalty_Charging>
6.13869

> <r_epik_Ionization_Penalty_Neutral>
1.27291

> <r_epik_State_Penalty>
6.13761

> <r_epik_Charging_Adjusted_Penalty>
12.2763

> <i_epik_Tot_Q>
0

> <i_epik_Tot_abs_Q>
2

> <r_epik_Metal_State_Penalty>
2.08142

> <b_epik_Metal_Only>
1

> <s_lp_Force_Field>
OPLS_2005

> <r_lp_Energy>
32.5812

> <b_lp_Chiralities_Consistent>
1

> <s_lp_Variant>
AV-unprocessed.smi:1965-12

> <Gold.Version>
5.8.1

> <Gold.Id.Protein>
6NUR|6NUR_protein|mol2

> <Gold.PLP.Fitness>
37.1702

> <Gold.PLP.PLP>
-36.5844

> <Gold.PLP.part.hbond>
-0.9927

> <Gold.PLP.part.metal>
0.0000

> <Gold.PLP.part.buried>
-0.9622

> <Gold.PLP.part.nonpolar>
-35.9427

> <Gold.PLP.part.repulsive>
1.5765

> <Gold.PLP.ligand.clash>
0.0000

> <Gold.PLP.ligand.torsion>
1.2083

> <Gold.PLP.Chemscore.Hbond>
0.0000

> <Gold.PLP.Chemscore.CHOScore>
1.0000

> <Gold.PLP.Chemscore.Metal>
0.0000

> <Gold.Chemscore.Hbonds>
donor molecule, donor type, donor heavy atom, donor atom, acceptor molecule, acceptor atom, score
      L1  C     6    19       P1  7957  1.00

> <Gold.PLP.Chemscore.Internal.Correction>
0.0025

> <Gold.Rescore>
     Score         DG    S(hbond)    S(metal)    S(lipo)     H(rot)  DE(clash)    DE(int)     intcor
     13.01     -15.85       0.00        0.00     110.49       1.00       1.76       1.07       ----

> <Gold.Chemscore.Fitness>
13.0144

> <Gold.Chemscore.DG>
-15.8474

> <Gold.Chemscore.ZeroCoef>
-5.4800

> <Gold.Chemscore.Hbond>
0.0000

> <Gold.Chemscore.Metal>
0.0000

> <Gold.Chemscore.Lipo>
110.4907

> <Gold.Chemscore.Internal_Hbond>
0.0000

> <Gold.Chemscore.DEClash>
1.7630

> <Gold.Chemscore.DEInternal>
1.0700

> <Gold.Chemscore.Rot>
1.0000

> <Gold.Chemscore.Internal.Correction>
   9.000000E+99

> <Gold.Chemscore.Hbond.Weighted>
-0.0000

> <Gold.Chemscore.Metal.Weighted>
-0.0000

> <Gold.Chemscore.Lipo.Weighted>
-12.9274

> <Gold.Chemscore.Internal_Hbond.Weighted>
0.0000

> <Gold.Chemscore.DEClash.Weighted>
1.7630

> <Gold.Chemscore.DEInternal.Weighted>
1.0700

> <Gold.Chemscore.Rot.Weighted>
2.5600

> <Gold.Chemscore.Internal.Correction.Weighted>
   9.000000E+99

> <Gold.Protein.RotatedTorsions>
[ 6907 6896 6895 6894 ] final   29.90 input  -60.11 | X-H torsion
[ 7974 7965 7964 7962 ] final  168.43 input  175.53 | X-H torsion
[ 8008 7997 7996 7995 ] final   93.65 input   59.86 | X-H torsion
[ 10167 10162 10161 10158 ] final  151.83 input  -65.29 | X-H torsion
[ 10718 10713 10712 10709 ] final   39.53 input   66.30 | X-H torsion
[ 10763 10752 10751 10750 ] final   14.74 input  -60.55 | X-H torsion
[ 11005 11000 10999 10996 ] final   -4.40 input  -57.11 | X-H torsion

> <Gold.Protein.ActiveResidues>
 VAL166  LYS551  ARG553  GLY616  TRP617  ASP618  TYR619  PRO620  LYS621  CYS622 
 ASP623  PHE694  ASN695  SER759  ASP760  ASP761  ALA762  ILE779  LEU786  VAL792 
 PHE793  MET794  SER795  GLU796  ALA797  LYS798  CYS799  TRP800  GLU811  SER814 

> <Gold.Protein.RotatedAtoms>
  152.0382  134.9727  160.0573 H   0  0  0  0  0  0  0  0  0  0  0  0  # atno 6907 bound_to 6896
  152.1177  133.4331  159.4669 H   0  0  0  0  0  0  0  0  0  0  0  0  # atno 6908 bound_to 6896
  150.6847  134.2491  159.4547 H   0  0  0  0  0  0  0  0  0  0  0  0  # atno 6909 bound_to 6896
  144.7389  139.8906  143.6403 H   0  0  0  0  0  0  0  0  0  0  0  0  # atno 7974 bound_to 7965
  156.0491  140.3310  155.7330 H   0  0  0  0  0  0  0  0  0  0  0  0  # atno 8008 bound_to 7997
  155.5628  140.0620  157.2842 H   0  0  0  0  0  0  0  0  0  0  0  0  # atno 8009 bound_to 7997
  154.4427  140.1874  156.0788 H   0  0  0  0  0  0  0  0  0  0  0  0  # atno 8010 bound_to 7997
  139.4837  144.5408  151.7567 H   0  0  0  0  0  0  0  0  0  0  0  0  # atno 10167 bound_to 10162
  157.3717  130.7704  149.7124 H   0  0  0  0  0  0  0  0  0  0  0  0  # atno 10718 bound_to 10713
  153.1593  135.6793  153.8766 H   0  0  0  0  0  0  0  0  0  0  0  0  # atno 10763 bound_to 10752
  153.8167  135.3135  155.3407 H   0  0  0  0  0  0  0  0  0  0  0  0  # atno 10764 bound_to 10752
  154.7920  135.4829  154.0164 H   0  0  0  0  0  0  0  0  0  0  0  0  # atno 10765 bound_to 10752
  140.6798  133.9163  155.8548 H   0  0  0  0  0  0  0  0  0  0  0  0  # atno 11005 bound_to 11000
  146.1144  139.4153  143.0267 LP  0  0  0  0  0  0  0  0  0  0  0  0  # atno 17320 bound_to 7965
  145.7396  141.0013  143.1308 LP  0  0  0  0  0  0  0  0  0  0  0  0  # atno 17321 bound_to 7965
  140.4947  144.1257  150.5958 LP  0  0  0  0  0  0  0  0  0  0  0  0  # atno 17342 bound_to 10162
  140.4130  143.2647  151.9809 LP  0  0  0  0  0  0  0  0  0  0  0  0  # atno 17343 bound_to 10162
  155.9757  130.4086  150.3832 LP  0  0  0  0  0  0  0  0  0  0  0  0  # atno 17370 bound_to 10713
  157.1924  131.0418  151.2693 LP  0  0  0  0  0  0  0  0  0  0  0  0  # atno 17371 bound_to 10713
  141.0326  134.0734  157.3996 LP  0  0  0  0  0  0  0  0  0  0  0  0  # atno 17394 bound_to 11000
  139.8955  135.0141  156.7005 LP  0  0  0  0  0  0  0  0  0  0  0  0  # atno 17395 bound_to 11000

$$$$
