AV-unprocessed.smi:1087|AV-procd|sdf|4725|dock4
  -GOLD-   22720 3253D 1   1.00000     0.00000
 Structure written by MMmdl.
 47 48  0  0  0  0  0  0  0  0  2 V2000
  144.3661  133.8111  150.6816 C   0  0  0  0  0  0  0  0  0  0  0  0
  144.9850  134.2645  151.8729 O   0  0  0  0  0  0  0  0  0  0  0  0
  145.6912  135.4801  151.6893 C   0  0  0  0  0  0  0  0  0  0  0  0
  144.7050  136.6526  151.8081 C   0  0  0  0  0  0  0  0  0  0  0  0
  145.3309  137.8701  152.3846 N   0  3  2  0  0  0  0  0  0  0  0  0
  146.5067  138.3215  151.5964 C   0  0  0  0  0  0  0  0  0  0  0  0
  147.0554  139.6565  152.1269 C   0  0  0  0  0  0  0  0  0  0  0  0
  147.4237  139.5580  153.6164 C   0  0  1  0  0  0  0  0  0  0  0  0
  147.9757  140.8988  154.1490 C   0  0  0  0  0  0  0  0  0  0  0  0
  149.3454  140.7816  154.6371 N   0  0  0  0  0  0  0  0  0  0  0  0
  149.7791  141.2186  155.8287 C   0  0  0  0  0  0  0  0  0  0  0  0
  149.0376  141.7173  156.6761 O   0  0  0  0  0  0  0  0  0  0  0  0
  151.2811  141.0637  156.1009 C   0  0  0  0  0  0  0  0  0  0  0  0
  151.7016  141.7256  157.3464 N   0  0  0  0  0  0  0  0  0  0  0  0
  151.3373  143.0707  157.5246 C   0  0  0  0  0  0  0  0  0  0  0  0
  151.6918  143.7389  158.6316 C   0  0  0  0  0  0  0  0  0  0  0  0
  152.4702  142.9890  159.6258 C   0  0  0  0  0  0  0  0  0  0  0  0
  152.8066  141.7637  159.4653 N   0  0  0  0  0  0  0  0  0  0  0  0
  152.4347  141.0648  158.3014 C   0  0  0  0  0  0  0  0  0  0  0  0
  152.7593  139.8879  158.1384 O   0  0  0  0  0  0  0  0  0  0  0  0
  146.1950  139.0591  154.4022 C   0  0  0  0  0  0  0  0  0  0  0  0
  145.6633  137.7357  153.8278 C   0  0  0  0  0  0  0  0  0  0  0  0
  143.8384  132.8772  150.8752 H   0  0  0  0  0  0  0  0  0  0  0  0
  145.1039  133.6245  149.9001 H   0  0  0  0  0  0  0  0  0  0  0  0
  143.6407  134.5371  150.3122 H   0  0  0  0  0  0  0  0  0  0  0  0
  146.5064  135.5655  152.4077 H   0  0  0  0  0  0  0  0  0  0  0  0
  146.1421  135.4899  150.6960 H   0  0  0  0  0  0  0  0  0  0  0  0
  144.2755  136.8893  150.8336 H   0  0  0  0  0  0  0  0  0  0  0  0
  143.8748  136.3305  152.4382 H   0  0  0  0  0  0  0  0  0  0  0  0
  147.2834  137.5554  151.6272 H   0  0  0  0  0  0  0  0  0  0  0  0
  146.2239  138.4450  150.5503 H   0  0  0  0  0  0  0  0  0  0  0  0
  147.9306  139.9478  151.5449 H   0  0  0  0  0  0  0  0  0  0  0  0
  146.3117  140.4409  151.9794 H   0  0  0  0  0  0  0  0  0  0  0  0
  148.2097  138.8070  153.7108 H   0  0  0  0  0  0  0  0  0  0  0  0
  147.9307  141.6644  153.3726 H   0  0  0  0  0  0  0  0  0  0  0  0
  147.3556  141.2580  154.9711 H   0  0  0  0  0  0  0  0  0  0  0  0
  150.0207  140.3708  154.0087 H   0  0  0  0  0  0  0  0  0  0  0  0
  151.5123  139.9982  156.1301 H   0  0  0  0  0  0  0  0  0  0  0  0
  151.8556  141.4608  155.2617 H   0  0  0  0  0  0  0  0  0  0  0  0
  150.7703  143.5128  156.7184 H   0  0  0  0  0  0  0  0  0  0  0  0
  151.4479  144.7720  158.8295 H   0  0  0  0  0  0  0  0  0  0  0  0
  152.7482  143.5500  160.5217 H   0  0  0  0  0  0  0  0  0  0  0  0
  146.4473  138.9129  155.4529 H   0  0  0  0  0  0  0  0  0  0  0  0
  145.4069  139.8128  154.3760 H   0  0  0  0  0  0  0  0  0  0  0  0
  144.7830  137.4376  154.3959 H   0  0  0  0  0  0  0  0  0  0  0  0
  146.4059  136.9469  153.9606 H   0  0  0  0  0  0  0  0  0  0  0  0
  144.6427  138.6056  152.3070 H   0  0  0  0  0  0  0  0  0  0  0  0
  1  2  1  0  0  0  0
  1 23  1  0  0  0  0
  1 24  1  0  0  0  0
  1 25  1  0  0  0  0
  2  3  1  0  0  0  0
  3  4  1  0  0  0  0
  3 26  1  0  0  0  0
  3 27  1  0  0  0  0
  4  5  1  0  0  0  0
  4 28  1  0  0  0  0
  4 29  1  0  0  0  0
  5 22  1  0  0  0  0
  5  6  1  0  0  0  0
  5 47  1  0  0  0  0
  6  7  1  0  0  0  0
  6 30  1  0  0  0  0
  6 31  1  0  0  0  0
  7  8  1  0  0  0  0
  7 32  1  0  0  0  0
  7 33  1  0  0  0  0
  8  9  1  0  0  0  0
  8 21  1  0  0  0  0
  8 34  1  0  0  0  0
  9 10  1  0  0  0  0
  9 35  1  0  0  0  0
  9 36  1  0  0  0  0
 10 11  1  0  0  0  0
 10 37  1  0  0  0  0
 11 12  2  0  0  0  0
 11 13  1  0  0  0  0
 13 14  1  0  0  0  0
 13 38  1  0  0  0  0
 13 39  1  0  0  0  0
 14 19  1  0  0  0  0
 14 15  1  0  0  0  0
 15 16  2  0  0  0  0
 15 40  1  0  0  0  0
 16 17  1  0  0  0  0
 16 41  1  0  0  0  0
 17 18  2  0  0  0  0
 17 42  1  0  0  0  0
 18 19  1  0  0  0  0
 19 20  2  0  0  0  0
 21 22  1  0  0  0  0
 21 43  1  0  0  0  0
 21 44  1  0  0  0  0
 22 45  1  0  0  0  0
 22 46  1  0  0  0  0
M  CHG  1   5   1
M  END
> <s_m_source_file>
AV-unprocessed.smi

> <i_m_source_file_index>
1087

> <i_lp_mmshare_version>
43012

> <i_f3d_flags>
0

> <s_epik_input>
W0NIM11PW0NIMl1bQ0gyXU4xW0NIMl1bQ0gyXVtDSF0oW0NIMl1bQ0gyXTEpW0NIMl1bTkhdQyg9TylbQ0gyXW4yW2NIXVtjSF1bY0hdbmMyPU8=

> <s_epik_cmdline>
J2VwaWtfcHl0aG9uJywgJy1waCcsICc3LjAnLCAnLXRuJywgJzgnLCAnLW1hJywgJzIwMCcsICctbWV0YWxfYmluZGluZycsICctaW1hZScsICc8aW5maWxlLm1hZT4nLCAnLW9tYWUnLCAnPG91dGZpbGUubWFlPic=

> <r_lp_tautomer_probability>
1

> <r_epik_Ionization_Penalty>
0.00982698

> <r_epik_Ionization_Penalty_Charging>
0.00982062

> <r_epik_Ionization_Penalty_Neutral>
6.35787e-06

> <r_epik_State_Penalty>
0.00747828

> <r_epik_Charging_Adjusted_Penalty>
0.0172989

> <i_epik_Tot_Q>
1

> <i_epik_Tot_abs_Q>
1

> <r_epik_Metal_State_Penalty>
0.00747829

> <b_epik_Metal_Only>
0

> <s_lp_Force_Field>
OPLS_2005

> <r_lp_Energy>
21.8948

> <b_lp_Chiralities_Consistent>
1

> <s_lp_Variant>
AV-unprocessed.smi:1087-1

> <Gold.Version>
5.8.1

> <Gold.Id.Protein>
6NUR|6NUR_protein|mol2

> <Gold.PLP.Fitness>
45.4112

> <Gold.PLP.PLP>
-35.8896

> <Gold.PLP.part.hbond>
-3.0000

> <Gold.PLP.part.metal>
0.0000

> <Gold.PLP.part.buried>
0.8453

> <Gold.PLP.part.nonpolar>
-33.8931

> <Gold.PLP.part.repulsive>
0.4225

> <Gold.PLP.ligand.clash>
0.0000

> <Gold.PLP.ligand.torsion>
1.2862

> <Gold.PLP.Chemscore.Hbond>
3.0000

> <Gold.PLP.Chemscore.CHOScore>
1.0000

> <Gold.PLP.Chemscore.Metal>
0.0000

> <Gold.Chemscore.Hbonds>
donor molecule, donor type, donor heavy atom, donor atom, acceptor molecule, acceptor atom, score
      L1  H     5    47       P1 10175  1.72
      P1  H  7997  8009       L1    20  0.73
      L1  C    15    40       P1  8028  1.00

> <Gold.PLP.Chemscore.Internal.Correction>
0.0940

> <Gold.Rescore>
     Score         DG    S(hbond)    S(metal)    S(lipo)     H(rot)  DE(clash)    DE(int)     intcor
     11.04     -16.31       1.87        0.00      92.61       2.45       2.33       2.94       ----

> <Gold.Chemscore.Fitness>
11.0403

> <Gold.Chemscore.DG>
-16.3094

> <Gold.Chemscore.ZeroCoef>
-5.4800

> <Gold.Chemscore.Hbond>
1.8726

> <Gold.Chemscore.Metal>
0.0000

> <Gold.Chemscore.Lipo>
92.6098

> <Gold.Chemscore.Internal_Hbond>
0.0000

> <Gold.Chemscore.DEClash>
2.3267

> <Gold.Chemscore.DEInternal>
2.9423

> <Gold.Chemscore.Rot>
2.4454

> <Gold.Chemscore.Internal.Correction>
   9.000000E+99

> <Gold.Chemscore.Hbonds>
donor molecule, donor type, donor heavy atom, donor atom, acceptor molecule, acceptor atom, score
      L1  H     5    47       P1 10175  0.84
      P1  H  7997  8009       L1    20  0.25

> <Gold.Chemscore.Hbond.Weighted>
-6.2543

> <Gold.Chemscore.Metal.Weighted>
-0.0000

> <Gold.Chemscore.Lipo.Weighted>
-10.8353

> <Gold.Chemscore.Internal_Hbond.Weighted>
0.0000

> <Gold.Chemscore.DEClash.Weighted>
2.3267

> <Gold.Chemscore.DEInternal.Weighted>
2.9423

> <Gold.Chemscore.Rot.Weighted>
6.2603

> <Gold.Chemscore.Internal.Correction.Weighted>
   9.000000E+99

> <Gold.Protein.RotatedTorsions>
[ 6907 6896 6895 6894 ] final  -45.62 input  -60.11 | X-H torsion
[ 7974 7965 7964 7962 ] final  110.50 input  175.53 | X-H torsion
[ 8008 7997 7996 7995 ] final  165.62 input   59.86 | X-H torsion
[ 10167 10162 10161 10158 ] final -176.96 input  -65.29 | X-H torsion
[ 10718 10713 10712 10709 ] final  137.73 input   66.30 | X-H torsion
[ 10763 10752 10751 10750 ] final   79.07 input  -60.55 | X-H torsion
[ 11005 11000 10999 10996 ] final   72.31 input  -57.11 | X-H torsion

> <Gold.Protein.ActiveResidues>
 VAL166  LYS551  ARG553  GLY616  TRP617  ASP618  TYR619  PRO620  LYS621  CYS622 
 ASP623  PHE694  ASN695  SER759  ASP760  ASP761  ALA762  ILE779  LEU786  VAL792 
 PHE793  MET794  SER795  GLU796  ALA797  LYS798  CYS799  TRP800  GLU811  SER814 

> <Gold.Protein.RotatedAtoms>
  150.9199  134.8617  159.7481 H   0  0  0  0  0  0  0  0  0  0  0  0  # atno 6907 bound_to 6896
  152.4987  134.4233  159.9498 H   0  0  0  0  0  0  0  0  0  0  0  0  # atno 6908 bound_to 6896
  151.4268  133.3642  159.2798 H   0  0  0  0  0  0  0  0  0  0  0  0  # atno 6909 bound_to 6896
  145.2542  139.2727  143.4051 H   0  0  0  0  0  0  0  0  0  0  0  0  # atno 7974 bound_to 7965
  156.1785  140.1665  156.8318 H   0  0  0  0  0  0  0  0  0  0  0  0  # atno 8008 bound_to 7997
  154.5334  140.0752  156.8418 H   0  0  0  0  0  0  0  0  0  0  0  0  # atno 8009 bound_to 7997
  155.3361  140.3382  155.4241 H   0  0  0  0  0  0  0  0  0  0  0  0  # atno 8010 bound_to 7997
  139.5504  144.2125  152.1066 H   0  0  0  0  0  0  0  0  0  0  0  0  # atno 10167 bound_to 10162
  157.4330  131.1050  151.0229 H   0  0  0  0  0  0  0  0  0  0  0  0  # atno 10718 bound_to 10713
  153.0923  135.4853  154.8713 H   0  0  0  0  0  0  0  0  0  0  0  0  # atno 10763 bound_to 10752
  154.7284  135.3054  154.8935 H   0  0  0  0  0  0  0  0  0  0  0  0  # atno 10764 bound_to 10752
  153.9578  135.6816  153.4798 H   0  0  0  0  0  0  0  0  0  0  0  0  # atno 10765 bound_to 10752
  139.9498  134.7248  156.0891 H   0  0  0  0  0  0  0  0  0  0  0  0  # atno 11005 bound_to 11000
  146.3294  140.2941  142.8617 LP  0  0  0  0  0  0  0  0  0  0  0  0  # atno 17320 bound_to 7965
  144.9476  140.8144  143.5592 LP  0  0  0  0  0  0  0  0  0  0  0  0  # atno 17321 bound_to 7965
  140.1619  144.5018  150.6628 LP  0  0  0  0  0  0  0  0  0  0  0  0  # atno 17342 bound_to 10162
  140.6765  143.2307  151.5495 LP  0  0  0  0  0  0  0  0  0  0  0  0  # atno 17343 bound_to 10162
  157.1119  130.6025  149.5484 LP  0  0  0  0  0  0  0  0  0  0  0  0  # atno 17370 bound_to 10713
  155.9920  130.4976  150.7322 LP  0  0  0  0  0  0  0  0  0  0  0  0  # atno 17371 bound_to 10713
  141.1157  133.6628  156.3089 LP  0  0  0  0  0  0  0  0  0  0  0  0  # atno 17394 bound_to 11000
  140.5747  134.5805  157.5466 LP  0  0  0  0  0  0  0  0  0  0  0  0  # atno 17395 bound_to 11000

$$$$
