AV-unprocessed.smi:565|AV-procd|sdf|2952|dock10
  -GOLD-   2262023453D 1   1.00000     0.00000
 Structure written by MMmdl.
 50 51  0  0  0  0  0  0  0  0  2 V2000
  151.6853  145.8901  159.9157 C   0  0  0  0  0  0  0  0  0  0  0  0
  152.0962  144.4803  160.2324 C   0  0  0  0  0  0  0  0  0  0  0  0
  152.4848  144.1823  161.4606 N   0  0  0  0  0  0  0  0  0  0  0  0
  152.7904  142.8702  161.4167 N   0  0  0  0  0  0  0  0  0  0  0  0
  153.2560  142.2079  162.6198 C   0  0  0  0  0  0  0  0  0  0  0  0
  152.6023  142.3394  160.1553 C   0  0  0  0  0  0  0  0  0  0  0  0
  152.8830  140.9043  159.8445 C   0  0  0  0  0  0  0  0  0  0  0  0
  152.1466  143.3548  159.3572 C   0  0  0  0  0  0  0  0  0  0  0  0
  151.7885  143.3113  157.8933 C   0  0  0  0  0  0  0  0  0  0  0  0
  150.4287  142.6349  157.7273 C   0  0  0  0  0  0  0  0  0  0  0  0
  149.8392  142.1847  158.7098 O   0  0  0  0  0  0  0  0  0  0  0  0
  149.9526  142.5467  156.4759 N   0  0  0  0  0  0  0  0  0  0  0  0
  148.7151  141.8755  156.1005 C   0  0  0  0  0  0  0  0  0  0  0  0
  148.9661  140.8218  155.0043 C   0  0  0  0  0  0  0  0  0  0  0  0
  149.9653  139.8029  155.4123 N   0  3  2  0  0  0  0  0  0  0  0  0
  150.2225  138.8088  154.3384 C   0  0  0  0  0  0  0  0  0  0  0  0
  151.3752  137.8664  154.7198 C   0  0  0  0  0  0  0  0  0  0  0  0
  151.0989  137.1712  156.0605 C   0  0  0  0  0  0  0  0  0  0  0  0
  150.7683  138.1941  157.1628 C   0  0  1  0  0  0  0  0  0  0  0  0
  152.0067  138.9659  157.6523 C   0  0  0  0  0  0  0  0  0  0  0  0
  149.6382  139.1385  156.7035 C   0  0  0  0  0  0  0  0  0  0  0  0
  150.8470  145.9093  159.2195 H   0  0  0  0  0  0  0  0  0  0  0  0
  152.5088  146.4399  159.4600 H   0  0  0  0  0  0  0  0  0  0  0  0
  151.3797  146.4314  160.8120 H   0  0  0  0  0  0  0  0  0  0  0  0
  152.6283  141.3410  162.8274 H   0  0  0  0  0  0  0  0  0  0  0  0
  153.2142  142.8850  163.4740 H   0  0  0  0  0  0  0  0  0  0  0  0
  154.2855  141.8776  162.4808 H   0  0  0  0  0  0  0  0  0  0  0  0
  152.9054  140.7295  158.7689 H   0  0  0  0  0  0  0  0  0  0  0  0
  152.1165  140.2594  160.2747 H   0  0  0  0  0  0  0  0  0  0  0  0
  153.8489  140.5988  160.2474 H   0  0  0  0  0  0  0  0  0  0  0  0
  151.7387  144.3111  157.4611 H   0  0  0  0  0  0  0  0  0  0  0  0
  152.5408  142.7741  157.3145 H   0  0  0  0  0  0  0  0  0  0  0  0
  150.5025  142.9482  155.7298 H   0  0  0  0  0  0  0  0  0  0  0  0
  148.2554  141.4163  156.9775 H   0  0  0  0  0  0  0  0  0  0  0  0
  148.0250  142.6438  155.7543 H   0  0  0  0  0  0  0  0  0  0  0  0
  148.0342  140.3332  154.7144 H   0  0  0  0  0  0  0  0  0  0  0  0
  149.3314  141.3363  154.1143 H   0  0  0  0  0  0  0  0  0  0  0  0
  149.3134  138.2367  154.1455 H   0  0  0  0  0  0  0  0  0  0  0  0
  150.4770  139.3220  153.4104 H   0  0  0  0  0  0  0  0  0  0  0  0
  151.5173  137.1196  153.9382 H   0  0  0  0  0  0  0  0  0  0  0  0
  152.3075  138.4291  154.7759 H   0  0  0  0  0  0  0  0  0  0  0  0
  150.2561  136.4893  155.9398 H   0  0  0  0  0  0  0  0  0  0  0  0
  151.9504  136.5547  156.3508 H   0  0  0  0  0  0  0  0  0  0  0  0
  150.3971  137.6348  158.0227 H   0  0  0  0  0  0  0  0  0  0  0  0
  152.4417  139.5814  156.8648 H   0  0  0  0  0  0  0  0  0  0  0  0
  152.7802  138.2828  158.0043 H   0  0  0  0  0  0  0  0  0  0  0  0
  151.7528  139.6263  158.4819 H   0  0  0  0  0  0  0  0  0  0  0  0
  149.4532  139.8769  157.4826 H   0  0  0  0  0  0  0  0  0  0  0  0
  148.7110  138.5747  156.5876 H   0  0  0  0  0  0  0  0  0  0  0  0
  150.8353  140.2980  155.5480 H   0  0  0  0  0  0  0  0  0  0  0  0
  1  2  1  0  0  0  0
  1 22  1  0  0  0  0
  1 23  1  0  0  0  0
  1 24  1  0  0  0  0
  2  8  1  0  0  0  0
  2  3  2  0  0  0  0
  3  4  1  0  0  0  0
  4  5  1  0  0  0  0
  4  6  1  0  0  0  0
  5 25  1  0  0  0  0
  5 26  1  0  0  0  0
  5 27  1  0  0  0  0
  6  7  1  0  0  0  0
  6  8  2  0  0  0  0
  7 28  1  0  0  0  0
  7 29  1  0  0  0  0
  7 30  1  0  0  0  0
  8  9  1  0  0  0  0
  9 10  1  0  0  0  0
  9 31  1  0  0  0  0
  9 32  1  0  0  0  0
 10 11  2  0  0  0  0
 10 12  1  0  0  0  0
 12 13  1  0  0  0  0
 12 33  1  0  0  0  0
 13 14  1  0  0  0  0
 13 34  1  0  0  0  0
 13 35  1  0  0  0  0
 14 15  1  0  0  0  0
 14 36  1  0  0  0  0
 14 37  1  0  0  0  0
 15 21  1  0  0  0  0
 15 16  1  0  0  0  0
 15 50  1  0  0  0  0
 16 17  1  0  0  0  0
 16 38  1  0  0  0  0
 16 39  1  0  0  0  0
 17 18  1  0  0  0  0
 17 40  1  0  0  0  0
 17 41  1  0  0  0  0
 18 19  1  0  0  0  0
 18 42  1  0  0  0  0
 18 43  1  0  0  0  0
 19 20  1  0  0  0  0
 19 21  1  0  0  0  0
 19 44  1  0  0  0  0
 20 45  1  0  0  0  0
 20 46  1  0  0  0  0
 20 47  1  0  0  0  0
 21 48  1  0  0  0  0
 21 49  1  0  0  0  0
M  CHG  1  15   1
M  END
> <s_m_source_file>
AV-unprocessed.smi

> <i_m_source_file_index>
565

> <i_lp_mmshare_version>
43012

> <i_f3d_flags>
0

> <s_epik_input>
W0NIM11jMW5uKFtDSDNdKWMoW0NIM10pYzFbQ0gyXUMoPU8pW05IXVtDSDJdW0NIMl1OMltDSDJdW0NIMl1bQ0gyXVtDQEBIXShbQ0gzXSlbQ0gyXTI=

> <s_epik_cmdline>
J2VwaWtfcHl0aG9uJywgJy1waCcsICc3LjAnLCAnLXRuJywgJzgnLCAnLW1hJywgJzIwMCcsICctbWV0YWxfYmluZGluZycsICctaW1hZScsICc8aW5maWxlLm1hZT4nLCAnLW9tYWUnLCAnPG91dGZpbGUubWFlPic=

> <r_lp_tautomer_probability>
1

> <r_epik_Ionization_Penalty>
0.00411138

> <r_epik_Ionization_Penalty_Charging>
0.0019503

> <r_epik_Ionization_Penalty_Neutral>
0.00216107

> <r_epik_State_Penalty>
-0

> <r_epik_Charging_Adjusted_Penalty>
0.0019503

> <i_epik_Tot_Q>
1

> <i_epik_Tot_abs_Q>
1

> <r_epik_Metal_State_Penalty>
-0

> <b_epik_Metal_Only>
0

> <s_lp_Force_Field>
OPLS_2005

> <r_lp_Energy>
12.6128

> <b_lp_Chiralities_Consistent>
1

> <s_lp_Variant>
AV-unprocessed.smi:565-2

> <Gold.Version>
5.8.1

> <Gold.Id.Protein>
6NUR|6NUR_protein|mol2

> <Gold.PLP.Fitness>
43.3401

> <Gold.PLP.PLP>
-43.7765

> <Gold.PLP.part.hbond>
-1.4777

> <Gold.PLP.part.metal>
0.0000

> <Gold.PLP.part.buried>
-2.8656

> <Gold.PLP.part.nonpolar>
-39.0165

> <Gold.PLP.part.repulsive>
0.3467

> <Gold.PLP.ligand.clash>
0.0000

> <Gold.PLP.ligand.torsion>
0.2410

> <Gold.PLP.Chemscore.Hbond>
0.0000

> <Gold.PLP.Chemscore.CHOScore>
0.0000

> <Gold.PLP.Chemscore.Metal>
0.0000

> <Gold.PLP.Chemscore.Internal.Correction>
0.0456

> <Gold.Rescore>
     Score         DG    S(hbond)    S(metal)    S(lipo)     H(rot)  DE(clash)    DE(int)     intcor
     14.50     -15.96       0.03        0.00     124.06       1.61       0.42       1.05       ----

> <Gold.Chemscore.Fitness>
14.4983

> <Gold.Chemscore.DG>
-15.9636

> <Gold.Chemscore.ZeroCoef>
-5.4800

> <Gold.Chemscore.Hbond>
0.0301

> <Gold.Chemscore.Metal>
0.0000

> <Gold.Chemscore.Lipo>
124.0626

> <Gold.Chemscore.Internal_Hbond>
0.0000

> <Gold.Chemscore.DEClash>
0.4198

> <Gold.Chemscore.DEInternal>
1.0455

> <Gold.Chemscore.Rot>
1.6142

> <Gold.Chemscore.Internal.Correction>
   9.000000E+99

> <Gold.Chemscore.Hbond.Weighted>
-0.1007

> <Gold.Chemscore.Metal.Weighted>
-0.0000

> <Gold.Chemscore.Lipo.Weighted>
-14.5153

> <Gold.Chemscore.Internal_Hbond.Weighted>
0.0000

> <Gold.Chemscore.DEClash.Weighted>
0.4198

> <Gold.Chemscore.DEInternal.Weighted>
1.0455

> <Gold.Chemscore.Rot.Weighted>
4.1324

> <Gold.Chemscore.Internal.Correction.Weighted>
   9.000000E+99

> <Gold.Protein.RotatedTorsions>
[ 6907 6896 6895 6894 ] final  -52.97 input  -60.11 | X-H torsion
[ 7974 7965 7964 7962 ] final   61.87 input  175.53 | X-H torsion
[ 8008 7997 7996 7995 ] final  -15.54 input   59.86 | X-H torsion
[ 10167 10162 10161 10158 ] final   -5.72 input  -65.29 | X-H torsion
[ 10718 10713 10712 10709 ] final  -49.68 input   66.30 | X-H torsion
[ 10763 10752 10751 10750 ] final   19.88 input  -60.55 | X-H torsion
[ 11005 11000 10999 10996 ] final   34.40 input  -57.11 | X-H torsion

> <Gold.Protein.ActiveResidues>
 VAL166  LYS551  ARG553  GLY616  TRP617  ASP618  TYR619  PRO620  LYS621  CYS622 
 ASP623  PHE694  ASN695  SER759  ASP760  ASP761  ALA762  ILE779  LEU786  VAL792 
 PHE793  MET794  SER795  GLU796  ALA797  LYS798  CYS799  TRP800  GLU811  SER814 

> <Gold.Protein.RotatedAtoms>
  150.8469  134.7781  159.6977 H   0  0  0  0  0  0  0  0  0  0  0  0  # atno 6907 bound_to 6896
  152.4544  134.5321  159.9824 H   0  0  0  0  0  0  0  0  0  0  0  0  # atno 6908 bound_to 6896
  151.5449  133.3389  159.2978 H   0  0  0  0  0  0  0  0  0  0  0  0  # atno 6909 bound_to 6896
  145.8798  139.3435  143.0713 H   0  0  0  0  0  0  0  0  0  0  0  0  # atno 7974 bound_to 7965
  154.5123  140.2193  155.9133 H   0  0  0  0  0  0  0  0  0  0  0  0  # atno 8008 bound_to 7997
  156.1566  140.3150  155.8703 H   0  0  0  0  0  0  0  0  0  0  0  0  # atno 8009 bound_to 7997
  155.3834  140.0474  157.3033 H   0  0  0  0  0  0  0  0  0  0  0  0  # atno 8010 bound_to 7997
  140.6973  143.6276  150.8553 H   0  0  0  0  0  0  0  0  0  0  0  0  # atno 10167 bound_to 10162
  156.1870  130.4152  149.9424 H   0  0  0  0  0  0  0  0  0  0  0  0  # atno 10718 bound_to 10713
  153.1125  135.6700  153.9476 H   0  0  0  0  0  0  0  0  0  0  0  0  # atno 10763 bound_to 10752
  153.9015  135.3035  155.3450 H   0  0  0  0  0  0  0  0  0  0  0  0  # atno 10764 bound_to 10752
  154.7543  135.5019  153.9424 H   0  0  0  0  0  0  0  0  0  0  0  0  # atno 10765 bound_to 10752
  140.2532  134.3279  155.7883 H   0  0  0  0  0  0  0  0  0  0  0  0  # atno 11005 bound_to 11000
  145.9037  140.9226  143.0490 LP  0  0  0  0  0  0  0  0  0  0  0  0  # atno 17320 bound_to 7965
  144.6727  140.1067  143.7457 LP  0  0  0  0  0  0  0  0  0  0  0  0  # atno 17321 bound_to 7965
  139.9995  143.5759  152.2881 LP  0  0  0  0  0  0  0  0  0  0  0  0  # atno 17342 bound_to 10162
  139.6444  144.7657  151.2274 LP  0  0  0  0  0  0  0  0  0  0  0  0  # atno 17343 bound_to 10162
  156.7177  130.8994  151.3615 LP  0  0  0  0  0  0  0  0  0  0  0  0  # atno 17370 bound_to 10713
  157.6905  130.9229  150.0502 LP  0  0  0  0  0  0  0  0  0  0  0  0  # atno 17371 bound_to 10713
  141.2199  133.7366  156.9070 LP  0  0  0  0  0  0  0  0  0  0  0  0  # atno 17394 bound_to 11000
  140.1537  134.9212  157.2626 LP  0  0  0  0  0  0  0  0  0  0  0  0  # atno 17395 bound_to 11000

$$$$
