AV-unprocessed.smi:2012|AV-procd|sdf|8156|dock8
  -GOLD-   2272010403D 1   1.00000     0.00000
 Structure written by MMmdl.
 50 51  0  0  0  0  0  0  0  0  1 V2000
  144.4730  146.6586  156.8795 C   0  0  0  0  0  0  0  0  0  0  0  0
  144.2773  145.3817  157.6899 C   0  0  0  0  0  0  0  0  0  0  0  0
  143.1400  145.0114  157.9749 O   0  0  0  0  0  0  0  0  0  0  0  0
  145.3990  144.7375  158.0597 N   0  0  0  0  0  0  0  0  0  0  0  0
  145.5370  143.4814  158.8103 C   0  0  1  0  0  0  0  0  0  0  0  0
  146.7947  143.4996  159.6973 C   0  0  0  0  0  0  0  0  0  0  0  0
  146.9604  142.6386  160.5617 O   0  0  0  0  0  0  0  0  0  0  0  0
  147.6892  144.4704  159.4521 N   0  0  0  0  0  0  0  0  0  0  0  0
  148.9652  144.6208  160.1427 C   0  0  0  0  0  0  0  0  0  0  0  0
  150.1174  143.9302  159.4305 C   0  0  0  0  0  0  0  0  0  0  0  0
  151.4491  144.2411  159.7640 C   0  0  0  0  0  0  0  0  0  0  0  0
  152.4801  143.5704  159.0826 C   0  0  0  0  0  0  0  0  0  0  0  0
  152.2551  142.6477  158.1244 N   0  0  0  0  0  0  0  0  0  0  0  0
  150.9791  142.3411  157.7843 C   0  0  0  0  0  0  0  0  0  0  0  0
  150.8055  141.3578  156.7812 N   0  0  0  0  0  0  0  0  0  0  0  0
  150.0425  141.7011  155.5831 C   0  0  0  0  0  0  0  0  0  0  0  0
  149.6772  140.4376  154.7864 C   0  0  0  0  0  0  0  0  0  0  0  0
  150.8525  139.6878  154.5043 O   0  0  0  0  0  0  0  0  0  0  0  0
  151.4874  139.2448  155.6976 C   0  0  0  0  0  0  0  0  0  0  0  0
  151.9321  140.4573  156.5330 C   0  0  0  0  0  0  0  0  0  0  0  0
  149.8795  142.9731  158.4203 C   0  0  0  0  0  0  0  0  0  0  0  0
  144.2267  143.0018  159.5111 C   0  0  0  0  0  0  0  0  0  0  0  0
  143.7186  143.9935  160.5760 C   0  0  0  0  0  0  0  0  0  0  0  0
  144.3892  141.6088  160.1492 C   0  0  0  0  0  0  0  0  0  0  0  0
  145.4196  146.6434  156.3381 H   0  0  0  0  0  0  0  0  0  0  0  0
  144.4669  147.5260  157.5399 H   0  0  0  0  0  0  0  0  0  0  0  0
  143.6689  146.7750  156.1522 H   0  0  0  0  0  0  0  0  0  0  0  0
  146.2691  145.1617  157.7736 H   0  0  0  0  0  0  0  0  0  0  0  0
  145.7380  142.7453  158.0300 H   0  0  0  0  0  0  0  0  0  0  0  0
  147.4836  145.1347  158.7203 H   0  0  0  0  0  0  0  0  0  0  0  0
  149.1936  145.6844  160.2110 H   0  0  0  0  0  0  0  0  0  0  0  0
  148.8799  144.2564  161.1679 H   0  0  0  0  0  0  0  0  0  0  0  0
  151.6794  144.9701  160.5270 H   0  0  0  0  0  0  0  0  0  0  0  0
  153.5142  143.7788  159.3136 H   0  0  0  0  0  0  0  0  0  0  0  0
  149.1185  142.2119  155.8523 H   0  0  0  0  0  0  0  0  0  0  0  0
  150.6300  142.3806  154.9643 H   0  0  0  0  0  0  0  0  0  0  0  0
  148.9639  139.8232  155.3384 H   0  0  0  0  0  0  0  0  0  0  0  0
  149.1976  140.7132  153.8471 H   0  0  0  0  0  0  0  0  0  0  0  0
  150.8108  138.6068  156.2685 H   0  0  0  0  0  0  0  0  0  0  0  0
  152.3515  138.6348  155.4341 H   0  0  0  0  0  0  0  0  0  0  0  0
  152.7121  141.0086  156.0070 H   0  0  0  0  0  0  0  0  0  0  0  0
  152.3703  140.0917  157.4613 H   0  0  0  0  0  0  0  0  0  0  0  0
  148.8590  142.7469  158.1527 H   0  0  0  0  0  0  0  0  0  0  0  0
  143.4325  142.9306  158.7687 H   0  0  0  0  0  0  0  0  0  0  0  0
  144.4796  144.1905  161.3316 H   0  0  0  0  0  0  0  0  0  0  0  0
  142.8373  143.6050  161.0871 H   0  0  0  0  0  0  0  0  0  0  0  0
  143.4281  144.9463  160.1334 H   0  0  0  0  0  0  0  0  0  0  0  0
  145.1746  141.6100  160.9054 H   0  0  0  0  0  0  0  0  0  0  0  0
  144.6405  140.8487  159.4101 H   0  0  0  0  0  0  0  0  0  0  0  0
  143.4656  141.2884  160.6321 H   0  0  0  0  0  0  0  0  0  0  0  0
  1  2  1  0  0  0  0
  1 25  1  0  0  0  0
  1 26  1  0  0  0  0
  1 27  1  0  0  0  0
  2  3  2  0  0  0  0
  2  4  1  0  0  0  0
  4  5  1  0  0  0  0
  4 28  1  0  0  0  0
  5  6  1  0  0  0  0
  5 22  1  0  0  0  0
  5 29  1  0  0  0  0
  6  7  2  0  0  0  0
  6  8  1  0  0  0  0
  8  9  1  0  0  0  0
  8 30  1  0  0  0  0
  9 10  1  0  0  0  0
  9 31  1  0  0  0  0
  9 32  1  0  0  0  0
 10 21  1  0  0  0  0
 10 11  2  0  0  0  0
 11 12  1  0  0  0  0
 11 33  1  0  0  0  0
 12 13  2  0  0  0  0
 12 34  1  0  0  0  0
 13 14  1  0  0  0  0
 14 15  1  0  0  0  0
 14 21  2  0  0  0  0
 15 20  1  0  0  0  0
 15 16  1  0  0  0  0
 16 17  1  0  0  0  0
 16 35  1  0  0  0  0
 16 36  1  0  0  0  0
 17 18  1  0  0  0  0
 17 37  1  0  0  0  0
 17 38  1  0  0  0  0
 18 19  1  0  0  0  0
 19 20  1  0  0  0  0
 19 39  1  0  0  0  0
 19 40  1  0  0  0  0
 20 41  1  0  0  0  0
 20 42  1  0  0  0  0
 21 43  1  0  0  0  0
 22 23  1  0  0  0  0
 22 24  1  0  0  0  0
 22 44  1  0  0  0  0
 23 45  1  0  0  0  0
 23 46  1  0  0  0  0
 23 47  1  0  0  0  0
 24 48  1  0  0  0  0
 24 49  1  0  0  0  0
 24 50  1  0  0  0  0
M  END
> <s_m_source_file>
AV-unprocessed.smi

> <i_m_source_file_index>
2012

> <i_lp_mmshare_version>
43012

> <i_f3d_flags>
0

> <s_epik_input>
W0NIM11DKD1PKVtOSF1bQ0BASF0oW0NIXShbQ0gzXSlbQ0gzXSlDKD1PKVtOSF1bQ0gyXWMxW2NIXVtjSF1uYyhbY0hdMSlOMltDSDJdW0NIMl1PW0NIMl1bQ0gyXTI=

> <s_epik_cmdline>
J2VwaWtfcHl0aG9uJywgJy1waCcsICc3LjAnLCAnLXRuJywgJzgnLCAnLW1hJywgJzIwMCcsICctbWV0YWxfYmluZGluZycsICctaW1hZScsICc8aW5maWxlLm1hZT4nLCAnLW9tYWUnLCAnPG91dGZpbGUubWFlPic=

> <r_lp_tautomer_probability>
1

> <r_epik_Ionization_Penalty>
0.00518786

> <r_epik_Ionization_Penalty_Charging>
0

> <r_epik_Ionization_Penalty_Neutral>
0.00518786

> <r_epik_State_Penalty>
0.00378052

> <r_epik_Charging_Adjusted_Penalty>
0.00378052

> <i_epik_Tot_Q>
0

> <i_epik_Tot_abs_Q>
0

> <r_epik_Metal_State_Penalty>
-0

> <b_epik_Metal_Only>
0

> <s_lp_Force_Field>
OPLS_2005

> <r_lp_Energy>
18.0004

> <b_lp_Chiralities_Consistent>
1

> <s_lp_Variant>
AV-unprocessed.smi:2012-2

> <Gold.Version>
5.8.1

> <Gold.Id.Protein>
6NUR|6NUR_protein|mol2

> <Gold.PLP.Fitness>
48.5170

> <Gold.PLP.PLP>
-36.4686

> <Gold.PLP.part.hbond>
-5.0000

> <Gold.PLP.part.metal>
0.0000

> <Gold.PLP.part.buried>
-4.7952

> <Gold.PLP.part.nonpolar>
-27.3347

> <Gold.PLP.part.repulsive>
0.3393

> <Gold.PLP.ligand.clash>
0.0000

> <Gold.PLP.ligand.torsion>
1.4766

> <Gold.PLP.Chemscore.Hbond>
4.7177

> <Gold.PLP.Chemscore.CHOScore>
0.0000

> <Gold.PLP.Chemscore.Metal>
0.0000

> <Gold.Chemscore.Hbonds>
donor molecule, donor type, donor heavy atom, donor atom, acceptor molecule, acceptor atom, score
      L1  H     4    28       P1  8029  1.00
      L1  H     8    30       P1  8029  1.00
      P1  H  6933  6944       L1     7  0.80
      P1  H  6934  6946       L1     7  0.83
      P1  H  7989  7998       L1    18  0.90

> <Gold.PLP.Chemscore.Internal.Correction>
0.8485

> <Gold.Rescore>
     Score         DG    S(hbond)    S(metal)    S(lipo)     H(rot)  DE(clash)    DE(int)     intcor
     18.23     -23.67       4.15        0.00      84.79       2.18       0.32       5.12       ----

> <Gold.Chemscore.Fitness>
18.2322

> <Gold.Chemscore.DG>
-23.6703

> <Gold.Chemscore.ZeroCoef>
-5.4800

> <Gold.Chemscore.Hbond>
4.1481

> <Gold.Chemscore.Metal>
0.0000

> <Gold.Chemscore.Lipo>
84.7859

> <Gold.Chemscore.Internal_Hbond>
0.0000

> <Gold.Chemscore.DEClash>
0.3160

> <Gold.Chemscore.DEInternal>
5.1221

> <Gold.Chemscore.Rot>
2.1813

> <Gold.Chemscore.Internal.Correction>
   9.000000E+99

> <Gold.Chemscore.Hbonds>
donor molecule, donor type, donor heavy atom, donor atom, acceptor molecule, acceptor atom, score
      L1  H     4    28       P1  8029  0.60
      L1  H     8    30       P1  8029  0.96
      P1  H  6933  6944       L1     7  0.79
      P1  H  6934  6946       L1     7  0.81
      P1  H  7989  7998       L1    18  0.17

> <Gold.Chemscore.Hbond.Weighted>
-13.8545

> <Gold.Chemscore.Metal.Weighted>
-0.0000

> <Gold.Chemscore.Lipo.Weighted>
-9.9200

> <Gold.Chemscore.Internal_Hbond.Weighted>
0.0000

> <Gold.Chemscore.DEClash.Weighted>
0.3160

> <Gold.Chemscore.DEInternal.Weighted>
5.1221

> <Gold.Chemscore.Rot.Weighted>
5.5842

> <Gold.Chemscore.Internal.Correction.Weighted>
   9.000000E+99

> <Gold.Protein.RotatedTorsions>
[ 6907 6896 6895 6894 ] final   62.07 input  -60.11 | X-H torsion
[ 7974 7965 7964 7962 ] final  -71.27 input  175.53 | X-H torsion
[ 8008 7997 7996 7995 ] final   48.80 input   59.86 | X-H torsion
[ 10167 10162 10161 10158 ] final  127.12 input  -65.29 | X-H torsion
[ 10718 10713 10712 10709 ] final -146.07 input   66.30 | X-H torsion
[ 10763 10752 10751 10750 ] final  -57.47 input  -60.55 | X-H torsion
[ 11005 11000 10999 10996 ] final   51.90 input  -57.11 | X-H torsion

> <Gold.Protein.ActiveResidues>
 VAL166  LYS551  ARG553  GLY616  TRP617  ASP618  TYR619  PRO620  LYS621  CYS622 
 ASP623  PHE694  ASN695  SER759  ASP760  ASP761  ALA762  ILE779  LEU786  VAL792 
 PHE793  MET794  SER795  GLU796  ALA797  LYS798  CYS799  TRP800  GLU811  SER814 

> <Gold.Protein.RotatedAtoms>
  152.4141  134.6072  160.0015 H   0  0  0  0  0  0  0  0  0  0  0  0  # atno 6907 bound_to 6896
  151.6240  133.3331  159.3102 H   0  0  0  0  0  0  0  0  0  0  0  0  # atno 6908 bound_to 6896
  150.8031  134.7177  159.6685 H   0  0  0  0  0  0  0  0  0  0  0  0  # atno 6909 bound_to 6896
  145.6802  140.9190  143.0836 H   0  0  0  0  0  0  0  0  0  0  0  0  # atno 7974 bound_to 7965
  155.3916  140.3433  155.4251 H   0  0  0  0  0  0  0  0  0  0  0  0  # atno 8008 bound_to 7997
  156.1554  140.1584  156.8733 H   0  0  0  0  0  0  0  0  0  0  0  0  # atno 8009 bound_to 7997
  154.5090  140.0795  156.7934 H   0  0  0  0  0  0  0  0  0  0  0  0  # atno 8010 bound_to 7997
  139.5595  144.6872  151.4084 H   0  0  0  0  0  0  0  0  0  0  0  0  # atno 10167 bound_to 10162
  156.3903  130.7882  151.2083 H   0  0  0  0  0  0  0  0  0  0  0  0  # atno 10718 bound_to 10713
  154.2229  135.6374  153.5150 H   0  0  0  0  0  0  0  0  0  0  0  0  # atno 10763 bound_to 10752
  152.9965  135.5501  154.6095 H   0  0  0  0  0  0  0  0  0  0  0  0  # atno 10764 bound_to 10752
  154.5559  135.2905  155.0939 H   0  0  0  0  0  0  0  0  0  0  0  0  # atno 10765 bound_to 10752
  140.0894  134.5230  155.8867 H   0  0  0  0  0  0  0  0  0  0  0  0  # atno 11005 bound_to 11000
  144.7028  139.8686  143.7439 LP  0  0  0  0  0  0  0  0  0  0  0  0  # atno 17320 bound_to 7965
  146.0971  139.3964  143.0370 LP  0  0  0  0  0  0  0  0  0  0  0  0  # atno 17321 bound_to 7965
  140.6873  143.7944  150.7204 LP  0  0  0  0  0  0  0  0  0  0  0  0  # atno 17342 bound_to 10162
  140.1416  143.4436  152.2190 LP  0  0  0  0  0  0  0  0  0  0  0  0  # atno 17343 bound_to 10162
  157.7498  131.0317  150.4196 LP  0  0  0  0  0  0  0  0  0  0  0  0  # atno 17370 bound_to 10713
  156.4456  130.4001  149.6669 LP  0  0  0  0  0  0  0  0  0  0  0  0  # atno 17371 bound_to 10713
  141.2073  133.6663  156.6297 LP  0  0  0  0  0  0  0  0  0  0  0  0  # atno 17394 bound_to 11000
  140.3374  134.7878  157.4372 LP  0  0  0  0  0  0  0  0  0  0  0  0  # atno 17395 bound_to 11000

$$$$
