AV-unprocessed.smi:2246|AV-procd|sdf|9084|dock2
  -GOLD-   2272012283D 1   1.00000     0.00000
 Structure written by MMmdl.
 28 29  0  0  0  0  0  0  0  0  2 V2000
  152.8611  139.9138  158.0176 O   0  0  0  0  0  0  0  0  0  0  0  0
  151.9737  140.4863  157.3859 C   0  0  0  0  0  0  0  0  0  0  0  0
  151.6594  140.1620  155.9265 C   0  0  1  0  0  0  0  0  0  0  0  0
  151.1801  138.7653  155.7856 N   0  0  0  0  0  0  0  0  0  0  0  0
  150.1523  138.3054  156.6374 C   0  0  0  0  0  0  0  0  0  0  0  0
  149.6904  137.0415  156.5955 C   0  0  0  0  0  0  0  0  0  0  0  0
  148.4330  136.5178  157.6584 Cl  0  0  0  0  0  0  0  0  0  0  0  0
  150.2925  136.1240  155.6329 C   0  0  0  0  0  0  0  0  0  0  0  0
  149.8798  134.9678  155.5522 O   0  0  0  0  0  0  0  0  0  0  0  0
  151.3068  136.6006  154.8551 N   0  5  0  0  0  0  0  0  0  0  0  0
  151.7733  137.8858  154.9201 C   0  0  0  0  0  0  0  0  0  0  0  0
  152.7076  138.2713  154.2173 O   0  0  0  0  0  0  0  0  0  0  0  0
  150.5849  141.2139  155.5718 C   0  0  0  0  0  0  0  0  0  0  0  0
  150.2353  141.9499  156.8720 C   0  0  0  0  0  0  0  0  0  0  0  0
  151.1862  141.4611  157.8546 N   0  0  0  0  0  0  0  0  0  0  0  0
  151.2128  142.0222  159.2041 C   0  0  0  0  0  0  0  0  0  0  0  0
  152.4784  142.8585  159.4692 C   0  0  0  0  0  0  0  0  0  0  0  0
  152.6115  143.8354  158.5727 F   0  0  0  0  0  0  0  0  0  0  0  0
  152.3874  143.4072  160.6799 F   0  0  0  0  0  0  0  0  0  0  0  0
  153.5622  142.0834  159.4358 F   0  0  0  0  0  0  0  0  0  0  0  0
  152.5511  140.3682  155.3331 H   0  0  0  0  0  0  0  0  0  0  0  0
  149.7683  139.0332  157.3356 H   0  0  0  0  0  0  0  0  0  0  0  0
  151.0026  141.9246  154.8576 H   0  0  0  0  0  0  0  0  0  0  0  0
  149.7001  140.7919  155.0936 H   0  0  0  0  0  0  0  0  0  0  0  0
  150.3146  143.0314  156.7534 H   0  0  0  0  0  0  0  0  0  0  0  0
  149.2201  141.7152  157.1941 H   0  0  0  0  0  0  0  0  0  0  0  0
  150.3219  142.6317  159.3635 H   0  0  0  0  0  0  0  0  0  0  0  0
  151.1554  141.2081  159.9277 H   0  0  0  0  0  0  0  0  0  0  0  0
  1  2  2  0  0  0  0
  2 15  1  0  0  0  0
  2  3  1  0  0  0  0
  3  4  1  0  0  0  0
  3 13  1  0  0  0  0
  3 21  1  0  0  0  0
  4 11  1  0  0  0  0
  4  5  1  0  0  0  0
  5  6  2  0  0  0  0
  5 22  1  0  0  0  0
  6  7  1  0  0  0  0
  6  8  1  0  0  0  0
  8  9  2  0  0  0  0
  8 10  1  0  0  0  0
 10 11  1  0  0  0  0
 11 12  2  0  0  0  0
 13 14  1  0  0  0  0
 13 23  1  0  0  0  0
 13 24  1  0  0  0  0
 14 15  1  0  0  0  0
 14 25  1  0  0  0  0
 14 26  1  0  0  0  0
 15 16  1  0  0  0  0
 16 17  1  0  0  0  0
 16 27  1  0  0  0  0
 16 28  1  0  0  0  0
 17 18  1  0  0  0  0
 17 19  1  0  0  0  0
 17 20  1  0  0  0  0
M  CHG  1  10  -1
M  END
> <s_m_source_file>
AV-unprocessed.smi

> <i_m_source_file_index>
2246

> <i_lp_mmshare_version>
43012

> <i_f3d_flags>
0

> <s_epik_input>
RkMoRikoRilbQ0gyXU4xW0NIMl1bQ0gyXVtDQEBIXShDMT1PKW4yW2NIXWMoQ2wpYyg9TylbbkhdYzI9Tw==

> <s_epik_cmdline>
J2VwaWtfcHl0aG9uJywgJy1waCcsICc3LjAnLCAnLXRuJywgJzgnLCAnLW1hJywgJzIwMCcsICctbWV0YWxfYmluZGluZycsICctaW1hZScsICc8aW5maWxlLm1hZT4nLCAnLW9tYWUnLCAnPG91dGZpbGUubWFlPic=

> <r_epik_Ionization_Penalty>
1.33611

> <r_epik_Ionization_Penalty_Charging>
6.88308e-09

> <r_epik_Ionization_Penalty_Neutral>
1.33611

> <r_epik_State_Penalty>
1.41295

> <r_epik_Charging_Adjusted_Penalty>
1.41295

> <i_epik_Tot_Q>
-1

> <i_epik_Tot_abs_Q>
1

> <r_epik_Metal_State_Penalty>
0.00581136

> <b_epik_Metal_Only>
0

> <s_lp_Force_Field>
OPLS_2005

> <r_lp_Energy>
31.0975

> <b_lp_Chiralities_Consistent>
1

> <s_lp_Variant>
AV-unprocessed.smi:2246-3

> <Gold.Version>
5.8.1

> <Gold.Id.Protein>
6NUR|6NUR_protein|mol2

> <Gold.PLP.Fitness>
45.1445

> <Gold.PLP.PLP>
-36.4018

> <Gold.PLP.part.hbond>
-2.7135

> <Gold.PLP.part.metal>
0.0000

> <Gold.PLP.part.buried>
-4.5389

> <Gold.PLP.part.nonpolar>
-29.4758

> <Gold.PLP.part.repulsive>
0.2217

> <Gold.PLP.ligand.clash>
0.0000

> <Gold.PLP.ligand.torsion>
0.1849

> <Gold.PLP.Chemscore.Hbond>
3.0000

> <Gold.PLP.Chemscore.CHOScore>
0.0000

> <Gold.PLP.Chemscore.Metal>
0.0000

> <Gold.Chemscore.Hbonds>
donor molecule, donor type, donor heavy atom, donor atom, acceptor molecule, acceptor atom, score
      P1  H  7997  8010       L1     1  0.99
      P1  H 10752 10764       L1    10  2.00

> <Gold.PLP.Chemscore.Internal.Correction>
0.1126

> <Gold.Rescore>
     Score         DG    S(hbond)    S(metal)    S(lipo)     H(rot)  DE(clash)    DE(int)     intcor
     12.36     -12.78       1.67        0.00      46.37       1.45       0.02       0.40       ----

> <Gold.Chemscore.Fitness>
12.3574

> <Gold.Chemscore.DG>
-12.7760

> <Gold.Chemscore.ZeroCoef>
-5.4800

> <Gold.Chemscore.Hbond>
1.6695

> <Gold.Chemscore.Metal>
0.0000

> <Gold.Chemscore.Lipo>
46.3732

> <Gold.Chemscore.Internal_Hbond>
0.0000

> <Gold.Chemscore.DEClash>
0.0174

> <Gold.Chemscore.DEInternal>
0.4012

> <Gold.Chemscore.Rot>
1.4476

> <Gold.Chemscore.Internal.Correction>
   9.000000E+99

> <Gold.Chemscore.Hbonds>
donor molecule, donor type, donor heavy atom, donor atom, acceptor molecule, acceptor atom, score
      P1  H  7997  8010       L1     1  0.72
      P1  H 10752 10764       L1    10  0.30

> <Gold.Chemscore.Hbond.Weighted>
-5.5762

> <Gold.Chemscore.Metal.Weighted>
-0.0000

> <Gold.Chemscore.Lipo.Weighted>
-5.4257

> <Gold.Chemscore.Internal_Hbond.Weighted>
0.0000

> <Gold.Chemscore.DEClash.Weighted>
0.0174

> <Gold.Chemscore.DEInternal.Weighted>
0.4012

> <Gold.Chemscore.Rot.Weighted>
3.7059

> <Gold.Chemscore.Internal.Correction.Weighted>
   9.000000E+99

> <Gold.Protein.RotatedTorsions>
[ 6907 6896 6895 6894 ] final  -39.36 input  -60.11 | X-H torsion
[ 7974 7965 7964 7962 ] final -135.65 input  175.53 | X-H torsion
[ 8008 7997 7996 7995 ] final   28.02 input   59.86 | X-H torsion
[ 10167 10162 10161 10158 ] final   25.03 input  -65.29 | X-H torsion
[ 10718 10713 10712 10709 ] final  -53.01 input   66.30 | X-H torsion
[ 10763 10752 10751 10750 ] final  -70.38 input  -60.55 | X-H torsion
[ 11005 11000 10999 10996 ] final  -75.45 input  -57.11 | X-H torsion

> <Gold.Protein.ActiveResidues>
 VAL166  LYS551  ARG553  GLY616  TRP617  ASP618  TYR619  PRO620  LYS621  CYS622 
 ASP623  PHE694  ASN695  SER759  ASP760  ASP761  ALA762  ILE779  LEU786  VAL792 
 PHE793  MET794  SER795  GLU796  ALA797  LYS798  CYS799  TRP800  GLU811  SER814 

> <Gold.Protein.RotatedAtoms>
  150.9913  134.9247  159.7900 H   0  0  0  0  0  0  0  0  0  0  0  0  # atno 6907 bound_to 6896
  152.5252  134.3277  159.9181 H   0  0  0  0  0  0  0  0  0  0  0  0  # atno 6908 bound_to 6896
  151.3283  133.3970  159.2695 H   0  0  0  0  0  0  0  0  0  0  0  0  # atno 6909 bound_to 6896
  144.8995  140.6752  143.5094 H   0  0  0  0  0  0  0  0  0  0  0  0  # atno 7974 bound_to 7965
  155.0521  140.3181  155.4688 H   0  0  0  0  0  0  0  0  0  0  0  0  # atno 8008 bound_to 7997
  156.2832  140.2144  156.5591 H   0  0  0  0  0  0  0  0  0  0  0  0  # atno 8009 bound_to 7997
  154.7202  140.0490  157.0619 H   0  0  0  0  0  0  0  0  0  0  0  0  # atno 8010 bound_to 7997
  140.5140  144.0114  150.6385 H   0  0  0  0  0  0  0  0  0  0  0  0  # atno 10167 bound_to 10162
  156.1572  130.4150  149.9851 H   0  0  0  0  0  0  0  0  0  0  0  0  # atno 10718 bound_to 10713
  154.4169  135.5996  153.5986 H   0  0  0  0  0  0  0  0  0  0  0  0  # atno 10763 bound_to 10752
  152.9792  135.5943  154.4002 H   0  0  0  0  0  0  0  0  0  0  0  0  # atno 10764 bound_to 10752
  154.3822  135.2841  155.2183 H   0  0  0  0  0  0  0  0  0  0  0  0  # atno 10765 bound_to 10752
  141.1645  133.6947  156.7519 H   0  0  0  0  0  0  0  0  0  0  0  0  # atno 11005 bound_to 11000
  145.3641  139.1674  143.4367 LP  0  0  0  0  0  0  0  0  0  0  0  0  # atno 17320 bound_to 7965
  146.3100  140.3706  142.8674 LP  0  0  0  0  0  0  0  0  0  0  0  0  # atno 17321 bound_to 7965
  140.3444  143.3000  152.0554 LP  0  0  0  0  0  0  0  0  0  0  0  0  # atno 17342 bound_to 10162
  139.4904  144.6419  151.6859 LP  0  0  0  0  0  0  0  0  0  0  0  0  # atno 17343 bound_to 10162
  156.7691  130.9179  151.3644 LP  0  0  0  0  0  0  0  0  0  0  0  0  # atno 17370 bound_to 10713
  157.6704  130.9046  150.0027 LP  0  0  0  0  0  0  0  0  0  0  0  0  # atno 17371 bound_to 10713
  140.2598  134.8476  157.3747 LP  0  0  0  0  0  0  0  0  0  0  0  0  # atno 17394 bound_to 11000
  140.1622  134.4714  155.7887 LP  0  0  0  0  0  0  0  0  0  0  0  0  # atno 17395 bound_to 11000

$$$$
