AV-unprocessed.smi:1378|AV-procd|sdf|5597|dock8
  -GOLD-   22720 5203D 1   1.00000     0.00000
 Structure written by MMmdl.
 47 49  0  0  0  0  0  0  0  0  2 V2000
  147.9345  141.4649  153.9563 C   0  0  0  0  0  0  0  0  0  0  0  0
  149.3121  141.6495  154.2337 O   0  0  0  0  0  0  0  0  0  0  0  0
  149.5726  141.7651  155.6208 C   0  0  0  0  0  0  0  0  0  0  0  0
  150.9599  141.1763  155.9176 C   0  0  0  0  0  0  0  0  0  0  0  0
  151.3117  141.2467  157.3431 N   0  0  0  0  0  0  0  0  0  0  0  0
  151.4262  140.2698  158.2880 C   0  0  0  0  0  0  0  0  0  0  0  0
  151.1333  138.5422  158.0833 S   0  0  0  0  0  0  0  0  0  0  0  0
  149.4270  138.2619  158.6380 C   0  0  0  0  0  0  0  0  0  0  0  0
  149.2302  136.8870  159.2759 C   0  0  0  0  0  0  0  0  0  0  0  0
  149.8452  135.9113  158.8486 O   0  0  0  0  0  0  0  0  0  0  0  0
  148.3840  136.8360  160.3146 N   0  0  0  0  0  0  0  0  0  0  0  0
  148.0749  135.6565  161.1142 C   0  0  0  0  0  0  0  0  0  0  0  0
  146.7964  134.9587  160.6061 C   0  0  0  0  0  0  0  0  0  0  0  0
  145.8189  134.9334  161.7857 C   0  0  0  0  0  0  0  0  0  0  0  0
  146.2626  136.0818  162.6876 C   0  0  0  0  0  0  0  0  0  0  0  0
  147.7847  136.0745  162.5650 C   0  0  0  0  0  0  0  0  0  0  0  0
  151.7917  140.8634  159.4565 N   0  3  0  0  0  0  0  0  0  0  0  0
  151.9154  142.2393  159.2619 C   0  0  0  0  0  0  0  0  0  0  0  0
  152.2572  143.2571  160.1467 C   0  0  0  0  0  0  0  0  0  0  0  0
  152.2955  144.5655  159.6215 C   0  0  0  0  0  0  0  0  0  0  0  0
  152.0030  144.8217  158.2663 C   0  0  0  0  0  0  0  0  0  0  0  0
  151.6575  143.7817  157.3785 C   0  0  0  0  0  0  0  0  0  0  0  0
  151.6176  142.4915  157.9060 C   0  0  0  0  0  0  0  0  0  0  0  0
  147.7849  141.3854  152.8796 H   0  0  0  0  0  0  0  0  0  0  0  0
  147.3429  142.3071  154.3172 H   0  0  0  0  0  0  0  0  0  0  0  0
  147.5582  140.5503  154.4169 H   0  0  0  0  0  0  0  0  0  0  0  0
  149.5245  142.8132  155.9186 H   0  0  0  0  0  0  0  0  0  0  0  0
  148.8066  141.2310  156.1809 H   0  0  0  0  0  0  0  0  0  0  0  0
  150.9994  140.1313  155.6096 H   0  0  0  0  0  0  0  0  0  0  0  0
  151.7322  141.6970  155.3499 H   0  0  0  0  0  0  0  0  0  0  0  0
  149.1505  139.0445  159.3448 H   0  0  0  0  0  0  0  0  0  0  0  0
  148.7590  138.3635  157.7824 H   0  0  0  0  0  0  0  0  0  0  0  0
  147.9223  137.6927  160.5831 H   0  0  0  0  0  0  0  0  0  0  0  0
  148.9220  134.9682  161.1022 H   0  0  0  0  0  0  0  0  0  0  0  0
  146.3523  135.5111  159.7763 H   0  0  0  0  0  0  0  0  0  0  0  0
  147.0035  133.9520  160.2422 H   0  0  0  0  0  0  0  0  0  0  0  0
  144.7794  135.0261  161.4699 H   0  0  0  0  0  0  0  0  0  0  0  0
  145.9187  133.9896  162.3230 H   0  0  0  0  0  0  0  0  0  0  0  0
  145.8667  137.0249  162.3081 H   0  0  0  0  0  0  0  0  0  0  0  0
  145.9222  135.9645  163.7167 H   0  0  0  0  0  0  0  0  0  0  0  0
  148.1941  135.3255  163.2441 H   0  0  0  0  0  0  0  0  0  0  0  0
  148.2279  137.0324  162.8394 H   0  0  0  0  0  0  0  0  0  0  0  0
  152.4840  143.0634  161.1849 H   0  0  0  0  0  0  0  0  0  0  0  0
  152.5560  145.3886  160.2709 H   0  0  0  0  0  0  0  0  0  0  0  0
  152.0441  145.8372  157.8994 H   0  0  0  0  0  0  0  0  0  0  0  0
  151.4338  143.9888  156.3423 H   0  0  0  0  0  0  0  0  0  0  0  0
  151.9392  140.3612  160.3227 H   0  0  0  0  0  0  0  0  0  0  0  0
  1  2  1  0  0  0  0
  1 24  1  0  0  0  0
  1 25  1  0  0  0  0
  1 26  1  0  0  0  0
  2  3  1  0  0  0  0
  3  4  1  0  0  0  0
  3 27  1  0  0  0  0
  3 28  1  0  0  0  0
  4  5  1  0  0  0  0
  4 29  1  0  0  0  0
  4 30  1  0  0  0  0
  5 23  1  0  0  0  0
  5  6  1  0  0  0  0
  6  7  1  0  0  0  0
  6 17  2  0  0  0  0
  7  8  1  0  0  0  0
  8  9  1  0  0  0  0
  8 31  1  0  0  0  0
  8 32  1  0  0  0  0
  9 10  2  0  0  0  0
  9 11  1  0  0  0  0
 11 12  1  0  0  0  0
 11 33  1  0  0  0  0
 12 16  1  0  0  0  0
 12 13  1  0  0  0  0
 12 34  1  0  0  0  0
 13 14  1  0  0  0  0
 13 35  1  0  0  0  0
 13 36  1  0  0  0  0
 14 15  1  0  0  0  0
 14 37  1  0  0  0  0
 14 38  1  0  0  0  0
 15 16  1  0  0  0  0
 15 39  1  0  0  0  0
 15 40  1  0  0  0  0
 16 41  1  0  0  0  0
 16 42  1  0  0  0  0
 17 18  1  0  0  0  0
 17 47  1  0  0  0  0
 18 23  2  0  0  0  0
 18 19  1  0  0  0  0
 19 20  2  0  0  0  0
 19 43  1  0  0  0  0
 20 21  1  0  0  0  0
 20 44  1  0  0  0  0
 21 22  2  0  0  0  0
 21 45  1  0  0  0  0
 22 23  1  0  0  0  0
 22 46  1  0  0  0  0
M  CHG  1  17   1
M  END
> <s_m_source_file>
AV-unprocessed.smi

> <i_m_source_file_index>
1378

> <i_lp_mmshare_version>
43012

> <i_f3d_flags>
0

> <s_epik_input>
W2NIXTFbY0hdW2NIXVtjSF1jKGMxMiluKFtDSDJdW0NIMl1PW0NIM10pYyhuMilTW0NIMl1DKD1PKVtOSF1bQ0hdM1tDSDJdW0NIMl1bQ0gyXVtDSDJdMw==

> <s_epik_cmdline>
J2VwaWtfcHl0aG9uJywgJy1waCcsICc3LjAnLCAnLXRuJywgJzgnLCAnLW1hJywgJzIwMCcsICctbWV0YWxfYmluZGluZycsICctaW1hZScsICc8aW5maWxlLm1hZT4nLCAnLW9tYWUnLCAnPG91dGZpbGUubWFlPic=

> <r_epik_Ionization_Penalty>
1.66257

> <r_epik_Ionization_Penalty_Charging>
1.66257

> <r_epik_Ionization_Penalty_Neutral>
9.72138e-08

> <r_epik_State_Penalty>
1.76557

> <r_epik_Charging_Adjusted_Penalty>
3.42813

> <i_epik_Tot_Q>
1

> <i_epik_Tot_abs_Q>
1

> <r_epik_Metal_State_Penalty>
1.80074

> <b_epik_Metal_Only>
0

> <s_lp_Force_Field>
OPLS_2005

> <r_lp_Energy>
23.1428

> <b_lp_Chiralities_Consistent>
1

> <s_lp_Variant>
AV-unprocessed.smi:1378-2

> <Gold.Version>
5.8.1

> <Gold.Id.Protein>
6NUR|6NUR_protein|mol2

> <Gold.PLP.Fitness>
51.1566

> <Gold.PLP.PLP>
-49.9044

> <Gold.PLP.part.hbond>
-3.0000

> <Gold.PLP.part.metal>
0.0000

> <Gold.PLP.part.buried>
-5.8327

> <Gold.PLP.part.nonpolar>
-41.7614

> <Gold.PLP.part.repulsive>
0.6003

> <Gold.PLP.ligand.clash>
0.0000

> <Gold.PLP.ligand.torsion>
1.5566

> <Gold.PLP.Chemscore.Hbond>
1.4150

> <Gold.PLP.Chemscore.CHOScore>
0.0000

> <Gold.PLP.Chemscore.Metal>
0.0000

> <Gold.Chemscore.Hbonds>
donor molecule, donor type, donor heavy atom, donor atom, acceptor molecule, acceptor atom, score
      P1  H  6896  6908       L1    10  1.00
      P1  H  8011  8017       L1     2  0.37

> <Gold.PLP.Chemscore.Internal.Correction>
0.1205

> <Gold.Rescore>
     Score         DG    S(hbond)    S(metal)    S(lipo)     H(rot)  DE(clash)    DE(int)     intcor
     17.89     -19.44       1.02        0.00     135.36       2.06       0.21       1.35       ----

> <Gold.Chemscore.Fitness>
17.8921

> <Gold.Chemscore.DG>
-19.4427

> <Gold.Chemscore.ZeroCoef>
-5.4800

> <Gold.Chemscore.Hbond>
1.0151

> <Gold.Chemscore.Metal>
0.0000

> <Gold.Chemscore.Lipo>
135.3633

> <Gold.Chemscore.Internal_Hbond>
0.0000

> <Gold.Chemscore.DEClash>
0.2056

> <Gold.Chemscore.DEInternal>
1.3450

> <Gold.Chemscore.Rot>
2.0567

> <Gold.Chemscore.Internal.Correction>
   9.000000E+99

> <Gold.Chemscore.Hbonds>
donor molecule, donor type, donor heavy atom, donor atom, acceptor molecule, acceptor atom, score
      P1  H  6896  6908       L1    10  0.98
      P1  H  8011  8017       L1     2  0.05

> <Gold.Chemscore.Hbond.Weighted>
-3.3904

> <Gold.Chemscore.Metal.Weighted>
-0.0000

> <Gold.Chemscore.Lipo.Weighted>
-15.8375

> <Gold.Chemscore.Internal_Hbond.Weighted>
0.0000

> <Gold.Chemscore.DEClash.Weighted>
0.2056

> <Gold.Chemscore.DEInternal.Weighted>
1.3450

> <Gold.Chemscore.Rot.Weighted>
5.2652

> <Gold.Chemscore.Internal.Correction.Weighted>
   9.000000E+99

> <Gold.Protein.RotatedTorsions>
[ 6907 6896 6895 6894 ] final -160.76 input  -60.11 | X-H torsion
[ 7974 7965 7964 7962 ] final  -77.45 input  175.53 | X-H torsion
[ 8008 7997 7996 7995 ] final   86.75 input   59.86 | X-H torsion
[ 10167 10162 10161 10158 ] final   -9.40 input  -65.29 | X-H torsion
[ 10718 10713 10712 10709 ] final  171.13 input   66.30 | X-H torsion
[ 10763 10752 10751 10750 ] final   96.08 input  -60.55 | X-H torsion
[ 11005 11000 10999 10996 ] final   63.11 input  -57.11 | X-H torsion

> <Gold.Protein.ActiveResidues>
 VAL166  LYS551  ARG553  GLY616  TRP617  ASP618  TYR619  PRO620  LYS621  CYS622 
 ASP623  PHE694  ASN695  SER759  ASP760  ASP761  ALA762  ILE779  LEU786  VAL792 
 PHE793  MET794  SER795  GLU796  ALA797  LYS798  CYS799  TRP800  GLU811  SER814 

> <Gold.Protein.RotatedAtoms>
  151.3541  133.3914  159.2682 H   0  0  0  0  0  0  0  0  0  0  0  0  # atno 6907 bound_to 6896
  150.9778  134.9140  159.7836 H   0  0  0  0  0  0  0  0  0  0  0  0  # atno 6908 bound_to 6896
  152.5206  134.3504  159.9301 H   0  0  0  0  0  0  0  0  0  0  0  0  # atno 6909 bound_to 6896
  145.5996  140.9412  143.1248 H   0  0  0  0  0  0  0  0  0  0  0  0  # atno 7974 bound_to 7965
  155.9667  140.3389  155.6539 H   0  0  0  0  0  0  0  0  0  0  0  0  # atno 8008 bound_to 7997
  155.6728  140.0729  157.2532 H   0  0  0  0  0  0  0  0  0  0  0  0  # atno 8009 bound_to 7997
  154.4156  140.1688  156.1885 H   0  0  0  0  0  0  0  0  0  0  0  0  # atno 8010 bound_to 7997
  140.7086  143.5862  150.8941 H   0  0  0  0  0  0  0  0  0  0  0  0  # atno 10167 bound_to 10162
  156.9981  131.0168  151.2838 H   0  0  0  0  0  0  0  0  0  0  0  0  # atno 10718 bound_to 10713
  153.2607  135.4231  155.0891 H   0  0  0  0  0  0  0  0  0  0  0  0  # atno 10763 bound_to 10752
  154.8419  135.3448  154.6382 H   0  0  0  0  0  0  0  0  0  0  0  0  # atno 10764 bound_to 10752
  153.6802  135.7039  153.5177 H   0  0  0  0  0  0  0  0  0  0  0  0  # atno 10765 bound_to 10752
  140.0047  134.6388  155.9875 H   0  0  0  0  0  0  0  0  0  0  0  0  # atno 11005 bound_to 11000
  144.7316  139.7710  143.7345 LP  0  0  0  0  0  0  0  0  0  0  0  0  # atno 17320 bound_to 7965
  146.1586  139.4693  143.0003 LP  0  0  0  0  0  0  0  0  0  0  0  0  # atno 17321 bound_to 7965
  139.9588  143.6188  152.3008 LP  0  0  0  0  0  0  0  0  0  0  0  0  # atno 17342 bound_to 10162
  139.6733  144.7660  151.1743 LP  0  0  0  0  0  0  0  0  0  0  0  0  # atno 17343 bound_to 10162
  157.5410  130.8120  149.8029 LP  0  0  0  0  0  0  0  0  0  0  0  0  # atno 17370 bound_to 10713
  156.0181  130.3805  150.2046 LP  0  0  0  0  0  0  0  0  0  0  0  0  # atno 17371 bound_to 10713
  141.1668  133.6537  156.4507 LP  0  0  0  0  0  0  0  0  0  0  0  0  # atno 17394 bound_to 11000
  140.4664  134.6794  157.5109 LP  0  0  0  0  0  0  0  0  0  0  0  0  # atno 17395 bound_to 11000

$$$$
