#       Name:                AV-unprocessed.smi:283
#       Creating user name   scv26
#       Creation time:       Thu Mar 26 21:47:41 2020


#       File generated by GOLD software.
#

@<TRIPOS>MOLECULE
AV-unprocessed.smi:283
    59    62     1
SMALL
NO_CHARGES


@<TRIPOS>ATOM
      1 ****        -5.5290  -0.0819  -0.7654 C.3            1 S1                 0.0000
      2 ****        -4.1775   0.5788  -0.4627 C.3            1 S1                 0.0000
      3 ****        -3.0907  -0.3576  -0.7443 N.pl3          1 S1                 0.0000
      4 ****        -1.8010   0.0449  -0.7000 C.ar           1 S1                 0.0000
      5 ****        -1.4760   1.3641  -0.6843 N.ar           1 S1                 0.0000
      6 ****        -0.1935   1.7358  -0.6398 C.ar           1 S1                 0.0000
      7 ****         0.8970   0.9665  -0.6097 N.ar           1 S1                 0.0000
      8 ****         0.5760  -0.3603  -0.6288 C.ar           1 S1                 0.0000
      9 ****        -0.7407  -0.8968  -0.6764 C.ar           1 S1                 0.0000
     10 ****        -0.6847  -2.2844  -0.6869 N.2            1 S1                 0.0000
     11 ****         0.5937  -2.5488  -0.6492 C.2            1 S1                 0.0000
     12 ****         1.4237  -1.4505  -0.6152 N.pl3          1 S1                 0.0000
     13 ****         2.9198  -1.4427  -0.5699 C.3            1 S1                 0.0000
     14 ****         3.3470  -0.3947   0.2321 O.3            1 S1                 0.0000
     15 ****         4.7021  -0.1060  -0.0854 C.3            1 S1                 0.0000
     16 ****         5.5897  -0.8800   0.9141 C.3            1 S1                 0.0000
     17 ****         6.9098  -0.3782   0.9123 O.3            1 S1                 0.0000
     18 ****         4.8482  -0.4636  -1.5871 C.3            1 S1                 0.0000
     19 ****         5.9892  -1.2560  -1.8597 O.3            1 S1                 0.0000
     20 ****         3.5775  -1.2387  -1.9420 C.3            1 S1                 0.0000
     21 ****         2.7759  -0.5101  -2.8541 O.3            1 S1                 0.0000
     22 ****        -4.1663   1.1482   0.9578 C.ar           1 S1                 0.0000
     23 ****        -3.8045   0.3177   2.0440 C.ar           1 S1                 0.0000
     24 ****        -3.7881   0.8206   3.3583 C.ar           1 S1                 0.0000
     25 ****        -4.1411   2.1599   3.6023 C.ar           1 S1                 0.0000
     26 ****        -4.5135   2.9924   2.5309 C.ar           1 S1                 0.0000
     27 ****        -4.5305   2.4944   1.2124 C.ar           1 S1                 0.0000
     28 ****        -5.0068   3.5601  -0.0631 Cl             1 S1                 0.0000
     29 ****         3.1959  -2.3921  -0.1081 H              1 S1                 0.0000
     30 ****         4.8511   0.9642   0.0644 H              1 S1                 0.0000
     31 ****         4.9217   0.4488  -2.1811 H              1 S1                 0.0000
     32 ****         3.7827  -2.2174  -2.3785 H              1 S1                 0.0000
     33 ****        -6.3472   0.6283  -0.6432 H              1 S1                 0.0000
     34 ****        -5.7179  -0.9249  -0.0997 H              1 S1                 0.0000
     35 ****        -5.5658  -0.4510  -1.7908 H              1 S1                 0.0000
     36 ****        -4.0562   1.3979  -1.1707 H              1 S1                 0.0000
     37 ****        -3.3549  -1.3313  -0.7874 H              1 S1                 0.0000
     38 ****        -0.0156   2.8010  -0.6279 H              1 S1                 0.0000
     39 ****         0.9700  -3.5614  -0.6472 H              1 S1                 0.0000
     40 ****         5.1982  -0.7534   1.9239 H              1 S1                 0.0000
     41 ****         5.5929  -1.9512   0.7101 H              1 S1                 0.0000
     42 ****         7.2933  -0.5431   0.0650 H              1 S1                 0.0000
     43 ****         6.7603  -0.7286  -1.7185 H              1 S1                 0.0000
     44 ****         1.9431  -0.9490  -2.9363 H              1 S1                 0.0000
     45 ****        -3.5345  -0.7143   1.8747 H              1 S1                 0.0000
     46 ****        -3.5055   0.1775   4.1787 H              1 S1                 0.0000
     47 ****        -4.1295   2.5479   4.6102 H              1 S1                 0.0000
     48 ****        -4.7891   4.0189   2.7229 H              1 S1                 0.0000
     49 ****        -2.1968   2.0569  -0.7061 LP             1 S1                 0.0000
     50 ****         1.8326   1.3183  -0.5772 LP             1 S1                 0.0000
     51 ****        -1.4467  -2.9313  -0.7165 LP             1 S1                 0.0000
     52 ****         3.2745  -0.6555   1.1947 LP             1 S1                 0.0000
     53 ****         2.7815   0.4123   0.0619 LP             1 S1                 0.0000
     54 ****         7.4461  -0.8379   1.6201 LP             1 S1                 0.0000
     55 ****         6.8966   0.6057   1.0905 LP             1 S1                 0.0000
     56 ****         5.9637  -1.5691  -2.8091 LP             1 S1                 0.0000
     57 ****         6.0047  -2.0470  -1.2481 LP             1 S1                 0.0000
     58 ****         3.2275  -0.4730  -3.7456 LP             1 S1                 0.0000
     59 ****         2.6356   0.4193  -2.5126 LP             1 S1                 0.0000
@<TRIPOS>BOND
    1    1    2 1     
    2    1   33 1     
    3    1   34 1     
    4    1   35 1     
    5    2    3 1     
    6    2   22 1     
    7    2   36 1     
    8    3    4 1     
    9    3   37 1     
   10    4    9 ar    
   11    4    5 ar    
   12    5    6 ar    
   13    6    7 ar    
   14    6   38 1     
   15    7    8 ar    
   16    8   12 1     
   17    8    9 ar    
   18    9   10 1     
   19   10   11 2     
   20   11   12 1     
   21   11   39 1     
   22   12   13 1     
   23   13   29 1     
   24   13   20 1     
   25   13   14 1     
   26   14   15 1     
   27   15   30 1     
   28   15   16 1     
   29   15   18 1     
   30   16   17 1     
   31   16   40 1     
   32   16   41 1     
   33   17   42 1     
   34   18   31 1     
   35   18   19 1     
   36   18   20 1     
   37   19   43 1     
   38   20   32 1     
   39   20   21 1     
   40   21   44 1     
   41   22   27 ar    
   42   22   23 ar    
   43   23   24 ar    
   44   23   45 1     
   45   24   25 ar    
   46   24   46 1     
   47   25   26 ar    
   48   25   47 1     
   49   26   27 ar    
   50   26   48 1     
   51   27   28 1     
   52    5   49 1     
   53    7   50 1     
   54   10   51 1     
   55   14   52 1     
   56   14   53 1     
   57   17   54 1     
   58   17   55 1     
   59   19   56 1     
   60   19   57 1     
   61   21   58 1     
   62   21   59 1     
@<TRIPOS>SUBSTRUCTURE
      1 S1             1
@<TRIPOS>SET
LONE_PAIRS      STATIC     ATOMS    <user>   **** ""
11 49 50 51 52 53 54 55 56 57 58 59
DONOR_HYDROGENS      STATIC     ATOMS    <user>   **** ""
4 37 42 43 44
ATOM$BLUE        STATIC     ATOMS    COLORGROUP SYSTEM
11 49 50 51 52 53 54 55 56 57 58 59
ATOM$RED        STATIC     ATOMS    COLORGROUP SYSTEM
4 37 42 43 44
