AV-unprocessed.smi:2204|AV-procd|sdf|8938|dock9
  -GOLD-   2272012153D 1   1.00000     0.00000
 Structure written by MMmdl.
 39 40  0  0  0  0  0  0  0  0  1 V2000
  151.3971  144.8821  158.6096 C   0  0  0  0  0  0  0  0  0  0  0  0
  152.0359  143.6126  159.0900 C   0  0  0  0  0  0  0  0  0  0  0  0
  153.0471  143.4534  160.0779 C   0  0  0  0  0  0  0  0  0  0  0  0
  153.2629  142.1050  160.1262 C   0  0  0  0  0  0  0  0  0  0  0  0
  154.2067  141.3125  160.9700 C   0  0  0  0  0  0  0  0  0  0  0  0
  152.4097  141.5284  159.2010 N   0  0  0  0  0  0  0  0  0  0  0  0
  152.2437  140.1244  158.8492 C   0  0  0  0  0  0  0  0  0  0  0  0
  152.0687  139.9178  157.3409 C   0  0  0  0  0  0  0  0  0  0  0  0
  152.8872  139.2409  156.7192 O   0  0  0  0  0  0  0  0  0  0  0  0
  151.0160  140.5202  156.7628 N   0  0  0  0  0  0  0  0  0  0  0  0
  150.6704  140.4695  155.3452 C   0  0  1  0  0  0  0  0  0  0  0  0
  150.3768  139.0087  154.9701 C   0  0  0  0  0  0  0  0  0  0  0  0
  149.4740  141.4032  155.0653 C   0  0  2  0  0  0  0  0  0  0  0  0
  148.2268  141.1053  155.9019 C   0  0  0  0  0  0  0  0  0  0  0  0
  147.1207  141.6251  155.0131 C   0  0  0  0  0  0  0  0  0  0  0  0
  147.6221  141.2074  153.6365 C   0  0  0  0  0  0  0  0  0  0  0  0
  149.0427  141.2791  153.7093 O   0  0  0  0  0  0  0  0  0  0  0  0
  151.6586  142.4569  158.5693 N   0  0  0  0  0  0  0  0  0  0  0  0
  151.6938  145.7306  159.2264 H   0  0  0  0  0  0  0  0  0  0  0  0
  150.3095  144.8135  158.6422 H   0  0  0  0  0  0  0  0  0  0  0  0
  151.6877  145.1016  157.5821 H   0  0  0  0  0  0  0  0  0  0  0  0
  153.5401  144.2152  160.6635 H   0  0  0  0  0  0  0  0  0  0  0  0
  154.8137  141.9672  161.5953 H   0  0  0  0  0  0  0  0  0  0  0  0
  154.8819  140.7215  160.3514 H   0  0  0  0  0  0  0  0  0  0  0  0
  153.6637  140.6326  161.6265 H   0  0  0  0  0  0  0  0  0  0  0  0
  153.1090  139.5580  159.1936 H   0  0  0  0  0  0  0  0  0  0  0  0
  151.3769  139.7282  159.3809 H   0  0  0  0  0  0  0  0  0  0  0  0
  150.4013  141.0568  157.3571 H   0  0  0  0  0  0  0  0  0  0  0  0
  151.5206  140.8001  154.7458 H   0  0  0  0  0  0  0  0  0  0  0  0
  150.1682  138.9041  153.9054 H   0  0  0  0  0  0  0  0  0  0  0  0
  149.5168  138.6223  155.5180 H   0  0  0  0  0  0  0  0  0  0  0  0
  151.2302  138.3684  155.1966 H   0  0  0  0  0  0  0  0  0  0  0  0
  149.7644  142.4439  155.2200 H   0  0  0  0  0  0  0  0  0  0  0  0
  148.1086  140.0306  156.0486 H   0  0  0  0  0  0  0  0  0  0  0  0
  148.2466  141.5842  156.8815 H   0  0  0  0  0  0  0  0  0  0  0  0
  146.1418  141.2105  155.2553 H   0  0  0  0  0  0  0  0  0  0  0  0
  147.0618  142.7121  155.0812 H   0  0  0  0  0  0  0  0  0  0  0  0
  147.3387  140.1754  153.4261 H   0  0  0  0  0  0  0  0  0  0  0  0
  147.2288  141.8369  152.8380 H   0  0  0  0  0  0  0  0  0  0  0  0
  1  2  1  0  0  0  0
  1 19  1  0  0  0  0
  1 20  1  0  0  0  0
  1 21  1  0  0  0  0
  2 18  2  0  0  0  0
  2  3  1  0  0  0  0
  3  4  2  0  0  0  0
  3 22  1  0  0  0  0
  4  5  1  0  0  0  0
  4  6  1  0  0  0  0
  5 23  1  0  0  0  0
  5 24  1  0  0  0  0
  5 25  1  0  0  0  0
  6  7  1  0  0  0  0
  6 18  1  0  0  0  0
  7  8  1  0  0  0  0
  7 26  1  0  0  0  0
  7 27  1  0  0  0  0
  8  9  2  0  0  0  0
  8 10  1  0  0  0  0
 10 11  1  0  0  0  0
 10 28  1  0  0  0  0
 11 12  1  0  0  0  0
 11 13  1  0  0  0  0
 11 29  1  0  0  0  0
 12 30  1  0  0  0  0
 12 31  1  0  0  0  0
 12 32  1  0  0  0  0
 13 17  1  0  0  0  0
 13 14  1  0  0  0  0
 13 33  1  0  0  0  0
 14 15  1  0  0  0  0
 14 34  1  0  0  0  0
 14 35  1  0  0  0  0
 15 16  1  0  0  0  0
 15 36  1  0  0  0  0
 15 37  1  0  0  0  0
 16 17  1  0  0  0  0
 16 38  1  0  0  0  0
 16 39  1  0  0  0  0
M  END
> <s_m_source_file>
AV-unprocessed.smi

> <i_m_source_file_index>
2204

> <i_lp_mmshare_version>
43012

> <i_f3d_flags>
0

> <s_epik_input>
W0NIM11jMVtjSF1jKFtDSDNdKW4objEpW0NIMl1DKD1PKVtOSF1bQ0BIXShbQ0gzXSlbQ0BASF0yW0NIMl1bQ0gyXVtDSDJdTzI=

> <s_epik_cmdline>
J2VwaWtfcHl0aG9uJywgJy1waCcsICc3LjAnLCAnLXRuJywgJzgnLCAnLW1hJywgJzIwMCcsICctbWV0YWxfYmluZGluZycsICctaW1hZScsICc8aW5maWxlLm1hZT4nLCAnLW9tYWUnLCAnPG91dGZpbGUubWFlPic=

> <r_lp_tautomer_probability>
1

> <r_epik_Ionization_Penalty>
0.000433354

> <r_epik_Ionization_Penalty_Charging>
0

> <r_epik_Ionization_Penalty_Neutral>
0.000433354

> <r_epik_State_Penalty>
-0

> <r_epik_Charging_Adjusted_Penalty>
0

> <i_epik_Tot_Q>
0

> <i_epik_Tot_abs_Q>
0

> <r_epik_Metal_State_Penalty>
-0

> <b_epik_Metal_Only>
0

> <s_lp_Force_Field>
OPLS_2005

> <r_lp_Energy>
17.6032

> <b_lp_Chiralities_Consistent>
1

> <s_lp_Variant>
AV-unprocessed.smi:2204-2

> <Gold.Version>
5.8.1

> <Gold.Id.Protein>
6NUR|6NUR_protein|mol2

> <Gold.PLP.Fitness>
45.7460

> <Gold.PLP.PLP>
-40.8091

> <Gold.PLP.part.hbond>
-3.0000

> <Gold.PLP.part.metal>
0.0000

> <Gold.PLP.part.buried>
-4.4904

> <Gold.PLP.part.nonpolar>
-35.1048

> <Gold.PLP.part.repulsive>
1.9121

> <Gold.PLP.ligand.clash>
0.0000

> <Gold.PLP.ligand.torsion>
0.3130

> <Gold.PLP.Chemscore.Hbond>
1.8480

> <Gold.PLP.Chemscore.CHOScore>
0.0000

> <Gold.PLP.Chemscore.Metal>
0.0000

> <Gold.Chemscore.Hbonds>
donor molecule, donor type, donor heavy atom, donor atom, acceptor molecule, acceptor atom, score
      P1  H  7997  8008       L1     9  1.00
      P1  H  8011  8017       L1    17  0.88

> <Gold.PLP.Chemscore.Internal.Correction>
0.0189

> <Gold.Rescore>
     Score         DG    S(hbond)    S(metal)    S(lipo)     H(rot)  DE(clash)    DE(int)     intcor
     16.91     -18.94       1.58        0.00     102.66       1.50       0.64       1.39       ----

> <Gold.Chemscore.Fitness>
16.9050

> <Gold.Chemscore.DG>
-18.9395

> <Gold.Chemscore.ZeroCoef>
-5.4800

> <Gold.Chemscore.Hbond>
1.5838

> <Gold.Chemscore.Metal>
0.0000

> <Gold.Chemscore.Lipo>
102.6555

> <Gold.Chemscore.Internal_Hbond>
0.0000

> <Gold.Chemscore.DEClash>
0.6421

> <Gold.Chemscore.DEInternal>
1.3924

> <Gold.Chemscore.Rot>
1.5005

> <Gold.Chemscore.Internal.Correction>
   9.000000E+99

> <Gold.Chemscore.Hbonds>
donor molecule, donor type, donor heavy atom, donor atom, acceptor molecule, acceptor atom, score
      P1  H  7997  8008       L1     9  0.78
      P1  H  8011  8017       L1    17  0.69

> <Gold.Chemscore.Hbond.Weighted>
-5.2900

> <Gold.Chemscore.Metal.Weighted>
-0.0000

> <Gold.Chemscore.Lipo.Weighted>
-12.0107

> <Gold.Chemscore.Internal_Hbond.Weighted>
0.0000

> <Gold.Chemscore.DEClash.Weighted>
0.6421

> <Gold.Chemscore.DEInternal.Weighted>
1.3924

> <Gold.Chemscore.Rot.Weighted>
3.8412

> <Gold.Chemscore.Internal.Correction.Weighted>
   9.000000E+99

> <Gold.Protein.RotatedTorsions>
[ 6907 6896 6895 6894 ] final   60.10 input  -60.11 | X-H torsion
[ 7974 7965 7964 7962 ] final   42.87 input  175.53 | X-H torsion
[ 8008 7997 7996 7995 ] final  -51.19 input   59.86 | X-H torsion
[ 10167 10162 10161 10158 ] final    1.54 input  -65.29 | X-H torsion
[ 10718 10713 10712 10709 ] final  -24.70 input   66.30 | X-H torsion
[ 10763 10752 10751 10750 ] final  172.34 input  -60.55 | X-H torsion
[ 11005 11000 10999 10996 ] final  -52.39 input  -57.11 | X-H torsion

> <Gold.Protein.ActiveResidues>
 VAL166  LYS551  ARG553  GLY616  TRP617  ASP618  TYR619  PRO620  LYS621  CYS622 
 ASP623  PHE694  ASN695  SER759  ASP760  ASP761  ALA762  ILE779  LEU786  VAL792 
 PHE793  MET794  SER795  GLU796  ALA797  LYS798  CYS799  TRP800  GLU811  SER814 

> <Gold.Protein.RotatedAtoms>
  152.3973  134.6343  160.0083 H   0  0  0  0  0  0  0  0  0  0  0  0  # atno 6907 bound_to 6896
  151.6559  133.3313  159.3170 H   0  0  0  0  0  0  0  0  0  0  0  0  # atno 6908 bound_to 6896
  150.7879  134.6922  159.6548 H   0  0  0  0  0  0  0  0  0  0  0  0  # atno 6909 bound_to 6896
  146.0704  139.5251  142.9601 H   0  0  0  0  0  0  0  0  0  0  0  0  # atno 7974 bound_to 7965
  154.4077  140.1254  156.4788 H   0  0  0  0  0  0  0  0  0  0  0  0  # atno 8008 bound_to 7997
  155.7105  140.3494  155.4952 H   0  0  0  0  0  0  0  0  0  0  0  0  # atno 8009 bound_to 7997
  155.9304  140.1068  157.1127 H   0  0  0  0  0  0  0  0  0  0  0  0  # atno 8010 bound_to 7997
  140.6678  143.7132  150.7861 H   0  0  0  0  0  0  0  0  0  0  0  0  # atno 10167 bound_to 10162
  156.4742  130.4531  149.6851 H   0  0  0  0  0  0  0  0  0  0  0  0  # atno 10718 bound_to 10713
  154.4247  135.2758  155.1952 H   0  0  0  0  0  0  0  0  0  0  0  0  # atno 10763 bound_to 10752
  154.3883  135.6072  153.5832 H   0  0  0  0  0  0  0  0  0  0  0  0  # atno 10764 bound_to 10752
  152.9834  135.5897  154.4549 H   0  0  0  0  0  0  0  0  0  0  0  0  # atno 10765 bound_to 10752
  141.0922  133.6631  156.4017 H   0  0  0  0  0  0  0  0  0  0  0  0  # atno 11005 bound_to 11000
  145.6402  141.0286  143.1816 LP  0  0  0  0  0  0  0  0  0  0  0  0  # atno 17320 bound_to 7965
  144.7228  139.7974  143.7376 LP  0  0  0  0  0  0  0  0  0  0  0  0  # atno 17321 bound_to 7965
  140.0812  143.4967  152.2529 LP  0  0  0  0  0  0  0  0  0  0  0  0  # atno 17342 bound_to 10162
  139.5933  144.7558  151.3346 LP  0  0  0  0  0  0  0  0  0  0  0  0  # atno 17343 bound_to 10162
  156.3587  130.7470  151.2439 LP  0  0  0  0  0  0  0  0  0  0  0  0  # atno 17370 bound_to 10713
  157.7489  131.0356  150.4372 LP  0  0  0  0  0  0  0  0  0  0  0  0  # atno 17371 bound_to 10713
  140.5226  134.6290  157.5323 LP  0  0  0  0  0  0  0  0  0  0  0  0  # atno 17394 bound_to 11000
  139.9750  134.7230  155.9967 LP  0  0  0  0  0  0  0  0  0  0  0  0  # atno 17395 bound_to 11000

$$$$
