#       Name:                AV-unprocessed.smi:798
#       Creating user name   scv26
#       Creation time:       Fri Mar 27 01:21:00 2020


#       File generated by GOLD software.
#

@<TRIPOS>MOLECULE
AV-unprocessed.smi:798
    40    42     1
SMALL
NO_CHARGES


@<TRIPOS>ATOM
      1 ****        -0.9508   2.2649   0.0485 O.2            1 S1                 0.0000
      2 ****        -1.4517   1.1870   0.3773 C.2            1 S1                 0.0000
      3 ****        -2.7632   0.9498   0.6076 N.pl3          1 S1                -1.0000
      4 ****        -3.6599   1.9386   0.4576 C.2            1 S1                 0.0000
      5 ****        -4.1304   2.6477   1.4963 N.2            1 S1                 0.0000
      6 ****        -5.0506   3.6180   1.1227 N.2            1 S1                 0.0000
      7 ****        -5.2570   3.6102  -0.1940 C.2            1 S1                 0.0000
      8 ****        -4.3504   2.4147  -1.0964 S.3            1 S1                 0.0000
      9 ****        -0.6730   0.1065   0.5273 N.am           1 S1                 0.0000
     10 ****         0.7740   0.0618   0.3206 C.3            1 S1                 0.0000
     11 ****         1.1891   0.1336  -1.1722 C.3            1 S1                 0.0000
     12 ****         0.4213  -0.9007  -2.0231 C.3            1 S1                 0.0000
     13 ****         1.0180  -2.2372  -1.5450 C.3            1 S1                 0.0000
     14 ****         2.0741  -1.7902  -0.5146 C.3            1 S1                 0.0000
     15 ****         2.5769  -0.4926  -1.1366 C.3            1 S1                 0.0000
     16 ****         1.3662  -1.3008   0.7706 C.3            1 S1                 0.0000
     17 ****         2.3270  -1.1880   1.9703 C.3            1 S1                 0.0000
     18 ****         1.6136  -0.8511   3.1409 O.3            1 S1                 0.0000
     19 ****        -5.9503   4.3097  -0.6363 H              1 S1                 0.0000
     20 ****        -1.1216  -0.7549   0.8023 H              1 S1                 0.0000
     21 ****         1.2429   0.8797   0.8713 H              1 S1                 0.0000
     22 ****         1.1570   1.1425  -1.5843 H              1 S1                 0.0000
     23 ****        -0.6605  -0.8529  -1.8981 H              1 S1                 0.0000
     24 ****         0.6304  -0.7508  -3.0830 H              1 S1                 0.0000
     25 ****         0.2657  -2.8963  -1.1103 H              1 S1                 0.0000
     26 ****         1.4845  -2.7664  -2.3767 H              1 S1                 0.0000
     27 ****         2.8427  -2.5428  -0.3358 H              1 S1                 0.0000
     28 ****         3.0168  -0.6286  -2.1262 H              1 S1                 0.0000
     29 ****         3.2819   0.0537  -0.5086 H              1 S1                 0.0000
     30 ****         0.5784  -2.0091   1.0348 H              1 S1                 0.0000
     31 ****         2.8304  -2.1398   2.1410 H              1 S1                 0.0000
     32 ****         3.1017  -0.4415   1.7946 H              1 S1                 0.0000
     33 ****         2.2262  -0.7758   3.8562 H              1 S1                 0.0000
     34 ****        -1.5314   3.0702  -0.0715 LP             1 S1                 0.0000
     35 ****         0.0360   2.3337  -0.0980 LP             1 S1                 0.0000
     36 ****        -3.0650   0.0391   0.8894 LP             1 S1                 0.0000
     37 ****        -3.8469   2.4927   2.4427 LP             1 S1                 0.0000
     38 ****        -5.5010   4.2430   1.7603 LP             1 S1                 0.0000
     39 ****         0.9440  -1.5653   3.3447 LP             1 S1                 0.0000
     40 ****         1.1415   0.0205   3.0086 LP             1 S1                 0.0000
@<TRIPOS>BOND
    1    1    2 2     
    2    2    3 1     
    3    2    9 am    
    4    3    4 1     
    5    4    8 1     
    6    4    5 2     
    7    5    6 1     
    8    6    7 2     
    9    7    8 1     
   10    7   19 1     
   11    9   10 1     
   12    9   20 1     
   13   10   16 1     
   14   10   11 1     
   15   10   21 1     
   16   11   15 1     
   17   11   12 1     
   18   11   22 1     
   19   12   13 1     
   20   12   23 1     
   21   12   24 1     
   22   13   14 1     
   23   13   25 1     
   24   13   26 1     
   25   14   15 1     
   26   14   16 1     
   27   14   27 1     
   28   15   28 1     
   29   15   29 1     
   30   16   17 1     
   31   16   30 1     
   32   17   18 1     
   33   17   31 1     
   34   17   32 1     
   35   18   33 1     
   36    1   34 1     
   37    1   35 1     
   38    3   36 1     
   39    5   37 1     
   40    6   38 1     
   41   18   39 1     
   42   18   40 1     
@<TRIPOS>SUBSTRUCTURE
      1 S1             1
@<TRIPOS>SET
LONE_PAIRS      STATIC     ATOMS    <user>   **** ""
7 34 35 36 37 38 39 40
DONOR_HYDROGENS      STATIC     ATOMS    <user>   **** ""
2 20 33
ATOM$BLUE        STATIC     ATOMS    COLORGROUP SYSTEM
7 34 35 36 37 38 39 40
ATOM$RED        STATIC     ATOMS    COLORGROUP SYSTEM
2 20 33
