AV-unprocessed.smi:3335|AV-procd|sdf|12846|dock7
  -GOLD-   2272019233D 1   1.00000     0.00000
 Structure written by MMmdl.
 46 47  0  0  0  0  0  0  0  0  1 V2000
  153.1601  143.1536  162.8773 C   0  0  0  0  0  0  0  0  0  0  0  0
  152.7606  142.8064  161.4724 C   0  0  0  0  0  0  0  0  0  0  0  0
  153.0238  141.6032  160.7592 C   0  0  0  0  0  0  0  0  0  0  0  0
  152.5232  141.6122  159.5355 N   0  0  0  0  0  0  0  0  0  0  0  0
  151.9288  142.8212  159.4155 N   0  0  0  0  0  0  0  0  0  0  0  0
  151.2260  143.1919  158.1889 C   0  0  1  0  0  0  0  0  0  0  0  0
  152.0520  144.1523  157.3097 C   0  0  0  0  0  0  0  0  0  0  0  0
  150.6738  141.9731  157.4005 C   0  0  2  0  0  0  0  0  0  0  0  0
  151.7523  141.2348  156.5883 C   0  0  0  0  0  0  0  0  0  0  0  0
  149.6238  142.3959  156.4756 N   0  0  0  0  0  0  0  0  0  0  0  0
  149.2383  141.3827  155.4798 C   0  0  2  0  0  0  0  0  0  0  0  0
  148.0532  141.8646  154.6217 C   0  0  0  0  0  0  0  0  0  0  0  0
  148.8713  140.0577  156.1776 C   0  0  0  0  0  0  0  0  0  0  0  0
  147.9215  140.0401  156.9630 O   0  0  0  0  0  0  0  0  0  0  0  0
  149.5916  138.9455  155.9121 N   0  0  0  0  0  0  0  0  0  0  0  0
  150.7051  138.9228  154.9647 C   0  0  0  0  0  0  0  0  0  0  0  0
  151.0833  137.4511  154.7977 C   0  0  0  0  0  0  0  0  0  0  0  0
  150.6262  136.8020  156.0959 C   0  0  0  0  0  0  0  0  0  0  0  0
  149.4086  137.6253  156.5161 C   0  0  0  0  0  0  0  0  0  0  0  0
  152.0548  143.5574  160.5759 C   0  0  0  0  0  0  0  0  0  0  0  0
  153.8974  142.4556  163.2743 H   0  0  0  0  0  0  0  0  0  0  0  0
  152.3048  143.1363  163.5529 H   0  0  0  0  0  0  0  0  0  0  0  0
  153.5976  144.1504  162.9365 H   0  0  0  0  0  0  0  0  0  0  0  0
  153.5578  140.7264  161.0946 H   0  0  0  0  0  0  0  0  0  0  0  0
  150.3555  143.7653  158.5111 H   0  0  0  0  0  0  0  0  0  0  0  0
  151.4706  144.4924  156.4525 H   0  0  0  0  0  0  0  0  0  0  0  0
  152.9561  143.6793  156.9246 H   0  0  0  0  0  0  0  0  0  0  0  0
  152.3548  145.0353  157.8729 H   0  0  0  0  0  0  0  0  0  0  0  0
  150.2750  141.2702  158.1335 H   0  0  0  0  0  0  0  0  0  0  0  0
  152.5749  140.9186  157.2300 H   0  0  0  0  0  0  0  0  0  0  0  0
  152.1685  141.8615  155.7990 H   0  0  0  0  0  0  0  0  0  0  0  0
  151.3471  140.3403  156.1149 H   0  0  0  0  0  0  0  0  0  0  0  0
  149.8643  143.2788  156.0477 H   0  0  0  0  0  0  0  0  0  0  0  0
  150.1009  141.2130  154.8363 H   0  0  0  0  0  0  0  0  0  0  0  0
  147.7303  141.0940  153.9210 H   0  0  0  0  0  0  0  0  0  0  0  0
  148.3166  142.7412  154.0301 H   0  0  0  0  0  0  0  0  0  0  0  0
  147.1944  142.1291  155.2403 H   0  0  0  0  0  0  0  0  0  0  0  0
  150.4378  139.3735  154.0075 H   0  0  0  0  0  0  0  0  0  0  0  0
  151.5394  139.4870  155.3843 H   0  0  0  0  0  0  0  0  0  0  0  0
  150.5293  137.0231  153.9611 H   0  0  0  0  0  0  0  0  0  0  0  0
  152.1464  137.3071  154.6031 H   0  0  0  0  0  0  0  0  0  0  0  0
  150.4008  135.7410  155.9832 H   0  0  0  0  0  0  0  0  0  0  0  0
  151.4106  136.8996  156.8476 H   0  0  0  0  0  0  0  0  0  0  0  0
  149.3277  137.6741  157.6026 H   0  0  0  0  0  0  0  0  0  0  0  0
  148.4948  137.1773  156.1232 H   0  0  0  0  0  0  0  0  0  0  0  0
  151.6301  144.5462  160.6690 H   0  0  0  0  0  0  0  0  0  0  0  0
  1  2  1  0  0  0  0
  1 21  1  0  0  0  0
  1 22  1  0  0  0  0
  1 23  1  0  0  0  0
  2 20  2  0  0  0  0
  2  3  1  0  0  0  0
  3  4  2  0  0  0  0
  3 24  1  0  0  0  0
  4  5  1  0  0  0  0
  5  6  1  0  0  0  0
  5 20  1  0  0  0  0
  6  7  1  0  0  0  0
  6  8  1  0  0  0  0
  6 25  1  0  0  0  0
  7 26  1  0  0  0  0
  7 27  1  0  0  0  0
  7 28  1  0  0  0  0
  8  9  1  0  0  0  0
  8 10  1  0  0  0  0
  8 29  1  0  0  0  0
  9 30  1  0  0  0  0
  9 31  1  0  0  0  0
  9 32  1  0  0  0  0
 10 11  1  0  0  0  0
 10 33  1  0  0  0  0
 11 12  1  0  0  0  0
 11 13  1  0  0  0  0
 11 34  1  0  0  0  0
 12 35  1  0  0  0  0
 12 36  1  0  0  0  0
 12 37  1  0  0  0  0
 13 14  2  0  0  0  0
 13 15  1  0  0  0  0
 15 19  1  0  0  0  0
 15 16  1  0  0  0  0
 16 17  1  0  0  0  0
 16 38  1  0  0  0  0
 16 39  1  0  0  0  0
 17 18  1  0  0  0  0
 17 40  1  0  0  0  0
 17 41  1  0  0  0  0
 18 19  1  0  0  0  0
 18 42  1  0  0  0  0
 18 43  1  0  0  0  0
 19 44  1  0  0  0  0
 19 45  1  0  0  0  0
 20 46  1  0  0  0  0
M  END
> <s_m_source_file>
AV-unprocessed.smi

> <i_m_source_file_index>
3335

> <i_lp_mmshare_version>
43012

> <i_f3d_flags>
0

> <s_epik_input>
W0NIM11jMVtjSF1ubihbY0hdMSlbQ0BIXShbQ0gzXSlbQ0BIXShbQ0gzXSlbTkhdW0NASF0oW0NIM10pQyg9TylOMltDSDJdW0NIMl1bQ0gyXVtDSDJdMg==

> <s_epik_cmdline>
J2VwaWtfcHl0aG9uJywgJy1waCcsICc3LjAnLCAnLXRuJywgJzgnLCAnLW1hJywgJzIwMCcsICctbWV0YWxfYmluZGluZycsICctaW1hZScsICc8aW5maWxlLm1hZT4nLCAnLW9tYWUnLCAnPG91dGZpbGUubWFlPic=

> <r_lp_tautomer_probability>
1

> <r_epik_Ionization_Penalty>
0.918803

> <r_epik_Ionization_Penalty_Charging>
0

> <r_epik_Ionization_Penalty_Neutral>
0.918803

> <r_epik_State_Penalty>
0.958258

> <r_epik_Charging_Adjusted_Penalty>
0.958258

> <i_epik_Tot_Q>
0

> <i_epik_Tot_abs_Q>
0

> <r_epik_Metal_State_Penalty>
0.956786

> <b_epik_Metal_Only>
0

> <s_lp_Force_Field>
OPLS_2005

> <r_lp_Energy>
40.4571

> <b_lp_Chiralities_Consistent>
1

> <s_lp_Variant>
AV-unprocessed.smi:3335-10

> <Gold.Version>
5.8.1

> <Gold.Id.Protein>
6NUR|6NUR_protein|mol2

> <Gold.PLP.Fitness>
43.1572

> <Gold.PLP.PLP>
-41.9165

> <Gold.PLP.part.hbond>
-1.0000

> <Gold.PLP.part.metal>
0.0000

> <Gold.PLP.part.buried>
-5.6033

> <Gold.PLP.part.nonpolar>
-35.5144

> <Gold.PLP.part.repulsive>
0.0000

> <Gold.PLP.ligand.clash>
0.0000

> <Gold.PLP.ligand.torsion>
0.9632

> <Gold.PLP.Chemscore.Hbond>
0.9920

> <Gold.PLP.Chemscore.CHOScore>
0.0000

> <Gold.PLP.Chemscore.Metal>
0.0000

> <Gold.Chemscore.Hbonds>
donor molecule, donor type, donor heavy atom, donor atom, acceptor molecule, acceptor atom, score
      L1  H    10    33       P1  8028  0.64

> <Gold.PLP.Chemscore.Internal.Correction>
0.1911

> <Gold.Rescore>
     Score         DG    S(hbond)    S(metal)    S(lipo)     H(rot)  DE(clash)    DE(int)     intcor
     16.48     -18.64       0.97        0.00     120.33       1.62       1.54       0.62       ----

> <Gold.Chemscore.Fitness>
16.4846

> <Gold.Chemscore.DG>
-18.6441

> <Gold.Chemscore.ZeroCoef>
-5.4800

> <Gold.Chemscore.Hbond>
0.9681

> <Gold.Chemscore.Metal>
0.0000

> <Gold.Chemscore.Lipo>
120.3311

> <Gold.Chemscore.Internal_Hbond>
0.0000

> <Gold.Chemscore.DEClash>
1.5368

> <Gold.Chemscore.DEInternal>
0.6227

> <Gold.Chemscore.Rot>
1.6204

> <Gold.Chemscore.Internal.Correction>
   9.000000E+99

> <Gold.Chemscore.Hbonds>
donor molecule, donor type, donor heavy atom, donor atom, acceptor molecule, acceptor atom, score
      L1  H    10    33       P1  8028  0.64

> <Gold.Chemscore.Hbond.Weighted>
-3.2335

> <Gold.Chemscore.Metal.Weighted>
-0.0000

> <Gold.Chemscore.Lipo.Weighted>
-14.0787

> <Gold.Chemscore.Internal_Hbond.Weighted>
0.0000

> <Gold.Chemscore.DEClash.Weighted>
1.5368

> <Gold.Chemscore.DEInternal.Weighted>
0.6227

> <Gold.Chemscore.Rot.Weighted>
4.1482

> <Gold.Chemscore.Internal.Correction.Weighted>
   9.000000E+99

> <Gold.Protein.RotatedTorsions>
[ 6907 6896 6895 6894 ] final   85.06 input  -60.11 | X-H torsion
[ 7974 7965 7964 7962 ] final   11.34 input  175.53 | X-H torsion
[ 8008 7997 7996 7995 ] final  141.52 input   59.86 | X-H torsion
[ 10167 10162 10161 10158 ] final  155.21 input  -65.29 | X-H torsion
[ 10718 10713 10712 10709 ] final  134.18 input   66.30 | X-H torsion
[ 10763 10752 10751 10750 ] final   74.96 input  -60.55 | X-H torsion
[ 11005 11000 10999 10996 ] final  -42.28 input  -57.11 | X-H torsion

> <Gold.Protein.ActiveResidues>
 VAL166  LYS551  ARG553  GLY616  TRP617  ASP618  TYR619  PRO620  LYS621  CYS622 
 ASP623  PHE694  ASN695  SER759  ASP760  ASP761  ALA762  ILE779  LEU786  VAL792 
 PHE793  MET794  SER795  GLU796  ALA797  LYS798  CYS799  TRP800  GLU811  SER814 

> <Gold.Protein.RotatedAtoms>
  152.5366  134.2645  159.8947 H   0  0  0  0  0  0  0  0  0  0  0  0  # atno 6907 bound_to 6896
  151.2604  133.4298  159.2623 H   0  0  0  0  0  0  0  0  0  0  0  0  # atno 6908 bound_to 6896
  151.0458  134.9653  159.8242 H   0  0  0  0  0  0  0  0  0  0  0  0  # atno 6909 bound_to 6896
  146.2373  139.9500  142.8472 H   0  0  0  0  0  0  0  0  0  0  0  0  # atno 7974 bound_to 7965
  156.2964  140.2313  156.4578 H   0  0  0  0  0  0  0  0  0  0  0  0  # atno 8008 bound_to 7997
  154.8045  140.0446  157.1318 H   0  0  0  0  0  0  0  0  0  0  0  0  # atno 8009 bound_to 7997
  154.9495  140.3040  155.5085 H   0  0  0  0  0  0  0  0  0  0  0  0  # atno 8010 bound_to 7997
  139.4821  144.5119  151.8011 H   0  0  0  0  0  0  0  0  0  0  0  0  # atno 10167 bound_to 10162
  157.4699  131.1079  150.9816 H   0  0  0  0  0  0  0  0  0  0  0  0  # atno 10718 bound_to 10713
  153.0622  135.5006  154.8120 H   0  0  0  0  0  0  0  0  0  0  0  0  # atno 10763 bound_to 10752
  154.6900  135.2983  154.9495 H   0  0  0  0  0  0  0  0  0  0  0  0  # atno 10764 bound_to 10752
  154.0253  135.6737  153.4828 H   0  0  0  0  0  0  0  0  0  0  0  0  # atno 10765 bound_to 10752
  141.0304  133.6822  156.2573 H   0  0  0  0  0  0  0  0  0  0  0  0  # atno 11005 bound_to 11000
  145.1871  140.9794  143.4233 LP  0  0  0  0  0  0  0  0  0  0  0  0  # atno 17320 bound_to 7965
  144.9890  139.3708  143.6224 LP  0  0  0  0  0  0  0  0  0  0  0  0  # atno 17321 bound_to 7965
  140.4623  144.1705  150.5907 LP  0  0  0  0  0  0  0  0  0  0  0  0  # atno 17342 bound_to 10162
  140.4471  143.2502  151.9396 LP  0  0  0  0  0  0  0  0  0  0  0  0  # atno 17343 bound_to 10162
  157.0585  130.5815  149.5382 LP  0  0  0  0  0  0  0  0  0  0  0  0  # atno 17370 bound_to 10713
  156.0068  130.5156  150.7857 LP  0  0  0  0  0  0  0  0  0  0  0  0  # atno 17371 bound_to 10713
  140.6416  134.5160  157.5570 LP  0  0  0  0  0  0  0  0  0  0  0  0  # atno 17394 bound_to 11000
  139.9204  134.8160  156.1229 LP  0  0  0  0  0  0  0  0  0  0  0  0  # atno 17395 bound_to 11000

$$$$
