AV-unprocessed.smi:234|AV-procd|sdf|1795|dock5
  -GOLD-   2262020363D 1   1.00000     0.00000
 Structure written by MMmdl.
 59 62  0  0  0  0  0  0  0  0  1 V2000
  143.0325  135.5083  163.0690 C   0  0  0  0  0  0  0  0  0  0  0  0
  143.4902  134.2977  162.2452 C   0  0  0  0  0  0  0  0  0  0  0  0
  144.9010  134.2564  162.0765 O   0  0  0  0  0  0  0  0  0  0  0  0
  145.4778  135.4453  161.5512 C   0  0  2  0  0  0  0  0  0  0  0  0
  145.5466  135.5183  160.0229 C   0  0  0  0  0  0  0  0  0  0  0  0
  146.9099  136.1828  160.2280 C   0  0  2  0  0  0  0  0  0  0  0  0
  147.8976  135.8208  159.2085 N   0  0  0  0  0  0  0  0  0  0  0  0
  147.3756  135.2604  157.9689 C   0  0  0  0  0  0  0  0  0  0  0  0
  148.8397  136.7568  158.9480 C   0  0  0  0  0  0  0  0  0  0  0  0
  150.1573  136.4721  159.1254 N   0  0  0  0  0  0  0  0  0  0  0  0
  151.0828  137.3971  158.8549 C   0  0  0  0  0  0  0  0  0  0  0  0
  150.9119  138.6433  158.4080 N   0  0  0  0  0  0  0  0  0  0  0  0
  149.5895  138.9332  158.2396 C   0  0  0  0  0  0  0  0  0  0  0  0
  148.4979  138.0580  158.4949 C   0  0  0  0  0  0  0  0  0  0  0  0
  147.2967  138.6960  158.2148 N   0  0  0  0  0  0  0  0  0  0  0  0
  147.6584  139.8825  157.8087 C   0  0  0  0  0  0  0  0  0  0  0  0
  149.0174  140.1051  157.7763 N   0  0  0  0  0  0  0  0  0  0  0  0
  149.6908  141.3196  157.3433 C   0  0  0  0  0  0  0  0  0  0  0  0
  150.3331  141.1985  155.9393 C   0  0  1  0  0  0  0  0  0  0  0  0
  150.6755  142.5003  155.4937 O   0  0  0  0  0  0  0  0  0  0  0  0
  151.6093  140.3504  155.9593 C   0  0  0  0  0  0  0  0  0  0  0  0
  151.2393  139.1031  155.1652 C   0  0  0  0  0  0  0  0  0  0  0  0
  150.3113  139.5945  154.2152 O   0  0  0  0  0  0  0  0  0  0  0  0
  149.4324  140.4673  154.9090 C   0  0  2  0  0  0  0  0  0  0  0  0
  148.6425  141.3399  153.9189 C   0  0  0  0  0  0  0  0  0  0  0  0
  147.0277  135.4164  161.5780 C   0  0  0  0  0  0  0  0  0  0  0  0
  147.6719  136.1769  162.7374 C   0  0  0  0  0  0  0  0  0  0  0  0
  147.6639  134.0135  161.5518 C   0  0  0  0  0  0  0  0  0  0  0  0
  141.9451  135.5821  163.0705 H   0  0  0  0  0  0  0  0  0  0  0  0
  143.4284  136.4359  162.6548 H   0  0  0  0  0  0  0  0  0  0  0  0
  143.3527  135.4365  164.1073 H   0  0  0  0  0  0  0  0  0  0  0  0
  143.1206  133.3665  162.6768 H   0  0  0  0  0  0  0  0  0  0  0  0
  143.0505  134.3693  161.2502 H   0  0  0  0  0  0  0  0  0  0  0  0
  145.0819  136.3584  162.0025 H   0  0  0  0  0  0  0  0  0  0  0  0
  145.5943  134.5391  159.5433 H   0  0  0  0  0  0  0  0  0  0  0  0
  144.7989  136.1622  159.5598 H   0  0  0  0  0  0  0  0  0  0  0  0
  146.8020  137.2601  160.3724 H   0  0  0  0  0  0  0  0  0  0  0  0
  146.7240  135.9768  157.4675 H   0  0  0  0  0  0  0  0  0  0  0  0
  146.7983  134.3580  158.1696 H   0  0  0  0  0  0  0  0  0  0  0  0
  148.1805  134.9903  157.2837 H   0  0  0  0  0  0  0  0  0  0  0  0
  152.1067  137.0940  159.0162 H   0  0  0  0  0  0  0  0  0  0  0  0
  146.9390  140.6290  157.5051 H   0  0  0  0  0  0  0  0  0  0  0  0
  148.9682  142.1366  157.3623 H   0  0  0  0  0  0  0  0  0  0  0  0
  150.4525  141.5700  158.0827 H   0  0  0  0  0  0  0  0  0  0  0  0
  149.9324  143.0672  155.6337 H   0  0  0  0  0  0  0  0  0  0  0  0
  152.4306  140.8611  155.4535 H   0  0  0  0  0  0  0  0  0  0  0  0
  151.9521  140.1055  156.9651 H   0  0  0  0  0  0  0  0  0  0  0  0
  152.1004  138.6373  154.6857 H   0  0  0  0  0  0  0  0  0  0  0  0
  150.7552  138.3624  155.8037 H   0  0  0  0  0  0  0  0  0  0  0  0
  148.7292  139.8239  155.4392 H   0  0  0  0  0  0  0  0  0  0  0  0
  147.9769  142.0279  154.4406 H   0  0  0  0  0  0  0  0  0  0  0  0
  148.0277  140.7201  153.2666 H   0  0  0  0  0  0  0  0  0  0  0  0
  149.3045  141.9271  153.2825 H   0  0  0  0  0  0  0  0  0  0  0  0
  148.7591  136.1942  162.6555 H   0  0  0  0  0  0  0  0  0  0  0  0
  147.4228  135.7228  163.6969 H   0  0  0  0  0  0  0  0  0  0  0  0
  147.3351  137.2131  162.7716 H   0  0  0  0  0  0  0  0  0  0  0  0
  148.7497  134.0619  161.4699 H   0  0  0  0  0  0  0  0  0  0  0  0
  147.3060  133.4135  160.7152 H   0  0  0  0  0  0  0  0  0  0  0  0
  147.4388  133.4586  162.4628 H   0  0  0  0  0  0  0  0  0  0  0  0
  1  2  1  0  0  0  0
  1 29  1  0  0  0  0
  1 30  1  0  0  0  0
  1 31  1  0  0  0  0
  2  3  1  0  0  0  0
  2 32  1  0  0  0  0
  2 33  1  0  0  0  0
  3  4  1  0  0  0  0
  4 26  1  0  0  0  0
  4  5  1  0  0  0  0
  4 34  1  0  0  0  0
  5  6  1  0  0  0  0
  5 35  1  0  0  0  0
  5 36  1  0  0  0  0
  6  7  1  0  0  0  0
  6 26  1  0  0  0  0
  6 37  1  0  0  0  0
  7  8  1  0  0  0  0
  7  9  1  0  0  0  0
  8 38  1  0  0  0  0
  8 39  1  0  0  0  0
  8 40  1  0  0  0  0
  9 14  1  0  0  0  0
  9 10  2  0  0  0  0
 10 11  1  0  0  0  0
 11 12  2  0  0  0  0
 11 41  1  0  0  0  0
 12 13  1  0  0  0  0
 13 17  1  0  0  0  0
 13 14  2  0  0  0  0
 14 15  1  0  0  0  0
 15 16  2  0  0  0  0
 16 17  1  0  0  0  0
 16 42  1  0  0  0  0
 17 18  1  0  0  0  0
 18 19  1  0  0  0  0
 18 43  1  0  0  0  0
 18 44  1  0  0  0  0
 19 24  1  0  0  0  0
 19 20  1  0  0  0  0
 19 21  1  0  0  0  0
 20 45  1  0  0  0  0
 21 22  1  0  0  0  0
 21 46  1  0  0  0  0
 21 47  1  0  0  0  0
 22 23  1  0  0  0  0
 22 48  1  0  0  0  0
 22 49  1  0  0  0  0
 23 24  1  0  0  0  0
 24 25  1  0  0  0  0
 24 50  1  0  0  0  0
 25 51  1  0  0  0  0
 25 52  1  0  0  0  0
 25 53  1  0  0  0  0
 26 27  1  0  0  0  0
 26 28  1  0  0  0  0
 27 54  1  0  0  0  0
 27 55  1  0  0  0  0
 27 56  1  0  0  0  0
 28 57  1  0  0  0  0
 28 58  1  0  0  0  0
 28 59  1  0  0  0  0
M  END
> <s_m_source_file>
AV-unprocessed.smi

> <i_m_source_file_index>
234

> <i_lp_mmshare_version>
43012

> <i_f3d_flags>
0

> <s_epik_input>
W0NIM11bQ0gyXU9bQ0BASF0oQzEoW0NIM10pW0NIM10pW0NIMl1bQ0BIXTFOKFtDSDNdKWMobltjSF1uMiljKGMyMyluW2NIXW4zW0NIMl1bQ0BAXTQoW09IXSlbQ0gyXVtDSDJdT1tDQEhdNFtDSDNd

> <s_epik_cmdline>
J2VwaWtfcHl0aG9uJywgJy1waCcsICc3LjAnLCAnLXRuJywgJzgnLCAnLW1hJywgJzIwMCcsICctbWV0YWxfYmluZGluZycsICctaW1hZScsICc8aW5maWxlLm1hZT4nLCAnLW9tYWUnLCAnPG91dGZpbGUubWFlPic=

> <r_lp_tautomer_probability>
1

> <r_epik_Ionization_Penalty>
0.00349132

> <r_epik_Ionization_Penalty_Charging>
0

> <r_epik_Ionization_Penalty_Neutral>
0.00349132

> <r_epik_State_Penalty>
0.00242418

> <r_epik_Charging_Adjusted_Penalty>
0.00242418

> <i_epik_Tot_Q>
0

> <i_epik_Tot_abs_Q>
0

> <r_epik_Metal_State_Penalty>
-0

> <b_epik_Metal_Only>
0

> <s_lp_Force_Field>
OPLS_2005

> <r_lp_Energy>
47.8509

> <b_lp_Chiralities_Consistent>
1

> <s_lp_Variant>
AV-unprocessed.smi:234-11

> <Gold.Version>
5.8.1

> <Gold.Id.Protein>
6NUR|6NUR_protein|mol2

> <Gold.PLP.Fitness>
44.2080

> <Gold.PLP.PLP>
-39.0100

> <Gold.PLP.part.hbond>
-4.4946

> <Gold.PLP.part.metal>
0.0000

> <Gold.PLP.part.buried>
-1.3765

> <Gold.PLP.part.nonpolar>
-33.9871

> <Gold.PLP.part.repulsive>
0.1769

> <Gold.PLP.ligand.clash>
0.0000

> <Gold.PLP.ligand.torsion>
1.9738

> <Gold.PLP.Chemscore.Hbond>
2.8000

> <Gold.PLP.Chemscore.CHOScore>
0.0000

> <Gold.PLP.Chemscore.Metal>
0.0000

> <Gold.Chemscore.Hbonds>
donor molecule, donor type, donor heavy atom, donor atom, acceptor molecule, acceptor atom, score
      L1  H    20    45       P1  8028  1.00
      P1  H  6896  6908       L1    10  1.00
      P1  H  7989  7998       L1    23  0.60

> <Gold.PLP.Chemscore.Internal.Correction>
0.7455

> <Gold.Rescore>
     Score         DG    S(hbond)    S(metal)    S(lipo)     H(rot)  DE(clash)    DE(int)     intcor
     13.21     -16.63       1.91        0.00      98.07       2.62       1.48       1.94       ----

> <Gold.Chemscore.Fitness>
13.2060

> <Gold.Chemscore.DG>
-16.6266

> <Gold.Chemscore.ZeroCoef>
-5.4800

> <Gold.Chemscore.Hbond>
1.9115

> <Gold.Chemscore.Metal>
0.0000

> <Gold.Chemscore.Lipo>
98.0700

> <Gold.Chemscore.Internal_Hbond>
0.0000

> <Gold.Chemscore.DEClash>
1.4777

> <Gold.Chemscore.DEInternal>
1.9429

> <Gold.Chemscore.Rot>
2.6219

> <Gold.Chemscore.Internal.Correction>
   9.000000E+99

> <Gold.Chemscore.Hbonds>
donor molecule, donor type, donor heavy atom, donor atom, acceptor molecule, acceptor atom, score
      L1  H    20    45       P1  8028  0.98
      P1  H  6896  6908       L1    10  0.82
      P1  H  7989  7998       L1    23  0.01

> <Gold.Chemscore.Hbond.Weighted>
-6.3845

> <Gold.Chemscore.Metal.Weighted>
-0.0000

> <Gold.Chemscore.Lipo.Weighted>
-11.4742

> <Gold.Chemscore.Internal_Hbond.Weighted>
0.0000

> <Gold.Chemscore.DEClash.Weighted>
1.4777

> <Gold.Chemscore.DEInternal.Weighted>
1.9429

> <Gold.Chemscore.Rot.Weighted>
6.7121

> <Gold.Chemscore.Internal.Correction.Weighted>
   9.000000E+99

> <Gold.Protein.RotatedTorsions>
[ 6907 6896 6895 6894 ] final -165.28 input  -60.11 | X-H torsion
[ 7974 7965 7964 7962 ] final -106.69 input  175.53 | X-H torsion
[ 8008 7997 7996 7995 ] final    3.70 input   59.86 | X-H torsion
[ 10167 10162 10161 10158 ] final   -7.94 input  -65.29 | X-H torsion
[ 10718 10713 10712 10709 ] final -167.32 input   66.30 | X-H torsion
[ 10763 10752 10751 10750 ] final -129.15 input  -60.55 | X-H torsion
[ 11005 11000 10999 10996 ] final  -69.00 input  -57.11 | X-H torsion

> <Gold.Protein.ActiveResidues>
 VAL166  LYS551  ARG553  GLY616  TRP617  ASP618  TYR619  PRO620  LYS621  CYS622 
 ASP623  PHE694  ASN695  SER759  ASP760  ASP761  ALA762  ILE779  LEU786  VAL792 
 PHE793  MET794  SER795  GLU796  ALA797  LYS798  CYS799  TRP800  GLU811  SER814 

> <Gold.Protein.RotatedAtoms>
  151.4252  133.3686  159.2761 H   0  0  0  0  0  0  0  0  0  0  0  0  # atno 6907 bound_to 6896
  150.9265  134.8683  159.7534 H   0  0  0  0  0  0  0  0  0  0  0  0  # atno 6908 bound_to 6896
  152.5007  134.4193  159.9527 H   0  0  0  0  0  0  0  0  0  0  0  0  # atno 6909 bound_to 6896
  145.2147  140.9110  143.3294 H   0  0  0  0  0  0  0  0  0  0  0  0  # atno 7974 bound_to 7965
  154.7069  140.2684  155.6666 H   0  0  0  0  0  0  0  0  0  0  0  0  # atno 8008 bound_to 7997
  156.2783  140.2761  156.1622 H   0  0  0  0  0  0  0  0  0  0  0  0  # atno 8009 bound_to 7997
  155.0688  140.0372  157.2591 H   0  0  0  0  0  0  0  0  0  0  0  0  # atno 8010 bound_to 7997
  140.7044  143.6024  150.8784 H   0  0  0  0  0  0  0  0  0  0  0  0  # atno 10167 bound_to 10162
  156.6807  130.9121  151.3056 H   0  0  0  0  0  0  0  0  0  0  0  0  # atno 10718 bound_to 10713
  154.8757  135.3905  154.3873 H   0  0  0  0  0  0  0  0  0  0  0  0  # atno 10763 bound_to 10752
  153.4613  135.7029  153.6054 H   0  0  0  0  0  0  0  0  0  0  0  0  # atno 10764 bound_to 10752
  153.4551  135.3825  155.2274 H   0  0  0  0  0  0  0  0  0  0  0  0  # atno 10765 bound_to 10752
  141.1544  133.6754  156.6533 H   0  0  0  0  0  0  0  0  0  0  0  0  # atno 11005 bound_to 11000
  144.9822  139.3772  143.6256 LP  0  0  0  0  0  0  0  0  0  0  0  0  # atno 17320 bound_to 7965
  146.3390  139.8968  142.8800 LP  0  0  0  0  0  0  0  0  0  0  0  0  # atno 17321 bound_to 7965
  139.9748  143.6016  152.2962 LP  0  0  0  0  0  0  0  0  0  0  0  0  # atno 17342 bound_to 10162
  139.6616  144.7662  151.1952 LP  0  0  0  0  0  0  0  0  0  0  0  0  # atno 17343 bound_to 10162
  157.7044  130.9369  150.0886 LP  0  0  0  0  0  0  0  0  0  0  0  0  # atno 17370 bound_to 10713
  156.1870  130.3653  149.8960 LP  0  0  0  0  0  0  0  0  0  0  0  0  # atno 17371 bound_to 10713
  140.3304  134.7934  157.4321 LP  0  0  0  0  0  0  0  0  0  0  0  0  # atno 17394 bound_to 11000
  140.1022  134.5458  155.8342 LP  0  0  0  0  0  0  0  0  0  0  0  0  # atno 17395 bound_to 11000

$$$$
