AV-unprocessed.smi:3253|AV-procd|sdf|12445|dock5
  -GOLD-   2272018343D 1   1.00000     0.00000
 Structure written by MMmdl.
 37 38  0  0  0  0  0  0  0  0  2 V2000
  153.3807  142.0701  161.2314 C   0  0  0  0  0  0  0  0  0  0  0  0
  153.3835  142.1577  159.6937 C   0  0  2  0  0  0  0  0  0  0  0  0
  153.3361  143.6073  159.1705 C   0  0  0  0  0  0  0  0  0  0  0  0
  152.0001  144.2048  159.2542 N   0  0  0  0  0  0  0  0  0  0  0  0
  151.3404  144.6189  160.3832 C   0  0  0  0  0  0  0  0  0  0  0  0
  150.1264  145.1045  159.9700 C   0  0  0  0  0  0  0  0  0  0  0  0
  150.0952  144.9634  158.6084 N   0  3  0  0  0  0  0  0  0  0  0  0
  151.2343  144.4133  158.1754 C   0  0  0  0  0  0  0  0  0  0  0  0
  152.2541  141.4137  159.1428 N   0  0  0  0  0  0  0  0  0  0  0  0
  152.3357  140.2304  158.5143 C   0  0  0  0  0  0  0  0  0  0  0  0
  153.3977  139.6333  158.3353 O   0  0  0  0  0  0  0  0  0  0  0  0
  151.0144  139.6291  158.0093 C   0  0  2  0  0  0  0  0  0  0  0  0
  151.2485  138.6648  156.8284 C   0  0  0  0  0  0  0  0  0  0  0  0
  150.6096  139.3702  155.6436 C   0  0  0  0  0  0  0  0  0  0  0  0
  150.6805  138.9417  154.4929 O   0  0  0  0  0  0  0  0  0  0  0  0
  149.9913  140.4892  156.0304 N   0  0  0  0  0  0  0  0  0  0  0  0
  149.2879  141.4182  155.1566 C   0  0  0  0  0  0  0  0  0  0  0  0
  150.0465  140.7040  157.4662 C   0  0  0  0  0  0  0  0  0  0  0  0
  154.2527  142.5624  161.6619 H   0  0  0  0  0  0  0  0  0  0  0  0
  153.4004  141.0333  161.5686 H   0  0  0  0  0  0  0  0  0  0  0  0
  152.4912  142.5390  161.6530 H   0  0  0  0  0  0  0  0  0  0  0  0
  154.3069  141.7037  159.3291 H   0  0  0  0  0  0  0  0  0  0  0  0
  154.0192  144.2429  159.7364 H   0  0  0  0  0  0  0  0  0  0  0  0
  153.6552  143.6492  158.1280 H   0  0  0  0  0  0  0  0  0  0  0  0
  151.7728  144.5423  161.3705 H   0  0  0  0  0  0  0  0  0  0  0  0
  149.3040  145.5282  160.5283 H   0  0  0  0  0  0  0  0  0  0  0  0
  151.4868  144.1858  157.1550 H   0  0  0  0  0  0  0  0  0  0  0  0
  151.3396  141.8293  159.2469 H   0  0  0  0  0  0  0  0  0  0  0  0
  150.5330  139.0927  158.8290 H   0  0  0  0  0  0  0  0  0  0  0  0
  152.3021  138.4626  156.6282 H   0  0  0  0  0  0  0  0  0  0  0  0
  150.7484  137.7103  156.9953 H   0  0  0  0  0  0  0  0  0  0  0  0
  148.4947  140.9061  154.6109 H   0  0  0  0  0  0  0  0  0  0  0  0
  149.9763  141.8554  154.4327 H   0  0  0  0  0  0  0  0  0  0  0  0
  148.8365  142.2295  155.7279 H   0  0  0  0  0  0  0  0  0  0  0  0
  149.0488  140.5761  157.8885 H   0  0  0  0  0  0  0  0  0  0  0  0
  150.3687  141.7233  157.6873 H   0  0  0  0  0  0  0  0  0  0  0  0
  149.3229  145.2348  158.0126 H   0  0  0  0  0  0  0  0  0  0  0  0
  1  2  1  0  0  0  0
  1 19  1  0  0  0  0
  1 20  1  0  0  0  0
  1 21  1  0  0  0  0
  2  3  1  0  0  0  0
  2  9  1  0  0  0  0
  2 22  1  0  0  0  0
  3  4  1  0  0  0  0
  3 23  1  0  0  0  0
  3 24  1  0  0  0  0
  4  8  1  0  0  0  0
  4  5  1  0  0  0  0
  5  6  2  0  0  0  0
  5 25  1  0  0  0  0
  6  7  1  0  0  0  0
  6 26  1  0  0  0  0
  7  8  2  0  0  0  0
  7 37  1  0  0  0  0
  8 27  1  0  0  0  0
  9 10  1  0  0  0  0
  9 28  1  0  0  0  0
 10 11  2  0  0  0  0
 10 12  1  0  0  0  0
 12 18  1  0  0  0  0
 12 13  1  0  0  0  0
 12 29  1  0  0  0  0
 13 14  1  0  0  0  0
 13 30  1  0  0  0  0
 13 31  1  0  0  0  0
 14 15  2  0  0  0  0
 14 16  1  0  0  0  0
 16 17  1  0  0  0  0
 16 18  1  0  0  0  0
 17 32  1  0  0  0  0
 17 33  1  0  0  0  0
 17 34  1  0  0  0  0
 18 35  1  0  0  0  0
 18 36  1  0  0  0  0
M  CHG  1   7   1
M  END
> <s_m_source_file>
AV-unprocessed.smi

> <i_m_source_file_index>
3253

> <i_lp_mmshare_version>
43012

> <i_f3d_flags>
0

> <s_epik_input>
W2NIXTFuW2NIXVtjSF1uMVtDSDJdW0NAQEhdKFtDSDNdKVtOSF1DKD1PKVtDQEBIXTJbQ0gyXUMoPU8pTihbQ0gzXSlbQ0gyXTI=

> <s_epik_cmdline>
J2VwaWtfcHl0aG9uJywgJy1waCcsICc3LjAnLCAnLXRuJywgJzgnLCAnLW1hJywgJzIwMCcsICctbWV0YWxfYmluZGluZycsICctaW1hZScsICc8aW5maWxlLm1hZT4nLCAnLW9tYWUnLCAnPG91dGZpbGUubWFlPic=

> <r_lp_tautomer_probability>
1

> <r_epik_Ionization_Penalty>
0.251561

> <r_epik_Ionization_Penalty_Charging>
0

> <r_epik_Ionization_Penalty_Neutral>
0.251561

> <r_epik_State_Penalty>
0.242926

> <r_epik_Charging_Adjusted_Penalty>
0.242926

> <i_epik_Tot_Q>
1

> <i_epik_Tot_abs_Q>
1

> <r_epik_Metal_State_Penalty>
0.533885

> <b_epik_Metal_Only>
0

> <s_lp_Force_Field>
OPLS_2005

> <r_lp_Energy>
15.657

> <b_lp_Chiralities_Consistent>
1

> <s_lp_Variant>
AV-unprocessed.smi:3253-1

> <Gold.Version>
5.8.1

> <Gold.Id.Protein>
6NUR|6NUR_protein|mol2

> <Gold.PLP.Fitness>
50.0437

> <Gold.PLP.PLP>
-40.1137

> <Gold.PLP.part.hbond>
-3.4457

> <Gold.PLP.part.metal>
0.0000

> <Gold.PLP.part.buried>
-4.3244

> <Gold.PLP.part.nonpolar>
-33.2839

> <Gold.PLP.part.repulsive>
0.4863

> <Gold.PLP.ligand.clash>
0.0000

> <Gold.PLP.ligand.torsion>
1.0508

> <Gold.PLP.Chemscore.Hbond>
4.0000

> <Gold.PLP.Chemscore.CHOScore>
0.0000

> <Gold.PLP.Chemscore.Metal>
0.0000

> <Gold.Chemscore.Hbonds>
donor molecule, donor type, donor heavy atom, donor atom, acceptor molecule, acceptor atom, score
      L1  H     7    37       P1  8029  2.00
      P1  H  7989  7998       L1    15  0.16
      P1  H  7997  8010       L1    11  1.00

> <Gold.PLP.Chemscore.Internal.Correction>
0.0316

> <Gold.Rescore>
     Score         DG    S(hbond)    S(metal)    S(lipo)     H(rot)  DE(clash)    DE(int)     intcor
     15.67     -17.24       2.39        0.00      76.91       2.03       0.35       1.22       ----

> <Gold.Chemscore.Fitness>
15.6747

> <Gold.Chemscore.DG>
-17.2408

> <Gold.Chemscore.ZeroCoef>
-5.4800

> <Gold.Chemscore.Hbond>
2.3862

> <Gold.Chemscore.Metal>
0.0000

> <Gold.Chemscore.Lipo>
76.9063

> <Gold.Chemscore.Internal_Hbond>
0.0000

> <Gold.Chemscore.DEClash>
0.3467

> <Gold.Chemscore.DEInternal>
1.2195

> <Gold.Chemscore.Rot>
2.0341

> <Gold.Chemscore.Internal.Correction>
   9.000000E+99

> <Gold.Chemscore.Hbonds>
donor molecule, donor type, donor heavy atom, donor atom, acceptor molecule, acceptor atom, score
      L1  H     7    37       P1  8029  0.30
      P1  H  7989  7998       L1    15  0.03
      P1  H  7997  8010       L1    11  0.99

> <Gold.Chemscore.Hbond.Weighted>
-7.9700

> <Gold.Chemscore.Metal.Weighted>
-0.0000

> <Gold.Chemscore.Lipo.Weighted>
-8.9980

> <Gold.Chemscore.Internal_Hbond.Weighted>
0.0000

> <Gold.Chemscore.DEClash.Weighted>
0.3467

> <Gold.Chemscore.DEInternal.Weighted>
1.2195

> <Gold.Chemscore.Rot.Weighted>
5.2072

> <Gold.Chemscore.Internal.Correction.Weighted>
   9.000000E+99

> <Gold.Protein.RotatedTorsions>
[ 6907 6896 6895 6894 ] final   98.20 input  -60.11 | X-H torsion
[ 7974 7965 7964 7962 ] final -105.09 input  175.53 | X-H torsion
[ 8008 7997 7996 7995 ] final   18.35 input   59.86 | X-H torsion
[ 10167 10162 10161 10158 ] final   98.03 input  -65.29 | X-H torsion
[ 10718 10713 10712 10709 ] final  -30.56 input   66.30 | X-H torsion
[ 10763 10752 10751 10750 ] final   86.77 input  -60.55 | X-H torsion
[ 11005 11000 10999 10996 ] final  -77.19 input  -57.11 | X-H torsion

> <Gold.Protein.ActiveResidues>
 VAL166  LYS551  ARG553  GLY616  TRP617  ASP618  TYR619  PRO620  LYS621  CYS622 
 ASP623  PHE694  ASN695  SER759  ASP760  ASP761  ALA762  ILE779  LEU786  VAL792 
 PHE793  MET794  SER795  GLU796  ALA797  LYS798  CYS799  TRP800  GLU811  SER814 

> <Gold.Protein.RotatedAtoms>
  152.5412  134.0617  159.8154 H   0  0  0  0  0  0  0  0  0  0  0  0  # atno 6907 bound_to 6896
  151.0743  133.5433  159.2632 H   0  0  0  0  0  0  0  0  0  0  0  0  # atno 6908 bound_to 6896
  151.2284  135.0553  159.9032 H   0  0  0  0  0  0  0  0  0  0  0  0  # atno 6909 bound_to 6896
  145.2349  140.9184  143.3183 H   0  0  0  0  0  0  0  0  0  0  0  0  # atno 7974 bound_to 7965
  154.9047  140.3005  155.5298 H   0  0  0  0  0  0  0  0  0  0  0  0  # atno 8008 bound_to 7997
  156.3017  140.2400  156.4014 H   0  0  0  0  0  0  0  0  0  0  0  0  # atno 8009 bound_to 7997
  154.8486  140.0410  157.1578 H   0  0  0  0  0  0  0  0  0  0  0  0  # atno 8010 bound_to 7997
  139.7746  144.6910  151.0108 H   0  0  0  0  0  0  0  0  0  0  0  0  # atno 10167 bound_to 10162
  156.3982  130.4385  149.7342 H   0  0  0  0  0  0  0  0  0  0  0  0  # atno 10718 bound_to 10713
  153.1603  135.4568  154.9762 H   0  0  0  0  0  0  0  0  0  0  0  0  # atno 10763 bound_to 10752
  154.7892  135.3215  154.7818 H   0  0  0  0  0  0  0  0  0  0  0  0  # atno 10764 bound_to 10752
  153.8309  135.6938  153.4869 H   0  0  0  0  0  0  0  0  0  0  0  0  # atno 10765 bound_to 10752
  141.1659  133.7013  156.7783 H   0  0  0  0  0  0  0  0  0  0  0  0  # atno 11005 bound_to 11000
  144.9642  139.3947  143.6341 LP  0  0  0  0  0  0  0  0  0  0  0  0  # atno 17320 bound_to 7965
  146.3343  139.8710  142.8840 LP  0  0  0  0  0  0  0  0  0  0  0  0  # atno 17321 bound_to 7965
  140.7816  143.4550  151.0358 LP  0  0  0  0  0  0  0  0  0  0  0  0  # atno 17342 bound_to 10162
  139.8233  143.7790  152.3177 LP  0  0  0  0  0  0  0  0  0  0  0  0  # atno 17343 bound_to 10162
  156.4369  130.7842  151.2863 LP  0  0  0  0  0  0  0  0  0  0  0  0  # atno 17370 bound_to 10713
  157.7502  131.0137  150.3434 LP  0  0  0  0  0  0  0  0  0  0  0  0  # atno 17371 bound_to 10713
  140.2413  134.8611  157.3576 LP  0  0  0  0  0  0  0  0  0  0  0  0  # atno 17394 bound_to 11000
  140.1793  134.4510  155.7782 LP  0  0  0  0  0  0  0  0  0  0  0  0  # atno 17395 bound_to 11000

$$$$
