AV-unprocessed.smi:1699|AV-procd|sdf|6817|dock1
  -GOLD-   22720 7593D 1   1.00000     0.00000
 Structure written by MMmdl.
 37 38  0  0  0  0  0  0  0  0  1 V2000
  146.1077  134.5170  151.2188 C   0  0  0  0  0  0  0  0  0  0  0  0
  146.2735  133.0610  151.6234 C   0  0  0  0  0  0  0  0  0  0  0  0
  145.3843  132.0948  151.1062 C   0  0  0  0  0  0  0  0  0  0  0  0
  145.5405  130.7492  151.4800 C   0  0  0  0  0  0  0  0  0  0  0  0
  146.5865  130.4245  152.3606 C   0  0  0  0  0  0  0  0  0  0  0  0
  147.4401  131.3411  152.8603 N   0  0  0  0  0  0  0  0  0  0  0  0
  147.3030  132.6448  152.5098 C   0  0  0  0  0  0  0  0  0  0  0  0
  148.1626  133.6672  153.0020 N   0  0  0  0  0  0  0  0  0  0  0  0
  148.9339  133.6555  154.1034 C   0  0  0  0  0  0  0  0  0  0  0  0
  149.0453  132.7112  154.8856 O   0  0  0  0  0  0  0  0  0  0  0  0
  149.5857  134.8193  154.2464 N   0  0  0  0  0  0  0  0  0  0  0  0
  150.5271  135.1434  155.3159 C   0  0  2  0  0  0  0  0  0  0  0  0
  149.8544  134.8483  156.6653 C   0  0  0  0  0  0  0  0  0  0  0  0
  150.9689  136.6160  155.1915 C   0  0  1  0  0  0  0  0  0  0  0  0
  151.8642  137.1161  156.3266 C   0  0  0  0  0  0  0  0  0  0  0  0
  152.6530  138.2523  155.6928 C   0  0  0  0  0  0  0  0  0  0  0  0
  152.4229  138.0741  154.1900 C   0  0  0  0  0  0  0  0  0  0  0  0
  151.8069  136.8015  154.0608 O   0  0  0  0  0  0  0  0  0  0  0  0
  145.2701  134.6458  150.5328 H   0  0  0  0  0  0  0  0  0  0  0  0
  147.0076  134.8789  150.7208 H   0  0  0  0  0  0  0  0  0  0  0  0
  145.9219  135.1387  152.0951 H   0  0  0  0  0  0  0  0  0  0  0  0
  144.5909  132.3785  150.4305 H   0  0  0  0  0  0  0  0  0  0  0  0
  144.8766  129.9863  151.1018 H   0  0  0  0  0  0  0  0  0  0  0  0
  146.7426  129.4025  152.6731 H   0  0  0  0  0  0  0  0  0  0  0  0
  148.1895  134.5104  152.4487 H   0  0  0  0  0  0  0  0  0  0  0  0
  149.4319  135.5347  153.5512 H   0  0  0  0  0  0  0  0  0  0  0  0
  151.4078  134.5030  155.2396 H   0  0  0  0  0  0  0  0  0  0  0  0
  150.5389  135.0189  157.4966 H   0  0  0  0  0  0  0  0  0  0  0  0
  149.5299  133.8087  156.7215 H   0  0  0  0  0  0  0  0  0  0  0  0
  148.9789  135.4798  156.8201 H   0  0  0  0  0  0  0  0  0  0  0  0
  150.0980  137.2674  155.0928 H   0  0  0  0  0  0  0  0  0  0  0  0
  151.2963  137.4331  157.2017 H   0  0  0  0  0  0  0  0  0  0  0  0
  152.5512  136.3288  156.6398 H   0  0  0  0  0  0  0  0  0  0  0  0
  152.2925  139.2267  156.0249 H   0  0  0  0  0  0  0  0  0  0  0  0
  153.7105  138.1793  155.9491 H   0  0  0  0  0  0  0  0  0  0  0  0
  151.7439  138.8398  153.8119 H   0  0  0  0  0  0  0  0  0  0  0  0
  153.3474  138.1240  153.6146 H   0  0  0  0  0  0  0  0  0  0  0  0
  1  2  1  0  0  0  0
  1 19  1  0  0  0  0
  1 20  1  0  0  0  0
  1 21  1  0  0  0  0
  2  7  1  0  0  0  0
  2  3  2  0  0  0  0
  3  4  1  0  0  0  0
  3 22  1  0  0  0  0
  4  5  2  0  0  0  0
  4 23  1  0  0  0  0
  5  6  1  0  0  0  0
  5 24  1  0  0  0  0
  6  7  2  0  0  0  0
  7  8  1  0  0  0  0
  8  9  1  0  0  0  0
  8 25  1  0  0  0  0
  9 10  2  0  0  0  0
  9 11  1  0  0  0  0
 11 12  1  0  0  0  0
 11 26  1  0  0  0  0
 12 13  1  0  0  0  0
 12 14  1  0  0  0  0
 12 27  1  0  0  0  0
 13 28  1  0  0  0  0
 13 29  1  0  0  0  0
 13 30  1  0  0  0  0
 14 18  1  0  0  0  0
 14 15  1  0  0  0  0
 14 31  1  0  0  0  0
 15 16  1  0  0  0  0
 15 32  1  0  0  0  0
 15 33  1  0  0  0  0
 16 17  1  0  0  0  0
 16 34  1  0  0  0  0
 16 35  1  0  0  0  0
 17 18  1  0  0  0  0
 17 36  1  0  0  0  0
 17 37  1  0  0  0  0
M  END
> <s_m_source_file>
AV-unprocessed.smi

> <i_m_source_file_index>
1699

> <i_lp_mmshare_version>
43012

> <i_f3d_flags>
0

> <s_epik_input>
W0NIM11jMVtjSF1bY0hdW2NIXW5jMVtOSF1DKD1PKVtOSF1bQ0BIXShbQ0gzXSlbQ0BASF0yW0NIMl1bQ0gyXVtDSDJdTzI=

> <s_epik_cmdline>
J2VwaWtfcHl0aG9uJywgJy1waCcsICc3LjAnLCAnLXRuJywgJzgnLCAnLW1hJywgJzIwMCcsICctbWV0YWxfYmluZGluZycsICctaW1hZScsICc8aW5maWxlLm1hZT4nLCAnLW9tYWUnLCAnPG91dGZpbGUubWFlPic=

> <r_lp_tautomer_probability>
1

> <r_epik_Ionization_Penalty>
5.52788e-05

> <r_epik_Ionization_Penalty_Charging>
0

> <r_epik_Ionization_Penalty_Neutral>
5.52788e-05

> <r_epik_State_Penalty>
-0

> <r_epik_Charging_Adjusted_Penalty>
0

> <i_epik_Tot_Q>
0

> <i_epik_Tot_abs_Q>
0

> <r_epik_Metal_State_Penalty>
-0

> <b_epik_Metal_Only>
0

> <s_lp_Force_Field>
OPLS_2005

> <r_lp_Energy>
21.1127

> <b_lp_Chiralities_Consistent>
1

> <s_lp_Variant>
AV-unprocessed.smi:1699-3

> <Gold.Version>
5.8.1

> <Gold.Id.Protein>
6NUR|6NUR_protein|mol2

> <Gold.PLP.Fitness>
38.2994

> <Gold.PLP.PLP>
-29.6888

> <Gold.PLP.part.hbond>
-3.0000

> <Gold.PLP.part.metal>
0.0000

> <Gold.PLP.part.buried>
-6.3192

> <Gold.PLP.part.nonpolar>
-21.8271

> <Gold.PLP.part.repulsive>
1.0174

> <Gold.PLP.ligand.clash>
0.0000

> <Gold.PLP.ligand.torsion>
0.2118

> <Gold.PLP.Chemscore.Hbond>
3.0000

> <Gold.PLP.Chemscore.CHOScore>
0.0000

> <Gold.PLP.Chemscore.Metal>
0.0000

> <Gold.Chemscore.Hbonds>
donor molecule, donor type, donor heavy atom, donor atom, acceptor molecule, acceptor atom, score
      L1  H     8    25       P1  7948  1.00
      L1  H    11    26       P1  7948  1.00
      P1  H 10752 10764       L1    18  1.00

> <Gold.PLP.Chemscore.Internal.Correction>
0.0342

> <Gold.Rescore>
     Score         DG    S(hbond)    S(metal)    S(lipo)     H(rot)  DE(clash)    DE(int)     intcor
     14.68     -17.60       2.31        0.00      64.40       1.22       0.01       2.92       ----

> <Gold.Chemscore.Fitness>
14.6751

> <Gold.Chemscore.DG>
-17.6032

> <Gold.Chemscore.ZeroCoef>
-5.4800

> <Gold.Chemscore.Hbond>
2.3089

> <Gold.Chemscore.Metal>
0.0000

> <Gold.Chemscore.Lipo>
64.3979

> <Gold.Chemscore.Internal_Hbond>
0.0000

> <Gold.Chemscore.DEClash>
0.0093

> <Gold.Chemscore.DEInternal>
2.9188

> <Gold.Chemscore.Rot>
1.2200

> <Gold.Chemscore.Internal.Correction>
   9.000000E+99

> <Gold.Chemscore.Hbonds>
donor molecule, donor type, donor heavy atom, donor atom, acceptor molecule, acceptor atom, score
      L1  H     8    25       P1  7948  0.25
      L1  H    11    26       P1  7948  0.25
      P1  H 10752 10764       L1    18  0.22

> <Gold.Chemscore.Hbond.Weighted>
-7.7118

> <Gold.Chemscore.Metal.Weighted>
-0.0000

> <Gold.Chemscore.Lipo.Weighted>
-7.5346

> <Gold.Chemscore.Internal_Hbond.Weighted>
0.0000

> <Gold.Chemscore.DEClash.Weighted>
0.0093

> <Gold.Chemscore.DEInternal.Weighted>
2.9188

> <Gold.Chemscore.Rot.Weighted>
3.1232

> <Gold.Chemscore.Internal.Correction.Weighted>
   9.000000E+99

> <Gold.Protein.RotatedTorsions>
[ 6907 6896 6895 6894 ] final -123.82 input  -60.11 | X-H torsion
[ 7974 7965 7964 7962 ] final -162.12 input  175.53 | X-H torsion
[ 8008 7997 7996 7995 ] final  154.71 input   59.86 | X-H torsion
[ 10167 10162 10161 10158 ] final  116.28 input  -65.29 | X-H torsion
[ 10718 10713 10712 10709 ] final -107.03 input   66.30 | X-H torsion
[ 10763 10752 10751 10750 ] final  -75.82 input  -60.55 | X-H torsion
[ 11005 11000 10999 10996 ] final -162.41 input  -57.11 | X-H torsion

> <Gold.Protein.ActiveResidues>
 VAL166  LYS551  ARG553  GLY616  TRP617  ASP618  TYR619  PRO620  LYS621  CYS622 
 ASP623  PHE694  ASN695  SER759  ASP760  ASP761  ALA762  ILE779  LEU786  VAL792 
 PHE793  MET794  SER795  GLU796  ALA797  LYS798  CYS799  TRP800  GLU811  SER814 

> <Gold.Protein.RotatedAtoms>
  150.8707  133.7509  159.2961 H   0  0  0  0  0  0  0  0  0  0  0  0  # atno 6907 bound_to 6896
  151.5122  135.1064  159.9866 H   0  0  0  0  0  0  0  0  0  0  0  0  # atno 6908 bound_to 6896
  152.4693  133.7949  159.6977 H   0  0  0  0  0  0  0  0  0  0  0  0  # atno 6909 bound_to 6896
  144.7368  140.3298  143.6155 H   0  0  0  0  0  0  0  0  0  0  0  0  # atno 7974 bound_to 7965
  156.2517  140.1959  156.6688 H   0  0  0  0  0  0  0  0  0  0  0  0  # atno 8008 bound_to 7997
  154.6409  140.0584  156.9869 H   0  0  0  0  0  0  0  0  0  0  0  0  # atno 8009 bound_to 7997
  155.1565  140.3256  155.4423 H   0  0  0  0  0  0  0  0  0  0  0  0  # atno 8010 bound_to 7997
  139.6258  144.7108  151.2536 H   0  0  0  0  0  0  0  0  0  0  0  0  # atno 10167 bound_to 10162
  156.0417  130.5642  150.7764 H   0  0  0  0  0  0  0  0  0  0  0  0  # atno 10718 bound_to 10713
  154.4916  135.5818  153.6464 H   0  0  0  0  0  0  0  0  0  0  0  0  # atno 10763 bound_to 10752
  152.9863  135.6114  154.3117 H   0  0  0  0  0  0  0  0  0  0  0  0  # atno 10764 bound_to 10752
  154.3017  135.2846  155.2587 H   0  0  0  0  0  0  0  0  0  0  0  0  # atno 10765 bound_to 10752
  140.6096  134.4863  157.5214 H   0  0  0  0  0  0  0  0  0  0  0  0  # atno 11005 bound_to 11000
  145.7483  139.1785  143.2336 LP  0  0  0  0  0  0  0  0  0  0  0  0  # atno 17320 bound_to 7965
  146.1080  140.7463  142.9517 LP  0  0  0  0  0  0  0  0  0  0  0  0  # atno 17321 bound_to 7965
  140.7410  143.6570  150.8198 LP  0  0  0  0  0  0  0  0  0  0  0  0  # atno 17342 bound_to 10162
  140.0188  143.5565  152.2809 LP  0  0  0  0  0  0  0  0  0  0  0  0  # atno 17343 bound_to 10162
  157.5244  131.0933  151.0037 LP  0  0  0  0  0  0  0  0  0  0  0  0  # atno 17370 bound_to 10713
  157.0359  130.5730  149.5349 LP  0  0  0  0  0  0  0  0  0  0  0  0  # atno 17371 bound_to 10713
  139.9198  134.8172  156.1249 LP  0  0  0  0  0  0  0  0  0  0  0  0  # atno 17394 bound_to 11000
  141.0817  133.6751  156.2350 LP  0  0  0  0  0  0  0  0  0  0  0  0  # atno 17395 bound_to 11000

$$$$
