AV-unprocessed.smi:3228|AV-procd|sdf|12326|dock7
  -GOLD-   2272018173D 1   1.00000     0.00000
 Structure written by MMmdl.
 30 31  0  0  0  0  0  0  0  0  2 V2000
  151.6505  140.1941  155.1949 O   0  0  0  0  0  0  0  0  0  0  0  0
  150.6540  140.7472  155.6661 C   0  0  0  0  0  0  0  0  0  0  0  0
  150.4491  140.7366  156.9897 N   0  0  0  0  0  0  0  0  0  0  0  0
  151.3237  140.1061  157.9709 C   0  0  0  0  0  0  0  0  0  0  0  0
  152.3399  141.1155  158.5337 C   0  0  1  0  0  0  0  0  0  0  0  0
  151.6999  142.3242  159.2326 C   0  0  0  0  0  0  0  0  0  0  0  0
  152.7304  142.8244  160.2566 C   0  0  0  0  0  0  0  0  0  0  0  0
  153.8417  141.7671  160.3067 C   0  0  0  0  0  0  0  0  0  0  0  0
  153.2604  140.5340  159.6110 C   0  0  2  0  0  0  0  0  0  0  0  0
  154.2790  139.7210  159.0662 O   0  0  0  0  0  0  0  0  0  0  0  0
  149.6931  141.3982  154.9713 N   0  5  0  0  0  0  0  0  0  0  0  0
  148.7160  140.7047  154.3653 C   0  0  0  0  0  0  0  0  0  0  0  0
  148.7367  139.3727  154.2402 N   0  0  0  0  0  0  0  0  0  0  0  0
  147.6171  138.8591  153.5833 C   0  0  0  0  0  0  0  0  0  0  0  0
  146.7184  139.8218  153.2073 C   0  0  0  0  0  0  0  0  0  0  0  0
  147.2551  141.4119  153.6692 S   0  0  0  0  0  0  0  0  0  0  0  0
  149.6221  141.1982  157.3386 H   0  0  0  0  0  0  0  0  0  0  0  0
  150.7195  139.6866  158.7770 H   0  0  0  0  0  0  0  0  0  0  0  0
  151.8493  139.2744  157.4994 H   0  0  0  0  0  0  0  0  0  0  0  0
  152.9595  141.4897  157.7163 H   0  0  0  0  0  0  0  0  0  0  0  0
  151.4136  143.1015  158.5231 H   0  0  0  0  0  0  0  0  0  0  0  0
  150.7941  142.0163  159.7573 H   0  0  0  0  0  0  0  0  0  0  0  0
  153.1365  143.7945  159.9684 H   0  0  0  0  0  0  0  0  0  0  0  0
  152.2623  142.9450  161.2342 H   0  0  0  0  0  0  0  0  0  0  0  0
  154.7070  142.1362  159.7538 H   0  0  0  0  0  0  0  0  0  0  0  0
  154.1704  141.5527  161.3241 H   0  0  0  0  0  0  0  0  0  0  0  0
  152.6781  139.9515  160.3267 H   0  0  0  0  0  0  0  0  0  0  0  0
  154.7934  139.3692  159.7765 H   0  0  0  0  0  0  0  0  0  0  0  0
  147.5413  137.7933  153.4272 H   0  0  0  0  0  0  0  0  0  0  0  0
  145.7790  139.6948  152.6909 H   0  0  0  0  0  0  0  0  0  0  0  0
  1  2  2  0  0  0  0
  2  3  1  0  0  0  0
  2 11  1  0  0  0  0
  3  4  1  0  0  0  0
  3 17  1  0  0  0  0
  4  5  1  0  0  0  0
  4 18  1  0  0  0  0
  4 19  1  0  0  0  0
  5  9  1  0  0  0  0
  5  6  1  0  0  0  0
  5 20  1  0  0  0  0
  6  7  1  0  0  0  0
  6 21  1  0  0  0  0
  6 22  1  0  0  0  0
  7  8  1  0  0  0  0
  7 23  1  0  0  0  0
  7 24  1  0  0  0  0
  8  9  1  0  0  0  0
  8 25  1  0  0  0  0
  8 26  1  0  0  0  0
  9 10  1  0  0  0  0
  9 27  1  0  0  0  0
 10 28  1  0  0  0  0
 11 12  1  0  0  0  0
 12 16  1  0  0  0  0
 12 13  2  0  0  0  0
 13 14  1  0  0  0  0
 14 15  2  0  0  0  0
 14 29  1  0  0  0  0
 15 16  1  0  0  0  0
 15 30  1  0  0  0  0
M  CHG  1  11  -1
M  END
> <s_m_source_file>
AV-unprocessed.smi

> <i_m_source_file_index>
3228

> <i_lp_mmshare_version>
43012

> <i_f3d_flags>
0

> <s_epik_input>
czFbY0hdW2NIXW5jMVtOSF1DKD1PKVtOSF1bQ0gyXVtDQEBIXTJbQ0gyXVtDSDJdW0NIMl1bQ0BIXTJbT0hd

> <s_epik_cmdline>
J2VwaWtfcHl0aG9uJywgJy1waCcsICc3LjAnLCAnLXRuJywgJzgnLCAnLW1hJywgJzIwMCcsICctbWV0YWxfYmluZGluZycsICctaW1hZScsICc8aW5maWxlLm1hZT4nLCAnLW9tYWUnLCAnPG91dGZpbGUubWFlPic=

> <r_lp_tautomer_probability>
0.999

> <r_epik_Ionization_Penalty>
8.49756

> <r_epik_Ionization_Penalty_Charging>
6.79645

> <r_epik_Ionization_Penalty_Neutral>
1.70111

> <r_epik_State_Penalty>
6.79662

> <r_epik_Charging_Adjusted_Penalty>
13.5931

> <i_epik_Tot_Q>
-1

> <i_epik_Tot_abs_Q>
1

> <r_epik_Metal_State_Penalty>
2.71629

> <b_epik_Metal_Only>
1

> <s_lp_Force_Field>
OPLS_2005

> <r_lp_Energy>
17.8369

> <b_lp_Chiralities_Consistent>
1

> <s_lp_Variant>
AV-unprocessed.smi:3228-8

> <Gold.Version>
5.8.1

> <Gold.Id.Protein>
6NUR|6NUR_protein|mol2

> <Gold.PLP.Fitness>
41.3378

> <Gold.PLP.PLP>
-31.4497

> <Gold.PLP.part.hbond>
-2.8166

> <Gold.PLP.part.metal>
0.0000

> <Gold.PLP.part.buried>
-3.5434

> <Gold.PLP.part.nonpolar>
-25.6443

> <Gold.PLP.part.repulsive>
0.3570

> <Gold.PLP.ligand.clash>
0.0000

> <Gold.PLP.ligand.torsion>
0.9379

> <Gold.PLP.Chemscore.Hbond>
1.9120

> <Gold.PLP.Chemscore.CHOScore>
2.0000

> <Gold.PLP.Chemscore.Metal>
0.0000

> <Gold.Chemscore.Hbonds>
donor molecule, donor type, donor heavy atom, donor atom, acceptor molecule, acceptor atom, score
      P1  H  7989  7998       L1     1  0.93
      P1  H  7997  8009       L1    10  1.00
      L1  C    14    29       P1  7948  0.76
      L1  C    15    30       P1 10175  1.00

> <Gold.PLP.Chemscore.Internal.Correction>
0.0279

> <Gold.Rescore>
     Score         DG    S(hbond)    S(metal)    S(lipo)     H(rot)  DE(clash)    DE(int)     intcor
     13.57     -14.55       1.77        0.00      67.32       1.85       0.01       0.97       ----

> <Gold.Chemscore.Fitness>
13.5671

> <Gold.Chemscore.DG>
-14.5497

> <Gold.Chemscore.ZeroCoef>
-5.4800

> <Gold.Chemscore.Hbond>
1.7740

> <Gold.Chemscore.Metal>
0.0000

> <Gold.Chemscore.Lipo>
67.3153

> <Gold.Chemscore.Internal_Hbond>
0.0000

> <Gold.Chemscore.DEClash>
0.0126

> <Gold.Chemscore.DEInternal>
0.9699

> <Gold.Chemscore.Rot>
1.8481

> <Gold.Chemscore.Internal.Correction>
   9.000000E+99

> <Gold.Chemscore.Hbonds>
donor molecule, donor type, donor heavy atom, donor atom, acceptor molecule, acceptor atom, score
      P1  H  7989  7998       L1     1  0.27
      P1  H  7997  8009       L1    10  0.97

> <Gold.Chemscore.Hbond.Weighted>
-5.9250

> <Gold.Chemscore.Metal.Weighted>
-0.0000

> <Gold.Chemscore.Lipo.Weighted>
-7.8759

> <Gold.Chemscore.Internal_Hbond.Weighted>
0.0000

> <Gold.Chemscore.DEClash.Weighted>
0.0126

> <Gold.Chemscore.DEInternal.Weighted>
0.9699

> <Gold.Chemscore.Rot.Weighted>
4.7313

> <Gold.Chemscore.Internal.Correction.Weighted>
   9.000000E+99

> <Gold.Protein.RotatedTorsions>
[ 6907 6896 6895 6894 ] final   -9.25 input  -60.11 | X-H torsion
[ 7974 7965 7964 7962 ] final  104.86 input  175.53 | X-H torsion
[ 8008 7997 7996 7995 ] final  133.63 input   59.86 | X-H torsion
[ 10167 10162 10161 10158 ] final -168.81 input  -65.29 | X-H torsion
[ 10718 10713 10712 10709 ] final    3.79 input   66.30 | X-H torsion
[ 10763 10752 10751 10750 ] final  156.74 input  -60.55 | X-H torsion
[ 11005 11000 10999 10996 ] final -145.59 input  -57.11 | X-H torsion

> <Gold.Protein.ActiveResidues>
 VAL166  LYS551  ARG553  GLY616  TRP617  ASP618  TYR619  PRO620  LYS621  CYS622 
 ASP623  PHE694  ASN695  SER759  ASP760  ASP761  ALA762  ILE779  LEU786  VAL792 
 PHE793  MET794  SER795  GLU796  ALA797  LYS798  CYS799  TRP800  GLU811  SER814 

> <Gold.Protein.RotatedAtoms>
  151.4208  135.0997  159.9612 H   0  0  0  0  0  0  0  0  0  0  0  0  # atno 6907 bound_to 6896
  152.4989  133.8709  159.7308 H   0  0  0  0  0  0  0  0  0  0  0  0  # atno 6908 bound_to 6896
  150.9225  133.6806  159.2857 H   0  0  0  0  0  0  0  0  0  0  0  0  # atno 6909 bound_to 6896
  145.3272  139.2496  143.3680 H   0  0  0  0  0  0  0  0  0  0  0  0  # atno 7974 bound_to 7965
  156.2993  140.2516  156.3284 H   0  0  0  0  0  0  0  0  0  0  0  0  # atno 8008 bound_to 7997
  154.9168  140.0402  157.1995 H   0  0  0  0  0  0  0  0  0  0  0  0  # atno 8009 bound_to 7997
  154.8350  140.2882  155.5701 H   0  0  0  0  0  0  0  0  0  0  0  0  # atno 8010 bound_to 7997
  139.5962  144.1107  152.1692 H   0  0  0  0  0  0  0  0  0  0  0  0  # atno 10167 bound_to 10162
  156.8830  130.5660  149.5652 H   0  0  0  0  0  0  0  0  0  0  0  0  # atno 10718 bound_to 10713
  154.1892  135.2795  155.3027 H   0  0  0  0  0  0  0  0  0  0  0  0  # atno 10763 bound_to 10752
  154.5942  135.5550  153.7312 H   0  0  0  0  0  0  0  0  0  0  0  0  # atno 10764 bound_to 10752
  153.0117  135.6376  154.2030 H   0  0  0  0  0  0  0  0  0  0  0  0  # atno 10765 bound_to 10752
  140.7906  134.2972  157.5014 H   0  0  0  0  0  0  0  0  0  0  0  0  # atno 11005 bound_to 11000
  146.3059  140.3842  142.8687 LP  0  0  0  0  0  0  0  0  0  0  0  0  # atno 17320 bound_to 7965
  144.8892  140.7502  143.5937 LP  0  0  0  0  0  0  0  0  0  0  0  0  # atno 17321 bound_to 7965
  140.0693  144.5792  150.7204 LP  0  0  0  0  0  0  0  0  0  0  0  0  # atno 17342 bound_to 10162
  140.7214  143.2592  151.4267 LP  0  0  0  0  0  0  0  0  0  0  0  0  # atno 17343 bound_to 10162
  156.0667  130.5709  150.9303 LP  0  0  0  0  0  0  0  0  0  0  0  0  # atno 17370 bound_to 10713
  157.6129  131.0935  150.8763 LP  0  0  0  0  0  0  0  0  0  0  0  0  # atno 17371 bound_to 10713
  139.8731  134.9372  156.3682 LP  0  0  0  0  0  0  0  0  0  0  0  0  # atno 17394 bound_to 11000
  140.9393  133.7526  156.0125 LP  0  0  0  0  0  0  0  0  0  0  0  0  # atno 17395 bound_to 11000

$$$$
