AV-unprocessed.smi:3217|AV-procd|sdf|12292|dock2
  -GOLD-   2272018133D 1   1.00000     0.00000
 Structure written by MMmdl.
 34 35  0  0  0  0  0  0  0  0  1 V2000
  144.3314  135.5978  153.0668 C   0  0  0  0  0  0  0  0  0  0  0  0
  145.0232  136.0717  151.7793 C   0  0  1  0  0  0  0  0  0  0  0  0
  146.2915  136.7052  152.1339 N   0  0  0  0  0  0  0  0  0  0  0  0
  146.4363  137.8872  152.7500 C   0  0  0  0  0  0  0  0  0  0  0  0
  145.4928  138.5888  153.1131 O   0  0  0  0  0  0  0  0  0  0  0  0
  147.7363  138.1794  152.9277 N   0  0  0  0  0  0  0  0  0  0  0  0
  148.3146  139.3269  153.5356 C   0  0  0  0  0  0  0  0  0  0  0  0
  147.5398  140.5037  153.5909 C   0  0  0  0  0  0  0  0  0  0  0  0
  148.0781  141.6529  154.2004 C   0  0  0  0  0  0  0  0  0  0  0  0
  149.3754  141.5772  154.7426 C   0  0  0  0  0  0  0  0  0  0  0  0
  150.1252  140.4556  154.7124 N   0  0  0  0  0  0  0  0  0  0  0  0
  149.6034  139.3573  154.1244 C   0  0  0  0  0  0  0  0  0  0  0  0
  145.2883  134.9165  150.7945 C   0  0  1  0  0  0  0  0  0  0  0  0
  146.1498  133.7819  151.3537 C   0  0  0  0  0  0  0  0  0  0  0  0
  145.7025  132.5584  150.5668 C   0  0  0  0  0  0  0  0  0  0  0  0
  144.4344  133.0200  149.8456 C   0  0  0  0  0  0  0  0  0  0  0  0
  144.0806  134.2400  150.4789 O   0  0  0  0  0  0  0  0  0  0  0  0
  143.3593  135.1520  152.8553 H   0  0  0  0  0  0  0  0  0  0  0  0
  144.1637  136.4310  153.7501 H   0  0  0  0  0  0  0  0  0  0  0  0
  144.9325  134.8536  153.5902 H   0  0  0  0  0  0  0  0  0  0  0  0
  144.3633  136.7915  151.2919 H   0  0  0  0  0  0  0  0  0  0  0  0
  147.1293  136.2038  151.8779 H   0  0  0  0  0  0  0  0  0  0  0  0
  148.3914  137.4678  152.6392 H   0  0  0  0  0  0  0  0  0  0  0  0
  146.5456  140.5300  153.1688 H   0  0  0  0  0  0  0  0  0  0  0  0
  147.5101  142.5699  154.2522 H   0  0  0  0  0  0  0  0  0  0  0  0
  149.8201  142.4389  155.2182 H   0  0  0  0  0  0  0  0  0  0  0  0
  150.2411  138.4879  154.1549 H   0  0  0  0  0  0  0  0  0  0  0  0
  145.7302  135.2954  149.8705 H   0  0  0  0  0  0  0  0  0  0  0  0
  147.2174  133.9800  151.2539 H   0  0  0  0  0  0  0  0  0  0  0  0
  145.9346  133.6292  152.4121 H   0  0  0  0  0  0  0  0  0  0  0  0
  146.4601  132.2354  149.8520 H   0  0  0  0  0  0  0  0  0  0  0  0
  145.4973  131.7245  151.2389 H   0  0  0  0  0  0  0  0  0  0  0  0
  144.6405  133.2114  148.7914 H   0  0  0  0  0  0  0  0  0  0  0  0
  143.6258  132.2916  149.9081 H   0  0  0  0  0  0  0  0  0  0  0  0
  1  2  1  0  0  0  0
  1 18  1  0  0  0  0
  1 19  1  0  0  0  0
  1 20  1  0  0  0  0
  2  3  1  0  0  0  0
  2 13  1  0  0  0  0
  2 21  1  0  0  0  0
  3  4  1  0  0  0  0
  3 22  1  0  0  0  0
  4  5  2  0  0  0  0
  4  6  1  0  0  0  0
  6  7  1  0  0  0  0
  6 23  1  0  0  0  0
  7 12  1  0  0  0  0
  7  8  2  0  0  0  0
  8  9  1  0  0  0  0
  8 24  1  0  0  0  0
  9 10  2  0  0  0  0
  9 25  1  0  0  0  0
 10 11  1  0  0  0  0
 10 26  1  0  0  0  0
 11 12  2  0  0  0  0
 12 27  1  0  0  0  0
 13 17  1  0  0  0  0
 13 14  1  0  0  0  0
 13 28  1  0  0  0  0
 14 15  1  0  0  0  0
 14 29  1  0  0  0  0
 14 30  1  0  0  0  0
 15 16  1  0  0  0  0
 15 31  1  0  0  0  0
 15 32  1  0  0  0  0
 16 17  1  0  0  0  0
 16 33  1  0  0  0  0
 16 34  1  0  0  0  0
M  END
> <s_m_source_file>
AV-unprocessed.smi

> <i_m_source_file_index>
3217

> <i_lp_mmshare_version>
43012

> <i_f3d_flags>
0

> <s_epik_input>
TzFbQ0gyXVtDSDJdW0NIMl1bQ0BIXTFbQ0BIXShbQ0gzXSlbTkhdQyg9TylbTkhdYzJbY0hdW2NIXVtjSF1uW2NIXTI=

> <s_epik_cmdline>
J2VwaWtfcHl0aG9uJywgJy1waCcsICc3LjAnLCAnLXRuJywgJzgnLCAnLW1hJywgJzIwMCcsICctbWV0YWxfYmluZGluZycsICctaW1hZScsICc8aW5maWxlLm1hZT4nLCAnLW9tYWUnLCAnPG91dGZpbGUubWFlPic=

> <r_epik_Ionization_Penalty>
0.00475451

> <r_epik_Ionization_Penalty_Charging>
0

> <r_epik_Ionization_Penalty_Neutral>
0.00475451

> <r_epik_State_Penalty>
0.00341814

> <r_epik_Charging_Adjusted_Penalty>
0.00341814

> <i_epik_Tot_Q>
0

> <i_epik_Tot_abs_Q>
0

> <r_epik_Metal_State_Penalty>
-0

> <b_epik_Metal_Only>
0

> <s_lp_Force_Field>
OPLS_2005

> <r_lp_Energy>
20.3997

> <b_lp_Chiralities_Consistent>
1

> <s_lp_Variant>
AV-unprocessed.smi:3217-4

> <Gold.Version>
5.8.1

> <Gold.Id.Protein>
6NUR|6NUR_protein|mol2

> <Gold.PLP.Fitness>
39.1955

> <Gold.PLP.PLP>
-27.9890

> <Gold.PLP.part.hbond>
-3.5084

> <Gold.PLP.part.metal>
0.0000

> <Gold.PLP.part.buried>
-0.2382

> <Gold.PLP.part.nonpolar>
-27.3121

> <Gold.PLP.part.repulsive>
3.1284

> <Gold.PLP.ligand.clash>
0.0000

> <Gold.PLP.ligand.torsion>
0.2637

> <Gold.PLP.Chemscore.Hbond>
2.9040

> <Gold.PLP.Chemscore.CHOScore>
1.0000

> <Gold.PLP.Chemscore.Metal>
0.0000

> <Gold.Chemscore.Hbonds>
donor molecule, donor type, donor heavy atom, donor atom, acceptor molecule, acceptor atom, score
      L1  H     3    22       P1  7948  0.93
      L1  H     6    23       P1  7948  1.00
      P1  H  7989  7998       L1    11  0.94
      L1  C    10    26       P1  8028  1.00

> <Gold.PLP.Chemscore.Internal.Correction>
0.0219

> <Gold.Rescore>
     Score         DG    S(hbond)    S(metal)    S(lipo)     H(rot)  DE(clash)    DE(int)     intcor
     15.40     -17.08       2.04        0.00      67.62       1.22       0.10       1.57       ----

> <Gold.Chemscore.Fitness>
15.4044

> <Gold.Chemscore.DG>
-17.0824

> <Gold.Chemscore.ZeroCoef>
-5.4800

> <Gold.Chemscore.Hbond>
2.0429

> <Gold.Chemscore.Metal>
0.0000

> <Gold.Chemscore.Lipo>
67.6196

> <Gold.Chemscore.Internal_Hbond>
0.0000

> <Gold.Chemscore.DEClash>
0.1034

> <Gold.Chemscore.DEInternal>
1.5746

> <Gold.Chemscore.Rot>
1.2236

> <Gold.Chemscore.Internal.Correction>
   9.000000E+99

> <Gold.Chemscore.Hbonds>
donor molecule, donor type, donor heavy atom, donor atom, acceptor molecule, acceptor atom, score
      L1  H     3    22       P1  7948  0.91
      L1  H     6    23       P1  7948  0.95
      P1  H  7989  7998       L1    11  0.14

> <Gold.Chemscore.Hbond.Weighted>
-6.8234

> <Gold.Chemscore.Metal.Weighted>
-0.0000

> <Gold.Chemscore.Lipo.Weighted>
-7.9115

> <Gold.Chemscore.Internal_Hbond.Weighted>
0.0000

> <Gold.Chemscore.DEClash.Weighted>
0.1034

> <Gold.Chemscore.DEInternal.Weighted>
1.5746

> <Gold.Chemscore.Rot.Weighted>
3.1325

> <Gold.Chemscore.Internal.Correction.Weighted>
   9.000000E+99

> <Gold.Protein.RotatedTorsions>
[ 6907 6896 6895 6894 ] final  -53.73 input  -60.11 | X-H torsion
[ 7974 7965 7964 7962 ] final  -89.36 input  175.53 | X-H torsion
[ 8008 7997 7996 7995 ] final  177.22 input   59.86 | X-H torsion
[ 10167 10162 10161 10158 ] final    4.42 input  -65.29 | X-H torsion
[ 10718 10713 10712 10709 ] final  -87.85 input   66.30 | X-H torsion
[ 10763 10752 10751 10750 ] final  -98.54 input  -60.55 | X-H torsion
[ 11005 11000 10999 10996 ] final   -6.53 input  -57.11 | X-H torsion

> <Gold.Protein.ActiveResidues>
 VAL166  LYS551  ARG553  GLY616  TRP617  ASP618  TYR619  PRO620  LYS621  CYS622 
 ASP623  PHE694  ASN695  SER759  ASP760  ASP761  ALA762  ILE779  LEU786  VAL792 
 PHE793  MET794  SER795  GLU796  ALA797  LYS798  CYS799  TRP800  GLU811  SER814 

> <Gold.Protein.RotatedAtoms>
  150.8401  134.7689  159.6924 H   0  0  0  0  0  0  0  0  0  0  0  0  # atno 6907 bound_to 6896
  152.4490  134.5431  159.9854 H   0  0  0  0  0  0  0  0  0  0  0  0  # atno 6908 bound_to 6896
  151.5573  133.3370  159.3000 H   0  0  0  0  0  0  0  0  0  0  0  0  # atno 6909 bound_to 6896
  145.4408  140.9559  143.2076 H   0  0  0  0  0  0  0  0  0  0  0  0  # atno 7974 bound_to 7965
  156.0680  140.1364  156.9863 H   0  0  0  0  0  0  0  0  0  0  0  0  # atno 8008 bound_to 7997
  154.4516  140.0978  156.6687 H   0  0  0  0  0  0  0  0  0  0  0  0  # atno 8009 bound_to 7997
  155.5273  140.3458  155.4421 H   0  0  0  0  0  0  0  0  0  0  0  0  # atno 8010 bound_to 7997
  140.6536  143.7484  150.7615 H   0  0  0  0  0  0  0  0  0  0  0  0  # atno 10167 bound_to 10162
  155.9984  130.4814  150.4929 H   0  0  0  0  0  0  0  0  0  0  0  0  # atno 10718 bound_to 10713
  154.7422  135.5006  153.9143 H   0  0  0  0  0  0  0  0  0  0  0  0  # atno 10763 bound_to 10752
  153.1055  135.6696  153.9602 H   0  0  0  0  0  0  0  0  0  0  0  0  # atno 10764 bound_to 10752
  153.9376  135.3071  155.3423 H   0  0  0  0  0  0  0  0  0  0  0  0  # atno 10765 bound_to 10752
  140.7030  133.8974  155.8696 H   0  0  0  0  0  0  0  0  0  0  0  0  # atno 11005 bound_to 11000
  144.8122  139.5940  143.7024 LP  0  0  0  0  0  0  0  0  0  0  0  0  # atno 17320 bound_to 7965
  146.2557  139.6297  142.9396 LP  0  0  0  0  0  0  0  0  0  0  0  0  # atno 17321 bound_to 7965
  140.1140  143.4673  152.2353 LP  0  0  0  0  0  0  0  0  0  0  0  0  # atno 17342 bound_to 10162
  139.5754  144.7485  151.3778 LP  0  0  0  0  0  0  0  0  0  0  0  0  # atno 17343 bound_to 10162
  157.2922  131.0628  151.2126 LP  0  0  0  0  0  0  0  0  0  0  0  0  # atno 17370 bound_to 10713
  157.3134  130.6901  149.6228 LP  0  0  0  0  0  0  0  0  0  0  0  0  # atno 17371 bound_to 10713
  141.0148  134.0970  157.4183 LP  0  0  0  0  0  0  0  0  0  0  0  0  # atno 17394 bound_to 11000
  139.8892  135.0103  156.6663 LP  0  0  0  0  0  0  0  0  0  0  0  0  # atno 17395 bound_to 11000

$$$$
