AV-unprocessed.smi:172|AV-procd|sdf|1422|dock6
  -GOLD-   2262019193D 1   1.00000     0.00000
 Structure written by MMmdl.
 56 60  0  0  0  0  0  0  0  0  1 V2000
  149.5915  132.9288  158.0812 O   0  0  0  0  0  0  0  0  0  0  0  0
  148.8551  133.7001  157.1519 C   0  0  0  0  0  0  0  0  0  0  0  0
  149.6225  133.9388  155.8358 C   0  0  0  0  0  0  0  0  0  0  0  0
  150.9415  134.6975  156.0988 C   0  0  0  0  0  0  0  0  0  0  0  0
  150.7802  136.0943  156.4696 N   0  0  0  0  0  0  0  0  0  0  0  0
  150.1147  136.5775  157.5751 C   0  0  0  0  0  0  0  0  0  0  0  0
  150.0931  137.8771  157.6905 N   0  0  0  0  0  0  0  0  0  0  0  0
  150.8085  138.3208  156.5868 C   0  0  0  0  0  0  0  0  0  0  0  0
  151.1602  139.6041  156.0933 C   0  0  0  0  0  0  0  0  0  0  0  0
  150.7732  140.7422  156.7184 N   0  0  0  0  0  0  0  0  0  0  0  0
  149.9787  141.6012  155.8297 C   0  0  0  0  0  0  0  0  0  0  0  0
  148.6215  141.0254  155.4445 C   0  0  0  0  0  0  0  0  0  0  0  0
  148.3350  140.6499  154.0098 C   0  0  0  0  0  0  0  0  0  0  0  0
  147.6399  141.8363  154.6324 C   0  0  0  0  0  0  0  0  0  0  0  0
  151.8455  141.3686  157.5164 C   0  0  0  0  0  0  0  0  0  0  0  0
  152.3007  140.4681  158.7001 C   0  0  0  0  0  0  0  0  0  0  0  0
  153.4031  141.1217  159.5469 C   0  0  0  0  0  0  0  0  0  0  0  0
  152.9562  142.4865  160.0821 C   0  0  0  0  0  0  0  0  0  0  0  0
  152.5300  143.4014  158.9285 C   0  0  0  0  0  0  0  0  0  0  0  0
  151.4285  142.7544  158.0732 C   0  0  0  0  0  0  0  0  0  0  0  0
  151.8926  139.6712  154.9503 N   0  0  0  0  0  0  0  0  0  0  0  0
  152.2594  138.5457  154.3299 C   0  0  0  0  0  0  0  0  0  0  0  0
  152.0000  137.2810  154.6708 N   0  0  0  0  0  0  0  0  0  0  0  0
  151.2597  137.2152  155.8145 C   0  0  0  0  0  0  0  0  0  0  0  0
  149.7861  132.6762  154.9763 C   0  0  0  0  0  0  0  0  0  0  0  0
  148.7096  133.0647  154.0983 O   0  0  0  0  0  0  0  0  0  0  0  0
  148.7720  134.4001  154.6406 C   0  0  0  0  0  0  0  0  0  0  0  0
  149.8720  132.1324  157.6567 H   0  0  0  0  0  0  0  0  0  0  0  0
  147.8993  133.2094  156.9654 H   0  0  0  0  0  0  0  0  0  0  0  0
  148.6220  134.6479  157.6381 H   0  0  0  0  0  0  0  0  0  0  0  0
  151.5066  134.2022  156.8893 H   0  0  0  0  0  0  0  0  0  0  0  0
  151.5832  134.6638  155.2173 H   0  0  0  0  0  0  0  0  0  0  0  0
  149.6297  135.9302  158.2913 H   0  0  0  0  0  0  0  0  0  0  0  0
  149.7917  142.5589  156.3113 H   0  0  0  0  0  0  0  0  0  0  0  0
  150.5450  141.8114  154.9213 H   0  0  0  0  0  0  0  0  0  0  0  0
  148.1934  140.3489  156.1823 H   0  0  0  0  0  0  0  0  0  0  0  0
  149.1041  140.8525  153.2671 H   0  0  0  0  0  0  0  0  0  0  0  0
  147.7413  139.7550  153.8342 H   0  0  0  0  0  0  0  0  0  0  0  0
  146.5855  141.7341  154.8803 H   0  0  0  0  0  0  0  0  0  0  0  0
  147.9497  142.8288  154.3109 H   0  0  0  0  0  0  0  0  0  0  0  0
  152.7008  141.5209  156.8560 H   0  0  0  0  0  0  0  0  0  0  0  0
  151.4439  140.2393  159.3355 H   0  0  0  0  0  0  0  0  0  0  0  0
  152.6819  139.5107  158.3444 H   0  0  0  0  0  0  0  0  0  0  0  0
  153.6695  140.4674  160.3773 H   0  0  0  0  0  0  0  0  0  0  0  0
  154.3047  141.2405  158.9448 H   0  0  0  0  0  0  0  0  0  0  0  0
  152.1252  142.3564  160.7766 H   0  0  0  0  0  0  0  0  0  0  0  0
  153.7654  142.9498  160.6473 H   0  0  0  0  0  0  0  0  0  0  0  0
  152.1804  144.3560  159.3226 H   0  0  0  0  0  0  0  0  0  0  0  0
  153.3937  143.6247  158.3009 H   0  0  0  0  0  0  0  0  0  0  0  0
  151.2028  143.4476  157.2641 H   0  0  0  0  0  0  0  0  0  0  0  0
  150.5174  142.6555  158.6651 H   0  0  0  0  0  0  0  0  0  0  0  0
  152.8409  138.6770  153.4295 H   0  0  0  0  0  0  0  0  0  0  0  0
  150.7380  132.6203  154.4452 H   0  0  0  0  0  0  0  0  0  0  0  0
  149.5839  131.7435  155.5040 H   0  0  0  0  0  0  0  0  0  0  0  0
  147.7894  134.7908  154.9068 H   0  0  0  0  0  0  0  0  0  0  0  0
  149.2883  135.0800  153.9619 H   0  0  0  0  0  0  0  0  0  0  0  0
  1  2  1  0  0  0  0
  1 28  1  0  0  0  0
  2  3  1  0  0  0  0
  2 29  1  0  0  0  0
  2 30  1  0  0  0  0
  3 27  1  0  0  0  0
  3  4  1  0  0  0  0
  3 25  1  0  0  0  0
  4  5  1  0  0  0  0
  4 31  1  0  0  0  0
  4 32  1  0  0  0  0
  5 24  1  0  0  0  0
  5  6  1  0  0  0  0
  6  7  2  0  0  0  0
  6 33  1  0  0  0  0
  7  8  1  0  0  0  0
  8 24  2  0  0  0  0
  8  9  1  0  0  0  0
  9 10  1  0  0  0  0
  9 21  2  0  0  0  0
 10 11  1  0  0  0  0
 10 15  1  0  0  0  0
 11 12  1  0  0  0  0
 11 34  1  0  0  0  0
 11 35  1  0  0  0  0
 12 14  1  0  0  0  0
 12 13  1  0  0  0  0
 12 36  1  0  0  0  0
 13 14  1  0  0  0  0
 13 37  1  0  0  0  0
 13 38  1  0  0  0  0
 14 39  1  0  0  0  0
 14 40  1  0  0  0  0
 15 20  1  0  0  0  0
 15 16  1  0  0  0  0
 15 41  1  0  0  0  0
 16 17  1  0  0  0  0
 16 42  1  0  0  0  0
 16 43  1  0  0  0  0
 17 18  1  0  0  0  0
 17 44  1  0  0  0  0
 17 45  1  0  0  0  0
 18 19  1  0  0  0  0
 18 46  1  0  0  0  0
 18 47  1  0  0  0  0
 19 20  1  0  0  0  0
 19 48  1  0  0  0  0
 19 49  1  0  0  0  0
 20 50  1  0  0  0  0
 20 51  1  0  0  0  0
 21 22  1  0  0  0  0
 22 23  2  0  0  0  0
 22 52  1  0  0  0  0
 23 24  1  0  0  0  0
 25 26  1  0  0  0  0
 25 53  1  0  0  0  0
 25 54  1  0  0  0  0
 26 27  1  0  0  0  0
 27 55  1  0  0  0  0
 27 56  1  0  0  0  0
M  END
> <s_m_source_file>
AV-unprocessed.smi

> <i_m_source_file_index>
172

> <i_lp_mmshare_version>
43012

> <i_f3d_flags>
0

> <s_epik_input>
W0NIMl0xT1tDSDJdQzEoW0NIMl1bT0hdKVtDSDJdbihbY0hdbjIpYyhjMjMpbltjSF1uYzNOKFtDSDJdW0NIXTRbQ0gyXVtDSDJdNClbQ0hdNVtDSDJdW0NIMl1bQ0gyXVtDSDJdW0NIMl01

> <s_epik_cmdline>
J2VwaWtfcHl0aG9uJywgJy1waCcsICc3LjAnLCAnLXRuJywgJzgnLCAnLW1hJywgJzIwMCcsICctbWV0YWxfYmluZGluZycsICctaW1hZScsICc8aW5maWxlLm1hZT4nLCAnLW9tYWUnLCAnPG91dGZpbGUubWFlPic=

> <r_lp_tautomer_probability>
1

> <r_epik_Ionization_Penalty>
0.0023612

> <r_epik_Ionization_Penalty_Charging>
0

> <r_epik_Ionization_Penalty_Neutral>
0.0023612

> <r_epik_State_Penalty>
0.00145434

> <r_epik_Charging_Adjusted_Penalty>
0.00145434

> <i_epik_Tot_Q>
0

> <i_epik_Tot_abs_Q>
0

> <r_epik_Metal_State_Penalty>
-0

> <b_epik_Metal_Only>
0

> <s_lp_Force_Field>
OPLS_2005

> <r_lp_Energy>
48.1575

> <b_lp_Chiralities_Consistent>
1

> <s_lp_Variant>
AV-unprocessed.smi:172-1

> <Gold.Version>
5.8.1

> <Gold.Id.Protein>
6NUR|6NUR_protein|mol2

> <Gold.PLP.Fitness>
53.4250

> <Gold.PLP.PLP>
-46.0756

> <Gold.PLP.part.hbond>
-3.0000

> <Gold.PLP.part.metal>
0.0000

> <Gold.PLP.part.buried>
-6.6593

> <Gold.PLP.part.nonpolar>
-37.2753

> <Gold.PLP.part.repulsive>
0.2803

> <Gold.PLP.ligand.clash>
0.0000

> <Gold.PLP.ligand.torsion>
1.1650

> <Gold.PLP.Chemscore.Hbond>
2.7360

> <Gold.PLP.Chemscore.CHOScore>
0.0000

> <Gold.PLP.Chemscore.Metal>
0.0000

> <Gold.Chemscore.Hbonds>
donor molecule, donor type, donor heavy atom, donor atom, acceptor molecule, acceptor atom, score
      P1  H  6896  6909       L1     1  0.96
      P1  H  7989  7998       L1    21  0.98
      P1  H 10752 10765       L1    23  0.90

> <Gold.PLP.Chemscore.Internal.Correction>
1.4715

> <Gold.Rescore>
     Score         DG    S(hbond)    S(metal)    S(lipo)     H(rot)  DE(clash)    DE(int)     intcor
     17.48     -18.96       2.47        0.00     107.68       2.87       0.19       1.29       ----

> <Gold.Chemscore.Fitness>
17.4758

> <Gold.Chemscore.DG>
-18.9566

> <Gold.Chemscore.ZeroCoef>
-5.4800

> <Gold.Chemscore.Hbond>
2.4660

> <Gold.Chemscore.Metal>
0.0000

> <Gold.Chemscore.Lipo>
107.6810

> <Gold.Chemscore.Internal_Hbond>
0.0000

> <Gold.Chemscore.DEClash>
0.1925

> <Gold.Chemscore.DEInternal>
1.2883

> <Gold.Chemscore.Rot>
2.8744

> <Gold.Chemscore.Internal.Correction>
   9.000000E+99

> <Gold.Chemscore.Hbonds>
donor molecule, donor type, donor heavy atom, donor atom, acceptor molecule, acceptor atom, score
      P1  H  6896  6909       L1     1  0.45
      P1  H  7989  7998       L1    21  0.32
      P1  H 10752 10765       L1    23  0.53

> <Gold.Chemscore.Hbond.Weighted>
-8.2364

> <Gold.Chemscore.Metal.Weighted>
-0.0000

> <Gold.Chemscore.Lipo.Weighted>
-12.5987

> <Gold.Chemscore.Internal_Hbond.Weighted>
0.0000

> <Gold.Chemscore.DEClash.Weighted>
0.1925

> <Gold.Chemscore.DEInternal.Weighted>
1.2883

> <Gold.Chemscore.Rot.Weighted>
7.3584

> <Gold.Chemscore.Internal.Correction.Weighted>
   9.000000E+99

> <Gold.Protein.RotatedTorsions>
[ 6907 6896 6895 6894 ] final  -28.69 input  -60.11 | X-H torsion
[ 7974 7965 7964 7962 ] final   57.65 input  175.53 | X-H torsion
[ 8008 7997 7996 7995 ] final   -2.05 input   59.86 | X-H torsion
[ 10167 10162 10161 10158 ] final -113.99 input  -65.29 | X-H torsion
[ 10718 10713 10712 10709 ] final  139.87 input   66.30 | X-H torsion
[ 10763 10752 10751 10750 ] final  175.68 input  -60.55 | X-H torsion
[ 11005 11000 10999 10996 ] final -175.54 input  -57.11 | X-H torsion

> <Gold.Protein.ActiveResidues>
 VAL166  LYS551  ARG553  GLY616  TRP617  ASP618  TYR619  PRO620  LYS621  CYS622 
 ASP623  PHE694  ASN695  SER759  ASP760  ASP761  ALA762  ILE779  LEU786  VAL792 
 PHE793  MET794  SER795  GLU796  ALA797  LYS798  CYS799  TRP800  GLU811  SER814 

> <Gold.Protein.RotatedAtoms>
  151.1295  135.0123  159.8575 H   0  0  0  0  0  0  0  0  0  0  0  0  # atno 6907 bound_to 6896
  152.5450  134.1627  159.8574 H   0  0  0  0  0  0  0  0  0  0  0  0  # atno 6908 bound_to 6896
  151.1692  133.4750  159.2627 H   0  0  0  0  0  0  0  0  0  0  0  0  # atno 6909 bound_to 6896
  145.9268  139.3774  143.0445 H   0  0  0  0  0  0  0  0  0  0  0  0  # atno 7974 bound_to 7965
  154.6400  140.2544  155.7333 H   0  0  0  0  0  0  0  0  0  0  0  0  # atno 8008 bound_to 7997
  156.2524  140.2889  156.0710 H   0  0  0  0  0  0  0  0  0  0  0  0  # atno 8009 bound_to 7997
  155.1610  140.0384  157.2833 H   0  0  0  0  0  0  0  0  0  0  0  0  # atno 8010 bound_to 7997
  140.1058  143.4571  152.1783 H   0  0  0  0  0  0  0  0  0  0  0  0  # atno 10167 bound_to 10162
  157.4095  131.1026  151.0468 H   0  0  0  0  0  0  0  0  0  0  0  0  # atno 10718 bound_to 10713
  154.4709  135.2771  155.1643 H   0  0  0  0  0  0  0  0  0  0  0  0  # atno 10763 bound_to 10752
  154.3392  135.6174  153.5592 H   0  0  0  0  0  0  0  0  0  0  0  0  # atno 10764 bound_to 10752
  152.9864  135.5784  154.5091 H   0  0  0  0  0  0  0  0  0  0  0  0  # atno 10765 bound_to 10752
  140.4621  134.6245  157.4847 H   0  0  0  0  0  0  0  0  0  0  0  0  # atno 11005 bound_to 11000
  145.8478  140.9545  143.0765 LP  0  0  0  0  0  0  0  0  0  0  0  0  # atno 17320 bound_to 7965
  144.6759  140.0368  143.7481 LP  0  0  0  0  0  0  0  0  0  0  0  0  # atno 17321 bound_to 7965
  139.5646  144.7427  151.4059 LP  0  0  0  0  0  0  0  0  0  0  0  0  # atno 17342 bound_to 10162
  140.6953  143.7765  150.7316 LP  0  0  0  0  0  0  0  0  0  0  0  0  # atno 17343 bound_to 10162
  157.1438  130.6154  149.5562 LP  0  0  0  0  0  0  0  0  0  0  0  0  # atno 17370 bound_to 10713
  155.9846  130.4872  150.6993 LP  0  0  0  0  0  0  0  0  0  0  0  0  # atno 17371 bound_to 10713
  139.9939  134.6942  155.9643 LP  0  0  0  0  0  0  0  0  0  0  0  0  # atno 17394 bound_to 11000
  141.1616  133.6538  156.4339 LP  0  0  0  0  0  0  0  0  0  0  0  0  # atno 17395 bound_to 11000

$$$$
