#       Name:                AV-unprocessed.smi:2684
#       Creating user name   scv26
#       Creation time:       Fri Mar 27 14:41:08 2020


#       File generated by GOLD software.
#

@<TRIPOS>MOLECULE
AV-unprocessed.smi:2684
    50    51     1
SMALL
NO_CHARGES


@<TRIPOS>ATOM
      1 ****        -1.4475   1.6240   2.7156 C.3            1 S1                 0.0000
      2 ****        -1.7770   0.5048   1.7717 C.2            1 S1                 0.0000
      3 ****        -2.6228   0.5452   0.6272 C.2            1 S1                 0.0000
      4 ****        -2.7129  -0.6229   0.0126 N.2            1 S1                 0.0000
      5 ****        -1.9206  -1.4451   0.7336 N.pl3          1 S1                 0.0000
      6 ****        -1.7811  -2.8389   0.3505 C.3            1 S1                 0.0000
      7 ****        -1.0442  -3.0467  -0.9924 C.3            1 S1                 0.0000
      8 ****        -1.0963  -4.5202  -1.4193 C.3            1 S1                 0.0000
      9 ****         0.3657  -2.6825  -0.8750 N.3            1 S1                 0.0000
     10 ****         0.6375  -1.3359  -1.3937 C.3            1 S1                 0.0000
     11 ****         2.1181  -0.9592  -1.2447 C.2            1 S1                 0.0000
     12 ****         2.9759  -1.7563  -1.6203 O.2            1 S1                 0.0000
     13 ****         2.4747   0.2278  -0.7216 N.am           1 S1                 0.0000
     14 ****         3.8149   0.7668  -0.4987 C.3            1 S1                 0.0000
     15 ****         4.4948   0.1098   0.7173 C.3            1 S1                 0.0000
     16 ****         5.8282   0.8053   1.0330 C.3            1 S1                 0.0000
     17 ****         5.6095   2.1927   1.2635 O.3            1 S1                 0.0000
     18 ****         5.0862   2.8683   0.1256 C.3            1 S1                 0.0000
     19 ****         3.7179   2.2812  -0.2572 C.3            1 S1                 0.0000
     20 ****        -1.3470  -0.7914   1.8031 C.2            1 S1                 0.0000
     21 ****        -1.5610   2.5996   2.2425 H              1 S1                 0.0000
     22 ****        -0.4204   1.5580   3.0754 H              1 S1                 0.0000
     23 ****        -2.0968   1.6137   3.5914 H              1 S1                 0.0000
     24 ****        -3.1751   1.3839   0.2298 H              1 S1                 0.0000
     25 ****        -1.2685  -3.3720   1.1530 H              1 S1                 0.0000
     26 ****        -2.7838  -3.2650   0.2921 H              1 S1                 0.0000
     27 ****        -1.5302  -2.4659  -1.7788 H              1 S1                 0.0000
     28 ****        -2.1266  -4.8537  -1.5455 H              1 S1                 0.0000
     29 ****        -0.6274  -5.1689  -0.6783 H              1 S1                 0.0000
     30 ****        -0.5851  -4.6745  -2.3705 H              1 S1                 0.0000
     31 ****         0.9203  -3.3678  -1.3683 H              1 S1                 0.0000
     32 ****         0.3908  -1.3007  -2.4556 H              1 S1                 0.0000
     33 ****        -0.0132  -0.6202  -0.9008 H              1 S1                 0.0000
     34 ****         1.7159   0.8381  -0.4550 H              1 S1                 0.0000
     35 ****         4.4228   0.6131  -1.3907 H              1 S1                 0.0000
     36 ****         3.8409   0.1773   1.5878 H              1 S1                 0.0000
     37 ****         4.6695  -0.9517   0.5442 H              1 S1                 0.0000
     38 ****         6.2767   0.3673   1.9246 H              1 S1                 0.0000
     39 ****         6.5405   0.6676   0.2181 H              1 S1                 0.0000
     40 ****         4.9849   3.9276   0.3617 H              1 S1                 0.0000
     41 ****         5.7872   2.7965  -0.7059 H              1 S1                 0.0000
     42 ****         3.3336   2.7825  -1.1462 H              1 S1                 0.0000
     43 ****         3.0081   2.4844   0.5462 H              1 S1                 0.0000
     44 ****        -0.6866  -1.2981   2.4913 H              1 S1                 0.0000
     45 ****        -3.2474  -0.8467  -0.8024 LP             1 S1                 0.0000
     46 ****         0.6088  -2.6714   0.0949 LP             1 S1                 0.0000
     47 ****         2.7043  -2.6339  -2.0154 LP             1 S1                 0.0000
     48 ****         3.9451  -1.5270  -1.5306 LP             1 S1                 0.0000
     49 ****         6.4807   2.6157   1.5128 LP             1 S1                 0.0000
     50 ****         4.9622   2.2923   2.0191 LP             1 S1                 0.0000
@<TRIPOS>BOND
    1    1    2 1     
    2    1   21 1     
    3    1   22 1     
    4    1   23 1     
    5    2   20 2     
    6    2    3 1     
    7    3    4 2     
    8    3   24 1     
    9    4    5 1     
   10    5    6 1     
   11    5   20 1     
   12    6    7 1     
   13    6   25 1     
   14    6   26 1     
   15    7    8 1     
   16    7    9 1     
   17    7   27 1     
   18    8   28 1     
   19    8   29 1     
   20    8   30 1     
   21    9   10 1     
   22    9   31 1     
   23   10   11 1     
   24   10   32 1     
   25   10   33 1     
   26   11   12 2     
   27   11   13 am    
   28   13   14 1     
   29   13   34 1     
   30   14   19 1     
   31   14   15 1     
   32   14   35 1     
   33   15   16 1     
   34   15   36 1     
   35   15   37 1     
   36   16   17 1     
   37   16   38 1     
   38   16   39 1     
   39   17   18 1     
   40   18   19 1     
   41   18   40 1     
   42   18   41 1     
   43   19   42 1     
   44   19   43 1     
   45   20   44 1     
   46    4   45 1     
   47    9   46 1     
   48   12   47 1     
   49   12   48 1     
   50   17   49 1     
   51   17   50 1     
@<TRIPOS>SUBSTRUCTURE
      1 S1             1
@<TRIPOS>SET
LONE_PAIRS      STATIC     ATOMS    <user>   **** ""
6 45 46 47 48 49 50
DONOR_HYDROGENS      STATIC     ATOMS    <user>   **** ""
2 31 34
ATOM$BLUE        STATIC     ATOMS    COLORGROUP SYSTEM
6 45 46 47 48 49 50
ATOM$RED        STATIC     ATOMS    COLORGROUP SYSTEM
2 31 34
