AV-unprocessed.smi:2514|AV-procd|sdf|9895|dock3
  -GOLD-   2272013533D 1   1.00000     0.00000
 Structure written by MMmdl.
 24 25  0  0  0  0  0  0  0  0  1 V2000
  150.6856  138.2714  153.6589 C   0  0  0  0  0  0  0  0  0  0  0  0
  149.9372  139.4697  154.2559 C   0  0  2  0  0  0  0  0  0  0  0  0
  149.8164  140.4872  153.2826 O   0  0  0  0  0  0  0  0  0  0  0  0
  150.6502  140.0682  155.4362 C   0  0  0  0  0  0  0  0  0  0  0  0
  150.2625  141.1132  156.2263 C   0  0  0  0  0  0  0  0  0  0  0  0
  151.2783  141.2084  157.1541 N   0  0  0  0  0  0  0  0  0  0  0  0
  151.4279  142.1868  158.1904 C   0  0  0  0  0  0  0  0  0  0  0  0
  151.6911  143.6587  157.8606 C   0  0  0  0  0  0  0  0  0  0  0  0
  152.5287  143.6920  159.0473 N   0  0  0  0  0  0  0  0  0  0  0  0
  152.7160  142.2514  159.0127 C   0  0  0  0  0  0  0  0  0  0  0  0
  152.2570  140.3039  156.9170 N   0  0  0  0  0  0  0  0  0  0  0  0
  151.8810  139.5954  155.8992 N   0  0  0  0  0  0  0  0  0  0  0  0
  150.7889  137.4717  154.3925 H   0  0  0  0  0  0  0  0  0  0  0  0
  151.6865  138.5510  153.3282 H   0  0  0  0  0  0  0  0  0  0  0  0
  150.1522  137.8648  152.7993 H   0  0  0  0  0  0  0  0  0  0  0  0
  148.9323  139.1582  154.5427 H   0  0  0  0  0  0  0  0  0  0  0  0
  149.5481  140.0908  152.4678 H   0  0  0  0  0  0  0  0  0  0  0  0
  149.3986  141.7609  156.2117 H   0  0  0  0  0  0  0  0  0  0  0  0
  150.5542  142.0814  158.8378 H   0  0  0  0  0  0  0  0  0  0  0  0
  152.2664  143.8231  156.9483 H   0  0  0  0  0  0  0  0  0  0  0  0
  150.8095  144.2973  157.9218 H   0  0  0  0  0  0  0  0  0  0  0  0
  153.3908  144.1963  158.8958 H   0  0  0  0  0  0  0  0  0  0  0  0
  152.6496  141.7710  159.9891 H   0  0  0  0  0  0  0  0  0  0  0  0
  153.6158  141.9668  158.4651 H   0  0  0  0  0  0  0  0  0  0  0  0
  1  2  1  0  0  0  0
  1 13  1  0  0  0  0
  1 14  1  0  0  0  0
  1 15  1  0  0  0  0
  2  3  1  0  0  0  0
  2  4  1  0  0  0  0
  2 16  1  0  0  0  0
  3 17  1  0  0  0  0
  4 12  1  0  0  0  0
  4  5  2  0  0  0  0
  5  6  1  0  0  0  0
  5 18  1  0  0  0  0
  6  7  1  0  0  0  0
  6 11  1  0  0  0  0
  7 10  1  0  0  0  0
  7  8  1  0  0  0  0
  7 19  1  0  0  0  0
  8  9  1  0  0  0  0
  8 20  1  0  0  0  0
  8 21  1  0  0  0  0
  9 10  1  0  0  0  0
  9 22  1  0  0  0  0
 10 23  1  0  0  0  0
 10 24  1  0  0  0  0
 11 12  2  0  0  0  0
M  END
> <s_m_source_file>
AV-unprocessed.smi

> <i_m_source_file_index>
2514

> <i_lp_mmshare_version>
43012

> <i_f3d_flags>
0

> <s_epik_input>
W0NIM11bQ0BIXShbT0hdKWMxW2NIXW4obm4xKVtDSF0yW0NIMl1bTkhdW0NIMl0y

> <s_epik_cmdline>
J2VwaWtfcHl0aG9uJywgJy1waCcsICc3LjAnLCAnLXRuJywgJzgnLCAnLW1hJywgJzIwMCcsICctbWV0YWxfYmluZGluZycsICctaW1hZScsICc8aW5maWxlLm1hZT4nLCAnLW9tYWUnLCAnPG91dGZpbGUubWFlPic=

> <r_lp_tautomer_probability>
1

> <r_epik_Ionization_Penalty>
0.704859

> <r_epik_Ionization_Penalty_Charging>
0

> <r_epik_Ionization_Penalty_Neutral>
0.704859

> <r_epik_State_Penalty>
0.727806

> <r_epik_Charging_Adjusted_Penalty>
0.727806

> <i_epik_Tot_Q>
0

> <i_epik_Tot_abs_Q>
0

> <r_epik_Metal_State_Penalty>
0.727738

> <b_epik_Metal_Only>
0

> <s_lp_Force_Field>
OPLS_2005

> <r_lp_Energy>
11.6004

> <b_lp_Chiralities_Consistent>
1

> <s_lp_Variant>
AV-unprocessed.smi:2514-3

> <Gold.Version>
5.8.1

> <Gold.Id.Protein>
6NUR|6NUR_protein|mol2

> <Gold.PLP.Fitness>
35.5639

> <Gold.PLP.PLP>
-27.8203

> <Gold.PLP.part.hbond>
-2.9040

> <Gold.PLP.part.metal>
0.0000

> <Gold.PLP.part.buried>
-1.1011

> <Gold.PLP.part.nonpolar>
-21.8332

> <Gold.PLP.part.repulsive>
0.0000

> <Gold.PLP.ligand.clash>
0.0000

> <Gold.PLP.ligand.torsion>
0.1348

> <Gold.PLP.Chemscore.Hbond>
1.5894

> <Gold.PLP.Chemscore.CHOScore>
1.0000

> <Gold.PLP.Chemscore.Metal>
0.0000

> <Gold.Chemscore.Hbonds>
donor molecule, donor type, donor heavy atom, donor atom, acceptor molecule, acceptor atom, score
      L1  H     3    17       P1  7957  0.45
      P1  H  7989  7998       L1     3  0.21
      P1  H  7997  8008       L1    11  0.61
      P1  H  8011  8017       L1     3  0.33

> <Gold.PLP.Chemscore.Internal.Correction>
0.2448

> <Gold.Rescore>
     Score         DG    S(hbond)    S(metal)    S(lipo)     H(rot)  DE(clash)    DE(int)     intcor
     11.60     -11.94       1.00        0.00      65.60       1.78       0.21       0.12       ----

> <Gold.Chemscore.Fitness>
11.5996

> <Gold.Chemscore.DG>
-11.9358

> <Gold.Chemscore.ZeroCoef>
-5.4800

> <Gold.Chemscore.Hbond>
1.0008

> <Gold.Chemscore.Metal>
0.0000

> <Gold.Chemscore.Lipo>
65.6039

> <Gold.Chemscore.Internal_Hbond>
0.0000

> <Gold.Chemscore.DEClash>
0.2115

> <Gold.Chemscore.DEInternal>
0.1247

> <Gold.Chemscore.Rot>
1.7823

> <Gold.Chemscore.Internal.Correction>
   9.000000E+99

> <Gold.Chemscore.Hbonds>
donor molecule, donor type, donor heavy atom, donor atom, acceptor molecule, acceptor atom, score
      L1  H     3    17       P1  7957  0.43
      P1  H  7989  7998       L1     3  0.01
      P1  H  7997  8008       L1    11  0.13
      P1  H  8011  8017       L1     3  0.01

> <Gold.Chemscore.Hbond.Weighted>
-3.3428

> <Gold.Chemscore.Metal.Weighted>
-0.0000

> <Gold.Chemscore.Lipo.Weighted>
-7.6757

> <Gold.Chemscore.Internal_Hbond.Weighted>
0.0000

> <Gold.Chemscore.DEClash.Weighted>
0.2115

> <Gold.Chemscore.DEInternal.Weighted>
0.1247

> <Gold.Chemscore.Rot.Weighted>
4.5627

> <Gold.Chemscore.Internal.Correction.Weighted>
   9.000000E+99

> <Gold.Protein.RotatedTorsions>
[ 6907 6896 6895 6894 ] final   81.13 input  -60.11 | X-H torsion
[ 7974 7965 7964 7962 ] final  103.56 input  175.53 | X-H torsion
[ 8008 7997 7996 7995 ] final  -64.98 input   59.86 | X-H torsion
[ 10167 10162 10161 10158 ] final -150.80 input  -65.29 | X-H torsion
[ 10718 10713 10712 10709 ] final   18.48 input   66.30 | X-H torsion
[ 10763 10752 10751 10750 ] final -168.55 input  -60.55 | X-H torsion
[ 11005 11000 10999 10996 ] final   35.38 input  -57.11 | X-H torsion

> <Gold.Protein.ActiveResidues>
 VAL166  LYS551  ARG553  GLY616  TRP617  ASP618  TYR619  PRO620  LYS621  CYS622 
 ASP623  PHE694  ASN695  SER759  ASP760  ASP761  ALA762  ILE779  LEU786  VAL792 
 PHE793  MET794  SER795  GLU796  ALA797  LYS798  CYS799  TRP800  GLU811  SER814 

> <Gold.Protein.RotatedAtoms>
  152.5258  134.3252  159.9162 H   0  0  0  0  0  0  0  0  0  0  0  0  # atno 6907 bound_to 6896
  151.3201  133.4037  159.2661 H   0  0  0  0  0  0  0  0  0  0  0  0  # atno 6908 bound_to 6896
  150.9966  134.9305  159.7987 H   0  0  0  0  0  0  0  0  0  0  0  0  # atno 6909 bound_to 6896
  145.3443  139.2454  143.3592 H   0  0  0  0  0  0  0  0  0  0  0  0  # atno 7974 bound_to 7965
  154.4644  140.0942  156.6980 H   0  0  0  0  0  0  0  0  0  0  0  0  # atno 8008 bound_to 7997
  155.4901  140.3470  155.4335 H   0  0  0  0  0  0  0  0  0  0  0  0  # atno 8009 bound_to 7997
  156.0929  140.1402  156.9557 H   0  0  0  0  0  0  0  0  0  0  0  0  # atno 8010 bound_to 7997
  139.7322  143.8790  152.2538 H   0  0  0  0  0  0  0  0  0  0  0  0  # atno 10167 bound_to 10162
  157.0969  130.6451  149.5862 H   0  0  0  0  0  0  0  0  0  0  0  0  # atno 10718 bound_to 10713
  154.6616  135.2926  154.9859 H   0  0  0  0  0  0  0  0  0  0  0  0  # atno 10763 bound_to 10752
  154.0916  135.6590  153.4857 H   0  0  0  0  0  0  0  0  0  0  0  0  # atno 10764 bound_to 10752
  153.0433  135.5221  154.7570 H   0  0  0  0  0  0  0  0  0  0  0  0  # atno 10765 bound_to 10752
  140.2433  134.3389  155.7917 H   0  0  0  0  0  0  0  0  0  0  0  0  # atno 11005 bound_to 11000
  146.2994  140.4047  142.8709 LP  0  0  0  0  0  0  0  0  0  0  0  0  # atno 17320 bound_to 7965
  144.8766  140.7344  143.6013 LP  0  0  0  0  0  0  0  0  0  0  0  0  # atno 17321 bound_to 7965
  139.8717  144.7065  150.8980 LP  0  0  0  0  0  0  0  0  0  0  0  0  # atno 17342 bound_to 10162
  140.7773  143.3733  151.1609 LP  0  0  0  0  0  0  0  0  0  0  0  0  # atno 17343 bound_to 10162
  155.9883  130.4926  150.7166 LP  0  0  0  0  0  0  0  0  0  0  0  0  # atno 17370 bound_to 10713
  157.4674  131.0889  151.0680 LP  0  0  0  0  0  0  0  0  0  0  0  0  # atno 17371 bound_to 10713
  141.2208  133.7311  156.8920 LP  0  0  0  0  0  0  0  0  0  0  0  0  # atno 17394 bound_to 11000
  140.1632  134.9151  157.2740 LP  0  0  0  0  0  0  0  0  0  0  0  0  # atno 17395 bound_to 11000

$$$$
