AV-unprocessed.smi:1487|AV-procd|sdf|6019|dock5
  -GOLD-   22720 6123D 1   1.00000     0.00000
 Structure written by MMmdl.
 49 51  0  0  0  0  0  0  0  0  3 V2000
  145.1475  130.0009  151.6760 C   0  0  0  0  0  0  0  0  0  0  0  0
  145.2101  131.5088  151.8519 C   0  0  0  0  0  0  0  0  0  0  0  0
  144.2668  132.3075  151.1670 C   0  0  0  0  0  0  0  0  0  0  0  0
  144.3492  133.6827  151.3486 C   0  0  0  0  0  0  0  0  0  0  0  0
  143.5795  134.7214  150.8210 N   0  3  0  0  0  0  0  0  0  0  0  0
  144.0420  135.9134  151.2891 C   0  0  0  0  0  0  0  0  0  0  0  0
  145.0973  135.6522  152.1078 N   0  0  0  0  0  0  0  0  0  0  0  0
  145.9448  136.5816  152.8699 C   0  0  0  0  0  0  0  0  0  0  0  0
  145.9311  138.0129  152.2983 C   0  0  2  0  0  0  0  0  0  0  0  0
  146.4519  138.0034  150.9834 O   0  0  0  0  0  0  0  0  0  0  0  0
  146.7782  138.9755  153.1539 C   0  0  0  0  0  0  0  0  0  0  0  0
  148.0422  138.3540  153.6254 N   0  3  1  0  0  0  0  0  0  0  0  0
  149.1843  139.3051  153.6711 C   0  0  0  0  0  0  0  0  0  0  0  0
  150.4962  138.5754  153.9988 C   0  0  0  0  0  0  0  0  0  0  0  0
  150.3825  137.8083  155.3237 C   0  0  0  0  0  0  0  0  0  0  0  0
  149.1561  136.8804  155.3202 C   0  0  2  0  0  0  0  0  0  0  0  0
  149.3634  135.7896  154.4446 O   0  0  0  0  0  0  0  0  0  0  0  0
  147.8729  137.6319  154.9140 C   0  0  0  0  0  0  0  0  0  0  0  0
  145.3250  134.2717  152.1763 C   0  0  0  0  0  0  0  0  0  0  0  0
  146.2630  133.4986  152.8570 C   0  0  0  0  0  0  0  0  0  0  0  0
  146.1950  132.0972  152.6868 C   0  0  0  0  0  0  0  0  0  0  0  0
  147.2049  131.2293  153.4184 C   0  0  0  0  0  0  0  0  0  0  0  0
  144.3758  129.7141  150.9611 H   0  0  0  0  0  0  0  0  0  0  0  0
  144.9206  129.5153  152.6254 H   0  0  0  0  0  0  0  0  0  0  0  0
  146.0993  129.6167  151.3084 H   0  0  0  0  0  0  0  0  0  0  0  0
  143.5139  131.8667  150.5296 H   0  0  0  0  0  0  0  0  0  0  0  0
  143.6417  136.8893  151.0536 H   0  0  0  0  0  0  0  0  0  0  0  0
  145.5673  136.5900  153.8933 H   0  0  0  0  0  0  0  0  0  0  0  0
  146.9587  136.1844  152.9250 H   0  0  0  0  0  0  0  0  0  0  0  0
  144.8975  138.3540  152.2492 H   0  0  0  0  0  0  0  0  0  0  0  0
  145.7399  138.1417  150.3770 H   0  0  0  0  0  0  0  0  0  0  0  0
  147.0117  139.8834  152.5956 H   0  0  0  0  0  0  0  0  0  0  0  0
  146.1778  139.2936  154.0080 H   0  0  0  0  0  0  0  0  0  0  0  0
  149.2944  139.8150  152.7146 H   0  0  0  0  0  0  0  0  0  0  0  0
  148.9879  140.0770  154.4170 H   0  0  0  0  0  0  0  0  0  0  0  0
  150.7441  137.8856  153.1911 H   0  0  0  0  0  0  0  0  0  0  0  0
  151.3168  139.2911  154.0544 H   0  0  0  0  0  0  0  0  0  0  0  0
  151.2943  137.2418  155.5169 H   0  0  0  0  0  0  0  0  0  0  0  0
  150.2870  138.5234  156.1420 H   0  0  0  0  0  0  0  0  0  0  0  0
  149.0222  136.4626  156.3185 H   0  0  0  0  0  0  0  0  0  0  0  0
  149.2061  136.0794  153.5583 H   0  0  0  0  0  0  0  0  0  0  0  0
  147.6049  138.3506  155.6900 H   0  0  0  0  0  0  0  0  0  0  0  0
  147.0448  136.9251  154.8421 H   0  0  0  0  0  0  0  0  0  0  0  0
  147.0179  133.9427  153.4887 H   0  0  0  0  0  0  0  0  0  0  0  0
  147.8557  131.8264  154.0581 H   0  0  0  0  0  0  0  0  0  0  0  0
  147.8352  130.6952  152.7070 H   0  0  0  0  0  0  0  0  0  0  0  0
  146.6986  130.4991  154.0503 H   0  0  0  0  0  0  0  0  0  0  0  0
  148.2753  137.6443  152.9448 H   0  0  0  0  0  0  0  0  0  0  0  0
  142.7943  134.6256  150.1893 H   0  0  0  0  0  0  0  0  0  0  0  0
  1  2  1  0  0  0  0
  1 23  1  0  0  0  0
  1 24  1  0  0  0  0
  1 25  1  0  0  0  0
  2 21  1  0  0  0  0
  2  3  2  0  0  0  0
  3  4  1  0  0  0  0
  3 26  1  0  0  0  0
  4 19  2  0  0  0  0
  4  5  1  0  0  0  0
  5  6  2  0  0  0  0
  5 49  1  0  0  0  0
  6  7  1  0  0  0  0
  6 27  1  0  0  0  0
  7  8  1  0  0  0  0
  7 19  1  0  0  0  0
  8  9  1  0  0  0  0
  8 28  1  0  0  0  0
  8 29  1  0  0  0  0
  9 10  1  0  0  0  0
  9 11  1  0  0  0  0
  9 30  1  0  0  0  0
 10 31  1  0  0  0  0
 11 12  1  0  0  0  0
 11 32  1  0  0  0  0
 11 33  1  0  0  0  0
 12 18  1  0  0  0  0
 12 13  1  0  0  0  0
 12 48  1  0  0  0  0
 13 14  1  0  0  0  0
 13 34  1  0  0  0  0
 13 35  1  0  0  0  0
 14 15  1  0  0  0  0
 14 36  1  0  0  0  0
 14 37  1  0  0  0  0
 15 16  1  0  0  0  0
 15 38  1  0  0  0  0
 15 39  1  0  0  0  0
 16 17  1  0  0  0  0
 16 18  1  0  0  0  0
 16 40  1  0  0  0  0
 17 41  1  0  0  0  0
 18 42  1  0  0  0  0
 18 43  1  0  0  0  0
 19 20  1  0  0  0  0
 20 21  2  0  0  0  0
 20 44  1  0  0  0  0
 21 22  1  0  0  0  0
 22 45  1  0  0  0  0
 22 46  1  0  0  0  0
 22 47  1  0  0  0  0
M  CHG  1   5   1
M  CHG  1  12   1
M  END
> <s_m_source_file>
AV-unprocessed.smi

> <i_m_source_file_index>
1487

> <i_lp_mmshare_version>
43012

> <i_f3d_flags>
0

> <s_epik_input>
W0NIM11jKFtjSF0xKWMoW0NIM10pW2NIXWMoYzEyKW4oW2NIXW4yKVtDSDJdW0NASF0oW09IXSlbQ0gyXU4zW0NIMl1bQ0gyXVtDSDJdW0NAQEhdKFtPSF0pW0NIMl0z

> <s_epik_cmdline>
J2VwaWtfcHl0aG9uJywgJy1waCcsICc3LjAnLCAnLXRuJywgJzgnLCAnLW1hJywgJzIwMCcsICctbWV0YWxfYmluZGluZycsICctaW1hZScsICc8aW5maWxlLm1hZT4nLCAnLW9tYWUnLCAnPG91dGZpbGUubWFlPic=

> <r_epik_Ionization_Penalty>
1.1857

> <r_epik_Ionization_Penalty_Charging>
1.1857

> <r_epik_Ionization_Penalty_Neutral>
1.75578e-06

> <r_epik_State_Penalty>
1.26953

> <r_epik_Charging_Adjusted_Penalty>
2.45524

> <i_epik_Tot_Q>
2

> <i_epik_Tot_abs_Q>
2

> <r_epik_Metal_State_Penalty>
5.28243

> <b_epik_Metal_Only>
0

> <s_lp_Force_Field>
OPLS_2005

> <r_lp_Energy>
30.6325

> <b_lp_Chiralities_Consistent>
1

> <s_lp_Variant>
AV-unprocessed.smi:1487-13

> <Gold.Version>
5.8.1

> <Gold.Id.Protein>
6NUR|6NUR_protein|mol2

> <Gold.PLP.Fitness>
57.9279

> <Gold.PLP.PLP>
-35.7680

> <Gold.PLP.part.hbond>
-5.7026

> <Gold.PLP.part.metal>
0.0000

> <Gold.PLP.part.buried>
-2.1114

> <Gold.PLP.part.nonpolar>
-28.2561

> <Gold.PLP.part.repulsive>
0.0349

> <Gold.PLP.ligand.clash>
0.0049

> <Gold.PLP.ligand.torsion>
0.9202

> <Gold.PLP.Chemscore.Hbond>
6.9913

> <Gold.PLP.Chemscore.CHOScore>
1.0000

> <Gold.PLP.Chemscore.Metal>
0.0000

> <Gold.Chemscore.Hbonds>
donor molecule, donor type, donor heavy atom, donor atom, acceptor molecule, acceptor atom, score
      L1  H     5    49       P1 10186  2.00
      L1  H    10    31       P1 10171  1.00
      L1  H    12    48       P1  7948  2.00
      L1  H    17    41       P1  7948  1.00
      P1  H  7954  7966       L1    10  0.99
      L1  C     6    27       P1 10171  1.00

> <Gold.PLP.Chemscore.Internal.Correction>
0.0315

> <Gold.Rescore>
     Score         DG    S(hbond)    S(metal)    S(lipo)     H(rot)  DE(clash)    DE(int)     intcor
     21.59     -24.20       4.42        0.00      93.73       2.74       1.60       1.01       ----

> <Gold.Chemscore.Fitness>
21.5905

> <Gold.Chemscore.DG>
-24.1990

> <Gold.Chemscore.ZeroCoef>
-5.4800

> <Gold.Chemscore.Hbond>
4.4201

> <Gold.Chemscore.Metal>
0.0000

> <Gold.Chemscore.Lipo>
93.7279

> <Gold.Chemscore.Internal_Hbond>
0.0000

> <Gold.Chemscore.DEClash>
1.6009

> <Gold.Chemscore.DEInternal>
1.0075

> <Gold.Chemscore.Rot>
2.7384

> <Gold.Chemscore.Internal.Correction>
   9.000000E+99

> <Gold.Chemscore.Hbonds>
donor molecule, donor type, donor heavy atom, donor atom, acceptor molecule, acceptor atom, score
      L1  H     5    49       P1 10186  0.60
      L1  H    10    31       P1 10171  0.96
      L1  H    12    48       P1  7948  1.00
      L1  H    17    41       P1  7948  0.85
      P1  H  7954  7966       L1    10  0.55

> <Gold.Chemscore.Hbond.Weighted>
-14.7632

> <Gold.Chemscore.Metal.Weighted>
-0.0000

> <Gold.Chemscore.Lipo.Weighted>
-10.9662

> <Gold.Chemscore.Internal_Hbond.Weighted>
0.0000

> <Gold.Chemscore.DEClash.Weighted>
1.6009

> <Gold.Chemscore.DEInternal.Weighted>
1.0075

> <Gold.Chemscore.Rot.Weighted>
7.0103

> <Gold.Chemscore.Internal.Correction.Weighted>
   9.000000E+99

> <Gold.Protein.RotatedTorsions>
[ 6907 6896 6895 6894 ] final   97.60 input  -60.11 | X-H torsion
[ 7974 7965 7964 7962 ] final  -55.12 input  175.53 | X-H torsion
[ 8008 7997 7996 7995 ] final   25.42 input   59.86 | X-H torsion
[ 10167 10162 10161 10158 ] final  -34.63 input  -65.29 | X-H torsion
[ 10718 10713 10712 10709 ] final  140.95 input   66.30 | X-H torsion
[ 10763 10752 10751 10750 ] final  154.22 input  -60.55 | X-H torsion
[ 11005 11000 10999 10996 ] final  -48.07 input  -57.11 | X-H torsion

> <Gold.Protein.ActiveResidues>
 VAL166  LYS551  ARG553  GLY616  TRP617  ASP618  TYR619  PRO620  LYS621  CYS622 
 ASP623  PHE694  ASN695  SER759  ASP760  ASP761  ALA762  ILE779  LEU786  VAL792 
 PHE793  MET794  SER795  GLU796  ALA797  LYS798  CYS799  TRP800  GLU811  SER814 

> <Gold.Protein.RotatedAtoms>
  152.5421  134.0708  159.8192 H   0  0  0  0  0  0  0  0  0  0  0  0  # atno 6907 bound_to 6896
  151.0823  133.5373  159.2627 H   0  0  0  0  0  0  0  0  0  0  0  0  # atno 6908 bound_to 6896
  151.2196  135.0521  159.8998 H   0  0  0  0  0  0  0  0  0  0  0  0  # atno 6909 bound_to 6896
  145.8778  140.8167  142.9855 H   0  0  0  0  0  0  0  0  0  0  0  0  # atno 7974 bound_to 7965
  155.0115  140.3137  155.4828 H   0  0  0  0  0  0  0  0  0  0  0  0  # atno 8008 bound_to 7997
  156.2908  140.2214  156.5171 H   0  0  0  0  0  0  0  0  0  0  0  0  # atno 8009 bound_to 7997
  154.7531  140.0464  157.0898 H   0  0  0  0  0  0  0  0  0  0  0  0  # atno 8010 bound_to 7997
  140.7182  143.3534  151.2109 H   0  0  0  0  0  0  0  0  0  0  0  0  # atno 10167 bound_to 10162
  157.3976  131.1012  151.0584 H   0  0  0  0  0  0  0  0  0  0  0  0  # atno 10718 bound_to 10713
  154.1489  135.2816  155.3141 H   0  0  0  0  0  0  0  0  0  0  0  0  # atno 10763 bound_to 10752
  154.6232  135.5460  153.7602 H   0  0  0  0  0  0  0  0  0  0  0  0  # atno 10764 bound_to 10752
  153.0227  135.6444  154.1633 H   0  0  0  0  0  0  0  0  0  0  0  0  # atno 10765 bound_to 10752
  141.0678  133.6688  156.3388 H   0  0  0  0  0  0  0  0  0  0  0  0  # atno 11005 bound_to 11000
  144.6726  140.1338  143.7442 LP  0  0  0  0  0  0  0  0  0  0  0  0  # atno 17320 bound_to 7965
  145.9059  139.2458  143.1466 LP  0  0  0  0  0  0  0  0  0  0  0  0  # atno 17321 bound_to 7965
  139.7070  143.9439  152.2931 LP  0  0  0  0  0  0  0  0  0  0  0  0  # atno 17342 bound_to 10162
  139.9151  144.6833  150.8521 LP  0  0  0  0  0  0  0  0  0  0  0  0  # atno 17343 bound_to 10162
  157.1595  130.6219  149.5606 LP  0  0  0  0  0  0  0  0  0  0  0  0  # atno 17370 bound_to 10713
  155.9814  130.4822  150.6828 LP  0  0  0  0  0  0  0  0  0  0  0  0  # atno 17371 bound_to 10713
  140.5736  134.5816  157.5463 LP  0  0  0  0  0  0  0  0  0  0  0  0  # atno 17394 bound_to 11000
  139.9494  134.7644  156.0485 LP  0  0  0  0  0  0  0  0  0  0  0  0  # atno 17395 bound_to 11000

$$$$
