AV-unprocessed.smi:3172|AV-procd|sdf|12113|dock3
  -GOLD-   2272017553D 1   1.00000     0.00000
 Structure written by MMmdl.
 44 45  0  0  0  0  0  0  0  0  3 V2000
  150.5927  135.5395  155.7886 C   0  0  0  0  0  0  0  0  0  0  0  0
  150.7370  136.9910  155.4750 C   0  0  0  0  0  0  0  0  0  0  0  0
  150.3808  137.5129  154.2599 N   0  3  0  0  0  0  0  0  0  0  0  0
  150.6062  138.8269  154.2298 C   0  0  0  0  0  0  0  0  0  0  0  0
  151.1181  139.1602  155.4205 N   0  0  0  0  0  0  0  0  0  0  0  0
  151.4918  140.5481  155.7382 C   0  0  0  0  0  0  0  0  0  0  0  0
  150.2709  141.4497  156.0097 C   0  0  2  0  0  0  0  0  0  0  0  0
  149.3339  141.4905  154.7936 C   0  0  0  0  0  0  0  0  0  0  0  0
  150.7085  142.8201  156.3651 N   0  3  0  0  0  0  0  0  0  0  0  0
  150.9792  143.0558  157.8008 C   0  0  0  0  0  0  0  0  0  0  0  0
  151.5231  144.4831  158.0011 C   0  0  0  0  0  0  0  0  0  0  0  0
  151.8548  144.7590  159.4767 C   0  0  0  0  0  0  0  0  0  0  0  0
  152.8452  143.7215  160.0272 C   0  0  0  0  0  0  0  0  0  0  0  0
  152.3169  142.2925  159.8292 C   0  0  0  0  0  0  0  0  0  0  0  0
  151.9826  142.0198  158.3538 C   0  0  0  0  0  0  0  0  0  0  0  0
  151.2048  138.0448  156.2263 C   0  0  0  0  0  0  0  0  0  0  0  0
  151.7247  138.0731  157.6280 C   0  0  0  0  0  0  0  0  0  0  0  0
  150.3247  135.4015  156.8362 H   0  0  0  0  0  0  0  0  0  0  0  0
  151.5320  135.0199  155.5984 H   0  0  0  0  0  0  0  0  0  0  0  0
  149.8136  135.0887  155.1731 H   0  0  0  0  0  0  0  0  0  0  0  0
  150.4129  139.4865  153.4024 H   0  0  0  0  0  0  0  0  0  0  0  0
  152.1639  140.5411  156.5981 H   0  0  0  0  0  0  0  0  0  0  0  0
  152.0720  140.9304  154.8979 H   0  0  0  0  0  0  0  0  0  0  0  0
  149.7142  141.0208  156.8417 H   0  0  0  0  0  0  0  0  0  0  0  0
  148.9915  140.4894  154.5299 H   0  0  0  0  0  0  0  0  0  0  0  0
  149.8339  141.9101  153.9199 H   0  0  0  0  0  0  0  0  0  0  0  0
  148.4484  142.0951  154.9919 H   0  0  0  0  0  0  0  0  0  0  0  0
  151.5568  143.0335  155.8607 H   0  0  0  0  0  0  0  0  0  0  0  0
  150.0400  142.9748  158.3504 H   0  0  0  0  0  0  0  0  0  0  0  0
  152.4197  144.6278  157.3964 H   0  0  0  0  0  0  0  0  0  0  0  0
  150.7932  145.2138  157.6501 H   0  0  0  0  0  0  0  0  0  0  0  0
  152.2702  145.7616  159.5840 H   0  0  0  0  0  0  0  0  0  0  0  0
  150.9385  144.7398  160.0681 H   0  0  0  0  0  0  0  0  0  0  0  0
  153.8069  143.8298  159.5235 H   0  0  0  0  0  0  0  0  0  0  0  0
  153.0288  143.9068  161.0861 H   0  0  0  0  0  0  0  0  0  0  0  0
  153.0548  141.5720  160.1832 H   0  0  0  0  0  0  0  0  0  0  0  0
  151.4245  142.1454  160.4391 H   0  0  0  0  0  0  0  0  0  0  0  0
  151.5869  141.0086  158.2623 H   0  0  0  0  0  0  0  0  0  0  0  0
  152.9007  142.0425  157.7647 H   0  0  0  0  0  0  0  0  0  0  0  0
  151.3363  137.2258  158.1929 H   0  0  0  0  0  0  0  0  0  0  0  0
  151.4222  138.9860  158.1408 H   0  0  0  0  0  0  0  0  0  0  0  0
  152.8127  138.0131  157.6278 H   0  0  0  0  0  0  0  0  0  0  0  0
  149.9884  143.4608  156.0621 H   0  0  0  0  0  0  0  0  0  0  0  0
  149.9929  136.9783  153.4923 H   0  0  0  0  0  0  0  0  0  0  0  0
  1  2  1  0  0  0  0
  1 18  1  0  0  0  0
  1 19  1  0  0  0  0
  1 20  1  0  0  0  0
  2 16  2  0  0  0  0
  2  3  1  0  0  0  0
  3  4  2  0  0  0  0
  3 44  1  0  0  0  0
  4  5  1  0  0  0  0
  4 21  1  0  0  0  0
  5  6  1  0  0  0  0
  5 16  1  0  0  0  0
  6  7  1  0  0  0  0
  6 22  1  0  0  0  0
  6 23  1  0  0  0  0
  7  8  1  0  0  0  0
  7  9  1  0  0  0  0
  7 24  1  0  0  0  0
  8 25  1  0  0  0  0
  8 26  1  0  0  0  0
  8 27  1  0  0  0  0
  9 10  1  0  0  0  0
  9 28  1  0  0  0  0
  9 43  1  0  0  0  0
 10 15  1  0  0  0  0
 10 11  1  0  0  0  0
 10 29  1  0  0  0  0
 11 12  1  0  0  0  0
 11 30  1  0  0  0  0
 11 31  1  0  0  0  0
 12 13  1  0  0  0  0
 12 32  1  0  0  0  0
 12 33  1  0  0  0  0
 13 14  1  0  0  0  0
 13 34  1  0  0  0  0
 13 35  1  0  0  0  0
 14 15  1  0  0  0  0
 14 36  1  0  0  0  0
 14 37  1  0  0  0  0
 15 38  1  0  0  0  0
 15 39  1  0  0  0  0
 16 17  1  0  0  0  0
 17 40  1  0  0  0  0
 17 41  1  0  0  0  0
 17 42  1  0  0  0  0
M  CHG  1   3   1
M  CHG  1   9   1
M  END
> <s_m_source_file>
AV-unprocessed.smi

> <i_m_source_file_index>
3172

> <i_lp_mmshare_version>
43012

> <i_f3d_flags>
0

> <s_epik_input>
W0NIM11jMW5bY0hdbihjMVtDSDNdKVtDSDJdW0NASF0oW0NIM10pW05IXVtDSF0yW0NIMl1bQ0gyXVtDSDJdW0NIMl1bQ0gyXTI=

> <s_epik_cmdline>
J2VwaWtfcHl0aG9uJywgJy1waCcsICc3LjAnLCAnLXRuJywgJzgnLCAnLW1hJywgJzIwMCcsICctbWV0YWxfYmluZGluZycsICctaW1hZScsICc8aW5maWxlLm1hZT4nLCAnLW9tYWUnLCAnPG91dGZpbGUubWFlPic=

> <r_lp_tautomer_probability>
1

> <r_epik_Ionization_Penalty>
0.509043

> <r_epik_Ionization_Penalty_Charging>
0.00159961

> <r_epik_Ionization_Penalty_Neutral>
0.507444

> <r_epik_State_Penalty>
0.272352

> <r_epik_Charging_Adjusted_Penalty>
0.273952

> <i_epik_Tot_Q>
2

> <i_epik_Tot_abs_Q>
2

> <r_epik_Metal_State_Penalty>
3.76994

> <b_epik_Metal_Only>
0

> <s_lp_Force_Field>
OPLS_2005

> <r_lp_Energy>
25.5447

> <b_lp_Chiralities_Consistent>
1

> <s_lp_Variant>
AV-unprocessed.smi:3172-1

> <Gold.Version>
5.8.1

> <Gold.Id.Protein>
6NUR|6NUR_protein|mol2

> <Gold.PLP.Fitness>
54.8560

> <Gold.PLP.PLP>
-40.9886

> <Gold.PLP.part.hbond>
-2.7453

> <Gold.PLP.part.metal>
0.0000

> <Gold.PLP.part.buried>
-3.4382

> <Gold.PLP.part.nonpolar>
-34.2962

> <Gold.PLP.part.repulsive>
0.1581

> <Gold.PLP.ligand.clash>
0.0000

> <Gold.PLP.ligand.torsion>
0.5733

> <Gold.PLP.Chemscore.Hbond>
4.0000

> <Gold.PLP.Chemscore.CHOScore>
1.0000

> <Gold.PLP.Chemscore.Metal>
0.0000

> <Gold.Chemscore.Hbonds>
donor molecule, donor type, donor heavy atom, donor atom, acceptor molecule, acceptor atom, score
      L1  H     3    44       P1  7948  2.00
      L1  H     9    43       P1  8028  2.00
      L1  C     4    21       P1  7957  1.00

> <Gold.PLP.Chemscore.Internal.Correction>
0.0141

> <Gold.Rescore>
     Score         DG    S(hbond)    S(metal)    S(lipo)     H(rot)  DE(clash)    DE(int)     intcor
     18.47     -20.69       1.96        0.00     108.09       1.56       0.54       1.68       ----

> <Gold.Chemscore.Fitness>
18.4675

> <Gold.Chemscore.DG>
-20.6895

> <Gold.Chemscore.ZeroCoef>
-5.4800

> <Gold.Chemscore.Hbond>
1.9604

> <Gold.Chemscore.Metal>
0.0000

> <Gold.Chemscore.Lipo>
108.0949

> <Gold.Chemscore.Internal_Hbond>
0.0000

> <Gold.Chemscore.DEClash>
0.5429

> <Gold.Chemscore.DEInternal>
1.6791

> <Gold.Chemscore.Rot>
1.5567

> <Gold.Chemscore.Internal.Correction>
   9.000000E+99

> <Gold.Chemscore.Hbonds>
donor molecule, donor type, donor heavy atom, donor atom, acceptor molecule, acceptor atom, score
      L1  H     3    44       P1  7948  0.24
      L1  H     9    43       P1  8028  1.00

> <Gold.Chemscore.Hbond.Weighted>
-6.5476

> <Gold.Chemscore.Metal.Weighted>
-0.0000

> <Gold.Chemscore.Lipo.Weighted>
-12.6471

> <Gold.Chemscore.Internal_Hbond.Weighted>
0.0000

> <Gold.Chemscore.DEClash.Weighted>
0.5429

> <Gold.Chemscore.DEInternal.Weighted>
1.6791

> <Gold.Chemscore.Rot.Weighted>
3.9852

> <Gold.Chemscore.Internal.Correction.Weighted>
   9.000000E+99

> <Gold.Protein.RotatedTorsions>
[ 6907 6896 6895 6894 ] final -176.75 input  -60.11 | X-H torsion
[ 7974 7965 7964 7962 ] final   74.68 input  175.53 | X-H torsion
[ 8008 7997 7996 7995 ] final   78.89 input   59.86 | X-H torsion
[ 10167 10162 10161 10158 ] final  162.31 input  -65.29 | X-H torsion
[ 10718 10713 10712 10709 ] final  -69.41 input   66.30 | X-H torsion
[ 10763 10752 10751 10750 ] final -131.30 input  -60.55 | X-H torsion
[ 11005 11000 10999 10996 ] final  -36.86 input  -57.11 | X-H torsion

> <Gold.Protein.ActiveResidues>
 VAL166  LYS551  ARG553  GLY616  TRP617  ASP618  TYR619  PRO620  LYS621  CYS622 
 ASP623  PHE694  ASN695  SER759  ASP760  ASP761  ALA762  ILE779  LEU786  VAL792 
 PHE793  MET794  SER795  GLU796  ALA797  LYS798  CYS799  TRP800  GLU811  SER814 

> <Gold.Protein.RotatedAtoms>
  151.6098  133.3348  159.3064 H   0  0  0  0  0  0  0  0  0  0  0  0  # atno 6907 bound_to 6896
  150.8163  134.7349  159.6744 H   0  0  0  0  0  0  0  0  0  0  0  0  # atno 6908 bound_to 6896
  152.4258  134.5876  160.0016 H   0  0  0  0  0  0  0  0  0  0  0  0  # atno 6909 bound_to 6896
  145.7252  139.2663  143.1573 H   0  0  0  0  0  0  0  0  0  0  0  0  # atno 7974 bound_to 7965
  155.8621  140.3453  155.5763 H   0  0  0  0  0  0  0  0  0  0  0  0  # atno 8008 bound_to 7997
  155.7922  140.0873  157.2022 H   0  0  0  0  0  0  0  0  0  0  0  0  # atno 8009 bound_to 7997
  154.4012  140.1481  156.3163 H   0  0  0  0  0  0  0  0  0  0  0  0  # atno 8010 bound_to 7997
  139.4859  144.4451  151.8903 H   0  0  0  0  0  0  0  0  0  0  0  0  # atno 10167 bound_to 10162
  156.0457  130.4312  150.2144 H   0  0  0  0  0  0  0  0  0  0  0  0  # atno 10718 bound_to 10713
  154.8751  135.3834  154.4225 H   0  0  0  0  0  0  0  0  0  0  0  0  # atno 10763 bound_to 10752
  153.4927  135.7030  153.5880 H   0  0  0  0  0  0  0  0  0  0  0  0  # atno 10764 bound_to 10752
  153.4247  135.3893  155.2100 H   0  0  0  0  0  0  0  0  0  0  0  0  # atno 10765 bound_to 10752
  140.9907  133.7006  156.1845 H   0  0  0  0  0  0  0  0  0  0  0  0  # atno 11005 bound_to 11000
  146.0589  140.7992  142.9745 LP  0  0  0  0  0  0  0  0  0  0  0  0  # atno 17320 bound_to 7965
  144.6906  140.3166  143.7239 LP  0  0  0  0  0  0  0  0  0  0  0  0  # atno 17321 bound_to 7965
  140.3904  144.2622  150.5900 LP  0  0  0  0  0  0  0  0  0  0  0  0  # atno 17342 bound_to 10162
  140.5151  143.2280  151.8476 LP  0  0  0  0  0  0  0  0  0  0  0  0  # atno 17343 bound_to 10162
  157.0234  130.9986  151.3333 LP  0  0  0  0  0  0  0  0  0  0  0  0  # atno 17370 bound_to 10713
  157.5328  130.8070  149.7937 LP  0  0  0  0  0  0  0  0  0  0  0  0  # atno 17371 bound_to 10713
  140.7044  134.4529  157.5585 LP  0  0  0  0  0  0  0  0  0  0  0  0  # atno 17394 bound_to 11000
  139.8991  134.8599  156.1974 LP  0  0  0  0  0  0  0  0  0  0  0  0  # atno 17395 bound_to 11000

$$$$
