AV-unprocessed.smi:1535|AV-procd|sdf|6171|dock4
  -GOLD-   22720 6323D 1   1.00000     0.00000
 Structure written by MMmdl.
 46 47  0  0  0  0  0  0  0  0  1 V2000
  153.4119  143.0973  161.1149 C   0  0  0  0  0  0  0  0  0  0  0  0
  152.7409  142.7005  159.8115 C   0  0  0  0  0  0  0  0  0  0  0  0
  153.0431  141.4448  159.2381 C   0  0  0  0  0  0  0  0  0  0  0  0
  152.4418  141.0381  158.0270 C   0  0  0  0  0  0  0  0  0  0  0  0
  152.5889  139.8702  157.2984 N   0  0  0  0  0  0  0  0  0  0  0  0
  151.7687  140.0885  156.2745 C   0  0  0  0  0  0  0  0  0  0  0  0
  151.1073  141.2618  156.2528 N   0  0  0  0  0  0  0  0  0  0  0  0
  150.1629  141.7191  155.2487 C   0  0  0  0  0  0  0  0  0  0  0  0
  149.2901  140.5778  154.6921 C   0  0  1  0  0  0  0  0  0  0  0  0
  150.0708  139.7764  153.8258 O   0  0  0  0  0  0  0  0  0  0  0  0
  148.7394  139.6860  155.8245 C   0  0  0  0  0  0  0  0  0  0  0  0
  147.5003  140.1537  156.4574 N   0  0  0  0  0  0  0  0  0  0  0  0
  146.3255  139.5398  155.8442 C   0  0  0  0  0  0  0  0  0  0  0  0
  147.3758  141.6123  156.4039 C   0  0  0  0  0  0  0  0  0  0  0  0
  146.0537  142.1926  156.9453 C   0  0  2  0  0  0  0  0  0  0  0  0
  145.7138  143.5507  156.3145 C   0  0  0  0  0  0  0  0  0  0  0  0
  146.1093  142.3088  158.4111 C   0  0  0  0  0  0  0  0  0  0  0  0
  146.1527  142.4000  159.5636 N   0  0  0  0  0  0  0  0  0  0  0  0
  151.5210  141.9283  157.4010 C   0  0  0  0  0  0  0  0  0  0  0  0
  151.2115  143.1799  157.9621 C   0  0  0  0  0  0  0  0  0  0  0  0
  151.8237  143.5721  159.1710 C   0  0  0  0  0  0  0  0  0  0  0  0
  151.4863  144.9275  159.7664 C   0  0  0  0  0  0  0  0  0  0  0  0
  154.0461  142.2966  161.4963 H   0  0  0  0  0  0  0  0  0  0  0  0
  152.6659  143.3232  161.8769 H   0  0  0  0  0  0  0  0  0  0  0  0
  154.0365  143.9788  160.9687 H   0  0  0  0  0  0  0  0  0  0  0  0
  153.7423  140.7810  159.7248 H   0  0  0  0  0  0  0  0  0  0  0  0
  151.6423  139.3530  155.4933 H   0  0  0  0  0  0  0  0  0  0  0  0
  149.5390  142.5010  155.6847 H   0  0  0  0  0  0  0  0  0  0  0  0
  150.7293  142.1860  154.4419 H   0  0  0  0  0  0  0  0  0  0  0  0
  148.4812  141.0190  154.1124 H   0  0  0  0  0  0  0  0  0  0  0  0
  149.6331  139.7218  152.9903 H   0  0  0  0  0  0  0  0  0  0  0  0
  148.5986  138.6898  155.4089 H   0  0  0  0  0  0  0  0  0  0  0  0
  149.5046  139.5728  156.5939 H   0  0  0  0  0  0  0  0  0  0  0  0
  145.4100  139.9069  156.3097 H   0  0  0  0  0  0  0  0  0  0  0  0
  146.3248  138.4580  155.9668 H   0  0  0  0  0  0  0  0  0  0  0  0
  146.2736  139.7640  154.7779 H   0  0  0  0  0  0  0  0  0  0  0  0
  148.2129  142.0650  156.9377 H   0  0  0  0  0  0  0  0  0  0  0  0
  147.4741  141.9433  155.3688 H   0  0  0  0  0  0  0  0  0  0  0  0
  145.2323  141.5044  156.7534 H   0  0  0  0  0  0  0  0  0  0  0  0
  144.7813  143.9453  156.7190 H   0  0  0  0  0  0  0  0  0  0  0  0
  145.5938  143.4679  155.2341 H   0  0  0  0  0  0  0  0  0  0  0  0
  146.4973  144.2835  156.5094 H   0  0  0  0  0  0  0  0  0  0  0  0
  150.5104  143.8333  157.4643 H   0  0  0  0  0  0  0  0  0  0  0  0
  150.8178  145.4922  159.1160 H   0  0  0  0  0  0  0  0  0  0  0  0
  152.3907  145.5193  159.9094 H   0  0  0  0  0  0  0  0  0  0  0  0
  150.9937  144.8076  160.7315 H   0  0  0  0  0  0  0  0  0  0  0  0
  1  2  1  0  0  0  0
  1 23  1  0  0  0  0
  1 24  1  0  0  0  0
  1 25  1  0  0  0  0
  2 21  1  0  0  0  0
  2  3  2  0  0  0  0
  3  4  1  0  0  0  0
  3 26  1  0  0  0  0
  4 19  2  0  0  0  0
  4  5  1  0  0  0  0
  5  6  2  0  0  0  0
  6  7  1  0  0  0  0
  6 27  1  0  0  0  0
  7  8  1  0  0  0  0
  7 19  1  0  0  0  0
  8  9  1  0  0  0  0
  8 28  1  0  0  0  0
  8 29  1  0  0  0  0
  9 10  1  0  0  0  0
  9 11  1  0  0  0  0
  9 30  1  0  0  0  0
 10 31  1  0  0  0  0
 11 12  1  0  0  0  0
 11 32  1  0  0  0  0
 11 33  1  0  0  0  0
 12 13  1  0  0  0  0
 12 14  1  0  0  0  0
 13 34  1  0  0  0  0
 13 35  1  0  0  0  0
 13 36  1  0  0  0  0
 14 15  1  0  0  0  0
 14 37  1  0  0  0  0
 14 38  1  0  0  0  0
 15 16  1  0  0  0  0
 15 17  1  0  0  0  0
 15 39  1  0  0  0  0
 16 40  1  0  0  0  0
 16 41  1  0  0  0  0
 16 42  1  0  0  0  0
 17 18  3  0  0  0  0
 19 20  1  0  0  0  0
 20 21  2  0  0  0  0
 20 43  1  0  0  0  0
 21 22  1  0  0  0  0
 22 44  1  0  0  0  0
 22 45  1  0  0  0  0
 22 46  1  0  0  0  0
M  END
> <s_m_source_file>
AV-unprocessed.smi

> <i_m_source_file_index>
1535

> <i_lp_mmshare_version>
43012

> <i_f3d_flags>
0

> <s_epik_input>
W0NIM11jKFtjSF0xKWMoW0NIM10pW2NIXWMoYzEyKW4oW2NIXW4yKVtDSDJdW0NASF0oW09IXSlbQ0gyXU4oW0NIM10pW0NIMl1bQ0BIXShbQ0gzXSlDI04=

> <s_epik_cmdline>
J2VwaWtfcHl0aG9uJywgJy1waCcsICc3LjAnLCAnLXRuJywgJzgnLCAnLW1hJywgJzIwMCcsICctbWV0YWxfYmluZGluZycsICctaW1hZScsICc8aW5maWxlLm1hZT4nLCAnLW9tYWUnLCAnPG91dGZpbGUubWFlPic=

> <r_epik_Ionization_Penalty>
0.098511

> <r_epik_Ionization_Penalty_Charging>
0

> <r_epik_Ionization_Penalty_Neutral>
0.098511

> <r_epik_State_Penalty>
0.0881608

> <r_epik_Charging_Adjusted_Penalty>
0.0881608

> <i_epik_Tot_Q>
0

> <i_epik_Tot_abs_Q>
0

> <r_epik_Metal_State_Penalty>
0.0128087

> <b_epik_Metal_Only>
0

> <s_lp_Force_Field>
OPLS_2005

> <r_lp_Energy>
24.761

> <b_lp_Chiralities_Consistent>
1

> <s_lp_Variant>
AV-unprocessed.smi:1535-2

> <Gold.Version>
5.8.1

> <Gold.Id.Protein>
6NUR|6NUR_protein|mol2

> <Gold.PLP.Fitness>
48.6639

> <Gold.PLP.PLP>
-39.9100

> <Gold.PLP.part.hbond>
-4.0000

> <Gold.PLP.part.metal>
0.0000

> <Gold.PLP.part.buried>
-5.0187

> <Gold.PLP.part.nonpolar>
-30.0071

> <Gold.PLP.part.repulsive>
0.0000

> <Gold.PLP.ligand.clash>
0.1312

> <Gold.PLP.ligand.torsion>
1.4257

> <Gold.PLP.Chemscore.Hbond>
3.8960

> <Gold.PLP.Chemscore.CHOScore>
0.0000

> <Gold.PLP.Chemscore.Metal>
0.0000

> <Gold.Chemscore.Hbonds>
donor molecule, donor type, donor heavy atom, donor atom, acceptor molecule, acceptor atom, score
      L1  H    10    31       P1  7957  0.99
      P1  H  6934  6946       L1    18  0.91
      P1  H  7989  7998       L1    10  0.90
      P1  H  7997  8010       L1     5  1.00

> <Gold.PLP.Chemscore.Internal.Correction>
0.0484

> <Gold.Rescore>
     Score         DG    S(hbond)    S(metal)    S(lipo)     H(rot)  DE(clash)    DE(int)     intcor
     17.46     -20.92       3.24        0.00      94.41       2.51       0.10       3.36       ----

> <Gold.Chemscore.Fitness>
17.4624

> <Gold.Chemscore.DG>
-20.9207

> <Gold.Chemscore.ZeroCoef>
-5.4800

> <Gold.Chemscore.Hbond>
3.2406

> <Gold.Chemscore.Metal>
0.0000

> <Gold.Chemscore.Lipo>
94.4114

> <Gold.Chemscore.Internal_Hbond>
0.0000

> <Gold.Chemscore.DEClash>
0.0973

> <Gold.Chemscore.DEInternal>
3.3610

> <Gold.Chemscore.Rot>
2.5113

> <Gold.Chemscore.Internal.Correction>
   9.000000E+99

> <Gold.Chemscore.Hbonds>
donor molecule, donor type, donor heavy atom, donor atom, acceptor molecule, acceptor atom, score
      L1  H    10    31       P1  7957  0.94
      P1  H  6934  6946       L1    18  0.86
      P1  H  7989  7998       L1    10  0.18
      P1  H  7997  8010       L1     5  0.16

> <Gold.Chemscore.Hbond.Weighted>
-10.8234

> <Gold.Chemscore.Metal.Weighted>
-0.0000

> <Gold.Chemscore.Lipo.Weighted>
-11.0461

> <Gold.Chemscore.Internal_Hbond.Weighted>
0.0000

> <Gold.Chemscore.DEClash.Weighted>
0.0973

> <Gold.Chemscore.DEInternal.Weighted>
3.3610

> <Gold.Chemscore.Rot.Weighted>
6.4289

> <Gold.Chemscore.Internal.Correction.Weighted>
   9.000000E+99

> <Gold.Protein.RotatedTorsions>
[ 6907 6896 6895 6894 ] final  -48.96 input  -60.11 | X-H torsion
[ 7974 7965 7964 7962 ] final   65.77 input  175.53 | X-H torsion
[ 8008 7997 7996 7995 ] final   61.97 input   59.86 | X-H torsion
[ 10167 10162 10161 10158 ] final  128.32 input  -65.29 | X-H torsion
[ 10718 10713 10712 10709 ] final  168.99 input   66.30 | X-H torsion
[ 10763 10752 10751 10750 ] final -129.59 input  -60.55 | X-H torsion
[ 11005 11000 10999 10996 ] final   40.31 input  -57.11 | X-H torsion

> <Gold.Protein.ActiveResidues>
 VAL166  LYS551  ARG553  GLY616  TRP617  ASP618  TYR619  PRO620  LYS621  CYS622 
 ASP623  PHE694  ASN695  SER759  ASP760  ASP761  ALA762  ILE779  LEU786  VAL792 
 PHE793  MET794  SER795  GLU796  ALA797  LYS798  CYS799  TRP800  GLU811  SER814 

> <Gold.Protein.RotatedAtoms>
  150.8853  134.8250  159.7254 H   0  0  0  0  0  0  0  0  0  0  0  0  # atno 6907 bound_to 6896
  152.4804  134.4732  159.9652 H   0  0  0  0  0  0  0  0  0  0  0  0  # atno 6908 bound_to 6896
  151.4801  133.3509  159.2872 H   0  0  0  0  0  0  0  0  0  0  0  0  # atno 6909 bound_to 6896
  145.8345  139.3158  143.0968 H   0  0  0  0  0  0  0  0  0  0  0  0  # atno 7974 bound_to 7965
  155.6069  140.3494  155.4610 H   0  0  0  0  0  0  0  0  0  0  0  0  # atno 8008 bound_to 7997
  156.0185  140.1248  157.0406 H   0  0  0  0  0  0  0  0  0  0  0  0  # atno 8009 bound_to 7997
  154.4306  140.1067  156.5916 H   0  0  0  0  0  0  0  0  0  0  0  0  # atno 8010 bound_to 7997
  139.5533  144.6830  151.4258 H   0  0  0  0  0  0  0  0  0  0  0  0  # atno 10167 bound_to 10162
  157.0292  131.0254  151.2750 H   0  0  0  0  0  0  0  0  0  0  0  0  # atno 10718 bound_to 10713
  154.8757  135.3890  154.3945 H   0  0  0  0  0  0  0  0  0  0  0  0  # atno 10763 bound_to 10752
  153.4677  135.7029  153.6017 H   0  0  0  0  0  0  0  0  0  0  0  0  # atno 10764 bound_to 10752
  153.4488  135.3838  155.2240 H   0  0  0  0  0  0  0  0  0  0  0  0  # atno 10765 bound_to 10752
  140.1943  134.3948  155.8129 H   0  0  0  0  0  0  0  0  0  0  0  0  # atno 11005 bound_to 11000
  145.9534  140.8891  143.0247 LP  0  0  0  0  0  0  0  0  0  0  0  0  # atno 17320 bound_to 7965
  144.6737  140.1711  143.7414 LP  0  0  0  0  0  0  0  0  0  0  0  0  # atno 17321 bound_to 7965
  140.6800  143.8102  150.7109 LP  0  0  0  0  0  0  0  0  0  0  0  0  # atno 17342 bound_to 10162
  140.1553  143.4322  152.2104 LP  0  0  0  0  0  0  0  0  0  0  0  0  # atno 17343 bound_to 10162
  157.5191  130.7986  149.7789 LP  0  0  0  0  0  0  0  0  0  0  0  0  # atno 17370 bound_to 10713
  156.0075  130.3848  150.2378 LP  0  0  0  0  0  0  0  0  0  0  0  0  # atno 17371 bound_to 10713
  141.2227  133.7062  156.8149 LP  0  0  0  0  0  0  0  0  0  0  0  0  # atno 17394 bound_to 11000
  140.2124  134.8817  157.3289 LP  0  0  0  0  0  0  0  0  0  0  0  0  # atno 17395 bound_to 11000

$$$$
