#       Name:                AV-unprocessed.smi:507
#       Creating user name   scv26
#       Creation time:       Thu Mar 26 23:22:13 2020


#       File generated by GOLD software.
#

@<TRIPOS>MOLECULE
AV-unprocessed.smi:507
    37    38     1
SMALL
NO_CHARGES


@<TRIPOS>ATOM
      1 ****        -1.8057   3.5146  -2.5508 C.3            1 S1                 0.0000
      2 ****        -1.4723   2.4354  -1.5349 C.ar           1 S1                 0.0000
      3 ****        -1.6761   2.7133  -0.1642 C.ar           1 S1                 0.0000
      4 ****        -1.3589   1.7074   0.7408 C.ar           1 S1                 0.0000
      5 ****        -1.4443   1.6688   2.1342 N.pl3          1 S1                 1.0000
      6 ****        -1.0133   0.4573   2.5830 C.2            1 S1                 0.0000
      7 ****        -0.6518  -0.2779   1.4959 N.pl3          1 S1                 0.0000
      8 ****        -0.1155  -1.6432   1.4119 C.3            1 S1                 0.0000
      9 ****         1.4187  -1.6733   1.2585 C.3            1 S1                 0.0000
     10 ****         2.0091  -1.0332   2.3739 O.3            1 S1                 0.0000
     11 ****         1.9640  -3.1081   1.1591 C.3            1 S1                 0.0000
     12 ****         3.3946  -3.1204   0.8055 N.4            1 S1                 1.0000
     13 ****        -0.8543   0.4603   0.3247 C.ar           1 S1                 0.0000
     14 ****        -0.6495   0.1688  -1.0217 C.ar           1 S1                 0.0000
     15 ****        -0.9671   1.1787  -1.9582 C.ar           1 S1                 0.0000
     16 ****        -0.7560   0.8898  -3.4348 C.3            1 S1                 0.0000
     17 ****        -2.1880   4.4137  -2.0666 H              1 S1                 0.0000
     18 ****        -2.5661   3.1632  -3.2485 H              1 S1                 0.0000
     19 ****        -0.9173   3.7942  -3.1175 H              1 S1                 0.0000
     20 ****        -2.0613   3.6676   0.1647 H              1 S1                 0.0000
     21 ****        -0.9635   0.1398   3.6148 H              1 S1                 0.0000
     22 ****        -0.4188  -2.1709   2.3175 H              1 S1                 0.0000
     23 ****        -0.6035  -2.1534   0.5804 H              1 S1                 0.0000
     24 ****         1.6987  -1.1197   0.3612 H              1 S1                 0.0000
     25 ****         1.7312  -1.4767   3.1612 H              1 S1                 0.0000
     26 ****         1.8159  -3.6485   2.0950 H              1 S1                 0.0000
     27 ****         1.4269  -3.6584   0.3857 H              1 S1                 0.0000
     28 ****         3.7211  -4.0740   0.7420 H              1 S1                 0.0000
     29 ****         3.9191  -2.6311   1.5170 H              1 S1                 0.0000
     30 ****        -0.2647  -0.7872  -1.3441 H              1 S1                 0.0000
     31 ****        -0.3590  -0.1134  -3.5931 H              1 S1                 0.0000
     32 ****        -0.0499   1.5988  -3.8676 H              1 S1                 0.0000
     33 ****        -1.6985   0.9638  -3.9780 H              1 S1                 0.0000
     34 ****         3.5269  -2.6591  -0.0832 H              1 S1                 0.0000
     35 ****        -1.7721   2.4132   2.7367 H              1 S1                 0.0000
     36 ****         1.7180  -0.0771   2.4059 LP             1 S1                 0.0000
     37 ****         3.0053  -1.0759   2.2977 LP             1 S1                 0.0000
@<TRIPOS>BOND
    1    1    2 1     
    2    1   17 1     
    3    1   18 1     
    4    1   19 1     
    5    2   15 ar    
    6    2    3 ar    
    7    3    4 ar    
    8    3   20 1     
    9    4   13 ar    
   10    4    5 1     
   11    5    6 2     
   12    5   35 1     
   13    6    7 1     
   14    6   21 1     
   15    7    8 1     
   16    7   13 1     
   17    8    9 1     
   18    8   22 1     
   19    8   23 1     
   20    9   10 1     
   21    9   11 1     
   22    9   24 1     
   23   10   25 1     
   24   11   12 1     
   25   11   26 1     
   26   11   27 1     
   27   12   28 1     
   28   12   29 1     
   29   12   34 1     
   30   13   14 ar    
   31   14   15 ar    
   32   14   30 1     
   33   15   16 1     
   34   16   31 1     
   35   16   32 1     
   36   16   33 1     
   37   10   36 1     
   38   10   37 1     
@<TRIPOS>SUBSTRUCTURE
      1 S1             1
@<TRIPOS>SET
LONE_PAIRS      STATIC     ATOMS    <user>   **** ""
2 36 37
DONOR_HYDROGENS      STATIC     ATOMS    <user>   **** ""
5 35 25 28 29 34
ATOM$BLUE        STATIC     ATOMS    COLORGROUP SYSTEM
2 36 37
ATOM$RED        STATIC     ATOMS    COLORGROUP SYSTEM
5 35 25 28 29 34
