AV-unprocessed.smi:1094|AV-procd|sdf|4746|dock7
  -GOLD-   22720 3283D 1   1.00000     0.00000
 Structure written by MMmdl.
 45 46  0  0  0  0  0  0  0  0  1 V2000
  146.2214  130.1166  152.6112 C   0  0  0  0  0  0  0  0  0  0  0  0
  145.9270  130.6445  151.1998 C   0  0  0  0  0  0  0  0  0  0  0  0
  145.4551  132.0358  151.2337 N   0  0  0  0  0  0  0  0  0  0  0  0
  146.2940  132.9783  151.8604 C   0  0  0  0  0  0  0  0  0  0  0  0
  145.9690  134.2865  151.9578 C   0  0  0  0  0  0  0  0  0  0  0  0
  146.7520  135.2811  152.5637 N   0  0  0  0  0  0  0  0  0  0  0  0
  146.6089  135.8709  153.7656 C   0  0  0  0  0  0  0  0  0  0  0  0
  145.7107  135.6509  154.5778 O   0  0  0  0  0  0  0  0  0  0  0  0
  147.5975  136.7501  153.9845 N   0  0  0  0  0  0  0  0  0  0  0  0
  147.7640  137.5663  155.1871 C   0  0  0  0  0  0  0  0  0  0  0  0
  149.2459  137.8788  155.5460 C   0  0  0  0  0  0  0  0  0  0  0  0
  149.7659  138.8337  154.4357 C   0  0  0  0  0  0  0  0  0  0  0  0
  149.6258  138.4693  153.1567 N   0  0  0  0  0  0  0  0  0  0  0  0
  150.3135  139.8948  154.7311 O   0  0  0  0  0  0  0  0  0  0  0  0
  149.3783  138.4947  156.9695 C   0  0  0  0  0  0  0  0  0  0  0  0
  150.8477  138.6482  157.4128 C   0  0  0  0  0  0  0  0  0  0  0  0
  151.5001  137.3844  157.3691 O   0  0  0  0  0  0  0  0  0  0  0  0
  151.5297  136.8160  156.0648 C   0  0  0  0  0  0  0  0  0  0  0  0
  150.0908  136.5739  155.5676 C   0  0  0  0  0  0  0  0  0  0  0  0
  144.7052  134.6896  151.3790 C   0  0  0  0  0  0  0  0  0  0  0  0
  143.8912  133.7951  150.7862 C   0  0  0  0  0  0  0  0  0  0  0  0
  144.2461  132.3770  150.6962 C   0  0  0  0  0  0  0  0  0  0  0  0
  143.5013  131.5494  150.1708 O   0  0  0  0  0  0  0  0  0  0  0  0
  146.5811  129.0882  152.5722 H   0  0  0  0  0  0  0  0  0  0  0  0
  145.3271  130.1309  153.2351 H   0  0  0  0  0  0  0  0  0  0  0  0
  146.9852  130.7170  153.1059 H   0  0  0  0  0  0  0  0  0  0  0  0
  146.8273  130.5676  150.5882 H   0  0  0  0  0  0  0  0  0  0  0  0
  145.1984  129.9978  150.7076 H   0  0  0  0  0  0  0  0  0  0  0  0
  147.2025  132.5448  152.2465 H   0  0  0  0  0  0  0  0  0  0  0  0
  147.5394  135.5880  152.0117 H   0  0  0  0  0  0  0  0  0  0  0  0
  148.2938  136.8663  153.2630 H   0  0  0  0  0  0  0  0  0  0  0  0
  147.2234  138.4967  155.0066 H   0  0  0  0  0  0  0  0  0  0  0  0
  147.2601  137.0966  156.0345 H   0  0  0  0  0  0  0  0  0  0  0  0
  149.9566  139.0757  152.4204 H   0  0  0  0  0  0  0  0  0  0  0  0
  149.1885  137.5873  152.9321 H   0  0  0  0  0  0  0  0  0  0  0  0
  148.8579  139.4505  157.0399 H   0  0  0  0  0  0  0  0  0  0  0  0
  148.8906  137.8488  157.6990 H   0  0  0  0  0  0  0  0  0  0  0  0
  151.3860  139.3683  156.7959 H   0  0  0  0  0  0  0  0  0  0  0  0
  150.8882  139.0235  158.4355 H   0  0  0  0  0  0  0  0  0  0  0  0
  152.0885  137.4613  155.3857 H   0  0  0  0  0  0  0  0  0  0  0  0
  152.0695  135.8703  156.1114 H   0  0  0  0  0  0  0  0  0  0  0  0
  149.6315  135.8410  156.2313 H   0  0  0  0  0  0  0  0  0  0  0  0
  150.1120  136.1021  154.5842 H   0  0  0  0  0  0  0  0  0  0  0  0
  144.4033  135.7262  151.4218 H   0  0  0  0  0  0  0  0  0  0  0  0
  142.9543  134.1300  150.3654 H   0  0  0  0  0  0  0  0  0  0  0  0
  1  2  1  0  0  0  0
  1 24  1  0  0  0  0
  1 25  1  0  0  0  0
  1 26  1  0  0  0  0
  2  3  1  0  0  0  0
  2 27  1  0  0  0  0
  2 28  1  0  0  0  0
  3 22  1  0  0  0  0
  3  4  1  0  0  0  0
  4  5  2  0  0  0  0
  4 29  1  0  0  0  0
  5  6  1  0  0  0  0
  5 20  1  0  0  0  0
  6  7  1  0  0  0  0
  6 30  1  0  0  0  0
  7  8  2  0  0  0  0
  7  9  1  0  0  0  0
  9 10  1  0  0  0  0
  9 31  1  0  0  0  0
 10 11  1  0  0  0  0
 10 32  1  0  0  0  0
 10 33  1  0  0  0  0
 11 19  1  0  0  0  0
 11 12  1  0  0  0  0
 11 15  1  0  0  0  0
 12 13  1  0  0  0  0
 12 14  2  0  0  0  0
 13 34  1  0  0  0  0
 13 35  1  0  0  0  0
 15 16  1  0  0  0  0
 15 36  1  0  0  0  0
 15 37  1  0  0  0  0
 16 17  1  0  0  0  0
 16 38  1  0  0  0  0
 16 39  1  0  0  0  0
 17 18  1  0  0  0  0
 18 19  1  0  0  0  0
 18 40  1  0  0  0  0
 18 41  1  0  0  0  0
 19 42  1  0  0  0  0
 19 43  1  0  0  0  0
 20 21  2  0  0  0  0
 20 44  1  0  0  0  0
 21 22  1  0  0  0  0
 21 45  1  0  0  0  0
 22 23  2  0  0  0  0
M  END
> <s_m_source_file>
AV-unprocessed.smi

> <i_m_source_file_index>
1094

> <i_lp_mmshare_version>
43012

> <i_f3d_flags>
0

> <s_epik_input>
W0NIM11bQ0gyXW4xW2NIXWMoW2NIXVtjSF1jMT1PKVtOSF1DKD1PKVtOSF1bQ0gyXUMyKEMoPU8pW05IMl0pW0NIMl1bQ0gyXU9bQ0gyXVtDSDJdMg==

> <s_epik_cmdline>
J2VwaWtfcHl0aG9uJywgJy1waCcsICc3LjAnLCAnLXRuJywgJzgnLCAnLW1hJywgJzIwMCcsICctbWV0YWxfYmluZGluZycsICctaW1hZScsICc8aW5maWxlLm1hZT4nLCAnLW9tYWUnLCAnPG91dGZpbGUubWFlPic=

> <r_lp_tautomer_probability>
1

> <r_epik_Ionization_Penalty>
2.3227e-05

> <r_epik_Ionization_Penalty_Charging>
4.44262e-06

> <r_epik_Ionization_Penalty_Neutral>
1.87844e-05

> <r_epik_State_Penalty>
-0

> <r_epik_Charging_Adjusted_Penalty>
4.44262e-06

> <i_epik_Tot_Q>
0

> <i_epik_Tot_abs_Q>
0

> <r_epik_Metal_State_Penalty>
-0

> <b_epik_Metal_Only>
0

> <s_lp_Force_Field>
OPLS_2005

> <r_lp_Energy>
26.2071

> <b_lp_Chiralities_Consistent>
1

> <s_lp_Variant>
AV-unprocessed.smi:1094-1

> <Gold.Version>
5.8.1

> <Gold.Id.Protein>
6NUR|6NUR_protein|mol2

> <Gold.PLP.Fitness>
44.6514

> <Gold.PLP.PLP>
-29.3790

> <Gold.PLP.part.hbond>
-5.7623

> <Gold.PLP.part.metal>
0.0000

> <Gold.PLP.part.buried>
-3.8275

> <Gold.PLP.part.nonpolar>
-21.6596

> <Gold.PLP.part.repulsive>
1.2170

> <Gold.PLP.ligand.clash>
0.0000

> <Gold.PLP.ligand.torsion>
1.1147

> <Gold.PLP.Chemscore.Hbond>
5.8153

> <Gold.PLP.Chemscore.CHOScore>
0.0000

> <Gold.PLP.Chemscore.Metal>
0.0000

> <Gold.Chemscore.Hbonds>
donor molecule, donor type, donor heavy atom, donor atom, acceptor molecule, acceptor atom, score
      L1  H     6    30       P1  7948  0.99
      L1  H     9    31       P1  7948  0.93
      L1  H    13    34       P1  7957  0.99
      L1  H    13    35       P1  7948  0.98
      P1  H  7989  7998       L1    14  0.96
      P1  H 10785 10796       L1    23  0.94

> <Gold.PLP.Chemscore.Internal.Correction>
0.0561

> <Gold.Rescore>
     Score         DG    S(hbond)    S(metal)    S(lipo)     H(rot)  DE(clash)    DE(int)     intcor
     19.90     -24.23       5.22        0.00      57.67       2.11       0.76       3.57       ----

> <Gold.Chemscore.Fitness>
19.9032

> <Gold.Chemscore.DG>
-24.2341

> <Gold.Chemscore.ZeroCoef>
-5.4800

> <Gold.Chemscore.Hbond>
5.2153

> <Gold.Chemscore.Metal>
0.0000

> <Gold.Chemscore.Lipo>
57.6651

> <Gold.Chemscore.Internal_Hbond>
0.0000

> <Gold.Chemscore.DEClash>
0.7613

> <Gold.Chemscore.DEInternal>
3.5697

> <Gold.Chemscore.Rot>
2.1140

> <Gold.Chemscore.Internal.Correction>
   9.000000E+99

> <Gold.Chemscore.Hbonds>
donor molecule, donor type, donor heavy atom, donor atom, acceptor molecule, acceptor atom, score
      L1  H     6    30       P1  7948  0.90
      L1  H     9    31       P1  7948  0.89
      L1  H    13    34       P1  7957  0.56
      L1  H    13    35       P1  7948  0.92
      P1  H  7989  7998       L1    14  0.89
      P1  H 10785 10796       L1    23  0.85

> <Gold.Chemscore.Hbond.Weighted>
-17.4192

> <Gold.Chemscore.Metal.Weighted>
-0.0000

> <Gold.Chemscore.Lipo.Weighted>
-6.7468

> <Gold.Chemscore.Internal_Hbond.Weighted>
0.0000

> <Gold.Chemscore.DEClash.Weighted>
0.7613

> <Gold.Chemscore.DEInternal.Weighted>
3.5697

> <Gold.Chemscore.Rot.Weighted>
5.4119

> <Gold.Chemscore.Internal.Correction.Weighted>
   9.000000E+99

> <Gold.Protein.RotatedTorsions>
[ 6907 6896 6895 6894 ] final  -48.78 input  -60.11 | X-H torsion
[ 7974 7965 7964 7962 ] final  161.37 input  175.53 | X-H torsion
[ 8008 7997 7996 7995 ] final -166.74 input   59.86 | X-H torsion
[ 10167 10162 10161 10158 ] final   59.40 input  -65.29 | X-H torsion
[ 10718 10713 10712 10709 ] final  139.47 input   66.30 | X-H torsion
[ 10763 10752 10751 10750 ] final  -94.63 input  -60.55 | X-H torsion
[ 11005 11000 10999 10996 ] final  156.60 input  -57.11 | X-H torsion

> <Gold.Protein.ActiveResidues>
 VAL166  LYS551  ARG553  GLY616  TRP617  ASP618  TYR619  PRO620  LYS621  CYS622 
 ASP623  PHE694  ASN695  SER759  ASP760  ASP761  ALA762  ILE779  LEU786  VAL792 
 PHE793  MET794  SER795  GLU796  ALA797  LYS798  CYS799  TRP800  GLU811  SER814 

> <Gold.Protein.RotatedAtoms>
  150.8871  134.8270  159.7266 H   0  0  0  0  0  0  0  0  0  0  0  0  # atno 6907 bound_to 6896
  152.4814  134.4705  159.9644 H   0  0  0  0  0  0  0  0  0  0  0  0  # atno 6908 bound_to 6896
  151.4772  133.3516  159.2868 H   0  0  0  0  0  0  0  0  0  0  0  0  # atno 6909 bound_to 6896
  144.7689  139.7889  143.6304 H   0  0  0  0  0  0  0  0  0  0  0  0  # atno 7974 bound_to 7965
  155.8681  140.0989  157.1569 H   0  0  0  0  0  0  0  0  0  0  0  0  # atno 8008 bound_to 7997
  154.3995  140.1352  156.4106 H   0  0  0  0  0  0  0  0  0  0  0  0  # atno 8009 bound_to 7997
  155.7782  140.3459  155.5285 H   0  0  0  0  0  0  0  0  0  0  0  0  # atno 8010 bound_to 7997
  140.1768  144.4221  150.6634 H   0  0  0  0  0  0  0  0  0  0  0  0  # atno 10167 bound_to 10162
  157.4141  131.1031  151.0423 H   0  0  0  0  0  0  0  0  0  0  0  0  # atno 10718 bound_to 10713
  154.7073  135.5150  153.8614 H   0  0  0  0  0  0  0  0  0  0  0  0  # atno 10763 bound_to 10752
  153.0752  135.6614  154.0171 H   0  0  0  0  0  0  0  0  0  0  0  0  # atno 10764 bound_to 10752
  154.0019  135.3010  155.3381 H   0  0  0  0  0  0  0  0  0  0  0  0  # atno 10765 bound_to 10752
  140.1690  134.8556  157.2667 H   0  0  0  0  0  0  0  0  0  0  0  0  # atno 11005 bound_to 11000
  146.1819  139.5016  142.9861 LP  0  0  0  0  0  0  0  0  0  0  0  0  # atno 17320 bound_to 7965
  145.6384  141.0289  143.1825 LP  0  0  0  0  0  0  0  0  0  0  0  0  # atno 17321 bound_to 7965
  140.6546  143.2234  151.5999 LP  0  0  0  0  0  0  0  0  0  0  0  0  # atno 17342 bound_to 10162
  139.5313  144.2907  152.1154 LP  0  0  0  0  0  0  0  0  0  0  0  0  # atno 17343 bound_to 10162
  157.1377  130.6130  149.5547 LP  0  0  0  0  0  0  0  0  0  0  0  0  # atno 17370 bound_to 10713
  155.9859  130.4892  150.7056 LP  0  0  0  0  0  0  0  0  0  0  0  0  # atno 17371 bound_to 10713
  140.2400  134.3807  155.7485 LP  0  0  0  0  0  0  0  0  0  0  0  0  # atno 17394 bound_to 11000
  141.2216  133.7260  156.8774 LP  0  0  0  0  0  0  0  0  0  0  0  0  # atno 17395 bound_to 11000

$$$$
