AV-unprocessed.smi:689|AV-procd|sdf|3358|dock1
  -GOLD-   22720 0333D 1   1.00000     0.00000
 Structure written by MMmdl.
 33 34  0  0  0  0  0  0  0  0  2 V2000
  150.7489  141.3491  156.9265 C   0  0  0  0  0  0  0  0  0  0  0  0
  150.5265  140.0774  156.1590 C   0  0  0  0  0  0  0  0  0  0  0  0
  150.7669  140.0506  154.8586 N   0  0  0  0  0  0  0  0  0  0  0  0
  150.4808  138.7467  154.4429 O   0  0  0  0  0  0  0  0  0  0  0  0
  150.0757  138.0309  155.5226 C   0  0  0  0  0  0  0  0  0  0  0  0
  149.7280  136.6008  155.2842 C   0  0  0  0  0  0  0  0  0  0  0  0
  150.0760  138.8153  156.6430 C   0  0  0  0  0  0  0  0  0  0  0  0
  149.6998  138.4391  158.0543 C   0  0  0  0  0  0  0  0  0  0  0  0
  150.5826  137.2840  158.5367 C   0  0  0  0  0  0  0  0  0  0  0  0
  151.7930  137.3210  158.3148 O   0  0  0  0  0  0  0  0  0  0  0  0
  149.8668  136.3401  159.1885 N   0  5  0  0  0  0  0  0  0  0  0  0
  148.2578  136.4309  159.3076 S   0  0  0  0  0  0  0  0  0  0  0  0
  147.8163  137.5555  160.1472 O   0  0  0  0  0  0  0  0  0  0  0  0
  147.5854  136.2508  158.0115 O   0  0  0  0  0  0  0  0  0  0  0  0
  147.9044  134.9052  160.2805 C   0  0  0  0  0  0  0  0  0  0  0  0
  147.0843  135.2071  161.5195 C   0  0  0  0  0  0  0  0  0  0  0  0
  147.6855  135.9506  162.6903 C   0  0  0  0  0  0  0  0  0  0  0  0
  147.3565  134.4845  162.8198 C   0  0  0  0  0  0  0  0  0  0  0  0
  149.9620  141.5049  157.6645 H   0  0  0  0  0  0  0  0  0  0  0  0
  150.7608  142.2196  156.2699 H   0  0  0  0  0  0  0  0  0  0  0  0
  151.7004  141.3203  157.4579 H   0  0  0  0  0  0  0  0  0  0  0  0
  149.8934  136.0052  156.1819 H   0  0  0  0  0  0  0  0  0  0  0  0
  150.3384  136.1793  154.4853 H   0  0  0  0  0  0  0  0  0  0  0  0
  148.6806  136.5013  155.0001 H   0  0  0  0  0  0  0  0  0  0  0  0
  149.7831  139.2906  158.7318 H   0  0  0  0  0  0  0  0  0  0  0  0
  148.6573  138.1241  158.1103 H   0  0  0  0  0  0  0  0  0  0  0  0
  147.3743  134.2048  159.6348 H   0  0  0  0  0  0  0  0  0  0  0  0
  148.8508  134.4501  160.5716 H   0  0  0  0  0  0  0  0  0  0  0  0
  146.0353  135.4060  161.3081 H   0  0  0  0  0  0  0  0  0  0  0  0
  148.7372  136.2248  162.6335 H   0  0  0  0  0  0  0  0  0  0  0  0
  147.0473  136.6577  163.2162 H   0  0  0  0  0  0  0  0  0  0  0  0
  146.4980  134.2111  163.4299 H   0  0  0  0  0  0  0  0  0  0  0  0
  148.1902  133.7858  162.8490 H   0  0  0  0  0  0  0  0  0  0  0  0
  1  2  1  0  0  0  0
  1 19  1  0  0  0  0
  1 20  1  0  0  0  0
  1 21  1  0  0  0  0
  2  7  1  0  0  0  0
  2  3  2  0  0  0  0
  3  4  1  0  0  0  0
  4  5  1  0  0  0  0
  5  6  1  0  0  0  0
  5  7  2  0  0  0  0
  6 22  1  0  0  0  0
  6 23  1  0  0  0  0
  6 24  1  0  0  0  0
  7  8  1  0  0  0  0
  8  9  1  0  0  0  0
  8 25  1  0  0  0  0
  8 26  1  0  0  0  0
  9 10  2  0  0  0  0
  9 11  1  0  0  0  0
 11 12  1  0  0  0  0
 12 13  2  0  0  0  0
 12 14  2  0  0  0  0
 12 15  1  0  0  0  0
 15 16  1  0  0  0  0
 15 27  1  0  0  0  0
 15 28  1  0  0  0  0
 16 18  1  0  0  0  0
 16 17  1  0  0  0  0
 16 29  1  0  0  0  0
 17 18  1  0  0  0  0
 17 30  1  0  0  0  0
 17 31  1  0  0  0  0
 18 32  1  0  0  0  0
 18 33  1  0  0  0  0
M  CHG  1  11  -1
M  END
> <s_m_source_file>
AV-unprocessed.smi

> <i_m_source_file_index>
689

> <i_lp_mmshare_version>
43012

> <i_f3d_flags>
0

> <s_epik_input>
W0NIM11jMW5vYyhbQ0gzXSljMVtDSDJdQyg9TylbTkhdUyg9TykoPU8pW0NIMl1bQ0hdMltDSDJdW0NIMl0y

> <s_epik_cmdline>
J2VwaWtfcHl0aG9uJywgJy1waCcsICc3LjAnLCAnLXRuJywgJzgnLCAnLW1hJywgJzIwMCcsICctbWV0YWxfYmluZGluZycsICctaW1hZScsICc8aW5maWxlLm1hZT4nLCAnLW9tYWUnLCAnPG91dGZpbGUubWFlPic=

> <r_epik_Ionization_Penalty>
0.0117783

> <r_epik_Ionization_Penalty_Charging>
0.0117783

> <r_epik_Ionization_Penalty_Neutral>
2.69026e-10

> <r_epik_State_Penalty>
0.00908283

> <r_epik_Charging_Adjusted_Penalty>
0.0208612

> <i_epik_Tot_Q>
-1

> <i_epik_Tot_abs_Q>
1

> <r_epik_Metal_State_Penalty>
0.00890557

> <b_epik_Metal_Only>
0

> <s_lp_Force_Field>
OPLS_2005

> <r_lp_Energy>
1.25467

> <b_lp_Chiralities_Consistent>
1

> <s_lp_Variant>
AV-unprocessed.smi:689-1

> <Gold.Version>
5.8.1

> <Gold.Id.Protein>
6NUR|6NUR_protein|mol2

> <Gold.PLP.Fitness>
39.7051

> <Gold.PLP.PLP>
-28.3941

> <Gold.PLP.part.hbond>
-4.0000

> <Gold.PLP.part.metal>
0.0000

> <Gold.PLP.part.buried>
-4.8255

> <Gold.PLP.part.nonpolar>
-20.2481

> <Gold.PLP.part.repulsive>
0.2021

> <Gold.PLP.ligand.clash>
0.0000

> <Gold.PLP.ligand.torsion>
1.2135

> <Gold.PLP.Chemscore.Hbond>
4.0263

> <Gold.PLP.Chemscore.CHOScore>
0.0000

> <Gold.PLP.Chemscore.Metal>
0.0000

> <Gold.Chemscore.Hbonds>
donor molecule, donor type, donor heavy atom, donor atom, acceptor molecule, acceptor atom, score
      P1  H  6896  6908       L1    11  2.00
      P1  H  6931  6943       L1    13  0.25
      P1  H  6934  6947       L1    13  0.74
      P1  H  7989  7998       L1     3  1.00

> <Gold.PLP.Chemscore.Internal.Correction>
1.6591

> <Gold.Rescore>
     Score         DG    S(hbond)    S(metal)    S(lipo)     H(rot)  DE(clash)    DE(int)     intcor
     15.29     -17.74       2.80        0.00      60.10       1.61       0.04       2.40       ----

> <Gold.Chemscore.Fitness>
15.2950

> <Gold.Chemscore.DG>
-17.7440

> <Gold.Chemscore.ZeroCoef>
-5.4800

> <Gold.Chemscore.Hbond>
2.7972

> <Gold.Chemscore.Metal>
0.0000

> <Gold.Chemscore.Lipo>
60.1032

> <Gold.Chemscore.Internal_Hbond>
0.0000

> <Gold.Chemscore.DEClash>
0.0444

> <Gold.Chemscore.DEInternal>
2.4047

> <Gold.Chemscore.Rot>
1.6058

> <Gold.Chemscore.Internal.Correction>
   9.000000E+99

> <Gold.Chemscore.Hbonds>
donor molecule, donor type, donor heavy atom, donor atom, acceptor molecule, acceptor atom, score
      P1  H  6896  6908       L1    11  0.82
      P1  H  6931  6943       L1    13  0.25
      P1  H  6934  6947       L1    13  0.74
      P1  H  7989  7998       L1     3  0.60

> <Gold.Chemscore.Hbond.Weighted>
-9.3427

> <Gold.Chemscore.Metal.Weighted>
-0.0000

> <Gold.Chemscore.Lipo.Weighted>
-7.0321

> <Gold.Chemscore.Internal_Hbond.Weighted>
0.0000

> <Gold.Chemscore.DEClash.Weighted>
0.0444

> <Gold.Chemscore.DEInternal.Weighted>
2.4047

> <Gold.Chemscore.Rot.Weighted>
4.1108

> <Gold.Chemscore.Internal.Correction.Weighted>
   9.000000E+99

> <Gold.Protein.RotatedTorsions>
[ 6907 6896 6895 6894 ] final -162.79 input  -60.11 | X-H torsion
[ 7974 7965 7964 7962 ] final  -76.23 input  175.53 | X-H torsion
[ 8008 7997 7996 7995 ] final  174.05 input   59.86 | X-H torsion
[ 10167 10162 10161 10158 ] final  -33.96 input  -65.29 | X-H torsion
[ 10718 10713 10712 10709 ] final -131.33 input   66.30 | X-H torsion
[ 10763 10752 10751 10750 ] final  -12.46 input  -60.55 | X-H torsion
[ 11005 11000 10999 10996 ] final -174.46 input  -57.11 | X-H torsion

> <Gold.Protein.ActiveResidues>
 VAL166  LYS551  ARG553  GLY616  TRP617  ASP618  TYR619  PRO620  LYS621  CYS622 
 ASP623  PHE694  ASN695  SER759  ASP760  ASP761  ALA762  ILE779  LEU786  VAL792 
 PHE793  MET794  SER795  GLU796  ALA797  LYS798  CYS799  TRP800  GLU811  SER814 

> <Gold.Protein.RotatedAtoms>
  151.3858  133.3805  159.2714 H   0  0  0  0  0  0  0  0  0  0  0  0  # atno 6907 bound_to 6896
  150.9543  134.8940  159.7702 H   0  0  0  0  0  0  0  0  0  0  0  0  # atno 6908 bound_to 6896
  152.5124  134.3814  159.9405 H   0  0  0  0  0  0  0  0  0  0  0  0  # atno 6909 bound_to 6896
  145.6156  140.9376  143.1166 H   0  0  0  0  0  0  0  0  0  0  0  0  # atno 7974 bound_to 7965
  156.1014  140.1444  156.9462 H   0  0  0  0  0  0  0  0  0  0  0  0  # atno 8008 bound_to 7997
  154.4705  140.0911  156.7177 H   0  0  0  0  0  0  0  0  0  0  0  0  # atno 8009 bound_to 7997
  155.4753  140.3443  155.4334 H   0  0  0  0  0  0  0  0  0  0  0  0  # atno 8010 bound_to 7997
  140.7195  143.3582  151.2015 H   0  0  0  0  0  0  0  0  0  0  0  0  # atno 10167 bound_to 10162
  156.2234  130.6992  151.0780 H   0  0  0  0  0  0  0  0  0  0  0  0  # atno 10718 bound_to 10713
  153.4988  135.7017  153.5843 H   0  0  0  0  0  0  0  0  0  0  0  0  # atno 10763 bound_to 10752
  153.3984  135.3878  155.1971 H   0  0  0  0  0  0  0  0  0  0  0  0  # atno 10764 bound_to 10752
  154.8712  135.3875  154.4456 H   0  0  0  0  0  0  0  0  0  0  0  0  # atno 10765 bound_to 10752
  140.4743  134.6136  157.4894 H   0  0  0  0  0  0  0  0  0  0  0  0  # atno 11005 bound_to 11000
  144.7252  139.7899  143.7367 LP  0  0  0  0  0  0  0  0  0  0  0  0  # atno 17320 bound_to 7965
  146.1471  139.4543  143.0072 LP  0  0  0  0  0  0  0  0  0  0  0  0  # atno 17321 bound_to 7965
  139.7129  143.9348  152.2955 LP  0  0  0  0  0  0  0  0  0  0  0  0  # atno 17342 bound_to 10162
  139.9079  144.6874  150.8594 LP  0  0  0  0  0  0  0  0  0  0  0  0  # atno 17343 bound_to 10162
  157.7098  131.0739  150.6539 LP  0  0  0  0  0  0  0  0  0  0  0  0  # atno 17370 bound_to 10713
  156.6603  130.4510  149.5690 LP  0  0  0  0  0  0  0  0  0  0  0  0  # atno 17371 bound_to 10713
  139.9866  134.7052  155.9763 LP  0  0  0  0  0  0  0  0  0  0  0  0  # atno 17394 bound_to 11000
  141.1562  133.6542  156.4169 LP  0  0  0  0  0  0  0  0  0  0  0  0  # atno 17395 bound_to 11000

$$$$
