#       Name:                AV-unprocessed.smi:260
#       Creating user name   scv26
#       Creation time:       Thu Mar 26 21:14:36 2020


#       File generated by GOLD software.
#

@<TRIPOS>MOLECULE
AV-unprocessed.smi:260
    62    65     1
SMALL
NO_CHARGES


@<TRIPOS>ATOM
      1 ****        -6.0421   1.3436   2.3683 C.3            1 S1                 0.0000
      2 ****        -5.2232   1.3133   1.1663 N.am           1 S1                 0.0000
      3 ****        -4.5867   2.3789   0.6544 C.2            1 S1                 0.0000
      4 ****        -4.6599   3.4932   1.1746 O.2            1 S1                 0.0000
      5 ****        -3.7410   2.1925  -0.6330 C.3            1 S1                 0.0000
      6 ****        -4.3094   3.0996  -1.7422 C.3            1 S1                 0.0000
      7 ****        -3.6094   0.7248  -1.1013 C.3            1 S1                 0.0000
      8 ****        -2.4616   0.1416  -0.2669 C.3            1 S1                 0.0000
      9 ****        -1.6854   1.2892   0.1789 N.pl3          1 S1                 0.0000
     10 ****        -0.3657   1.1896   0.4848 C.ar           1 S1                 0.0000
     11 ****         0.4015   2.3103   0.4245 N.ar           1 S1                 0.0000
     12 ****         1.7028   2.2604   0.7211 C.ar           1 S1                 0.0000
     13 ****         2.4320   1.2095   1.0979 N.ar           1 S1                 0.0000
     14 ****         1.6709   0.0806   1.1694 C.ar           1 S1                 0.0000
     15 ****         0.2774  -0.0187   0.8873 C.ar           1 S1                 0.0000
     16 ****        -0.1451  -1.3283   1.0901 N.2            1 S1                 0.0000
     17 ****         0.9326  -1.9647   1.4571 C.2            1 S1                 0.0000
     18 ****         2.0738  -1.1982   1.5141 N.pl3          1 S1                 0.0000
     19 ****         3.4010  -1.6464   1.9002 C.3            1 S1                 0.0000
     20 ****         3.9789  -2.7456   0.9790 C.3            1 S1                 0.0000
     21 ****         5.0915  -3.2789   1.6684 O.3            1 S1                 0.0000
     22 ****         4.4879  -2.2569  -0.3968 C.3            1 S1                 0.0000
     23 ****         3.4658  -1.5326  -1.2767 C.3            1 S1                 0.0000
     24 ****         3.9741  -1.7562  -2.6916 C.3            1 S1                 0.0000
     25 ****         4.9588  -2.9171  -2.5477 C.3            1 S1                 0.0000
     26 ****         4.7868  -3.3786  -1.2157 O.3            1 S1                 0.0000
     27 ****        -2.2655   2.5230  -0.3375 C.3            1 S1                 0.0000
     28 ****        -6.4448   0.3510   2.5688 H              1 S1                 0.0000
     29 ****        -6.8784   2.0339   2.2520 H              1 S1                 0.0000
     30 ****        -5.4521   1.6533   3.2316 H              1 S1                 0.0000
     31 ****        -5.1258   0.4253   0.6957 H              1 S1                 0.0000
     32 ****        -3.7133   3.0342  -2.6530 H              1 S1                 0.0000
     33 ****        -4.3213   4.1482  -1.4416 H              1 S1                 0.0000
     34 ****        -5.3305   2.8158  -2.0001 H              1 S1                 0.0000
     35 ****        -4.5251   0.1371  -1.0285 H              1 S1                 0.0000
     36 ****        -3.3184   0.7048  -2.1525 H              1 S1                 0.0000
     37 ****        -2.8455  -0.3871   0.6060 H              1 S1                 0.0000
     38 ****        -1.8665  -0.5549  -0.8584 H              1 S1                 0.0000
     39 ****         2.2353   3.1969   0.6445 H              1 S1                 0.0000
     40 ****         0.9246  -3.0188   1.6940 H              1 S1                 0.0000
     41 ****         4.0758  -0.7906   1.9409 H              1 S1                 0.0000
     42 ****         3.3198  -2.0221   2.9214 H              1 S1                 0.0000
     43 ****         3.2486  -3.5447   0.8472 H              1 S1                 0.0000
     44 ****         5.7430  -2.6002   1.7570 H              1 S1                 0.0000
     45 ****         5.3792  -1.6360  -0.2847 H              1 S1                 0.0000
     46 ****         2.4820  -1.9917  -1.1711 H              1 S1                 0.0000
     47 ****         3.3766  -0.4742  -1.0347 H              1 S1                 0.0000
     48 ****         3.1544  -1.9988  -3.3684 H              1 S1                 0.0000
     49 ****         4.4801  -0.8709  -3.0780 H              1 S1                 0.0000
     50 ****         4.7732  -3.7163  -3.2654 H              1 S1                 0.0000
     51 ****         5.9848  -2.5705  -2.6796 H              1 S1                 0.0000
     52 ****        -1.7417   2.8137  -1.2494 H              1 S1                 0.0000
     53 ****        -2.1552   3.3366   0.3811 H              1 S1                 0.0000
     54 ****        -5.2053   3.6236   2.0025 LP             1 S1                 0.0000
     55 ****        -4.1739   4.2673   0.7689 LP             1 S1                 0.0000
     56 ****        -0.0123   3.1800   0.1556 LP             1 S1                 0.0000
     57 ****         3.4104   1.2448   1.3016 LP             1 S1                 0.0000
     58 ****        -1.0674  -1.6986   0.9794 LP             1 S1                 0.0000
     59 ****         5.4719  -4.0463   1.1522 LP             1 S1                 0.0000
     60 ****         4.8077  -3.5943   2.5739 LP             1 S1                 0.0000
     61 ****         4.0339  -4.0357  -1.1789 LP             1 S1                 0.0000
     62 ****         5.6274  -3.8167  -0.8973 LP             1 S1                 0.0000
@<TRIPOS>BOND
    1    1    2 1     
    2    1   28 1     
    3    1   29 1     
    4    1   30 1     
    5    2    3 am    
    6    2   31 1     
    7    3    4 2     
    8    3    5 1     
    9    5   27 1     
   10    5    6 1     
   11    5    7 1     
   12    6   32 1     
   13    6   33 1     
   14    6   34 1     
   15    7    8 1     
   16    7   35 1     
   17    7   36 1     
   18    8    9 1     
   19    8   37 1     
   20    8   38 1     
   21    9   10 1     
   22    9   27 1     
   23   10   15 ar    
   24   10   11 ar    
   25   11   12 ar    
   26   12   13 ar    
   27   12   39 1     
   28   13   14 ar    
   29   14   18 1     
   30   14   15 ar    
   31   15   16 1     
   32   16   17 2     
   33   17   18 1     
   34   17   40 1     
   35   18   19 1     
   36   19   20 1     
   37   19   41 1     
   38   19   42 1     
   39   20   21 1     
   40   20   22 1     
   41   20   43 1     
   42   21   44 1     
   43   22   26 1     
   44   22   23 1     
   45   22   45 1     
   46   23   24 1     
   47   23   46 1     
   48   23   47 1     
   49   24   25 1     
   50   24   48 1     
   51   24   49 1     
   52   25   26 1     
   53   25   50 1     
   54   25   51 1     
   55   27   52 1     
   56   27   53 1     
   57    4   54 1     
   58    4   55 1     
   59   11   56 1     
   60   13   57 1     
   61   16   58 1     
   62   21   59 1     
   63   21   60 1     
   64   26   61 1     
   65   26   62 1     
@<TRIPOS>SUBSTRUCTURE
      1 S1             1
@<TRIPOS>SET
LONE_PAIRS      STATIC     ATOMS    <user>   **** ""
9 54 55 56 57 58 59 60 61 62
DONOR_HYDROGENS      STATIC     ATOMS    <user>   **** ""
2 31 44
ATOM$BLUE        STATIC     ATOMS    COLORGROUP SYSTEM
9 54 55 56 57 58 59 60 61 62
ATOM$RED        STATIC     ATOMS    COLORGROUP SYSTEM
2 31 44
