AV-unprocessed.smi:1637|AV-procd|sdf|6544|dock2
  -GOLD-   22720 7223D 1   1.00000     0.00000
 Structure written by MMmdl.
 38 39  0  0  0  0  0  0  0  0  1 V2000
  149.1572  128.2259  154.1052 C   0  0  0  0  0  0  0  0  0  0  0  0
  149.6129  129.1273  155.1082 O   0  0  0  0  0  0  0  0  0  0  0  0
  149.5594  130.4809  154.8454 C   0  0  0  0  0  0  0  0  0  0  0  0
  148.7604  130.9287  153.7745 C   0  0  0  0  0  0  0  0  0  0  0  0
  148.7031  132.3079  153.4968 C   0  0  0  0  0  0  0  0  0  0  0  0
  149.4561  133.1985  154.2985 C   0  0  0  0  0  0  0  0  0  0  0  0
  149.4688  134.6092  154.1307 N   0  0  0  0  0  0  0  0  0  0  0  0
  149.9416  135.5455  154.9708 C   0  0  0  0  0  0  0  0  0  0  0  0
  150.4521  135.3247  156.0687 O   0  0  0  0  0  0  0  0  0  0  0  0
  149.7677  136.7764  154.4690 N   0  0  0  0  0  0  0  0  0  0  0  0
  150.1684  138.0268  155.1142 C   0  0  2  0  0  0  0  0  0  0  0  0
  149.2599  139.1963  154.6544 C   0  0  0  0  0  0  0  0  0  0  0  0
  149.8723  140.6097  154.7486 C   0  0  0  0  0  0  0  0  0  0  0  0
  150.4394  140.9973  156.1293 C   0  0  0  0  0  0  0  0  0  0  0  0
  151.4956  140.0454  156.7395 C   0  0  0  0  0  0  0  0  0  0  0  0
  152.2226  139.2411  155.7579 N   0  0  0  0  0  0  0  0  0  0  0  0
  151.6835  138.2783  154.9901 C   0  0  0  0  0  0  0  0  0  0  0  0
  152.3668  137.6308  154.1978 O   0  0  0  0  0  0  0  0  0  0  0  0
  150.2102  132.6510  155.3568 C   0  0  0  0  0  0  0  0  0  0  0  0
  150.2714  131.3301  155.6270 N   0  0  0  0  0  0  0  0  0  0  0  0
  149.2700  127.2023  154.4617 H   0  0  0  0  0  0  0  0  0  0  0  0
  149.7389  128.3222  153.1874 H   0  0  0  0  0  0  0  0  0  0  0  0
  148.1016  128.3828  153.8787 H   0  0  0  0  0  0  0  0  0  0  0  0
  148.1978  130.2263  153.1774 H   0  0  0  0  0  0  0  0  0  0  0  0
  148.0763  132.6525  152.6888 H   0  0  0  0  0  0  0  0  0  0  0  0
  149.0044  134.9507  153.3019 H   0  0  0  0  0  0  0  0  0  0  0  0
  149.3397  136.8621  153.5584 H   0  0  0  0  0  0  0  0  0  0  0  0
  149.9942  137.8807  156.1811 H   0  0  0  0  0  0  0  0  0  0  0  0
  148.9647  139.0377  153.6162 H   0  0  0  0  0  0  0  0  0  0  0  0
  148.3335  139.1684  155.2291 H   0  0  0  0  0  0  0  0  0  0  0  0
  150.6540  140.7166  153.9952 H   0  0  0  0  0  0  0  0  0  0  0  0
  149.1101  141.3374  154.4683 H   0  0  0  0  0  0  0  0  0  0  0  0
  150.8862  141.9875  156.0338 H   0  0  0  0  0  0  0  0  0  0  0  0
  149.6206  141.1163  156.8396 H   0  0  0  0  0  0  0  0  0  0  0  0
  152.2200  140.6258  157.3111 H   0  0  0  0  0  0  0  0  0  0  0  0
  151.0248  139.3818  157.4656 H   0  0  0  0  0  0  0  0  0  0  0  0
  153.2128  139.4170  155.6670 H   0  0  0  0  0  0  0  0  0  0  0  0
  150.7893  133.2917  156.0057 H   0  0  0  0  0  0  0  0  0  0  0  0
  1  2  1  0  0  0  0
  1 21  1  0  0  0  0
  1 22  1  0  0  0  0
  1 23  1  0  0  0  0
  2  3  1  0  0  0  0
  3 20  1  0  0  0  0
  3  4  2  0  0  0  0
  4  5  1  0  0  0  0
  4 24  1  0  0  0  0
  5  6  2  0  0  0  0
  5 25  1  0  0  0  0
  6  7  1  0  0  0  0
  6 19  1  0  0  0  0
  7  8  1  0  0  0  0
  7 26  1  0  0  0  0
  8  9  2  0  0  0  0
  8 10  1  0  0  0  0
 10 11  1  0  0  0  0
 10 27  1  0  0  0  0
 11 17  1  0  0  0  0
 11 12  1  0  0  0  0
 11 28  1  0  0  0  0
 12 13  1  0  0  0  0
 12 29  1  0  0  0  0
 12 30  1  0  0  0  0
 13 14  1  0  0  0  0
 13 31  1  0  0  0  0
 13 32  1  0  0  0  0
 14 15  1  0  0  0  0
 14 33  1  0  0  0  0
 14 34  1  0  0  0  0
 15 16  1  0  0  0  0
 15 35  1  0  0  0  0
 15 36  1  0  0  0  0
 16 17  1  0  0  0  0
 16 37  1  0  0  0  0
 17 18  2  0  0  0  0
 19 20  2  0  0  0  0
 19 38  1  0  0  0  0
M  END
> <s_m_source_file>
AV-unprocessed.smi

> <i_m_source_file_index>
1637

> <i_lp_mmshare_version>
43012

> <i_f3d_flags>
0

> <s_epik_input>
W0NIM11PYzFbY0hdW2NIXWMoW2NIXW4xKVtOSF1DKD1PKVtOSF1bQ0BASF0yW0NIMl1bQ0gyXVtDSDJdW0NIMl1bTkhdQzI9Tw==

> <s_epik_cmdline>
J2VwaWtfcHl0aG9uJywgJy1waCcsICc3LjAnLCAnLXRuJywgJzgnLCAnLW1hJywgJzIwMCcsICctbWV0YWxfYmluZGluZycsICctaW1hZScsICc8aW5maWxlLm1hZT4nLCAnLW9tYWUnLCAnPG91dGZpbGUubWFlPic=

> <r_lp_tautomer_probability>
1

> <r_epik_Ionization_Penalty>
8.30847e-05

> <r_epik_Ionization_Penalty_Charging>
0

> <r_epik_Ionization_Penalty_Neutral>
8.30847e-05

> <r_epik_State_Penalty>
-0

> <r_epik_Charging_Adjusted_Penalty>
0

> <i_epik_Tot_Q>
0

> <i_epik_Tot_abs_Q>
0

> <r_epik_Metal_State_Penalty>
-0

> <b_epik_Metal_Only>
0

> <s_lp_Force_Field>
OPLS_2005

> <r_lp_Energy>
17.0101

> <b_lp_Chiralities_Consistent>
1

> <s_lp_Variant>
AV-unprocessed.smi:1637-1

> <Gold.Version>
5.8.1

> <Gold.Id.Protein>
6NUR|6NUR_protein|mol2

> <Gold.PLP.Fitness>
39.2591

> <Gold.PLP.PLP>
-32.5343

> <Gold.PLP.part.hbond>
-3.0367

> <Gold.PLP.part.metal>
0.0000

> <Gold.PLP.part.buried>
-3.1596

> <Gold.PLP.part.nonpolar>
-27.2962

> <Gold.PLP.part.repulsive>
0.4704

> <Gold.PLP.ligand.clash>
0.0000

> <Gold.PLP.ligand.torsion>
0.5414

> <Gold.PLP.Chemscore.Hbond>
2.5840

> <Gold.PLP.Chemscore.CHOScore>
0.0000

> <Gold.PLP.Chemscore.Metal>
0.0000

> <Gold.Chemscore.Hbonds>
donor molecule, donor type, donor heavy atom, donor atom, acceptor molecule, acceptor atom, score
      L1  H     7    26       P1  7948  0.91
      L1  H    10    27       P1  7948  1.00
      P1  H 10752 10765       L1    18  0.72

> <Gold.PLP.Chemscore.Internal.Correction>
0.0556

> <Gold.Rescore>
     Score         DG    S(hbond)    S(metal)    S(lipo)     H(rot)  DE(clash)    DE(int)     intcor
     14.07     -16.14       2.40        0.00      51.31       1.31       0.05       2.02       ----

> <Gold.Chemscore.Fitness>
14.0713

> <Gold.Chemscore.DG>
-16.1412

> <Gold.Chemscore.ZeroCoef>
-5.4800

> <Gold.Chemscore.Hbond>
2.3977

> <Gold.Chemscore.Metal>
0.0000

> <Gold.Chemscore.Lipo>
51.3139

> <Gold.Chemscore.Internal_Hbond>
0.0000

> <Gold.Chemscore.DEClash>
0.0491

> <Gold.Chemscore.DEInternal>
2.0208

> <Gold.Chemscore.Rot>
1.3090

> <Gold.Chemscore.Internal.Correction>
   9.000000E+99

> <Gold.Chemscore.Hbonds>
donor molecule, donor type, donor heavy atom, donor atom, acceptor molecule, acceptor atom, score
      L1  H     7    26       P1  7948  0.20
      L1  H    10    27       P1  7948  0.92
      P1  H 10752 10765       L1    18  0.68

> <Gold.Chemscore.Hbond.Weighted>
-8.0084

> <Gold.Chemscore.Metal.Weighted>
-0.0000

> <Gold.Chemscore.Lipo.Weighted>
-6.0037

> <Gold.Chemscore.Internal_Hbond.Weighted>
0.0000

> <Gold.Chemscore.DEClash.Weighted>
0.0491

> <Gold.Chemscore.DEInternal.Weighted>
2.0208

> <Gold.Chemscore.Rot.Weighted>
3.3509

> <Gold.Chemscore.Internal.Correction.Weighted>
   9.000000E+99

> <Gold.Protein.RotatedTorsions>
[ 6907 6896 6895 6894 ] final -133.33 input  -60.11 | X-H torsion
[ 7974 7965 7964 7962 ] final  -43.47 input  175.53 | X-H torsion
[ 8008 7997 7996 7995 ] final -129.50 input   59.86 | X-H torsion
[ 10167 10162 10161 10158 ] final  -57.77 input  -65.29 | X-H torsion
[ 10718 10713 10712 10709 ] final    0.99 input   66.30 | X-H torsion
[ 10763 10752 10751 10750 ] final  151.69 input  -60.55 | X-H torsion
[ 11005 11000 10999 10996 ] final  -70.55 input  -57.11 | X-H torsion

> <Gold.Protein.ActiveResidues>
 VAL166  LYS551  ARG553  GLY616  TRP617  ASP618  TYR619  PRO620  LYS621  CYS622 
 ASP623  PHE694  ASN695  SER759  ASP760  ASP761  ALA762  ILE779  LEU786  VAL792 
 PHE793  MET794  SER795  GLU796  ALA797  LYS798  CYS799  TRP800  GLU811  SER814 

> <Gold.Protein.RotatedAtoms>
  150.9728  133.6326  159.2734 H   0  0  0  0  0  0  0  0  0  0  0  0  # atno 6907 bound_to 6896
  151.3609  135.0902  159.9444 H   0  0  0  0  0  0  0  0  0  0  0  0  # atno 6908 bound_to 6896
  152.5189  133.9302  159.7631 H   0  0  0  0  0  0  0  0  0  0  0  0  # atno 6909 bound_to 6896
  146.0016  140.7068  142.9268 H   0  0  0  0  0  0  0  0  0  0  0  0  # atno 7974 bound_to 7965
  155.2802  140.0444  157.3015 H   0  0  0  0  0  0  0  0  0  0  0  0  # atno 8008 bound_to 7997
  154.5601  140.2343  155.8317 H   0  0  0  0  0  0  0  0  0  0  0  0  # atno 8009 bound_to 7997
  156.2040  140.3018  155.9594 H   0  0  0  0  0  0  0  0  0  0  0  0  # atno 8010 bound_to 7997
  140.6238  143.2430  151.5415 H   0  0  0  0  0  0  0  0  0  0  0  0  # atno 10167 bound_to 10162
  156.8415  130.5522  149.5677 H   0  0  0  0  0  0  0  0  0  0  0  0  # atno 10718 bound_to 10713
  154.1079  135.2841  155.3237 H   0  0  0  0  0  0  0  0  0  0  0  0  # atno 10763 bound_to 10752
  154.6510  135.5369  153.7905 H   0  0  0  0  0  0  0  0  0  0  0  0  # atno 10764 bound_to 10752
  153.0355  135.6510  154.1239 H   0  0  0  0  0  0  0  0  0  0  0  0  # atno 10765 bound_to 10752
  141.1576  133.6793  156.6769 H   0  0  0  0  0  0  0  0  0  0  0  0  # atno 11005 bound_to 11000
  144.6921  140.3242  143.7227 LP  0  0  0  0  0  0  0  0  0  0  0  0  # atno 17320 bound_to 7965
  145.7479  139.1784  143.2338 LP  0  0  0  0  0  0  0  0  0  0  0  0  # atno 17321 bound_to 7965
  139.5462  144.2516  152.1446 LP  0  0  0  0  0  0  0  0  0  0  0  0  # atno 17342 bound_to 10162
  140.1742  144.4906  150.6563 LP  0  0  0  0  0  0  0  0  0  0  0  0  # atno 17343 bound_to 10162
  156.0878  130.5872  150.9679 LP  0  0  0  0  0  0  0  0  0  0  0  0  # atno 17370 bound_to 10713
  157.6353  131.0916  150.8361 LP  0  0  0  0  0  0  0  0  0  0  0  0  # atno 17371 bound_to 10713
  140.3132  134.8069  157.4193 LP  0  0  0  0  0  0  0  0  0  0  0  0  # atno 17394 bound_to 11000
  140.1160  134.5282  155.8224 LP  0  0  0  0  0  0  0  0  0  0  0  0  # atno 17395 bound_to 11000

$$$$
