AV-unprocessed.smi:3053|AV-procd|sdf|11637|dock3
  -GOLD-   2272017 33D 1   1.00000     0.00000
 Structure written by MMmdl.
 31 32  0  0  0  0  0  0  0  0  1 V2000
  153.0597  142.5690  160.9957 C   0  0  0  0  0  0  0  0  0  0  0  0
  152.4180  142.9086  159.6948 C   0  0  0  0  0  0  0  0  0  0  0  0
  152.0020  141.9927  158.8166 N   0  0  0  0  0  0  0  0  0  0  0  0
  151.4583  142.5633  157.6616 C   0  0  0  0  0  0  0  0  0  0  0  0
  150.9896  141.6827  156.5395 C   0  0  0  0  0  0  0  0  0  0  0  0
  149.5467  141.1691  156.7198 C   0  0  0  0  0  0  0  0  0  0  0  0
  148.8732  140.9458  155.4417 N   0  0  0  0  0  0  0  0  0  0  0  0
  149.3973  140.2988  154.3881 C   0  0  0  0  0  0  0  0  0  0  0  0
  150.5076  139.7652  154.4051 O   0  0  0  0  0  0  0  0  0  0  0  0
  148.5317  140.2502  153.1219 C   0  0  2  0  0  0  0  0  0  0  0  0
  147.1994  141.0036  153.2642 C   0  0  0  0  0  0  0  0  0  0  0  0
  146.2167  139.9432  153.1483 N   0  0  0  0  0  0  0  0  0  0  0  0
  146.7565  138.7469  152.9067 C   0  0  0  0  0  0  0  0  0  0  0  0
  146.1409  137.6955  152.7515 O   0  0  0  0  0  0  0  0  0  0  0  0
  148.0830  138.8922  152.8630 N   0  0  0  0  0  0  0  0  0  0  0  0
  151.4457  143.9360  157.6903 C   0  0  0  0  0  0  0  0  0  0  0  0
  152.1470  144.5614  159.1563 S   0  0  0  0  0  0  0  0  0  0  0  0
  152.7690  141.5679  161.3157 H   0  0  0  0  0  0  0  0  0  0  0  0
  152.7558  143.2821  161.7622 H   0  0  0  0  0  0  0  0  0  0  0  0
  154.1445  142.6040  160.8940 H   0  0  0  0  0  0  0  0  0  0  0  0
  151.0608  142.2189  155.5927 H   0  0  0  0  0  0  0  0  0  0  0  0
  151.6588  140.8271  156.4416 H   0  0  0  0  0  0  0  0  0  0  0  0
  149.5493  140.2550  157.3160 H   0  0  0  0  0  0  0  0  0  0  0  0
  148.9685  141.8973  157.2885 H   0  0  0  0  0  0  0  0  0  0  0  0
  147.9507  141.3437  155.3393 H   0  0  0  0  0  0  0  0  0  0  0  0
  149.0922  140.6105  152.2576 H   0  0  0  0  0  0  0  0  0  0  0  0
  147.0900  141.5184  154.2202 H   0  0  0  0  0  0  0  0  0  0  0  0
  147.0616  141.7308  152.4632 H   0  0  0  0  0  0  0  0  0  0  0  0
  145.2242  140.1085  153.2337 H   0  0  0  0  0  0  0  0  0  0  0  0
  148.7273  138.1300  152.7103 H   0  0  0  0  0  0  0  0  0  0  0  0
  151.0862  144.6146  156.9313 H   0  0  0  0  0  0  0  0  0  0  0  0
  1  2  1  0  0  0  0
  1 18  1  0  0  0  0
  1 19  1  0  0  0  0
  1 20  1  0  0  0  0
  2 17  1  0  0  0  0
  2  3  2  0  0  0  0
  3  4  1  0  0  0  0
  4  5  1  0  0  0  0
  4 16  2  0  0  0  0
  5  6  1  0  0  0  0
  5 21  1  0  0  0  0
  5 22  1  0  0  0  0
  6  7  1  0  0  0  0
  6 23  1  0  0  0  0
  6 24  1  0  0  0  0
  7  8  1  0  0  0  0
  7 25  1  0  0  0  0
  8  9  2  0  0  0  0
  8 10  1  0  0  0  0
 10 15  1  0  0  0  0
 10 11  1  0  0  0  0
 10 26  1  0  0  0  0
 11 12  1  0  0  0  0
 11 27  1  0  0  0  0
 11 28  1  0  0  0  0
 12 13  1  0  0  0  0
 12 29  1  0  0  0  0
 13 14  2  0  0  0  0
 13 15  1  0  0  0  0
 15 30  1  0  0  0  0
 16 17  1  0  0  0  0
 16 31  1  0  0  0  0
M  END
> <s_m_source_file>
AV-unprocessed.smi

> <i_m_source_file_index>
3053

> <i_lp_mmshare_version>
43012

> <i_f3d_flags>
0

> <s_epik_input>
W0NIM11jMW5jKFtjSF1zMSlbQ0gyXVtDSDJdW05IXUMoPU8pW0NAQEhdMltDSDJdW05IXUMoPU8pW05IXTI=

> <s_epik_cmdline>
J2VwaWtfcHl0aG9uJywgJy1waCcsICc3LjAnLCAnLXRuJywgJzgnLCAnLW1hJywgJzIwMCcsICctbWV0YWxfYmluZGluZycsICctaW1hZScsICc8aW5maWxlLm1hZT4nLCAnLW9tYWUnLCAnPG91dGZpbGUubWFlPic=

> <r_epik_Ionization_Penalty>
0.00110852

> <r_epik_Ionization_Penalty_Charging>
0

> <r_epik_Ionization_Penalty_Neutral>
0.00110852

> <r_epik_State_Penalty>
0.000695988

> <r_epik_Charging_Adjusted_Penalty>
0.000695988

> <i_epik_Tot_Q>
0

> <i_epik_Tot_abs_Q>
0

> <r_epik_Metal_State_Penalty>
-0

> <b_epik_Metal_Only>
0

> <s_lp_Force_Field>
OPLS_2005

> <r_lp_Energy>
23.9072

> <b_lp_Chiralities_Consistent>
1

> <s_lp_Variant>
AV-unprocessed.smi:3053-1

> <Gold.Version>
5.8.1

> <Gold.Id.Protein>
6NUR|6NUR_protein|mol2

> <Gold.PLP.Fitness>
45.2279

> <Gold.PLP.PLP>
-34.9380

> <Gold.PLP.part.hbond>
-4.0000

> <Gold.PLP.part.metal>
0.0000

> <Gold.PLP.part.buried>
-0.1757

> <Gold.PLP.part.nonpolar>
-31.6723

> <Gold.PLP.part.repulsive>
0.5061

> <Gold.PLP.ligand.clash>
0.1055

> <Gold.PLP.ligand.torsion>
0.6711

> <Gold.PLP.Chemscore.Hbond>
2.8968

> <Gold.PLP.Chemscore.CHOScore>
0.9965

> <Gold.PLP.Chemscore.Metal>
0.0000

> <Gold.Chemscore.Hbonds>
donor molecule, donor type, donor heavy atom, donor atom, acceptor molecule, acceptor atom, score
      L1  H    12    29       P1 10175  0.98
      L1  H    15    30       P1  7948  0.84
      P1  H  7989  7998       L1     9  1.00
      L1  C    16    31       P1  8028  1.00

> <Gold.PLP.Chemscore.Internal.Correction>
0.0576

> <Gold.Rescore>
     Score         DG    S(hbond)    S(metal)    S(lipo)     H(rot)  DE(clash)    DE(int)     intcor
     15.71     -18.22       2.37        0.00      85.63       2.02       1.91       0.60       ----

> <Gold.Chemscore.Fitness>
15.7072

> <Gold.Chemscore.DG>
-18.2176

> <Gold.Chemscore.ZeroCoef>
-5.4800

> <Gold.Chemscore.Hbond>
2.3662

> <Gold.Chemscore.Metal>
0.0000

> <Gold.Chemscore.Lipo>
85.6281

> <Gold.Chemscore.Internal_Hbond>
0.0000

> <Gold.Chemscore.DEClash>
1.9075

> <Gold.Chemscore.DEInternal>
0.6029

> <Gold.Chemscore.Rot>
2.0250

> <Gold.Chemscore.Internal.Correction>
   9.000000E+99

> <Gold.Chemscore.Hbonds>
donor molecule, donor type, donor heavy atom, donor atom, acceptor molecule, acceptor atom, score
      L1  H    12    29       P1 10175  0.93
      L1  H    15    30       P1  7948  0.78
      P1  H  7989  7998       L1     9  0.60

> <Gold.Chemscore.Hbond.Weighted>
-7.9031

> <Gold.Chemscore.Metal.Weighted>
-0.0000

> <Gold.Chemscore.Lipo.Weighted>
-10.0185

> <Gold.Chemscore.Internal_Hbond.Weighted>
0.0000

> <Gold.Chemscore.DEClash.Weighted>
1.9075

> <Gold.Chemscore.DEInternal.Weighted>
0.6029

> <Gold.Chemscore.Rot.Weighted>
5.1840

> <Gold.Chemscore.Internal.Correction.Weighted>
   9.000000E+99

> <Gold.Protein.RotatedTorsions>
[ 6907 6896 6895 6894 ] final  104.24 input  -60.11 | X-H torsion
[ 7974 7965 7964 7962 ] final -125.72 input  175.53 | X-H torsion
[ 8008 7997 7996 7995 ] final   11.77 input   59.86 | X-H torsion
[ 10167 10162 10161 10158 ] final  130.69 input  -65.29 | X-H torsion
[ 10718 10713 10712 10709 ] final   -0.36 input   66.30 | X-H torsion
[ 10763 10752 10751 10750 ] final  103.72 input  -60.55 | X-H torsion
[ 11005 11000 10999 10996 ] final  -15.74 input  -57.11 | X-H torsion

> <Gold.Protein.ActiveResidues>
 VAL166  LYS551  ARG553  GLY616  TRP617  ASP618  TYR619  PRO620  LYS621  CYS622 
 ASP623  PHE694  ASN695  SER759  ASP760  ASP761  ALA762  ILE779  LEU786  VAL792 
 PHE793  MET794  SER795  GLU796  ALA797  LYS798  CYS799  TRP800  GLU811  SER814 

> <Gold.Protein.RotatedAtoms>
  152.5270  133.9706  159.7759 H   0  0  0  0  0  0  0  0  0  0  0  0  # atno 6907 bound_to 6896
  150.9979  133.6077  159.2706 H   0  0  0  0  0  0  0  0  0  0  0  0  # atno 6908 bound_to 6896
  151.3197  135.0821  159.9354 H   0  0  0  0  0  0  0  0  0  0  0  0  # atno 6909 bound_to 6896
  144.9946  140.7764  143.4533 H   0  0  0  0  0  0  0  0  0  0  0  0  # atno 7974 bound_to 7965
  154.8114  140.2869  155.5850 H   0  0  0  0  0  0  0  0  0  0  0  0  # atno 8008 bound_to 7997
  156.2988  140.2567  156.2933 H   0  0  0  0  0  0  0  0  0  0  0  0  # atno 8009 bound_to 7997
  154.9443  140.0380  157.2102 H   0  0  0  0  0  0  0  0  0  0  0  0  # atno 8010 bound_to 7997
  139.5418  144.6737  151.4600 H   0  0  0  0  0  0  0  0  0  0  0  0  # atno 10167 bound_to 10162
  156.8215  130.5458  149.5697 H   0  0  0  0  0  0  0  0  0  0  0  0  # atno 10718 bound_to 10713
  153.3564  135.3967  155.1685 H   0  0  0  0  0  0  0  0  0  0  0  0  # atno 10763 bound_to 10752
  154.8671  135.3669  154.5156 H   0  0  0  0  0  0  0  0  0  0  0  0  # atno 10764 bound_to 10752
  153.5612  135.7081  153.5607 H   0  0  0  0  0  0  0  0  0  0  0  0  # atno 10765 bound_to 10752
  140.7997  133.8223  155.9458 H   0  0  0  0  0  0  0  0  0  0  0  0  # atno 11005 bound_to 11000
  145.2237  139.2147  143.5079 LP  0  0  0  0  0  0  0  0  0  0  0  0  # atno 17320 bound_to 7965
  146.3439  140.2100  142.8590 LP  0  0  0  0  0  0  0  0  0  0  0  0  # atno 17321 bound_to 7965
  140.6651  143.8415  150.6932 LP  0  0  0  0  0  0  0  0  0  0  0  0  # atno 17342 bound_to 10162
  140.1822  143.4105  152.1924 LP  0  0  0  0  0  0  0  0  0  0  0  0  # atno 17343 bound_to 10162
  156.0986  130.5951  150.9856 LP  0  0  0  0  0  0  0  0  0  0  0  0  # atno 17370 bound_to 10713
  157.6454  131.0904  150.8164 LP  0  0  0  0  0  0  0  0  0  0  0  0  # atno 17371 bound_to 10713
  140.9307  134.2025  157.4866 LP  0  0  0  0  0  0  0  0  0  0  0  0  # atno 17394 bound_to 11000
  139.8723  134.9831  156.5185 LP  0  0  0  0  0  0  0  0  0  0  0  0  # atno 17395 bound_to 11000

$$$$
