AV-unprocessed.smi:1230|AV-procd|sdf|5155|dock10
  -GOLD-   22720 4223D 1   1.00000     0.00000
 Structure written by MMmdl.
 38 39  0  0  0  0  0  0  0  0  2 V2000
  152.9660  141.1477  159.4828 C   0  0  0  0  0  0  0  0  0  0  0  0
  152.1597  142.4402  159.6904 C   0  0  1  0  0  0  0  0  0  0  0  0
  152.7732  143.2863  160.8242 C   0  0  0  0  0  0  0  0  0  0  0  0
  151.9927  144.5897  161.0500 C   0  0  0  0  0  0  0  0  0  0  0  0
  151.9033  145.4082  159.7548 C   0  0  0  0  0  0  0  0  0  0  0  0
  151.2803  144.5794  158.6220 C   0  0  0  0  0  0  0  0  0  0  0  0
  152.0536  143.2641  158.3867 C   0  0  2  0  0  0  0  0  0  0  0  0
  151.3630  142.4727  157.4276 O   0  0  0  0  0  0  0  0  0  0  0  0
  149.9706  142.3372  157.6685 C   0  0  0  0  0  0  0  0  0  0  0  0
  149.3883  141.3745  156.6241 C   0  0  0  0  0  0  0  0  0  0  0  0
  150.2202  140.1732  156.4776 N   0  0  0  0  0  0  0  0  0  0  0  0
  150.5784  139.4842  157.6487 C   0  0  0  0  0  0  0  0  0  0  0  0
  151.3383  138.3733  157.6101 C   0  0  0  0  0  0  0  0  0  0  0  0
  151.7161  137.6559  158.7831 C   0  0  0  0  0  0  0  0  0  0  0  0
  152.0294  137.1005  159.7496 N   0  0  0  0  0  0  0  0  0  0  0  0
  151.7973  137.8840  156.3124 C   0  0  0  0  0  0  0  0  0  0  0  0
  152.4865  136.8668  156.2468 O   0  0  0  0  0  0  0  0  0  0  0  0
  151.4294  138.5991  155.2085 N   0  5  0  0  0  0  0  0  0  0  0  0
  150.6578  139.7299  155.2609 C   0  0  0  0  0  0  0  0  0  0  0  0
  150.3461  140.3609  154.2508 O   0  0  0  0  0  0  0  0  0  0  0  0
  153.9865  141.3638  159.1650 H   0  0  0  0  0  0  0  0  0  0  0  0
  152.5093  140.5116  158.7243 H   0  0  0  0  0  0  0  0  0  0  0  0
  153.0205  140.5674  160.4043 H   0  0  0  0  0  0  0  0  0  0  0  0
  151.1510  142.1562  159.9943 H   0  0  0  0  0  0  0  0  0  0  0  0
  152.7928  142.7102  161.7498 H   0  0  0  0  0  0  0  0  0  0  0  0
  153.8115  143.5228  160.5873 H   0  0  0  0  0  0  0  0  0  0  0  0
  150.9886  144.3590  161.4085 H   0  0  0  0  0  0  0  0  0  0  0  0
  152.4724  145.1803  161.8309 H   0  0  0  0  0  0  0  0  0  0  0  0
  151.3131  146.3092  159.9240 H   0  0  0  0  0  0  0  0  0  0  0  0
  152.8997  145.7404  159.4606 H   0  0  0  0  0  0  0  0  0  0  0  0
  150.2422  144.3528  158.8687 H   0  0  0  0  0  0  0  0  0  0  0  0
  151.2559  145.1792  157.7126 H   0  0  0  0  0  0  0  0  0  0  0  0
  153.0631  143.4887  158.0365 H   0  0  0  0  0  0  0  0  0  0  0  0
  149.7877  141.9570  158.6734 H   0  0  0  0  0  0  0  0  0  0  0  0
  149.4849  143.3111  157.5907 H   0  0  0  0  0  0  0  0  0  0  0  0
  148.3745  141.0945  156.9135 H   0  0  0  0  0  0  0  0  0  0  0  0
  149.2797  141.8845  155.6656 H   0  0  0  0  0  0  0  0  0  0  0  0
  150.2043  139.9117  158.5676 H   0  0  0  0  0  0  0  0  0  0  0  0
  1  2  1  0  0  0  0
  1 21  1  0  0  0  0
  1 22  1  0  0  0  0
  1 23  1  0  0  0  0
  2  7  1  0  0  0  0
  2  3  1  0  0  0  0
  2 24  1  0  0  0  0
  3  4  1  0  0  0  0
  3 25  1  0  0  0  0
  3 26  1  0  0  0  0
  4  5  1  0  0  0  0
  4 27  1  0  0  0  0
  4 28  1  0  0  0  0
  5  6  1  0  0  0  0
  5 29  1  0  0  0  0
  5 30  1  0  0  0  0
  6  7  1  0  0  0  0
  6 31  1  0  0  0  0
  6 32  1  0  0  0  0
  7  8  1  0  0  0  0
  7 33  1  0  0  0  0
  8  9  1  0  0  0  0
  9 10  1  0  0  0  0
  9 34  1  0  0  0  0
  9 35  1  0  0  0  0
 10 11  1  0  0  0  0
 10 36  1  0  0  0  0
 10 37  1  0  0  0  0
 11 19  1  0  0  0  0
 11 12  1  0  0  0  0
 12 13  2  0  0  0  0
 12 38  1  0  0  0  0
 13 14  1  0  0  0  0
 13 16  1  0  0  0  0
 14 15  3  0  0  0  0
 16 17  2  0  0  0  0
 16 18  1  0  0  0  0
 18 19  1  0  0  0  0
 19 20  2  0  0  0  0
M  CHG  1  18  -1
M  END
> <s_m_source_file>
AV-unprocessed.smi

> <i_m_source_file_index>
1230

> <i_lp_mmshare_version>
43012

> <i_f3d_flags>
0

> <s_epik_input>
W0NIM11bQ0BASF0xW0NIMl1bQ0gyXVtDSDJdW0NIMl1bQ0BIXTFPW0NIMl1bQ0gyXW4yW2NIXWMoQyNOKWMoPU8pW25IXWMyPU8=

> <s_epik_cmdline>
J2VwaWtfcHl0aG9uJywgJy1waCcsICc3LjAnLCAnLXRuJywgJzgnLCAnLW1hJywgJzIwMCcsICctbWV0YWxfYmluZGluZycsICctaW1hZScsICc8aW5maWxlLm1hZT4nLCAnLW9tYWUnLCAnPG91dGZpbGUubWFlPic=

> <r_epik_Ionization_Penalty>
0.400014

> <r_epik_Ionization_Penalty_Charging>
4.81474e-10

> <r_epik_Ionization_Penalty_Neutral>
0.400014

> <r_epik_State_Penalty>
0.399305

> <r_epik_Charging_Adjusted_Penalty>
0.399305

> <i_epik_Tot_Q>
-1

> <i_epik_Tot_abs_Q>
1

> <r_epik_Metal_State_Penalty>
0.00056968

> <b_epik_Metal_Only>
0

> <s_lp_Force_Field>
OPLS_2005

> <r_lp_Energy>
22.5171

> <b_lp_Chiralities_Consistent>
1

> <s_lp_Variant>
AV-unprocessed.smi:1230-4

> <Gold.Version>
5.8.1

> <Gold.Id.Protein>
6NUR|6NUR_protein|mol2

> <Gold.PLP.Fitness>
47.0209

> <Gold.PLP.PLP>
-38.7948

> <Gold.PLP.part.hbond>
-2.9424

> <Gold.PLP.part.metal>
0.0000

> <Gold.PLP.part.buried>
-6.4248

> <Gold.PLP.part.nonpolar>
-31.0066

> <Gold.PLP.part.repulsive>
0.2308

> <Gold.PLP.ligand.clash>
0.0000

> <Gold.PLP.ligand.torsion>
0.2109

> <Gold.PLP.Chemscore.Hbond>
2.8800

> <Gold.PLP.Chemscore.CHOScore>
0.0000

> <Gold.PLP.Chemscore.Metal>
0.0000

> <Gold.Chemscore.Hbonds>
donor molecule, donor type, donor heavy atom, donor atom, acceptor molecule, acceptor atom, score
      P1  H  6896  6908       L1    15  1.00
      P1  H  7989  7998       L1    20  0.98
      P1  H 10752 10765       L1    17  0.90

> <Gold.PLP.Chemscore.Internal.Correction>
0.0079

> <Gold.Rescore>
     Score         DG    S(hbond)    S(metal)    S(lipo)     H(rot)  DE(clash)    DE(int)     intcor
     21.61     -21.83       2.93        0.00      97.67       1.90       0.13       0.09       ----

> <Gold.Chemscore.Fitness>
21.6107

> <Gold.Chemscore.DG>
-21.8289

> <Gold.Chemscore.ZeroCoef>
-5.4800

> <Gold.Chemscore.Hbond>
2.9285

> <Gold.Chemscore.Metal>
0.0000

> <Gold.Chemscore.Lipo>
97.6717

> <Gold.Chemscore.Internal_Hbond>
0.0000

> <Gold.Chemscore.DEClash>
0.1286

> <Gold.Chemscore.DEInternal>
0.0896

> <Gold.Chemscore.Rot>
1.8984

> <Gold.Chemscore.Internal.Correction>
   9.000000E+99

> <Gold.Chemscore.Hbonds>
donor molecule, donor type, donor heavy atom, donor atom, acceptor molecule, acceptor atom, score
      P1  H  6896  6908       L1    15  0.96
      P1  H  7989  7998       L1    20  0.74
      P1  H 10752 10765       L1    17  0.87

> <Gold.Chemscore.Hbond.Weighted>
-9.7811

> <Gold.Chemscore.Metal.Weighted>
-0.0000

> <Gold.Chemscore.Lipo.Weighted>
-11.4276

> <Gold.Chemscore.Internal_Hbond.Weighted>
0.0000

> <Gold.Chemscore.DEClash.Weighted>
0.1286

> <Gold.Chemscore.DEInternal.Weighted>
0.0896

> <Gold.Chemscore.Rot.Weighted>
4.8598

> <Gold.Chemscore.Internal.Correction.Weighted>
   9.000000E+99

> <Gold.Protein.RotatedTorsions>
[ 6907 6896 6895 6894 ] final -115.26 input  -60.11 | X-H torsion
[ 7974 7965 7964 7962 ] final -112.68 input  175.53 | X-H torsion
[ 8008 7997 7996 7995 ] final   69.04 input   59.86 | X-H torsion
[ 10167 10162 10161 10158 ] final   66.84 input  -65.29 | X-H torsion
[ 10718 10713 10712 10709 ] final -159.96 input   66.30 | X-H torsion
[ 10763 10752 10751 10750 ] final -159.63 input  -60.55 | X-H torsion
[ 11005 11000 10999 10996 ] final   99.95 input  -57.11 | X-H torsion

> <Gold.Protein.ActiveResidues>
 VAL166  LYS551  ARG553  GLY616  TRP617  ASP618  TYR619  PRO620  LYS621  CYS622 
 ASP623  PHE694  ASN695  SER759  ASP760  ASP761  ALA762  ILE779  LEU786  VAL792 
 PHE793  MET794  SER795  GLU796  ALA797  LYS798  CYS799  TRP800  GLU811  SER814 

> <Gold.Protein.RotatedAtoms>
  150.7964  133.8684  159.3251 H   0  0  0  0  0  0  0  0  0  0  0  0  # atno 6907 bound_to 6896
  151.6508  135.1000  160.0169 H   0  0  0  0  0  0  0  0  0  0  0  0  # atno 6908 bound_to 6896
  152.4046  133.6831  159.6381 H   0  0  0  0  0  0  0  0  0  0  0  0  # atno 6909 bound_to 6896
  145.1411  140.8778  143.3701 H   0  0  0  0  0  0  0  0  0  0  0  0  # atno 7974 bound_to 7965
  155.7175  140.3493  155.5001 H   0  0  0  0  0  0  0  0  0  0  0  0  # atno 8008 bound_to 7997
  155.9300  140.1082  157.1161 H   0  0  0  0  0  0  0  0  0  0  0  0  # atno 8009 bound_to 7997
  154.4083  140.1233  156.4777 H   0  0  0  0  0  0  0  0  0  0  0  0  # atno 8010 bound_to 7997
  140.0960  144.4946  150.7068 H   0  0  0  0  0  0  0  0  0  0  0  0  # atno 10167 bound_to 10162
  156.5755  130.8707  151.2850 H   0  0  0  0  0  0  0  0  0  0  0  0  # atno 10718 bound_to 10713
  154.7458  135.3080  154.8646 H   0  0  0  0  0  0  0  0  0  0  0  0  # atno 10763 bound_to 10752
  153.9448  135.6770  153.4748 H   0  0  0  0  0  0  0  0  0  0  0  0  # atno 10764 bound_to 10752
  153.1055  135.4891  154.8870 H   0  0  0  0  0  0  0  0  0  0  0  0  # atno 10765 bound_to 10752
  139.8770  134.9118  156.4682 H   0  0  0  0  0  0  0  0  0  0  0  0  # atno 11005 bound_to 11000
  145.0531  139.3165  143.5918 LP  0  0  0  0  0  0  0  0  0  0  0  0  # atno 17320 bound_to 7965
  146.3505  139.9947  142.8682 LP  0  0  0  0  0  0  0  0  0  0  0  0  # atno 17321 bound_to 7965
  140.7003  143.2430  151.4883 LP  0  0  0  0  0  0  0  0  0  0  0  0  # atno 17342 bound_to 10162
  139.5698  144.1956  152.1819 LP  0  0  0  0  0  0  0  0  0  0  0  0  # atno 17343 bound_to 10162
  157.7338  130.9737  150.1999 LP  0  0  0  0  0  0  0  0  0  0  0  0  # atno 17370 bound_to 10713
  156.2677  130.3718  149.8063 LP  0  0  0  0  0  0  0  0  0  0  0  0  # atno 17371 bound_to 10713
  140.8815  133.7915  155.9471 LP  0  0  0  0  0  0  0  0  0  0  0  0  # atno 17394 bound_to 11000
  140.8849  134.2566  157.5125 LP  0  0  0  0  0  0  0  0  0  0  0  0  # atno 17395 bound_to 11000

$$$$
