#       Name:                AV-unprocessed.smi:15
#       Creating user name   scv26
#       Creation time:       Thu Mar 26 15:21:53 2020


#       File generated by GOLD software.
#

@<TRIPOS>MOLECULE
AV-unprocessed.smi:15
    62    65     1
SMALL
NO_CHARGES


@<TRIPOS>ATOM
      1 ****        -3.9491  -3.3961   1.7678 C.3            1 S1                 0.0000
      2 ****        -2.7191  -2.7742   1.0942 C.3            1 S1                 0.0000
      3 ****        -2.2141  -1.6056   1.8142 N.pl3          1 S1                 0.0000
      4 ****        -3.0137  -0.3800   1.8720 C.3            1 S1                 0.0000
      5 ****        -3.0324   0.3993   0.5417 C.3            1 S1                 0.0000
      6 ****        -4.0195   1.5646   0.5276 C.3            1 S1                 0.0000
      7 ****        -3.4351   2.5212  -0.5021 C.3            1 S1                 0.0000
      8 ****        -2.0080   2.0112  -0.7184 C.3            1 S1                 0.0000
      9 ****        -1.7999   1.0689   0.3219 O.3            1 S1                 0.0000
     10 ****        -0.8783  -1.3854   1.7702 C.ar           1 S1                 0.0000
     11 ****        -0.2865  -0.9059   2.8935 N.ar           1 S1                 0.0000
     12 ****         1.0192  -0.6235   2.8967 C.ar           1 S1                 0.0000
     13 ****         1.8983  -0.7282   1.8985 N.ar           1 S1                 0.0000
     14 ****         1.3052  -1.1971   0.7633 C.ar           1 S1                 0.0000
     15 ****        -0.0627  -1.5611   0.6146 C.ar           1 S1                 0.0000
     16 ****        -0.2967  -1.9887  -0.6877 N.2            1 S1                 0.0000
     17 ****         0.8646  -1.8845  -1.2725 C.2            1 S1                 0.0000
     18 ****         1.8775  -1.3917  -0.4816 N.pl3          1 S1                 0.0000
     19 ****         3.2550  -1.1473  -0.8785 C.3            1 S1                 0.0000
     20 ****         3.5186   0.2566  -1.4842 C.3            1 S1                 0.0000
     21 ****         4.9072   0.3088  -1.7644 O.3            1 S1                 0.0000
     22 ****         2.7548   0.5607  -2.7656 C.3            1 S1                 0.0000
     23 ****         2.8335   2.0817  -2.8491 C.3            1 S1                 0.0000
     24 ****         2.8313   2.5375  -1.5010 O.3            1 S1                 0.0000
     25 ****         3.1040   1.4595  -0.6071 C.3            1 S1                 0.0000
     26 ****         4.0941   1.8831   0.4886 C.3            1 S1                 0.0000
     27 ****        -4.2520  -4.3045   1.2472 H              1 S1                 0.0000
     28 ****        -4.8021  -2.7182   1.7608 H              1 S1                 0.0000
     29 ****        -3.7370  -3.6631   2.8034 H              1 S1                 0.0000
     30 ****        -1.9384  -3.5343   1.0394 H              1 S1                 0.0000
     31 ****        -2.9610  -2.5003   0.0674 H              1 S1                 0.0000
     32 ****        -4.0344  -0.6482   2.1416 H              1 S1                 0.0000
     33 ****        -2.6597   0.2642   2.6781 H              1 S1                 0.0000
     34 ****        -3.2411  -0.2626  -0.3003 H              1 S1                 0.0000
     35 ****        -5.0351   1.2504   0.2860 H              1 S1                 0.0000
     36 ****        -4.0417   2.0506   1.5040 H              1 S1                 0.0000
     37 ****        -3.9975   2.5003  -1.4360 H              1 S1                 0.0000
     38 ****        -3.4437   3.5451  -0.1271 H              1 S1                 0.0000
     39 ****        -1.9207   1.5061  -1.6814 H              1 S1                 0.0000
     40 ****        -1.2648   2.8079  -0.6823 H              1 S1                 0.0000
     41 ****         1.4145  -0.2525   3.8307 H              1 S1                 0.0000
     42 ****         1.0111  -2.1488  -2.3098 H              1 S1                 0.0000
     43 ****         3.8880  -1.2982  -0.0029 H              1 S1                 0.0000
     44 ****         3.5404  -1.9205  -1.5933 H              1 S1                 0.0000
     45 ****         5.1103   1.1676  -2.1024 H              1 S1                 0.0000
     46 ****         3.1596   0.0613  -3.6466 H              1 S1                 0.0000
     47 ****         1.7073   0.2763  -2.6732 H              1 S1                 0.0000
     48 ****         3.7669   2.3913  -3.3207 H              1 S1                 0.0000
     49 ****         2.0088   2.5127  -3.4170 H              1 S1                 0.0000
     50 ****         2.1448   1.2488  -0.1362 H              1 S1                 0.0000
     51 ****         4.3077   1.0549   1.1644 H              1 S1                 0.0000
     52 ****         3.6827   2.6984   1.0838 H              1 S1                 0.0000
     53 ****         5.0387   2.2292   0.0687 H              1 S1                 0.0000
     54 ****        -1.0970   0.4110   0.0515 LP             1 S1                 0.0000
     55 ****        -1.5129   1.5391   1.1565 LP             1 S1                 0.0000
     56 ****        -0.8294  -0.7635   3.7212 LP             1 S1                 0.0000
     57 ****         2.8674  -0.4931   1.9731 LP             1 S1                 0.0000
     58 ****        -1.1584  -2.3040  -1.0851 LP             1 S1                 0.0000
     59 ****         5.1411  -0.3860  -2.4444 LP             1 S1                 0.0000
     60 ****         5.4275   0.1437  -0.9265 LP             1 S1                 0.0000
     61 ****         1.9344   2.9241  -1.2860 LP             1 S1                 0.0000
     62 ****         3.5328   3.2416  -1.3908 LP             1 S1                 0.0000
@<TRIPOS>BOND
    1    1    2 1     
    2    1   27 1     
    3    1   28 1     
    4    1   29 1     
    5    2    3 1     
    6    2   30 1     
    7    2   31 1     
    8    3    4 1     
    9    3   10 1     
   10    4    5 1     
   11    4   32 1     
   12    4   33 1     
   13    5    9 1     
   14    5    6 1     
   15    5   34 1     
   16    6    7 1     
   17    6   35 1     
   18    6   36 1     
   19    7    8 1     
   20    7   37 1     
   21    7   38 1     
   22    8    9 1     
   23    8   39 1     
   24    8   40 1     
   25   10   15 ar    
   26   10   11 ar    
   27   11   12 ar    
   28   12   13 ar    
   29   12   41 1     
   30   13   14 ar    
   31   14   18 1     
   32   14   15 ar    
   33   15   16 1     
   34   16   17 2     
   35   17   18 1     
   36   17   42 1     
   37   18   19 1     
   38   19   20 1     
   39   19   43 1     
   40   19   44 1     
   41   20   25 1     
   42   20   21 1     
   43   20   22 1     
   44   21   45 1     
   45   22   23 1     
   46   22   46 1     
   47   22   47 1     
   48   23   24 1     
   49   23   48 1     
   50   23   49 1     
   51   24   25 1     
   52   25   26 1     
   53   25   50 1     
   54   26   51 1     
   55   26   52 1     
   56   26   53 1     
   57    9   54 1     
   58    9   55 1     
   59   11   56 1     
   60   13   57 1     
   61   16   58 1     
   62   21   59 1     
   63   21   60 1     
   64   24   61 1     
   65   24   62 1     
@<TRIPOS>SUBSTRUCTURE
      1 S1             1
@<TRIPOS>SET
LONE_PAIRS      STATIC     ATOMS    <user>   **** ""
9 54 55 56 57 58 59 60 61 62
DONOR_HYDROGENS      STATIC     ATOMS    <user>   **** ""
1 45
ATOM$BLUE        STATIC     ATOMS    COLORGROUP SYSTEM
9 54 55 56 57 58 59 60 61 62
ATOM$RED        STATIC     ATOMS    COLORGROUP SYSTEM
1 45
