AV-unprocessed.smi:2098|AV-procd|sdf|8566|dock3
  -GOLD-   2272011293D 1   1.00000     0.00000
 Structure written by MMmdl.
 36 38  0  0  0  0  0  0  0  0  1 V2000
  153.1152  139.4134  155.1366 O   0  0  0  0  0  0  0  0  0  0  0  0
  152.1590  138.8131  155.9886 C   0  0  1  0  0  0  0  0  0  0  0  0
  151.4478  139.9233  156.7782 C   0  0  0  0  0  0  0  0  0  0  0  0
  152.1958  140.2063  157.9536 O   0  0  0  0  0  0  0  0  0  0  0  0
  152.0347  141.4394  158.5485 C   0  0  0  0  0  0  0  0  0  0  0  0
  152.6782  141.6408  159.7873 C   0  0  0  0  0  0  0  0  0  0  0  0
  152.5708  142.8709  160.4643 C   0  0  0  0  0  0  0  0  0  0  0  0
  151.8147  143.9173  159.9053 C   0  0  0  0  0  0  0  0  0  0  0  0
  151.7123  145.1019  160.5533 F   0  0  0  0  0  0  0  0  0  0  0  0
  151.1652  143.7302  158.6712 C   0  0  0  0  0  0  0  0  0  0  0  0
  151.2718  142.4993  157.9946 C   0  0  0  0  0  0  0  0  0  0  0  0
  151.1696  137.9948  155.1363 C   0  0  0  0  0  0  0  0  0  0  0  0
  150.4713  136.9809  155.9072 N   0  0  0  0  0  0  0  0  0  0  0  0
  150.1709  137.0261  157.2194 C   0  0  0  0  0  0  0  0  0  0  0  0
  149.5173  135.9873  157.7317 N   0  0  0  0  0  0  0  0  0  0  0  0
  149.3763  135.1716  156.6221 C   0  0  0  0  0  0  0  0  0  0  0  0
  148.7632  133.9052  156.4871 C   0  0  0  0  0  0  0  0  0  0  0  0
  148.7402  133.2519  155.2372 C   0  0  0  0  0  0  0  0  0  0  0  0
  149.3288  133.8530  154.1056 C   0  0  0  0  0  0  0  0  0  0  0  0
  149.9446  135.1144  154.2153 C   0  0  0  0  0  0  0  0  0  0  0  0
  149.9641  135.7639  155.4637 C   0  0  0  0  0  0  0  0  0  0  0  0
  153.4620  138.7481  154.5618 H   0  0  0  0  0  0  0  0  0  0  0  0
  152.6721  138.1418  156.6787 H   0  0  0  0  0  0  0  0  0  0  0  0
  151.3161  140.8117  156.1578 H   0  0  0  0  0  0  0  0  0  0  0  0
  150.4575  139.5768  157.0791 H   0  0  0  0  0  0  0  0  0  0  0  0
  153.2613  140.8429  160.2236 H   0  0  0  0  0  0  0  0  0  0  0  0
  153.0695  143.0111  161.4120 H   0  0  0  0  0  0  0  0  0  0  0  0
  150.5837  144.5324  158.2413 H   0  0  0  0  0  0  0  0  0  0  0  0
  150.7581  142.3947  157.0512 H   0  0  0  0  0  0  0  0  0  0  0  0
  150.4233  138.6536  154.6904 H   0  0  0  0  0  0  0  0  0  0  0  0
  151.6889  137.5103  154.3084 H   0  0  0  0  0  0  0  0  0  0  0  0
  150.4476  137.8706  157.8335 H   0  0  0  0  0  0  0  0  0  0  0  0
  148.3095  133.4357  157.3472 H   0  0  0  0  0  0  0  0  0  0  0  0
  148.2685  132.2845  155.1462 H   0  0  0  0  0  0  0  0  0  0  0  0
  149.3069  133.3446  153.1527 H   0  0  0  0  0  0  0  0  0  0  0  0
  150.3984  135.5763  153.3510 H   0  0  0  0  0  0  0  0  0  0  0  0
  1  2  1  0  0  0  0
  1 22  1  0  0  0  0
  2  3  1  0  0  0  0
  2 12  1  0  0  0  0
  2 23  1  0  0  0  0
  3  4  1  0  0  0  0
  3 24  1  0  0  0  0
  3 25  1  0  0  0  0
  4  5  1  0  0  0  0
  5 11  1  0  0  0  0
  5  6  2  0  0  0  0
  6  7  1  0  0  0  0
  6 26  1  0  0  0  0
  7  8  2  0  0  0  0
  7 27  1  0  0  0  0
  8  9  1  0  0  0  0
  8 10  1  0  0  0  0
 10 11  2  0  0  0  0
 10 28  1  0  0  0  0
 11 29  1  0  0  0  0
 12 13  1  0  0  0  0
 12 30  1  0  0  0  0
 12 31  1  0  0  0  0
 13 21  1  0  0  0  0
 13 14  1  0  0  0  0
 14 15  2  0  0  0  0
 14 32  1  0  0  0  0
 15 16  1  0  0  0  0
 16 21  2  0  0  0  0
 16 17  1  0  0  0  0
 17 18  2  0  0  0  0
 17 33  1  0  0  0  0
 18 19  1  0  0  0  0
 18 34  1  0  0  0  0
 19 20  2  0  0  0  0
 19 35  1  0  0  0  0
 20 21  1  0  0  0  0
 20 36  1  0  0  0  0
M  END
> <s_m_source_file>
AV-unprocessed.smi

> <i_m_source_file_index>
2098

> <i_lp_mmshare_version>
43012

> <i_f3d_flags>
0

> <s_epik_input>
W2NIXTFbY0hdW2NIXVtjSF1jKGMxMiluKFtjSF1uMilbQ0gyXVtDQEhdKFtPSF0pW0NIMl1PYzNbY0hdW2NIXWMoRilbY0hdW2NIXTM=

> <s_epik_cmdline>
J2VwaWtfcHl0aG9uJywgJy1waCcsICc3LjAnLCAnLXRuJywgJzgnLCAnLW1hJywgJzIwMCcsICctbWV0YWxfYmluZGluZycsICctaW1hZScsICc8aW5maWxlLm1hZT4nLCAnLW9tYWUnLCAnPG91dGZpbGUubWFlPic=

> <r_lp_tautomer_probability>
1

> <r_epik_Ionization_Penalty>
0.0603575

> <r_epik_Ionization_Penalty_Charging>
0

> <r_epik_Ionization_Penalty_Neutral>
0.0603575

> <r_epik_State_Penalty>
0.0523204

> <r_epik_Charging_Adjusted_Penalty>
0.0523204

> <i_epik_Tot_Q>
0

> <i_epik_Tot_abs_Q>
0

> <r_epik_Metal_State_Penalty>
5.46976e-05

> <b_epik_Metal_Only>
0

> <s_lp_Force_Field>
OPLS_2005

> <r_lp_Energy>
15.3663

> <b_lp_Chiralities_Consistent>
1

> <s_lp_Variant>
AV-unprocessed.smi:2098-2

> <Gold.Version>
5.8.1

> <Gold.Id.Protein>
6NUR|6NUR_protein|mol2

> <Gold.PLP.Fitness>
46.6342

> <Gold.PLP.PLP>
-42.2948

> <Gold.PLP.part.hbond>
-3.7703

> <Gold.PLP.part.metal>
0.0000

> <Gold.PLP.part.buried>
-5.2864

> <Gold.PLP.part.nonpolar>
-34.4652

> <Gold.PLP.part.repulsive>
0.0000

> <Gold.PLP.ligand.clash>
0.0000

> <Gold.PLP.ligand.torsion>
1.0617

> <Gold.PLP.Chemscore.Hbond>
2.1443

> <Gold.PLP.Chemscore.CHOScore>
0.0000

> <Gold.PLP.Chemscore.Metal>
0.0000

> <Gold.Chemscore.Hbonds>
donor molecule, donor type, donor heavy atom, donor atom, acceptor molecule, acceptor atom, score
      P1  H  7997  8009       L1     1  1.00

> <Gold.PLP.Chemscore.Internal.Correction>
0.0301

> <Gold.Rescore>
     Score         DG    S(hbond)    S(metal)    S(lipo)     H(rot)  DE(clash)    DE(int)     intcor
     16.16     -17.29       1.58        0.00     107.82       2.37       0.03       1.10       ----

> <Gold.Chemscore.Fitness>
16.1593

> <Gold.Chemscore.DG>
-17.2918

> <Gold.Chemscore.ZeroCoef>
-5.4800

> <Gold.Chemscore.Hbond>
1.5788

> <Gold.Chemscore.Metal>
0.0000

> <Gold.Chemscore.Lipo>
107.8180

> <Gold.Chemscore.Internal_Hbond>
0.0000

> <Gold.Chemscore.DEClash>
0.0290

> <Gold.Chemscore.DEInternal>
1.1035

> <Gold.Chemscore.Rot>
2.3735

> <Gold.Chemscore.Internal.Correction>
   9.000000E+99

> <Gold.Chemscore.Hbonds>
donor molecule, donor type, donor heavy atom, donor atom, acceptor molecule, acceptor atom, score
      P1  H  7997  8009       L1     1  0.33

> <Gold.Chemscore.Hbond.Weighted>
-5.2733

> <Gold.Chemscore.Metal.Weighted>
-0.0000

> <Gold.Chemscore.Lipo.Weighted>
-12.6147

> <Gold.Chemscore.Internal_Hbond.Weighted>
0.0000

> <Gold.Chemscore.DEClash.Weighted>
0.0290

> <Gold.Chemscore.DEInternal.Weighted>
1.1035

> <Gold.Chemscore.Rot.Weighted>
6.0762

> <Gold.Chemscore.Internal.Correction.Weighted>
   9.000000E+99

> <Gold.Protein.RotatedTorsions>
[ 6907 6896 6895 6894 ] final -174.13 input  -60.11 | X-H torsion
[ 7974 7965 7964 7962 ] final   80.54 input  175.53 | X-H torsion
[ 8008 7997 7996 7995 ] final -119.38 input   59.86 | X-H torsion
[ 10167 10162 10161 10158 ] final   71.40 input  -65.29 | X-H torsion
[ 10718 10713 10712 10709 ] final   40.14 input   66.30 | X-H torsion
[ 10763 10752 10751 10750 ] final   33.34 input  -60.55 | X-H torsion
[ 11005 11000 10999 10996 ] final   62.63 input  -57.11 | X-H torsion

> <Gold.Protein.ActiveResidues>
 VAL166  LYS551  ARG553  GLY616  TRP617  ASP618  TYR619  PRO620  LYS621  CYS622 
 ASP623  PHE694  ASN695  SER759  ASP760  ASP761  ALA762  ILE779  LEU786  VAL792 
 PHE793  MET794  SER795  GLU796  ALA797  LYS798  CYS799  TRP800  GLU811  SER814 

> <Gold.Protein.RotatedAtoms>
  151.5674  133.3394  159.2982 H   0  0  0  0  0  0  0  0  0  0  0  0  # atno 6907 bound_to 6896
  150.8387  134.7674  159.6926 H   0  0  0  0  0  0  0  0  0  0  0  0  # atno 6908 bound_to 6896
  152.4459  134.5503  159.9916 H   0  0  0  0  0  0  0  0  0  0  0  0  # atno 6909 bound_to 6896
  145.6499  139.2445  143.1983 H   0  0  0  0  0  0  0  0  0  0  0  0  # atno 7974 bound_to 7965
  155.1148  140.0398  157.2734 H   0  0  0  0  0  0  0  0  0  0  0  0  # atno 8008 bound_to 7997
  154.6658  140.2601  155.7034 H   0  0  0  0  0  0  0  0  0  0  0  0  # atno 8009 bound_to 7997
  156.2638  140.2808  156.1148 H   0  0  0  0  0  0  0  0  0  0  0  0  # atno 8010 bound_to 7997
  140.0465  144.5347  150.7395 H   0  0  0  0  0  0  0  0  0  0  0  0  # atno 10167 bound_to 10162
  157.3787  130.7741  149.7175 H   0  0  0  0  0  0  0  0  0  0  0  0  # atno 10718 bound_to 10713
  153.0217  135.6389  154.1496 H   0  0  0  0  0  0  0  0  0  0  0  0  # atno 10763 bound_to 10752
  154.1230  135.2845  155.3205 H   0  0  0  0  0  0  0  0  0  0  0  0  # atno 10764 bound_to 10752
  154.6250  135.5512  153.7679 H   0  0  0  0  0  0  0  0  0  0  0  0  # atno 10765 bound_to 10752
  140.0079  134.6342  155.9827 H   0  0  0  0  0  0  0  0  0  0  0  0  # atno 11005 bound_to 11000
  146.1212  140.7306  142.9456 LP  0  0  0  0  0  0  0  0  0  0  0  0  # atno 17320 bound_to 7965
  144.7126  140.4096  143.7068 LP  0  0  0  0  0  0  0  0  0  0  0  0  # atno 17321 bound_to 7965
  140.7236  143.2613  151.4195 LP  0  0  0  0  0  0  0  0  0  0  0  0  # atno 17342 bound_to 10162
  139.5980  144.1355  152.2166 LP  0  0  0  0  0  0  0  0  0  0  0  0  # atno 17343 bound_to 10162
  155.9771  130.4067  150.3736 LP  0  0  0  0  0  0  0  0  0  0  0  0  # atno 17370 bound_to 10713
  157.1837  131.0398  151.2736 LP  0  0  0  0  0  0  0  0  0  0  0  0  # atno 17371 bound_to 10713
  141.1690  133.6537  156.4582 LP  0  0  0  0  0  0  0  0  0  0  0  0  # atno 17394 bound_to 11000
  140.4608  134.6843  157.5084 LP  0  0  0  0  0  0  0  0  0  0  0  0  # atno 17395 bound_to 11000

$$$$
