AV-unprocessed.smi:1005|AV-procd|sdf|4373|dock1
  -GOLD-   22720 2283D 1   1.00000     0.00000
 Structure written by MMmdl.
 57 59  0  0  0  0  0  0  0  0  3 V2000
  152.8676  143.0923  161.5121 C   0  0  0  0  0  0  0  0  0  0  0  0
  152.3245  142.7052  160.1478 C   0  0  0  0  0  0  0  0  0  0  0  0
  152.2252  141.3366  159.8107 C   0  0  0  0  0  0  0  0  0  0  0  0
  151.7230  140.9349  158.5539 C   0  0  0  0  0  0  0  0  0  0  0  0
  151.5387  139.6704  158.0215 N   0  0  0  0  0  0  0  0  0  0  0  0
  151.0396  139.9536  156.8224 C   0  0  0  0  0  0  0  0  0  0  0  0
  150.8645  141.2546  156.5193 N   0  0  0  0  0  0  0  0  0  0  0  0
  150.3221  141.8028  155.2892 C   0  0  0  0  0  0  0  0  0  0  0  0
  148.8677  141.3572  155.0365 C   0  0  1  0  0  0  0  0  0  0  0  0
  148.2880  142.2599  154.1165 O   0  0  0  0  0  0  0  0  0  0  0  0
  148.7539  139.9270  154.4642 C   0  0  0  0  0  0  0  0  0  0  0  0
  147.3482  139.4549  154.3898 N   0  3  2  0  0  0  0  0  0  0  0  0
  146.6458  139.4795  155.6965 C   0  0  0  0  0  0  0  0  0  0  0  0
  145.1912  139.0122  155.5302 C   0  0  0  0  0  0  0  0  0  0  0  0
  145.1734  137.7130  154.9510 O   0  0  0  0  0  0  0  0  0  0  0  0
  145.7549  137.6862  153.6519 C   0  0  2  0  0  0  0  0  0  0  0  0
  145.5926  136.2518  153.1092 C   0  0  0  0  0  0  0  0  0  0  0  0
  146.1839  136.0603  151.7593 N   0  3  0  0  0  0  0  0  0  0  0  0
  145.8765  137.1640  150.8201 C   0  0  0  0  0  0  0  0  0  0  0  0
  145.8316  134.7445  151.1810 C   0  0  0  0  0  0  0  0  0  0  0  0
  147.2336  138.1143  153.7670 C   0  0  0  0  0  0  0  0  0  0  0  0
  151.3176  141.9481  157.6366 C   0  0  0  0  0  0  0  0  0  0  0  0
  151.4166  143.3133  157.9582 C   0  0  0  0  0  0  0  0  0  0  0  0
  151.9204  143.6971  159.2185 C   0  0  0  0  0  0  0  0  0  0  0  0
  152.0207  145.1738  159.5577 C   0  0  0  0  0  0  0  0  0  0  0  0
  153.1452  142.2132  162.0946 H   0  0  0  0  0  0  0  0  0  0  0  0
  152.1177  143.6456  162.0783 H   0  0  0  0  0  0  0  0  0  0  0  0
  153.7546  143.7173  161.4079 H   0  0  0  0  0  0  0  0  0  0  0  0
  152.5350  140.5809  160.5176 H   0  0  0  0  0  0  0  0  0  0  0  0
  150.7746  139.1691  156.1286 H   0  0  0  0  0  0  0  0  0  0  0  0
  150.3834  142.8905  155.3463 H   0  0  0  0  0  0  0  0  0  0  0  0
  150.9625  141.4956  154.4610 H   0  0  0  0  0  0  0  0  0  0  0  0
  148.3162  141.4358  155.9723 H   0  0  0  0  0  0  0  0  0  0  0  0
  148.4974  143.1417  154.3864 H   0  0  0  0  0  0  0  0  0  0  0  0
  149.2021  139.9180  153.4693 H   0  0  0  0  0  0  0  0  0  0  0  0
  149.3271  139.2146  155.0590 H   0  0  0  0  0  0  0  0  0  0  0  0
  147.1642  138.8306  156.4046 H   0  0  0  0  0  0  0  0  0  0  0  0
  146.6552  140.4832  156.1199 H   0  0  0  0  0  0  0  0  0  0  0  0
  144.6970  138.9725  156.5011 H   0  0  0  0  0  0  0  0  0  0  0  0
  144.6240  139.7100  154.9122 H   0  0  0  0  0  0  0  0  0  0  0  0
  145.2109  138.3881  153.0189 H   0  0  0  0  0  0  0  0  0  0  0  0
  146.0639  135.5650  153.8139 H   0  0  0  0  0  0  0  0  0  0  0  0
  144.5371  135.9759  153.0791 H   0  0  0  0  0  0  0  0  0  0  0  0
  144.8019  137.2469  150.6516 H   0  0  0  0  0  0  0  0  0  0  0  0
  146.3571  136.9912  149.8566 H   0  0  0  0  0  0  0  0  0  0  0  0
  146.2391  138.1211  151.1926 H   0  0  0  0  0  0  0  0  0  0  0  0
  144.7538  134.6557  151.0379 H   0  0  0  0  0  0  0  0  0  0  0  0
  146.1590  133.9340  151.8332 H   0  0  0  0  0  0  0  0  0  0  0  0
  146.3174  134.6037  150.2149 H   0  0  0  0  0  0  0  0  0  0  0  0
  147.6892  138.1369  152.7762 H   0  0  0  0  0  0  0  0  0  0  0  0
  147.7933  137.3901  154.3616 H   0  0  0  0  0  0  0  0  0  0  0  0
  151.1084  144.0596  157.2415 H   0  0  0  0  0  0  0  0  0  0  0  0
  151.6747  145.7968  158.7323 H   0  0  0  0  0  0  0  0  0  0  0  0
  153.0543  145.4474  159.7720 H   0  0  0  0  0  0  0  0  0  0  0  0
  151.4117  145.4073  160.4315 H   0  0  0  0  0  0  0  0  0  0  0  0
  147.1867  136.0477  151.8784 H   0  0  0  0  0  0  0  0  0  0  0  0
  146.8654  140.0981  153.7779 H   0  0  0  0  0  0  0  0  0  0  0  0
  1  2  1  0  0  0  0
  1 26  1  0  0  0  0
  1 27  1  0  0  0  0
  1 28  1  0  0  0  0
  2 24  1  0  0  0  0
  2  3  2  0  0  0  0
  3  4  1  0  0  0  0
  3 29  1  0  0  0  0
  4 22  2  0  0  0  0
  4  5  1  0  0  0  0
  5  6  2  0  0  0  0
  6  7  1  0  0  0  0
  6 30  1  0  0  0  0
  7  8  1  0  0  0  0
  7 22  1  0  0  0  0
  8  9  1  0  0  0  0
  8 31  1  0  0  0  0
  8 32  1  0  0  0  0
  9 10  1  0  0  0  0
  9 11  1  0  0  0  0
  9 33  1  0  0  0  0
 10 34  1  0  0  0  0
 11 12  1  0  0  0  0
 11 35  1  0  0  0  0
 11 36  1  0  0  0  0
 12 21  1  0  0  0  0
 12 13  1  0  0  0  0
 12 57  1  0  0  0  0
 13 14  1  0  0  0  0
 13 37  1  0  0  0  0
 13 38  1  0  0  0  0
 14 15  1  0  0  0  0
 14 39  1  0  0  0  0
 14 40  1  0  0  0  0
 15 16  1  0  0  0  0
 16 17  1  0  0  0  0
 16 21  1  0  0  0  0
 16 41  1  0  0  0  0
 17 18  1  0  0  0  0
 17 42  1  0  0  0  0
 17 43  1  0  0  0  0
 18 19  1  0  0  0  0
 18 20  1  0  0  0  0
 18 56  1  0  0  0  0
 19 44  1  0  0  0  0
 19 45  1  0  0  0  0
 19 46  1  0  0  0  0
 20 47  1  0  0  0  0
 20 48  1  0  0  0  0
 20 49  1  0  0  0  0
 21 50  1  0  0  0  0
 21 51  1  0  0  0  0
 22 23  1  0  0  0  0
 23 24  2  0  0  0  0
 23 52  1  0  0  0  0
 24 25  1  0  0  0  0
 25 53  1  0  0  0  0
 25 54  1  0  0  0  0
 25 55  1  0  0  0  0
M  CHG  1  12   1
M  CHG  1  18   1
M  END
> <s_m_source_file>
AV-unprocessed.smi

> <i_m_source_file_index>
1005

> <i_lp_mmshare_version>
43012

> <i_f3d_flags>
0

> <s_epik_input>
W0NIM11jKFtjSF0xKWMoW0NIM10pW2NIXWMoYzEyKW4oW2NIXW4yKVtDSDJdW0NASF0oW09IXSlbQ0gyXU4zW0NIMl1bQ0gyXU9bQ0BIXShbQ0gyXTMpW0NIMl1OKFtDSDNdKVtDSDNd

> <s_epik_cmdline>
J2VwaWtfcHl0aG9uJywgJy1waCcsICc3LjAnLCAnLXRuJywgJzgnLCAnLW1hJywgJzIwMCcsICctbWV0YWxfYmluZGluZycsICctaW1hZScsICc8aW5maWxlLm1hZT4nLCAnLW9tYWUnLCAnPG91dGZpbGUubWFlPic=

> <r_epik_Ionization_Penalty>
1.0968

> <r_epik_Ionization_Penalty_Charging>
1.0096

> <r_epik_Ionization_Penalty_Neutral>
0.0871956

> <r_epik_State_Penalty>
1.31185

> <r_epik_Charging_Adjusted_Penalty>
2.32145

> <i_epik_Tot_Q>
2

> <i_epik_Tot_abs_Q>
2

> <r_epik_Metal_State_Penalty>
1.22442

> <b_epik_Metal_Only>
0

> <s_lp_Force_Field>
OPLS_2005

> <r_lp_Energy>
33.9928

> <b_lp_Chiralities_Consistent>
1

> <s_lp_Variant>
AV-unprocessed.smi:1005-12

> <Gold.Version>
5.8.1

> <Gold.Id.Protein>
6NUR|6NUR_protein|mol2

> <Gold.PLP.Fitness>
51.7588

> <Gold.PLP.PLP>
-43.0917

> <Gold.PLP.part.hbond>
-3.0000

> <Gold.PLP.part.metal>
0.0000

> <Gold.PLP.part.buried>
-0.7818

> <Gold.PLP.part.nonpolar>
-39.3446

> <Gold.PLP.part.repulsive>
0.1156

> <Gold.PLP.ligand.clash>
0.0000

> <Gold.PLP.ligand.torsion>
0.2902

> <Gold.PLP.Chemscore.Hbond>
3.0300

> <Gold.PLP.Chemscore.CHOScore>
0.0000

> <Gold.PLP.Chemscore.Metal>
0.0000

> <Gold.Chemscore.Hbonds>
donor molecule, donor type, donor heavy atom, donor atom, acceptor molecule, acceptor atom, score
      L1  H    10    34       P1  8028  1.00
      L1  H    18    56       P1  7948  2.00
      P1  H  8011  8017       L1    10  0.04

> <Gold.PLP.Chemscore.Internal.Correction>
0.1575

> <Gold.Rescore>
     Score         DG    S(hbond)    S(metal)    S(lipo)     H(rot)  DE(clash)    DE(int)     intcor
     18.80     -21.11       1.99        0.00     130.95       2.48       1.97       0.34       ----

> <Gold.Chemscore.Fitness>
18.7992

> <Gold.Chemscore.DG>
-21.1097

> <Gold.Chemscore.ZeroCoef>
-5.4800

> <Gold.Chemscore.Hbond>
1.9944

> <Gold.Chemscore.Metal>
0.0000

> <Gold.Chemscore.Lipo>
130.9466

> <Gold.Chemscore.Internal_Hbond>
0.0000

> <Gold.Chemscore.DEClash>
1.9748

> <Gold.Chemscore.DEInternal>
0.3357

> <Gold.Chemscore.Rot>
2.4814

> <Gold.Chemscore.Internal.Correction>
   9.000000E+99

> <Gold.Chemscore.Hbonds>
donor molecule, donor type, donor heavy atom, donor atom, acceptor molecule, acceptor atom, score
      L1  H    10    34       P1  8028  0.93
      L1  H    18    56       P1  7948  1.00

> <Gold.Chemscore.Hbond.Weighted>
-6.6613

> <Gold.Chemscore.Metal.Weighted>
-0.0000

> <Gold.Chemscore.Lipo.Weighted>
-15.3208

> <Gold.Chemscore.Internal_Hbond.Weighted>
0.0000

> <Gold.Chemscore.DEClash.Weighted>
1.9748

> <Gold.Chemscore.DEInternal.Weighted>
0.3357

> <Gold.Chemscore.Rot.Weighted>
6.3524

> <Gold.Chemscore.Internal.Correction.Weighted>
   9.000000E+99

> <Gold.Protein.RotatedTorsions>
[ 6907 6896 6895 6894 ] final    1.44 input  -60.11 | X-H torsion
[ 7974 7965 7964 7962 ] final  103.04 input  175.53 | X-H torsion
[ 8008 7997 7996 7995 ] final   57.26 input   59.86 | X-H torsion
[ 10167 10162 10161 10158 ] final -158.30 input  -65.29 | X-H torsion
[ 10718 10713 10712 10709 ] final -158.58 input   66.30 | X-H torsion
[ 10763 10752 10751 10750 ] final -161.16 input  -60.55 | X-H torsion
[ 11005 11000 10999 10996 ] final -109.96 input  -57.11 | X-H torsion

> <Gold.Protein.ActiveResidues>
 VAL166  LYS551  ARG553  GLY616  TRP617  ASP618  TYR619  PRO620  LYS621  CYS622 
 ASP623  PHE694  ASN695  SER759  ASP760  ASP761  ALA762  ILE779  LEU786  VAL792 
 PHE793  MET794  SER795  GLU796  ALA797  LYS798  CYS799  TRP800  GLU811  SER814 

> <Gold.Protein.RotatedAtoms>
  151.5927  135.1052  160.0042 H   0  0  0  0  0  0  0  0  0  0  0  0  # atno 6907 bound_to 6896
  152.4298  133.7254  159.6567 H   0  0  0  0  0  0  0  0  0  0  0  0  # atno 6908 bound_to 6896
  150.8189  133.8216  159.3170 H   0  0  0  0  0  0  0  0  0  0  0  0  # atno 6909 bound_to 6896
  145.3512  139.2439  143.3557 H   0  0  0  0  0  0  0  0  0  0  0  0  # atno 7974 bound_to 7965
  155.5308  140.3482  155.4426 H   0  0  0  0  0  0  0  0  0  0  0  0  # atno 8008 bound_to 7997
  156.0719  140.1365  156.9845 H   0  0  0  0  0  0  0  0  0  0  0  0  # atno 8009 bound_to 7997
  154.4533  140.0964  156.6657 H   0  0  0  0  0  0  0  0  0  0  0  0  # atno 8010 bound_to 7997
  139.6703  143.9757  152.2279 H   0  0  0  0  0  0  0  0  0  0  0  0  # atno 10167 bound_to 10162
  156.5561  130.8626  151.2795 H   0  0  0  0  0  0  0  0  0  0  0  0  # atno 10718 bound_to 10713
  154.7327  135.3050  154.8863 H   0  0  0  0  0  0  0  0  0  0  0  0  # atno 10763 bound_to 10752
  153.9701  135.6742  153.4751 H   0  0  0  0  0  0  0  0  0  0  0  0  # atno 10764 bound_to 10752
  153.0934  135.4948  154.8654 H   0  0  0  0  0  0  0  0  0  0  0  0  # atno 10765 bound_to 10752
  141.0818  133.9206  157.2271 H   0  0  0  0  0  0  0  0  0  0  0  0  # atno 11005 bound_to 11000
  146.2967  140.4128  142.8719 LP  0  0  0  0  0  0  0  0  0  0  0  0  # atno 17320 bound_to 7965
  144.8716  140.7281  143.6043 LP  0  0  0  0  0  0  0  0  0  0  0  0  # atno 17321 bound_to 7965
  139.9519  144.6615  150.8163 LP  0  0  0  0  0  0  0  0  0  0  0  0  # atno 17342 bound_to 10162
  140.7615  143.3177  151.2695 LP  0  0  0  0  0  0  0  0  0  0  0  0  # atno 17343 bound_to 10162
  157.7378  130.9802  150.2214 LP  0  0  0  0  0  0  0  0  0  0  0  0  # atno 17370 bound_to 10713
  156.2841  130.3737  149.7906 LP  0  0  0  0  0  0  0  0  0  0  0  0  # atno 17371 bound_to 10713
  139.9633  135.0148  156.9319 LP  0  0  0  0  0  0  0  0  0  0  0  0  # atno 17394 bound_to 11000
  140.5451  134.0682  155.7352 LP  0  0  0  0  0  0  0  0  0  0  0  0  # atno 17395 bound_to 11000

$$$$
