AV-unprocessed.smi:2786|AV-procd|sdf|10751|dock4
  -GOLD-   2272015183D 1   1.00000     0.00000
 Structure written by MMmdl.
 28 29  0  0  0  0  0  0  0  0  3 V2000
  149.5428  139.7888  154.3701 C   0  0  0  0  0  0  0  0  0  0  0  0
  148.3218  140.5658  154.1469 N   0  0  0  0  0  0  0  0  0  0  0  0
  148.0933  141.8568  154.5494 C   0  0  0  0  0  0  0  0  0  0  0  0
  146.8259  142.1778  154.1397 C   0  0  0  0  0  0  0  0  0  0  0  0
  146.3343  141.0707  153.5032 N   0  3  0  0  0  0  0  0  0  0  0  0
  147.2457  140.0889  153.4980 C   0  0  0  0  0  0  0  0  0  0  0  0
  147.0646  138.7215  152.9032 C   0  0  1  0  0  0  0  0  0  0  0  0
  146.9817  137.6370  154.0019 C   0  0  0  0  0  0  0  0  0  0  0  0
  146.8463  136.2944  153.3994 N   0  3  0  0  0  0  0  0  0  0  0  0
  145.6900  136.2358  152.4837 C   0  0  0  0  0  0  0  0  0  0  0  0
  145.8111  137.3363  151.4146 C   0  0  0  0  0  0  0  0  0  0  0  0
  145.8742  138.6468  152.0553 N   0  0  0  0  0  0  0  0  0  0  0  0
  150.2257  140.3556  155.0043 H   0  0  0  0  0  0  0  0  0  0  0  0
  150.0229  139.5892  153.4117 H   0  0  0  0  0  0  0  0  0  0  0  0
  149.2922  138.8493  154.8636 H   0  0  0  0  0  0  0  0  0  0  0  0
  148.8297  142.4380  155.0864 H   0  0  0  0  0  0  0  0  0  0  0  0
  146.2521  143.0864  154.2513 H   0  0  0  0  0  0  0  0  0  0  0  0
  147.9390  138.5467  152.2751 H   0  0  0  0  0  0  0  0  0  0  0  0
  147.8786  137.6505  154.6215 H   0  0  0  0  0  0  0  0  0  0  0  0
  146.1345  137.8223  154.6643 H   0  0  0  0  0  0  0  0  0  0  0  0
  147.6840  136.0849  152.8754 H   0  0  0  0  0  0  0  0  0  0  0  0
  145.6567  135.2523  152.0144 H   0  0  0  0  0  0  0  0  0  0  0  0
  144.7661  136.3510  153.0525 H   0  0  0  0  0  0  0  0  0  0  0  0
  146.6951  137.1812  150.7943 H   0  0  0  0  0  0  0  0  0  0  0  0
  144.9464  137.3091  150.7510 H   0  0  0  0  0  0  0  0  0  0  0  0
  145.9156  139.3651  151.3451 H   0  0  0  0  0  0  0  0  0  0  0  0
  146.7324  135.6055  154.1295 H   0  0  0  0  0  0  0  0  0  0  0  0
  145.4135  141.0023  153.0877 H   0  0  0  0  0  0  0  0  0  0  0  0
  1  2  1  0  0  0  0
  1 13  1  0  0  0  0
  1 14  1  0  0  0  0
  1 15  1  0  0  0  0
  2  6  1  0  0  0  0
  2  3  1  0  0  0  0
  3  4  2  0  0  0  0
  3 16  1  0  0  0  0
  4  5  1  0  0  0  0
  4 17  1  0  0  0  0
  5  6  2  0  0  0  0
  5 28  1  0  0  0  0
  6  7  1  0  0  0  0
  7 12  1  0  0  0  0
  7  8  1  0  0  0  0
  7 18  1  0  0  0  0
  8  9  1  0  0  0  0
  8 19  1  0  0  0  0
  8 20  1  0  0  0  0
  9 10  1  0  0  0  0
  9 21  1  0  0  0  0
  9 27  1  0  0  0  0
 10 11  1  0  0  0  0
 10 22  1  0  0  0  0
 10 23  1  0  0  0  0
 11 12  1  0  0  0  0
 11 24  1  0  0  0  0
 11 25  1  0  0  0  0
 12 26  1  0  0  0  0
M  CHG  1   5   1
M  CHG  1   9   1
M  END
> <s_m_source_file>
AV-unprocessed.smi

> <i_m_source_file_index>
2786

> <i_lp_mmshare_version>
43012

> <i_f3d_flags>
0

> <s_epik_input>
W0NIM11uMVtjSF1bY0hdbmMxW0NAQEhdMltDSDJdW05IXVtDSDJdW0NIMl1bTkhdMg==

> <s_epik_cmdline>
J2VwaWtfcHl0aG9uJywgJy1waCcsICc3LjAnLCAnLXRuJywgJzgnLCAnLW1hJywgJzIwMCcsICctbWV0YWxfYmluZGluZycsICctaW1hZScsICc8aW5maWxlLm1hZT4nLCAnLW9tYWUnLCAnPG91dGZpbGUubWFlPic=

> <r_lp_tautomer_probability>
1

> <r_epik_Ionization_Penalty>
1.19986

> <r_epik_Ionization_Penalty_Charging>
0.069211

> <r_epik_Ionization_Penalty_Neutral>
1.13065

> <r_epik_State_Penalty>
0.776615

> <r_epik_Charging_Adjusted_Penalty>
0.845826

> <i_epik_Tot_Q>
2

> <i_epik_Tot_abs_Q>
2

> <r_epik_Metal_State_Penalty>
4.73559

> <b_epik_Metal_Only>
0

> <s_lp_Force_Field>
OPLS_2005

> <r_lp_Energy>
18.3539

> <b_lp_Chiralities_Consistent>
1

> <s_lp_Variant>
AV-unprocessed.smi:2786-4

> <Gold.Version>
5.8.1

> <Gold.Id.Protein>
6NUR|6NUR_protein|mol2

> <Gold.PLP.Fitness>
37.7804

> <Gold.PLP.PLP>
-23.1835

> <Gold.PLP.part.hbond>
-4.0000

> <Gold.PLP.part.metal>
0.0000

> <Gold.PLP.part.buried>
1.1374

> <Gold.PLP.part.nonpolar>
-21.2145

> <Gold.PLP.part.repulsive>
0.0253

> <Gold.PLP.ligand.clash>
0.0000

> <Gold.PLP.ligand.torsion>
0.2067

> <Gold.PLP.Chemscore.Hbond>
4.0000

> <Gold.PLP.Chemscore.CHOScore>
1.0000

> <Gold.PLP.Chemscore.Metal>
0.0000

> <Gold.Chemscore.Hbonds>
donor molecule, donor type, donor heavy atom, donor atom, acceptor molecule, acceptor atom, score
      L1  H     5    28       P1 10175  2.00
      L1  H     9    21       P1  7948  2.00
      L1  C     3    16       P1  8028  1.00

> <Gold.PLP.Chemscore.Internal.Correction>
0.0104

> <Gold.Rescore>
     Score         DG    S(hbond)    S(metal)    S(lipo)     H(rot)  DE(clash)    DE(int)     intcor
     13.39     -13.75       1.97        0.00      36.22       1.00       0.01       0.34       ----

> <Gold.Chemscore.Fitness>
13.3948

> <Gold.Chemscore.DG>
-13.7505

> <Gold.Chemscore.ZeroCoef>
-5.4800

> <Gold.Chemscore.Hbond>
1.9739

> <Gold.Chemscore.Metal>
0.0000

> <Gold.Chemscore.Lipo>
36.2193

> <Gold.Chemscore.Internal_Hbond>
0.0000

> <Gold.Chemscore.DEClash>
0.0120

> <Gold.Chemscore.DEInternal>
0.3436

> <Gold.Chemscore.Rot>
1.0000

> <Gold.Chemscore.Internal.Correction>
   9.000000E+99

> <Gold.Chemscore.Hbonds>
donor molecule, donor type, donor heavy atom, donor atom, acceptor molecule, acceptor atom, score
      L1  H     5    28       P1 10175  0.35
      L1  H     9    21       P1  7948  0.99

> <Gold.Chemscore.Hbond.Weighted>
-6.5928

> <Gold.Chemscore.Metal.Weighted>
-0.0000

> <Gold.Chemscore.Lipo.Weighted>
-4.2377

> <Gold.Chemscore.Internal_Hbond.Weighted>
0.0000

> <Gold.Chemscore.DEClash.Weighted>
0.0120

> <Gold.Chemscore.DEInternal.Weighted>
0.3436

> <Gold.Chemscore.Rot.Weighted>
2.5600

> <Gold.Chemscore.Internal.Correction.Weighted>
   9.000000E+99

> <Gold.Protein.RotatedTorsions>
[ 6907 6896 6895 6894 ] final  135.64 input  -60.11 | X-H torsion
[ 7974 7965 7964 7962 ] final  126.70 input  175.53 | X-H torsion
[ 8008 7997 7996 7995 ] final -174.58 input   59.86 | X-H torsion
[ 10167 10162 10161 10158 ] final   11.69 input  -65.29 | X-H torsion
[ 10718 10713 10712 10709 ] final  119.36 input   66.30 | X-H torsion
[ 10763 10752 10751 10750 ] final   96.31 input  -60.55 | X-H torsion
[ 11005 11000 10999 10996 ] final   32.75 input  -57.11 | X-H torsion

> <Gold.Protein.ActiveResidues>
 VAL166  LYS551  ARG553  GLY616  TRP617  ASP618  TYR619  PRO620  LYS621  CYS622 
 ASP623  PHE694  ASN695  SER759  ASP760  ASP761  ALA762  ILE779  LEU786  VAL792 
 PHE793  MET794  SER795  GLU796  ALA797  LYS798  CYS799  TRP800  GLU811  SER814 

> <Gold.Protein.RotatedAtoms>
  152.2982  133.5628  159.5600 H   0  0  0  0  0  0  0  0  0  0  0  0  # atno 6907 bound_to 6896
  150.7265  134.0330  159.3749 H   0  0  0  0  0  0  0  0  0  0  0  0  # atno 6908 bound_to 6896
  151.8232  135.0645  160.0478 H   0  0  0  0  0  0  0  0  0  0  0  0  # atno 6909 bound_to 6896
  145.0588  139.3822  143.5016 H   0  0  0  0  0  0  0  0  0  0  0  0  # atno 7974 bound_to 7965
  155.9719  140.1164  157.0804 H   0  0  0  0  0  0  0  0  0  0  0  0  # atno 8008 bound_to 7997
  154.4159  140.1161  156.5385 H   0  0  0  0  0  0  0  0  0  0  0  0  # atno 8009 bound_to 7997
  155.6585  140.3473  155.4776 H   0  0  0  0  0  0  0  0  0  0  0  0  # atno 8010 bound_to 7997
  140.6116  143.8396  150.7071 H   0  0  0  0  0  0  0  0  0  0  0  0  # atno 10167 bound_to 10162
  157.5967  131.1057  150.7885 H   0  0  0  0  0  0  0  0  0  0  0  0  # atno 10718 bound_to 10713
  153.2635  135.4223  155.0917 H   0  0  0  0  0  0  0  0  0  0  0  0  # atno 10763 bound_to 10752
  154.8429  135.3454  154.6345 H   0  0  0  0  0  0  0  0  0  0  0  0  # atno 10764 bound_to 10752
  153.6765  135.7041  153.5188 H   0  0  0  0  0  0  0  0  0  0  0  0  # atno 10765 bound_to 10752
  140.2702  134.3090  155.7830 H   0  0  0  0  0  0  0  0  0  0  0  0  # atno 11005 bound_to 11000
  146.3523  140.0276  142.8653 LP  0  0  0  0  0  0  0  0  0  0  0  0  # atno 17320 bound_to 7965
  145.1435  140.9584  143.4475 LP  0  0  0  0  0  0  0  0  0  0  0  0  # atno 17321 bound_to 7965
  140.1966  143.3993  152.1823 LP  0  0  0  0  0  0  0  0  0  0  0  0  # atno 17342 bound_to 10162
  139.5365  144.7215  151.4874 LP  0  0  0  0  0  0  0  0  0  0  0  0  # atno 17343 bound_to 10162
  156.8294  130.5011  149.5333 LP  0  0  0  0  0  0  0  0  0  0  0  0  # atno 17370 bound_to 10713
  156.1031  130.5984  150.9926 LP  0  0  0  0  0  0  0  0  0  0  0  0  # atno 17371 bound_to 10713
  141.2178  133.7462  156.9323 LP  0  0  0  0  0  0  0  0  0  0  0  0  # atno 17394 bound_to 11000
  140.1380  134.9312  157.2428 LP  0  0  0  0  0  0  0  0  0  0  0  0  # atno 17395 bound_to 11000

$$$$
