AV-unprocessed.smi:284|AV-procd|sdf|2162|dock5
  -GOLD-   2262021513D 1   1.00000     0.00000
 Structure written by MMmdl.
 60 62  0  0  0  0  0  0  0  0  1 V2000
  157.6036  134.2519  161.2711 C   0  0  0  0  0  0  0  0  0  0  0  0
  156.6119  134.9412  162.1958 C   0  0  0  0  0  0  0  0  0  0  0  0
  155.7548  134.2458  162.9783 C   0  0  0  0  0  0  0  0  0  0  0  0
  154.8410  134.8363  163.8372 N   0  0  0  0  0  0  0  0  0  0  0  0
  153.9475  134.0372  164.7777 C   0  0  1  0  0  0  0  0  0  0  0  0
  153.2974  132.7928  164.1549 C   0  0  0  0  0  0  0  0  0  0  0  0
  154.1500  131.6427  164.6912 C   0  0  1  0  0  0  0  0  0  0  0  0
  154.6458  130.8443  163.6355 O   0  0  0  0  0  0  0  0  0  0  0  0
  155.2879  132.3279  165.4694 C   0  0  2  0  0  0  0  0  0  0  0  0
  155.7442  131.5809  166.7315 C   0  0  0  0  0  0  0  0  0  0  0  0
  156.3304  130.3438  166.3862 O   0  0  0  0  0  0  0  0  0  0  0  0
  154.7256  133.5809  165.8367 O   0  0  0  0  0  0  0  0  0  0  0  0
  154.8506  136.2405  163.9828 C   0  0  0  0  0  0  0  0  0  0  0  0
  154.1177  136.7954  164.8053 O   0  0  0  0  0  0  0  0  0  0  0  0
  155.7205  136.9984  163.1669 N   0  0  0  0  0  0  0  0  0  0  0  0
  155.7210  138.4704  163.3199 C   0  0  0  0  0  0  0  0  0  0  0  0
  154.7625  139.1783  162.3491 C   0  0  0  0  0  0  0  0  0  0  0  0
  154.1015  138.5228  161.5431 O   0  0  0  0  0  0  0  0  0  0  0  0
  154.6872  140.5143  162.4904 N   0  0  0  0  0  0  0  0  0  0  0  0
  153.9334  141.4522  161.7335 C   0  0  0  0  0  0  0  0  0  0  0  0
  153.2671  142.5654  162.2963 C   0  0  0  0  0  0  0  0  0  0  0  0
  152.5197  143.4369  161.4806 C   0  0  0  0  0  0  0  0  0  0  0  0
  152.4101  143.2156  160.0857 C   0  0  0  0  0  0  0  0  0  0  0  0
  151.5969  144.1443  159.1637 C   0  0  0  0  0  0  0  0  0  0  0  0
  152.5083  144.7048  158.0515 C   0  0  0  0  0  0  0  0  0  0  0  0
  150.9807  145.3486  159.9113 C   0  0  0  0  0  0  0  0  0  0  0  0
  150.4415  143.3485  158.5224 C   0  0  0  0  0  0  0  0  0  0  0  0
  153.0676  142.0895  159.5372 C   0  0  0  0  0  0  0  0  0  0  0  0
  153.8157  141.2177  160.3502 C   0  0  0  0  0  0  0  0  0  0  0  0
  156.6187  136.4039  162.2486 C   0  0  0  0  0  0  0  0  0  0  0  0
  157.3649  137.1000  161.5573 O   0  0  0  0  0  0  0  0  0  0  0  0
  157.4982  133.1669  161.2958 H   0  0  0  0  0  0  0  0  0  0  0  0
  158.6261  134.4940  161.5629 H   0  0  0  0  0  0  0  0  0  0  0  0
  157.4548  134.5760  160.2404 H   0  0  0  0  0  0  0  0  0  0  0  0
  155.8173  133.1714  162.9265 H   0  0  0  0  0  0  0  0  0  0  0  0
  153.1865  134.7393  165.1216 H   0  0  0  0  0  0  0  0  0  0  0  0
  152.2837  132.7063  164.5473 H   0  0  0  0  0  0  0  0  0  0  0  0
  153.2156  132.8603  163.0702 H   0  0  0  0  0  0  0  0  0  0  0  0
  153.5461  131.0244  165.3566 H   0  0  0  0  0  0  0  0  0  0  0  0
  155.5903  130.8521  163.6694 H   0  0  0  0  0  0  0  0  0  0  0  0
  156.1443  132.5216  164.8210 H   0  0  0  0  0  0  0  0  0  0  0  0
  156.4867  132.1719  167.2680 H   0  0  0  0  0  0  0  0  0  0  0  0
  154.9099  131.4165  167.4143 H   0  0  0  0  0  0  0  0  0  0  0  0
  157.0131  130.5009  165.7518 H   0  0  0  0  0  0  0  0  0  0  0  0
  155.4582  138.7714  164.3349 H   0  0  0  0  0  0  0  0  0  0  0  0
  156.7299  138.8644  163.1832 H   0  0  0  0  0  0  0  0  0  0  0  0
  155.2092  140.9042  163.2618 H   0  0  0  0  0  0  0  0  0  0  0  0
  153.2991  142.7660  163.3558 H   0  0  0  0  0  0  0  0  0  0  0  0
  152.0320  144.2703  161.9612 H   0  0  0  0  0  0  0  0  0  0  0  0
  151.9627  145.3876  157.3992 H   0  0  0  0  0  0  0  0  0  0  0  0
  152.9162  143.9184  157.4165 H   0  0  0  0  0  0  0  0  0  0  0  0
  153.3497  145.2567  158.4724 H   0  0  0  0  0  0  0  0  0  0  0  0
  151.7474  145.9686  160.3775 H   0  0  0  0  0  0  0  0  0  0  0  0
  150.2838  145.0294  160.6874 H   0  0  0  0  0  0  0  0  0  0  0  0
  150.4219  145.9919  159.2305 H   0  0  0  0  0  0  0  0  0  0  0  0
  149.8370  143.9813  157.8717 H   0  0  0  0  0  0  0  0  0  0  0  0
  149.7791  142.9339  159.2833 H   0  0  0  0  0  0  0  0  0  0  0  0
  150.8031  142.5184  157.9151 H   0  0  0  0  0  0  0  0  0  0  0  0
  153.0012  141.8796  158.4804 H   0  0  0  0  0  0  0  0  0  0  0  0
  154.3044  140.3648  159.9022 H   0  0  0  0  0  0  0  0  0  0  0  0
  1  2  1  0  0  0  0
  1 32  1  0  0  0  0
  1 33  1  0  0  0  0
  1 34  1  0  0  0  0
  2 30  1  0  0  0  0
  2  3  2  0  0  0  0
  3  4  1  0  0  0  0
  3 35  1  0  0  0  0
  4  5  1  0  0  0  0
  4 13  1  0  0  0  0
  5 12  1  0  0  0  0
  5  6  1  0  0  0  0
  5 36  1  0  0  0  0
  6  7  1  0  0  0  0
  6 37  1  0  0  0  0
  6 38  1  0  0  0  0
  7  8  1  0  0  0  0
  7  9  1  0  0  0  0
  7 39  1  0  0  0  0
  8 40  1  0  0  0  0
  9 10  1  0  0  0  0
  9 12  1  0  0  0  0
  9 41  1  0  0  0  0
 10 11  1  0  0  0  0
 10 42  1  0  0  0  0
 10 43  1  0  0  0  0
 11 44  1  0  0  0  0
 13 14  2  0  0  0  0
 13 15  1  0  0  0  0
 15 16  1  0  0  0  0
 15 30  1  0  0  0  0
 16 17  1  0  0  0  0
 16 45  1  0  0  0  0
 16 46  1  0  0  0  0
 17 18  2  0  0  0  0
 17 19  1  0  0  0  0
 19 20  1  0  0  0  0
 19 47  1  0  0  0  0
 20 29  1  0  0  0  0
 20 21  2  0  0  0  0
 21 22  1  0  0  0  0
 21 48  1  0  0  0  0
 22 23  2  0  0  0  0
 22 49  1  0  0  0  0
 23 24  1  0  0  0  0
 23 28  1  0  0  0  0
 24 25  1  0  0  0  0
 24 26  1  0  0  0  0
 24 27  1  0  0  0  0
 25 50  1  0  0  0  0
 25 51  1  0  0  0  0
 25 52  1  0  0  0  0
 26 53  1  0  0  0  0
 26 54  1  0  0  0  0
 26 55  1  0  0  0  0
 27 56  1  0  0  0  0
 27 57  1  0  0  0  0
 27 58  1  0  0  0  0
 28 29  2  0  0  0  0
 28 59  1  0  0  0  0
 29 60  1  0  0  0  0
 30 31  2  0  0  0  0
M  END
> <s_m_source_file>
AV-unprocessed.smi

> <i_m_source_file_index>
284

> <i_lp_mmshare_version>
43012

> <i_f3d_flags>
0

> <s_epik_input>
W09IXVtDSDJdW0NAQEhdKE8xKVtDQEhdKFtPSF0pW0NIMl1bQ0BIXTFuKFtjSF1jMltDSDNdKWMoPU8pbihjMj1PKVtDSDJdQyg9TylbTkhdYzNbY0hdW2NIXWMoQyhbQ0gzXSkoW0NIM10pW0NIM10pW2NIXVtjSF0z

> <s_epik_cmdline>
J2VwaWtfcHl0aG9uJywgJy1waCcsICc3LjAnLCAnLXRuJywgJzgnLCAnLW1hJywgJzIwMCcsICctbWV0YWxfYmluZGluZycsICctaW1hZScsICc8aW5maWxlLm1hZT4nLCAnLW9tYWUnLCAnPG91dGZpbGUubWFlPic=

> <r_lp_tautomer_probability>
1

> <r_epik_Ionization_Penalty>
4.92358e-06

> <r_epik_Ionization_Penalty_Charging>
1.29777e-07

> <r_epik_Ionization_Penalty_Neutral>
4.79381e-06

> <r_epik_State_Penalty>
-0

> <r_epik_Charging_Adjusted_Penalty>
1.29777e-07

> <i_epik_Tot_Q>
0

> <i_epik_Tot_abs_Q>
0

> <r_epik_Metal_State_Penalty>
-0

> <b_epik_Metal_Only>
0

> <s_epik_Chemistry_Notes>
This compound contains an acetal/aminal-like group ( X-CH(R)-Y where X, Y are N, S, or O) that may be acid/base labile, releasing an aldehyde.

> <s_lp_Force_Field>
OPLS_2005

> <r_lp_Energy>
37.3947

> <b_lp_Chiralities_Consistent>
1

> <s_lp_Variant>
AV-unprocessed.smi:284-6

> <Gold.Version>
5.8.1

> <Gold.Id.Protein>
6NUR|6NUR_protein|mol2

> <Gold.PLP.Fitness>
52.3749

> <Gold.PLP.PLP>
-54.6531

> <Gold.PLP.part.hbond>
-0.3831

> <Gold.PLP.part.metal>
0.0000

> <Gold.PLP.part.buried>
-7.2198

> <Gold.PLP.part.nonpolar>
-46.6963

> <Gold.PLP.part.repulsive>
0.2918

> <Gold.PLP.ligand.clash>
0.0000

> <Gold.PLP.ligand.torsion>
1.2178

> <Gold.PLP.Chemscore.Hbond>
0.0000

> <Gold.PLP.Chemscore.CHOScore>
0.0000

> <Gold.PLP.Chemscore.Metal>
0.0000

> <Gold.PLP.Chemscore.Internal.Correction>
0.1574

> <Gold.Rescore>
     Score         DG    S(hbond)    S(metal)    S(lipo)     H(rot)  DE(clash)    DE(int)     intcor
     12.01     -14.36       0.00        0.00     147.53       3.27       0.11       2.25       ----

> <Gold.Chemscore.Fitness>
12.0081

> <Gold.Chemscore.DG>
-14.3615

> <Gold.Chemscore.ZeroCoef>
-5.4800

> <Gold.Chemscore.Hbond>
0.0000

> <Gold.Chemscore.Metal>
0.0000

> <Gold.Chemscore.Lipo>
147.5344

> <Gold.Chemscore.Internal_Hbond>
0.0000

> <Gold.Chemscore.DEClash>
0.1061

> <Gold.Chemscore.DEInternal>
2.2473

> <Gold.Chemscore.Rot>
3.2735

> <Gold.Chemscore.Internal.Correction>
   9.000000E+99

> <Gold.Chemscore.Hbond.Weighted>
-0.0000

> <Gold.Chemscore.Metal.Weighted>
-0.0000

> <Gold.Chemscore.Lipo.Weighted>
-17.2615

> <Gold.Chemscore.Internal_Hbond.Weighted>
0.0000

> <Gold.Chemscore.DEClash.Weighted>
0.1061

> <Gold.Chemscore.DEInternal.Weighted>
2.2473

> <Gold.Chemscore.Rot.Weighted>
8.3801

> <Gold.Chemscore.Internal.Correction.Weighted>
   9.000000E+99

> <Gold.Protein.RotatedTorsions>
[ 6907 6896 6895 6894 ] final  -78.76 input  -60.11 | X-H torsion
[ 7974 7965 7964 7962 ] final  -60.62 input  175.53 | X-H torsion
[ 8008 7997 7996 7995 ] final   91.95 input   59.86 | X-H torsion
[ 10167 10162 10161 10158 ] final   36.85 input  -65.29 | X-H torsion
[ 10718 10713 10712 10709 ] final   39.54 input   66.30 | X-H torsion
[ 10763 10752 10751 10750 ] final   85.00 input  -60.55 | X-H torsion
[ 11005 11000 10999 10996 ] final   59.98 input  -57.11 | X-H torsion

> <Gold.Protein.ActiveResidues>
 VAL166  LYS551  ARG553  GLY616  TRP617  ASP618  TYR619  PRO620  LYS621  CYS622 
 ASP623  PHE694  ASN695  SER759  ASP760  ASP761  ALA762  ILE779  LEU786  VAL792 
 PHE793  MET794  SER795  GLU796  ALA797  LYS798  CYS799  TRP800  GLU811  SER814 

> <Gold.Protein.RotatedAtoms>
  150.6965  134.4224  159.5210 H   0  0  0  0  0  0  0  0  0  0  0  0  # atno 6907 bound_to 6896
  152.1964  134.8624  160.0521 H   0  0  0  0  0  0  0  0  0  0  0  0  # atno 6908 bound_to 6896
  151.9560  133.3645  159.4054 H   0  0  0  0  0  0  0  0  0  0  0  0  # atno 6909 bound_to 6896
  145.8133  140.8585  143.0171 H   0  0  0  0  0  0  0  0  0  0  0  0  # atno 7974 bound_to 7965
  156.0297  140.3331  155.7127 H   0  0  0  0  0  0  0  0  0  0  0  0  # atno 8008 bound_to 7997
  155.5902  140.0645  157.2778 H   0  0  0  0  0  0  0  0  0  0  0  0  # atno 8009 bound_to 7997
  154.4348  140.1828  156.1055 H   0  0  0  0  0  0  0  0  0  0  0  0  # atno 8010 bound_to 7997
  140.4089  144.1621  150.6138 H   0  0  0  0  0  0  0  0  0  0  0  0  # atno 10167 bound_to 10162
  157.3717  130.7705  149.7124 H   0  0  0  0  0  0  0  0  0  0  0  0  # atno 10718 bound_to 10713
  153.1434  135.4633  154.9529 H   0  0  0  0  0  0  0  0  0  0  0  0  # atno 10763 bound_to 10752
  154.7766  135.3175  154.8082 H   0  0  0  0  0  0  0  0  0  0  0  0  # atno 10764 bound_to 10752
  153.8600  135.6913  153.4838 H   0  0  0  0  0  0  0  0  0  0  0  0  # atno 10765 bound_to 10752
  140.0265  134.6075  155.9566 H   0  0  0  0  0  0  0  0  0  0  0  0  # atno 11005 bound_to 11000
  144.6755  140.0427  143.7480 LP  0  0  0  0  0  0  0  0  0  0  0  0  # atno 17320 bound_to 7965
  145.9754  139.2901  143.1074 LP  0  0  0  0  0  0  0  0  0  0  0  0  # atno 17321 bound_to 7965
  140.4660  143.2431  151.9155 LP  0  0  0  0  0  0  0  0  0  0  0  0  # atno 17342 bound_to 10162
  139.4783  144.5419  151.8515 LP  0  0  0  0  0  0  0  0  0  0  0  0  # atno 17343 bound_to 10162
  155.9757  130.4085  150.3831 LP  0  0  0  0  0  0  0  0  0  0  0  0  # atno 17370 bound_to 10713
  157.1923  131.0418  151.2693 LP  0  0  0  0  0  0  0  0  0  0  0  0  # atno 17371 bound_to 10713
  141.1805  133.6546  156.5003 LP  0  0  0  0  0  0  0  0  0  0  0  0  # atno 17394 bound_to 11000
  140.4298  134.7112  157.4936 LP  0  0  0  0  0  0  0  0  0  0  0  0  # atno 17395 bound_to 11000

$$$$
