AV-unprocessed.smi:2083|AV-procd|sdf|8492|dock7
  -GOLD-   2272011203D 1   1.00000     0.00000
 Structure written by MMmdl.
 45 46  0  0  0  0  0  0  0  0  2 V2000
  150.2648  142.1764  156.0185 C   0  0  0  0  0  0  0  0  0  0  0  0
  150.0296  140.8801  155.3215 C   0  0  0  0  0  0  0  0  0  0  0  0
  148.9032  140.1463  155.0745 C   0  0  0  0  0  0  0  0  0  0  0  0
  149.4043  139.0195  154.3699 C   0  0  0  0  0  0  0  0  0  0  0  0
  148.5336  137.9921  153.9248 N   0  0  0  0  0  0  0  0  0  0  0  0
  147.2474  137.8055  154.2665 C   0  0  0  0  0  0  0  0  0  0  0  0
  146.6068  138.5171  155.0411 O   0  0  0  0  0  0  0  0  0  0  0  0
  146.7281  136.7320  153.6530 N   0  0  0  0  0  0  0  0  0  0  0  0
  145.3473  136.2776  153.7937 C   0  0  0  0  0  0  0  0  0  0  0  0
  144.6496  136.0031  152.4310 C   0  0  2  0  0  0  0  0  0  0  0  0
  143.1209  136.1862  152.5683 C   0  0  0  0  0  0  0  0  0  0  0  0
  144.9503  134.6545  151.8454 N   0  3  2  0  0  0  0  0  0  0  0  0
  146.3791  134.2255  151.8882 C   0  0  0  0  0  0  0  0  0  0  0  0
  146.5530  132.7781  151.3980 C   0  0  0  0  0  0  0  0  0  0  0  0
  145.9662  132.5846  149.9954 C   0  0  0  0  0  0  0  0  0  0  0  0
  144.5067  133.0639  149.9403 C   0  0  1  0  0  0  0  0  0  0  0  0
  143.5315  132.1101  150.6529 C   0  0  0  0  0  0  0  0  0  0  0  0
  144.3998  134.5091  150.4657 C   0  0  0  0  0  0  0  0  0  0  0  0
  150.7167  139.0627  154.1992 N   0  0  0  0  0  0  0  0  0  0  0  0
  151.1240  140.2552  154.8087 O   0  0  0  0  0  0  0  0  0  0  0  0
  149.3230  142.6840  156.2272 H   0  0  0  0  0  0  0  0  0  0  0  0
  150.8769  142.8394  155.4071 H   0  0  0  0  0  0  0  0  0  0  0  0
  150.7804  142.0167  156.9655 H   0  0  0  0  0  0  0  0  0  0  0  0
  147.8873  140.3799  155.3567 H   0  0  0  0  0  0  0  0  0  0  0  0
  148.9315  137.3343  153.2710 H   0  0  0  0  0  0  0  0  0  0  0  0
  147.3236  136.2004  153.0344 H   0  0  0  0  0  0  0  0  0  0  0  0
  145.3653  135.3836  154.4186 H   0  0  0  0  0  0  0  0  0  0  0  0
  144.8009  137.0411  154.3487 H   0  0  0  0  0  0  0  0  0  0  0  0
  145.0214  136.7496  151.7269 H   0  0  0  0  0  0  0  0  0  0  0  0
  142.8637  137.1823  152.9281 H   0  0  0  0  0  0  0  0  0  0  0  0
  142.7017  135.4647  153.2702 H   0  0  0  0  0  0  0  0  0  0  0  0
  142.5952  136.0645  151.6229 H   0  0  0  0  0  0  0  0  0  0  0  0
  146.9850  134.9063  151.2880 H   0  0  0  0  0  0  0  0  0  0  0  0
  146.7660  134.2552  152.9057 H   0  0  0  0  0  0  0  0  0  0  0  0
  147.6111  132.5146  151.3936 H   0  0  0  0  0  0  0  0  0  0  0  0
  146.0740  132.0939  152.0990 H   0  0  0  0  0  0  0  0  0  0  0  0
  146.5598  133.1544  149.2793 H   0  0  0  0  0  0  0  0  0  0  0  0
  146.0409  131.5397  149.6919 H   0  0  0  0  0  0  0  0  0  0  0  0
  144.2108  133.0759  148.8904 H   0  0  0  0  0  0  0  0  0  0  0  0
  143.7276  132.0491  151.7233 H   0  0  0  0  0  0  0  0  0  0  0  0
  143.6016  131.1014  150.2448 H   0  0  0  0  0  0  0  0  0  0  0  0
  142.5002  132.4415  150.5274 H   0  0  0  0  0  0  0  0  0  0  0  0
  143.3575  134.8193  150.4203 H   0  0  0  0  0  0  0  0  0  0  0  0
  144.9433  135.1804  149.7986 H   0  0  0  0  0  0  0  0  0  0  0  0
  144.4564  133.9907  152.4247 H   0  0  0  0  0  0  0  0  0  0  0  0
  1  2  1  0  0  0  0
  1 21  1  0  0  0  0
  1 22  1  0  0  0  0
  1 23  1  0  0  0  0
  2 20  1  0  0  0  0
  2  3  2  0  0  0  0
  3  4  1  0  0  0  0
  3 24  1  0  0  0  0
  4  5  1  0  0  0  0
  4 19  2  0  0  0  0
  5  6  1  0  0  0  0
  5 25  1  0  0  0  0
  6  7  2  0  0  0  0
  6  8  1  0  0  0  0
  8  9  1  0  0  0  0
  8 26  1  0  0  0  0
  9 10  1  0  0  0  0
  9 27  1  0  0  0  0
  9 28  1  0  0  0  0
 10 11  1  0  0  0  0
 10 12  1  0  0  0  0
 10 29  1  0  0  0  0
 11 30  1  0  0  0  0
 11 31  1  0  0  0  0
 11 32  1  0  0  0  0
 12 18  1  0  0  0  0
 12 13  1  0  0  0  0
 12 45  1  0  0  0  0
 13 14  1  0  0  0  0
 13 33  1  0  0  0  0
 13 34  1  0  0  0  0
 14 15  1  0  0  0  0
 14 35  1  0  0  0  0
 14 36  1  0  0  0  0
 15 16  1  0  0  0  0
 15 37  1  0  0  0  0
 15 38  1  0  0  0  0
 16 17  1  0  0  0  0
 16 18  1  0  0  0  0
 16 39  1  0  0  0  0
 17 40  1  0  0  0  0
 17 41  1  0  0  0  0
 17 42  1  0  0  0  0
 18 43  1  0  0  0  0
 18 44  1  0  0  0  0
 19 20  1  0  0  0  0
M  CHG  1  12   1
M  END
> <s_m_source_file>
AV-unprocessed.smi

> <i_m_source_file_index>
2083

> <i_lp_mmshare_version>
43012

> <i_f3d_flags>
0

> <s_epik_input>
W0NIM11jMVtjSF1jKG5vMSlbTkhdQyg9TylbTkhdW0NIMl1bQ0BIXShbQ0gzXSlOMltDSDJdW0NIMl1bQ0gyXVtDQEBIXShbQ0gzXSlbQ0gyXTI=

> <s_epik_cmdline>
J2VwaWtfcHl0aG9uJywgJy1waCcsICc3LjAnLCAnLXRuJywgJzgnLCAnLW1hJywgJzIwMCcsICctbWV0YWxfYmluZGluZycsICctaW1hZScsICc8aW5maWxlLm1hZT4nLCAnLW9tYWUnLCAnPG91dGZpbGUubWFlPic=

> <r_epik_Ionization_Penalty>
0.00216453

> <r_epik_Ionization_Penalty_Charging>
0.00212879

> <r_epik_Ionization_Penalty_Neutral>
3.57418e-05

> <r_epik_State_Penalty>
0.00146033

> <r_epik_Charging_Adjusted_Penalty>
0.00358912

> <i_epik_Tot_Q>
1

> <i_epik_Tot_abs_Q>
1

> <r_epik_Metal_State_Penalty>
0.0215827

> <b_epik_Metal_Only>
0

> <s_lp_Force_Field>
OPLS_2005

> <r_lp_Energy>
21.6248

> <b_lp_Chiralities_Consistent>
1

> <s_lp_Variant>
AV-unprocessed.smi:2083-3

> <Gold.Version>
5.8.1

> <Gold.Id.Protein>
6NUR|6NUR_protein|mol2

> <Gold.PLP.Fitness>
40.5797

> <Gold.PLP.PLP>
-32.9529

> <Gold.PLP.part.hbond>
-3.1401

> <Gold.PLP.part.metal>
0.0000

> <Gold.PLP.part.buried>
-4.5184

> <Gold.PLP.part.nonpolar>
-25.9974

> <Gold.PLP.part.repulsive>
0.2999

> <Gold.PLP.ligand.clash>
0.0000

> <Gold.PLP.ligand.torsion>
0.4593

> <Gold.PLP.Chemscore.Hbond>
2.8320

> <Gold.PLP.Chemscore.CHOScore>
0.0000

> <Gold.PLP.Chemscore.Metal>
0.0000

> <Gold.Chemscore.Hbonds>
donor molecule, donor type, donor heavy atom, donor atom, acceptor molecule, acceptor atom, score
      L1  H     5    25       P1  7948  1.00
      L1  H     8    26       P1  7948  0.93
      P1  H  7989  7998       L1    20  0.70

> <Gold.PLP.Chemscore.Internal.Correction>
0.0494

> <Gold.Rescore>
     Score         DG    S(hbond)    S(metal)    S(lipo)     H(rot)  DE(clash)    DE(int)     intcor
     15.27     -17.31       1.93        0.00      80.02       1.55       0.17       1.87       ----

> <Gold.Chemscore.Fitness>
15.2746

> <Gold.Chemscore.DG>
-17.3104

> <Gold.Chemscore.ZeroCoef>
-5.4800

> <Gold.Chemscore.Hbond>
1.9250

> <Gold.Chemscore.Metal>
0.0000

> <Gold.Chemscore.Lipo>
80.0168

> <Gold.Chemscore.Internal_Hbond>
0.0000

> <Gold.Chemscore.DEClash>
0.1652

> <Gold.Chemscore.DEInternal>
1.8706

> <Gold.Chemscore.Rot>
1.5474

> <Gold.Chemscore.Internal.Correction>
   9.000000E+99

> <Gold.Chemscore.Hbonds>
donor molecule, donor type, donor heavy atom, donor atom, acceptor molecule, acceptor atom, score
      L1  H     5    25       P1  7948  0.99
      L1  H     8    26       P1  7948  0.86
      P1  H  7989  7998       L1    20  0.06

> <Gold.Chemscore.Hbond.Weighted>
-6.4297

> <Gold.Chemscore.Metal.Weighted>
-0.0000

> <Gold.Chemscore.Lipo.Weighted>
-9.3620

> <Gold.Chemscore.Internal_Hbond.Weighted>
0.0000

> <Gold.Chemscore.DEClash.Weighted>
0.1652

> <Gold.Chemscore.DEInternal.Weighted>
1.8706

> <Gold.Chemscore.Rot.Weighted>
3.9612

> <Gold.Chemscore.Internal.Correction.Weighted>
   9.000000E+99

> <Gold.Protein.RotatedTorsions>
[ 6907 6896 6895 6894 ] final  -36.96 input  -60.11 | X-H torsion
[ 7974 7965 7964 7962 ] final   15.55 input  175.53 | X-H torsion
[ 8008 7997 7996 7995 ] final   80.32 input   59.86 | X-H torsion
[ 10167 10162 10161 10158 ] final -104.22 input  -65.29 | X-H torsion
[ 10718 10713 10712 10709 ] final -102.81 input   66.30 | X-H torsion
[ 10763 10752 10751 10750 ] final   68.53 input  -60.55 | X-H torsion
[ 11005 11000 10999 10996 ] final  -60.20 input  -57.11 | X-H torsion

> <Gold.Protein.ActiveResidues>
 VAL166  LYS551  ARG553  GLY616  TRP617  ASP618  TYR619  PRO620  LYS621  CYS622 
 ASP623  PHE694  ASN695  SER759  ASP760  ASP761  ALA762  ILE779  LEU786  VAL792 
 PHE793  MET794  SER795  GLU796  ALA797  LYS798  CYS799  TRP800  GLU811  SER814 

> <Gold.Protein.RotatedAtoms>
  151.0207  134.9466  159.8057 H   0  0  0  0  0  0  0  0  0  0  0  0  # atno 6907 bound_to 6896
  152.5324  134.2908  159.9052 H   0  0  0  0  0  0  0  0  0  0  0  0  # atno 6908 bound_to 6896
  151.2915  133.4121  159.2667 H   0  0  0  0  0  0  0  0  0  0  0  0  # atno 6909 bound_to 6896
  146.2275  139.8877  142.8560 H   0  0  0  0  0  0  0  0  0  0  0  0  # atno 7974 bound_to 7965
  155.8819  140.3443  155.5894 H   0  0  0  0  0  0  0  0  0  0  0  0  # atno 8008 bound_to 7997
  155.7710  140.0845  157.2127 H   0  0  0  0  0  0  0  0  0  0  0  0  # atno 8009 bound_to 7997
  154.4025  140.1518  156.2929 H   0  0  0  0  0  0  0  0  0  0  0  0  # atno 8010 bound_to 7997
  140.2116  143.3742  152.1045 H   0  0  0  0  0  0  0  0  0  0  0  0  # atno 10167 bound_to 10162
  156.0242  130.5437  150.7162 H   0  0  0  0  0  0  0  0  0  0  0  0  # atno 10718 bound_to 10713
  153.0240  135.5244  154.7148 H   0  0  0  0  0  0  0  0  0  0  0  0  # atno 10763 bound_to 10752
  154.6220  135.2890  155.0317 H   0  0  0  0  0  0  0  0  0  0  0  0  # atno 10764 bound_to 10752
  154.1300  135.6594  153.4972 H   0  0  0  0  0  0  0  0  0  0  0  0  # atno 10765 bound_to 10752
  141.1278  133.6621  156.5187 H   0  0  0  0  0  0  0  0  0  0  0  0  # atno 11005 bound_to 11000
  145.2448  141.0022  143.3915 LP  0  0  0  0  0  0  0  0  0  0  0  0  # atno 17320 bound_to 7965
  144.9422  139.4176  143.6443 LP  0  0  0  0  0  0  0  0  0  0  0  0  # atno 17321 bound_to 7965
  139.5177  144.6996  151.5531 LP  0  0  0  0  0  0  0  0  0  0  0  0  # atno 17342 bound_to 10162
  140.6319  143.9059  150.6613 LP  0  0  0  0  0  0  0  0  0  0  0  0  # atno 17343 bound_to 10162
  157.4788  131.0900  151.0559 LP  0  0  0  0  0  0  0  0  0  0  0  0  # atno 17370 bound_to 10713
  157.0998  130.5977  149.5458 LP  0  0  0  0  0  0  0  0  0  0  0  0  # atno 17371 bound_to 10713
  140.4310  134.7102  157.4941 LP  0  0  0  0  0  0  0  0  0  0  0  0  # atno 17394 bound_to 11000
  140.0294  134.6428  155.9127 LP  0  0  0  0  0  0  0  0  0  0  0  0  # atno 17395 bound_to 11000

$$$$
