AV-unprocessed.smi:2403|AV-procd|sdf|9510|dock4
  -GOLD-   2272013133D 1   1.00000     0.00000
 Structure written by MMmdl.
 48 50  0  0  0  0  0  0  0  0  2 V2000
  147.4178  133.1674  152.1606 C   0  0  0  0  0  0  0  0  0  0  0  0
  146.0313  133.5840  151.7006 C   0  0  0  0  0  0  0  0  0  0  0  0
  145.1490  132.6126  151.1773 C   0  0  0  0  0  0  0  0  0  0  0  0
  143.8644  133.0022  150.7510 C   0  0  0  0  0  0  0  0  0  0  0  0
  143.4921  134.2959  150.8415 N   0  3  0  0  0  0  0  0  0  0  0  0
  144.2998  135.2585  151.3350 C   0  0  0  0  0  0  0  0  0  0  0  0
  145.6004  134.9321  151.7944 C   0  0  0  0  0  0  0  0  0  0  0  0
  146.4999  135.9095  152.3055 N   0  0  0  0  0  0  0  0  0  0  0  0
  146.2199  136.9555  153.1012 C   0  0  0  0  0  0  0  0  0  0  0  0
  145.1007  137.2383  153.5279 O   0  0  0  0  0  0  0  0  0  0  0  0
  147.3331  137.6444  153.4090 N   0  0  0  0  0  0  0  0  0  0  0  0
  147.4521  138.8262  154.2839 C   0  0  0  0  0  0  0  0  0  0  0  0
  146.9404  138.5651  155.7302 C   0  0  0  0  0  0  0  0  0  0  0  0
  146.0291  139.2518  156.1943 O   0  0  0  0  0  0  0  0  0  0  0  0
  147.5320  137.5936  156.4447 N   0  0  0  0  0  0  0  0  0  0  0  0
  147.1728  137.2138  157.8020 C   0  0  0  0  0  0  0  0  0  0  0  0
  148.2629  137.4867  158.8169 C   0  0  0  0  0  0  0  0  0  0  0  0
  149.5287  136.6623  158.8283 C   0  0  0  0  0  0  0  0  0  0  0  0
  148.5280  136.5244  159.9508 C   0  0  0  0  0  0  0  0  0  0  0  0
  148.9453  139.2277  154.3534 C   0  0  0  0  0  0  0  0  0  0  0  0
  148.9786  140.7536  154.4048 C   0  0  0  0  0  0  0  0  0  0  0  0
  147.8280  141.1739  153.5004 C   0  0  0  0  0  0  0  0  0  0  0  0
  146.7672  140.0749  153.6431 C   0  0  0  0  0  0  0  0  0  0  0  0
  147.5639  132.0915  152.0603 H   0  0  0  0  0  0  0  0  0  0  0  0
  147.5668  133.4298  153.2085 H   0  0  0  0  0  0  0  0  0  0  0  0
  148.1824  133.6685  151.5665 H   0  0  0  0  0  0  0  0  0  0  0  0
  145.4505  131.5780  151.1003 H   0  0  0  0  0  0  0  0  0  0  0  0
  143.1312  132.3244  150.3385 H   0  0  0  0  0  0  0  0  0  0  0  0
  143.8757  136.2515  151.3298 H   0  0  0  0  0  0  0  0  0  0  0  0
  147.4772  135.7464  152.1114 H   0  0  0  0  0  0  0  0  0  0  0  0
  148.1991  137.3176  153.0061 H   0  0  0  0  0  0  0  0  0  0  0  0
  148.2772  137.0724  156.0071 H   0  0  0  0  0  0  0  0  0  0  0  0
  146.2635  137.7415  158.0939 H   0  0  0  0  0  0  0  0  0  0  0  0
  146.9437  136.1474  157.8279 H   0  0  0  0  0  0  0  0  0  0  0  0
  148.3931  138.5434  159.0437 H   0  0  0  0  0  0  0  0  0  0  0  0
  149.6055  135.8385  158.1215 H   0  0  0  0  0  0  0  0  0  0  0  0
  150.4617  137.1778  159.0475 H   0  0  0  0  0  0  0  0  0  0  0  0
  148.7925  136.9492  160.9170 H   0  0  0  0  0  0  0  0  0  0  0  0
  147.9398  135.6095  159.9891 H   0  0  0  0  0  0  0  0  0  0  0  0
  149.4748  138.7871  155.1999 H   0  0  0  0  0  0  0  0  0  0  0  0
  149.4704  138.8989  153.4547 H   0  0  0  0  0  0  0  0  0  0  0  0
  148.7951  141.0968  155.4236 H   0  0  0  0  0  0  0  0  0  0  0  0
  149.9361  141.1642  154.0829 H   0  0  0  0  0  0  0  0  0  0  0  0
  147.4420  142.1621  153.7523 H   0  0  0  0  0  0  0  0  0  0  0  0
  148.1759  141.2108  152.4672 H   0  0  0  0  0  0  0  0  0  0  0  0
  146.3407  139.8665  152.6613 H   0  0  0  0  0  0  0  0  0  0  0  0
  145.9375  140.4402  154.2500 H   0  0  0  0  0  0  0  0  0  0  0  0
  142.5605  134.5601  150.5199 H   0  0  0  0  0  0  0  0  0  0  0  0
  1  2  1  0  0  0  0
  1 24  1  0  0  0  0
  1 25  1  0  0  0  0
  1 26  1  0  0  0  0
  2  7  1  0  0  0  0
  2  3  2  0  0  0  0
  3  4  1  0  0  0  0
  3 27  1  0  0  0  0
  4  5  2  0  0  0  0
  4 28  1  0  0  0  0
  5  6  1  0  0  0  0
  5 48  1  0  0  0  0
  6  7  2  0  0  0  0
  6 29  1  0  0  0  0
  7  8  1  0  0  0  0
  8  9  1  0  0  0  0
  8 30  1  0  0  0  0
  9 10  2  0  0  0  0
  9 11  1  0  0  0  0
 11 12  1  0  0  0  0
 11 31  1  0  0  0  0
 12 23  1  0  0  0  0
 12 13  1  0  0  0  0
 12 20  1  0  0  0  0
 13 14  2  0  0  0  0
 13 15  1  0  0  0  0
 15 16  1  0  0  0  0
 15 32  1  0  0  0  0
 16 17  1  0  0  0  0
 16 33  1  0  0  0  0
 16 34  1  0  0  0  0
 17 19  1  0  0  0  0
 17 18  1  0  0  0  0
 17 35  1  0  0  0  0
 18 19  1  0  0  0  0
 18 36  1  0  0  0  0
 18 37  1  0  0  0  0
 19 38  1  0  0  0  0
 19 39  1  0  0  0  0
 20 21  1  0  0  0  0
 20 40  1  0  0  0  0
 20 41  1  0  0  0  0
 21 22  1  0  0  0  0
 21 42  1  0  0  0  0
 21 43  1  0  0  0  0
 22 23  1  0  0  0  0
 22 44  1  0  0  0  0
 22 45  1  0  0  0  0
 23 46  1  0  0  0  0
 23 47  1  0  0  0  0
M  CHG  1   5   1
M  END
> <s_m_source_file>
AV-unprocessed.smi

> <i_m_source_file_index>
2403

> <i_lp_mmshare_version>
43012

> <i_f3d_flags>
0

> <s_epik_input>
W0NIM11jMVtjSF1bY0hdbltjSF1jMVtOSF1DKD1PKVtOSF1DMihbQ0gyXVtDSDJdW0NIMl1bQ0gyXTIpQyg9TylbTkhdW0NIMl1bQ0hdM1tDSDJdW0NIMl0z

> <s_epik_cmdline>
J2VwaWtfcHl0aG9uJywgJy1waCcsICc3LjAnLCAnLXRuJywgJzgnLCAnLW1hJywgJzIwMCcsICctbWV0YWxfYmluZGluZycsICctaW1hZScsICc8aW5maWxlLm1hZT4nLCAnLW9tYWUnLCAnPG91dGZpbGUubWFlPic=

> <r_epik_Ionization_Penalty>
2.03963

> <r_epik_Ionization_Penalty_Charging>
2.03961

> <r_epik_Ionization_Penalty_Neutral>
1.99712e-05

> <r_epik_State_Penalty>
2.17125

> <r_epik_Charging_Adjusted_Penalty>
4.21085

> <i_epik_Tot_Q>
1

> <i_epik_Tot_abs_Q>
1

> <r_epik_Metal_State_Penalty>
2.19001

> <b_epik_Metal_Only>
0

> <s_lp_Force_Field>
OPLS_2005

> <r_lp_Energy>
38.2062

> <b_lp_Chiralities_Consistent>
1

> <s_lp_Variant>
AV-unprocessed.smi:2403-2

> <Gold.Version>
5.8.1

> <Gold.Id.Protein>
6NUR|6NUR_protein|mol2

> <Gold.PLP.Fitness>
43.4821

> <Gold.PLP.PLP>
-32.3410

> <Gold.PLP.part.hbond>
-2.8782

> <Gold.PLP.part.metal>
0.0000

> <Gold.PLP.part.buried>
-4.2923

> <Gold.PLP.part.nonpolar>
-26.0574

> <Gold.PLP.part.repulsive>
0.2229

> <Gold.PLP.ligand.clash>
0.0000

> <Gold.PLP.ligand.torsion>
0.6737

> <Gold.PLP.Chemscore.Hbond>
3.9440

> <Gold.PLP.Chemscore.CHOScore>
0.0000

> <Gold.PLP.Chemscore.Metal>
0.0000

> <Gold.Chemscore.Hbonds>
donor molecule, donor type, donor heavy atom, donor atom, acceptor molecule, acceptor atom, score
      L1  H     5    48       P1 10186  2.00
      L1  H     8    30       P1  7948  1.00
      L1  H    11    31       P1  7948  0.94

> <Gold.PLP.Chemscore.Internal.Correction>
0.6565

> <Gold.Rescore>
     Score         DG    S(hbond)    S(metal)    S(lipo)     H(rot)  DE(clash)    DE(int)     intcor
     18.30     -19.83       2.75        0.00      79.85       1.63       0.09       1.44       ----

> <Gold.Chemscore.Fitness>
18.2973

> <Gold.Chemscore.DG>
-19.8322

> <Gold.Chemscore.ZeroCoef>
-5.4800

> <Gold.Chemscore.Hbond>
2.7482

> <Gold.Chemscore.Metal>
0.0000

> <Gold.Chemscore.Lipo>
79.8494

> <Gold.Chemscore.Internal_Hbond>
0.0000

> <Gold.Chemscore.DEClash>
0.0899

> <Gold.Chemscore.DEInternal>
1.4450

> <Gold.Chemscore.Rot>
1.6286

> <Gold.Chemscore.Internal.Correction>
   9.000000E+99

> <Gold.Chemscore.Hbonds>
donor molecule, donor type, donor heavy atom, donor atom, acceptor molecule, acceptor atom, score
      L1  H     5    48       P1 10186  0.30
      L1  H     8    30       P1  7948  0.93
      L1  H    11    31       P1  7948  0.91

> <Gold.Chemscore.Hbond.Weighted>
-9.1790

> <Gold.Chemscore.Metal.Weighted>
-0.0000

> <Gold.Chemscore.Lipo.Weighted>
-9.3424

> <Gold.Chemscore.Internal_Hbond.Weighted>
0.0000

> <Gold.Chemscore.DEClash.Weighted>
0.0899

> <Gold.Chemscore.DEInternal.Weighted>
1.4450

> <Gold.Chemscore.Rot.Weighted>
4.1692

> <Gold.Chemscore.Internal.Correction.Weighted>
   9.000000E+99

> <Gold.Protein.RotatedTorsions>
[ 6907 6896 6895 6894 ] final  -77.87 input  -60.11 | X-H torsion
[ 7974 7965 7964 7962 ] final -168.73 input  175.53 | X-H torsion
[ 8008 7997 7996 7995 ] final -144.43 input   59.86 | X-H torsion
[ 10167 10162 10161 10158 ] final   29.93 input  -65.29 | X-H torsion
[ 10718 10713 10712 10709 ] final  128.11 input   66.30 | X-H torsion
[ 10763 10752 10751 10750 ] final -170.28 input  -60.55 | X-H torsion
[ 11005 11000 10999 10996 ] final  141.60 input  -57.11 | X-H torsion

> <Gold.Protein.ActiveResidues>
 VAL166  LYS551  ARG553  GLY616  TRP617  ASP618  TYR619  PRO620  LYS621  CYS622 
 ASP623  PHE694  ASN695  SER759  ASP760  ASP761  ALA762  ILE779  LEU786  VAL792 
 PHE793  MET794  SER795  GLU796  ALA797  LYS798  CYS799  TRP800  GLU811  SER814 

> <Gold.Protein.RotatedAtoms>
  150.6987  134.4357  159.5268 H   0  0  0  0  0  0  0  0  0  0  0  0  # atno 6907 bound_to 6896
  152.2076  134.8529  160.0510 H   0  0  0  0  0  0  0  0  0  0  0  0  # atno 6908 bound_to 6896
  151.9426  133.3607  159.4007 H   0  0  0  0  0  0  0  0  0  0  0  0  # atno 6909 bound_to 6896
  144.7198  140.2326  143.6302 H   0  0  0  0  0  0  0  0  0  0  0  0  # atno 7974 bound_to 7965
  155.5267  140.0596  157.2896 H   0  0  0  0  0  0  0  0  0  0  0  0  # atno 8008 bound_to 7997
  154.4498  140.1943  156.0498 H   0  0  0  0  0  0  0  0  0  0  0  0  # atno 8009 bound_to 7997
  156.0681  140.3263  155.7546 H   0  0  0  0  0  0  0  0  0  0  0  0  # atno 8010 bound_to 7997
  140.4723  144.0744  150.6241 H   0  0  0  0  0  0  0  0  0  0  0  0  # atno 10167 bound_to 10162
  157.5274  131.1098  150.9062 H   0  0  0  0  0  0  0  0  0  0  0  0  # atno 10718 bound_to 10713
  154.6432  135.2901  155.0078 H   0  0  0  0  0  0  0  0  0  0  0  0  # atno 10763 bound_to 10752
  154.1197  135.6550  153.4904 H   0  0  0  0  0  0  0  0  0  0  0  0  # atno 10764 bound_to 10752
  153.0337  135.5284  154.7308 H   0  0  0  0  0  0  0  0  0  0  0  0  # atno 10765 bound_to 10752
  140.0413  134.9303  157.0849 H   0  0  0  0  0  0  0  0  0  0  0  0  # atno 11005 bound_to 11000
  145.8396  139.2124  143.1835 LP  0  0  0  0  0  0  0  0  0  0  0  0  # atno 17320 bound_to 7965
  146.0358  140.8214  142.9853 LP  0  0  0  0  0  0  0  0  0  0  0  0  # atno 17321 bound_to 7965
  140.3962  143.2727  152.0002 LP  0  0  0  0  0  0  0  0  0  0  0  0  # atno 17342 bound_to 10162
  139.4820  144.6036  151.7561 LP  0  0  0  0  0  0  0  0  0  0  0  0  # atno 17343 bound_to 10162
  156.9654  130.5471  149.5288 LP  0  0  0  0  0  0  0  0  0  0  0  0  # atno 17370 bound_to 10713
  156.0397  130.5480  150.8740 LP  0  0  0  0  0  0  0  0  0  0  0  0  # atno 17371 bound_to 10713
  140.4064  134.2028  155.7163 LP  0  0  0  0  0  0  0  0  0  0  0  0  # atno 17394 bound_to 11000
  141.1884  133.8259  157.0994 LP  0  0  0  0  0  0  0  0  0  0  0  0  # atno 17395 bound_to 11000

$$$$
