AV-unprocessed.smi:1556|AV-procd|sdf|6269|dock6
  -GOLD-   22720 6463D 1   1.00000     0.00000
 Structure written by MMmdl.
 37 38  0  0  0  0  0  0  0  0  1 V2000
  143.7116  132.5324  150.4382 C   0  0  0  0  0  0  0  0  0  0  0  0
  144.9370  132.8762  151.1269 N   0  0  0  0  0  0  0  0  0  0  0  0
  145.8368  132.0393  151.7506 C   0  0  0  0  0  0  0  0  0  0  0  0
  146.8575  132.8147  152.2241 C   0  0  0  0  0  0  0  0  0  0  0  0
  148.1113  132.3818  152.9393 C   0  0  0  0  0  0  0  0  0  0  0  0
  148.3255  133.1356  154.2674 C   0  0  0  0  0  0  0  0  0  0  0  0
  148.7097  134.5280  154.0591 N   0  0  0  0  0  0  0  0  0  0  0  0
  149.1657  135.3568  155.0122 C   0  0  0  0  0  0  0  0  0  0  0  0
  149.2020  135.0627  156.2053 O   0  0  0  0  0  0  0  0  0  0  0  0
  149.5994  136.5470  154.5596 N   0  0  0  0  0  0  0  0  0  0  0  0
  150.1512  137.6627  155.3316 C   0  0  1  0  0  0  0  0  0  0  0  0
  151.2440  137.1697  156.2988 C   0  0  0  0  0  0  0  0  0  0  0  0
  152.0371  138.3794  156.8066 C   0  0  0  0  0  0  0  0  0  0  0  0
  152.0404  139.5937  155.4347 S   0  0  0  0  0  0  0  0  0  0  0  0
  151.5001  140.8709  155.9239 O   0  0  0  0  0  0  0  0  0  0  0  0
  153.3292  139.5369  154.7284 O   0  0  0  0  0  0  0  0  0  0  0  0
  150.7741  138.7405  154.4255 C   0  0  0  0  0  0  0  0  0  0  0  0
  146.4702  134.1338  151.8527 C   0  0  0  0  0  0  0  0  0  0  0  0
  145.3242  134.1665  151.1925 N   0  0  0  0  0  0  0  0  0  0  0  0
  143.4607  131.4872  150.6213 H   0  0  0  0  0  0  0  0  0  0  0  0
  143.8401  132.6830  149.3659 H   0  0  0  0  0  0  0  0  0  0  0  0
  142.8947  133.1606  150.7946 H   0  0  0  0  0  0  0  0  0  0  0  0
  145.6908  130.9698  151.7866 H   0  0  0  0  0  0  0  0  0  0  0  0
  148.0906  131.3101  153.1379 H   0  0  0  0  0  0  0  0  0  0  0  0
  148.9820  132.5407  152.3019 H   0  0  0  0  0  0  0  0  0  0  0  0
  147.3935  133.1411  154.8331 H   0  0  0  0  0  0  0  0  0  0  0  0
  149.0604  132.6216  154.8889 H   0  0  0  0  0  0  0  0  0  0  0  0
  148.7026  134.8617  153.1063 H   0  0  0  0  0  0  0  0  0  0  0  0
  149.4959  136.7113  153.5684 H   0  0  0  0  0  0  0  0  0  0  0  0
  149.3615  138.1191  155.9312 H   0  0  0  0  0  0  0  0  0  0  0  0
  150.8253  136.5916  157.1234 H   0  0  0  0  0  0  0  0  0  0  0  0
  151.9270  136.5093  155.7621 H   0  0  0  0  0  0  0  0  0  0  0  0
  151.5363  138.8378  157.6596 H   0  0  0  0  0  0  0  0  0  0  0  0
  153.0587  138.1308  157.0944 H   0  0  0  0  0  0  0  0  0  0  0  0
  151.2789  138.2960  153.5674 H   0  0  0  0  0  0  0  0  0  0  0  0
  150.0454  139.4656  154.0635 H   0  0  0  0  0  0  0  0  0  0  0  0
  146.9944  135.0616  152.0288 H   0  0  0  0  0  0  0  0  0  0  0  0
  1  2  1  0  0  0  0
  1 20  1  0  0  0  0
  1 21  1  0  0  0  0
  1 22  1  0  0  0  0
  2 19  1  0  0  0  0
  2  3  1  0  0  0  0
  3  4  2  0  0  0  0
  3 23  1  0  0  0  0
  4  5  1  0  0  0  0
  4 18  1  0  0  0  0
  5  6  1  0  0  0  0
  5 24  1  0  0  0  0
  5 25  1  0  0  0  0
  6  7  1  0  0  0  0
  6 26  1  0  0  0  0
  6 27  1  0  0  0  0
  7  8  1  0  0  0  0
  7 28  1  0  0  0  0
  8  9  2  0  0  0  0
  8 10  1  0  0  0  0
 10 11  1  0  0  0  0
 10 29  1  0  0  0  0
 11 17  1  0  0  0  0
 11 12  1  0  0  0  0
 11 30  1  0  0  0  0
 12 13  1  0  0  0  0
 12 31  1  0  0  0  0
 12 32  1  0  0  0  0
 13 14  1  0  0  0  0
 13 33  1  0  0  0  0
 13 34  1  0  0  0  0
 14 15  2  0  0  0  0
 14 16  2  0  0  0  0
 14 17  1  0  0  0  0
 17 35  1  0  0  0  0
 17 36  1  0  0  0  0
 18 19  2  0  0  0  0
 18 37  1  0  0  0  0
M  END
> <s_m_source_file>
AV-unprocessed.smi

> <i_m_source_file_index>
1556

> <i_lp_mmshare_version>
43012

> <i_f3d_flags>
0

> <s_epik_input>
W0NIM11uMVtjSF1jKFtjSF1uMSlbQ0gyXVtDSDJdW05IXUMoPU8pW05IXVtDQEBIXShbQ0gyXTIpW0NIMl1bQ0gyXVMyKD1PKT1P

> <s_epik_cmdline>
J2VwaWtfcHl0aG9uJywgJy1waCcsICc3LjAnLCAnLXRuJywgJzgnLCAnLW1hJywgJzIwMCcsICctbWV0YWxfYmluZGluZycsICctaW1hZScsICc8aW5maWxlLm1hZT4nLCAnLW9tYWUnLCAnPG91dGZpbGUubWFlPic=

> <r_lp_tautomer_probability>
1

> <r_epik_Ionization_Penalty>
0.000530192

> <r_epik_Ionization_Penalty_Charging>
0

> <r_epik_Ionization_Penalty_Neutral>
0.000530192

> <r_epik_State_Penalty>
-0

> <r_epik_Charging_Adjusted_Penalty>
0

> <i_epik_Tot_Q>
0

> <i_epik_Tot_abs_Q>
0

> <r_epik_Metal_State_Penalty>
-0

> <b_epik_Metal_Only>
0

> <s_lp_Force_Field>
OPLS_2005

> <r_lp_Energy>
7.70197

> <b_lp_Chiralities_Consistent>
1

> <s_lp_Variant>
AV-unprocessed.smi:1556-2

> <Gold.Version>
5.8.1

> <Gold.Id.Protein>
6NUR|6NUR_protein|mol2

> <Gold.PLP.Fitness>
43.2061

> <Gold.PLP.PLP>
-31.6987

> <Gold.PLP.part.hbond>
-4.4077

> <Gold.PLP.part.metal>
0.0000

> <Gold.PLP.part.buried>
-2.1518

> <Gold.PLP.part.nonpolar>
-24.2703

> <Gold.PLP.part.repulsive>
0.2196

> <Gold.PLP.ligand.clash>
0.0000

> <Gold.PLP.ligand.torsion>
0.2493

> <Gold.PLP.Chemscore.Hbond>
3.0000

> <Gold.PLP.Chemscore.CHOScore>
1.0000

> <Gold.PLP.Chemscore.Metal>
0.0000

> <Gold.Chemscore.Hbonds>
donor molecule, donor type, donor heavy atom, donor atom, acceptor molecule, acceptor atom, score
      L1  H     7    28       P1  7948  1.00
      L1  H    10    29       P1  7948  1.00
      P1  H  7997  8008       L1    16  1.00
      L1  C    18    37       P1  7948  1.00

> <Gold.PLP.Chemscore.Internal.Correction>
0.0060

> <Gold.Rescore>
     Score         DG    S(hbond)    S(metal)    S(lipo)     H(rot)  DE(clash)    DE(int)     intcor
     15.02     -16.44       2.72        0.00      55.92       1.82       0.13       1.29       ----

> <Gold.Chemscore.Fitness>
15.0226

> <Gold.Chemscore.DG>
-16.4445

> <Gold.Chemscore.ZeroCoef>
-5.4800

> <Gold.Chemscore.Hbond>
2.7204

> <Gold.Chemscore.Metal>
0.0000

> <Gold.Chemscore.Lipo>
55.9199

> <Gold.Chemscore.Internal_Hbond>
0.0000

> <Gold.Chemscore.DEClash>
0.1284

> <Gold.Chemscore.DEInternal>
1.2935

> <Gold.Chemscore.Rot>
1.8220

> <Gold.Chemscore.Internal.Correction>
   9.000000E+99

> <Gold.Chemscore.Hbonds>
donor molecule, donor type, donor heavy atom, donor atom, acceptor molecule, acceptor atom, score
      L1  H     7    28       P1  7948  0.33
      L1  H    10    29       P1  7948  0.80
      P1  H  7997  8008       L1    16  0.90

> <Gold.Chemscore.Hbond.Weighted>
-9.0860

> <Gold.Chemscore.Metal.Weighted>
-0.0000

> <Gold.Chemscore.Lipo.Weighted>
-6.5426

> <Gold.Chemscore.Internal_Hbond.Weighted>
0.0000

> <Gold.Chemscore.DEClash.Weighted>
0.1284

> <Gold.Chemscore.DEInternal.Weighted>
1.2935

> <Gold.Chemscore.Rot.Weighted>
4.6642

> <Gold.Chemscore.Internal.Correction.Weighted>
   9.000000E+99

> <Gold.Protein.RotatedTorsions>
[ 6907 6896 6895 6894 ] final   41.29 input  -60.11 | X-H torsion
[ 7974 7965 7964 7962 ] final   37.73 input  175.53 | X-H torsion
[ 8008 7997 7996 7995 ] final    7.07 input   59.86 | X-H torsion
[ 10167 10162 10161 10158 ] final -136.46 input  -65.29 | X-H torsion
[ 10718 10713 10712 10709 ] final  -75.76 input   66.30 | X-H torsion
[ 10763 10752 10751 10750 ] final  104.24 input  -60.55 | X-H torsion
[ 11005 11000 10999 10996 ] final   -3.46 input  -57.11 | X-H torsion

> <Gold.Protein.ActiveResidues>
 VAL166  LYS551  ARG553  GLY616  TRP617  ASP618  TYR619  PRO620  LYS621  CYS622 
 ASP623  PHE694  ASN695  SER759  ASP760  ASP761  ALA762  ILE779  LEU786  VAL792 
 PHE793  MET794  SER795  GLU796  ALA797  LYS798  CYS799  TRP800  GLU811  SER814 

> <Gold.Protein.RotatedAtoms>
  152.1934  134.8652  160.0515 H   0  0  0  0  0  0  0  0  0  0  0  0  # atno 6907 bound_to 6896
  151.9532  133.3667  159.4016 H   0  0  0  0  0  0  0  0  0  0  0  0  # atno 6908 bound_to 6896
  150.6939  134.4242  159.5262 H   0  0  0  0  0  0  0  0  0  0  0  0  # atno 6909 bound_to 6896
  146.1116  139.5859  142.9348 H   0  0  0  0  0  0  0  0  0  0  0  0  # atno 7974 bound_to 7965
  154.7491  140.2763  155.6308 H   0  0  0  0  0  0  0  0  0  0  0  0  # atno 8008 bound_to 7997
  156.2891  140.2682  156.2165 H   0  0  0  0  0  0  0  0  0  0  0  0  # atno 8009 bound_to 7997
  155.0160  140.0372  157.2408 H   0  0  0  0  0  0  0  0  0  0  0  0  # atno 8010 bound_to 7997
  139.8675  143.6999  152.2643 H   0  0  0  0  0  0  0  0  0  0  0  0  # atno 10167 bound_to 10162
  156.0197  130.4449  150.3092 H   0  0  0  0  0  0  0  0  0  0  0  0  # atno 10718 bound_to 10713
  153.3633  135.3950  155.1735 H   0  0  0  0  0  0  0  0  0  0  0  0  # atno 10763 bound_to 10752
  154.8683  135.3685  154.5071 H   0  0  0  0  0  0  0  0  0  0  0  0  # atno 10764 bound_to 10752
  153.5532  135.7082  153.5642 H   0  0  0  0  0  0  0  0  0  0  0  0  # atno 10765 bound_to 10752
  140.6695  133.9249  155.8486 H   0  0  0  0  0  0  0  0  0  0  0  0  # atno 11005 bound_to 11000
  145.5652  141.0400  143.2204 LP  0  0  0  0  0  0  0  0  0  0  0  0  # atno 17320 bound_to 7965
  144.7516  139.7179  143.7271 LP  0  0  0  0  0  0  0  0  0  0  0  0  # atno 17321 bound_to 7965
  139.7315  144.7581  151.0794 LP  0  0  0  0  0  0  0  0  0  0  0  0  # atno 17342 bound_to 10162
  140.7766  143.5082  150.9685 LP  0  0  0  0  0  0  0  0  0  0  0  0  # atno 17343 bound_to 10162
  157.1194  131.0242  151.3016 LP  0  0  0  0  0  0  0  0  0  0  0  0  # atno 17370 bound_to 10713
  157.4641  130.7670  149.7262 LP  0  0  0  0  0  0  0  0  0  0  0  0  # atno 17371 bound_to 10713
  141.0403  134.0631  157.3910 LP  0  0  0  0  0  0  0  0  0  0  0  0  # atno 17394 bound_to 11000
  139.8986  135.0155  156.7156 LP  0  0  0  0  0  0  0  0  0  0  0  0  # atno 17395 bound_to 11000

$$$$
