AV-unprocessed.smi:697|AV-procd|sdf|3390|dock2
  -GOLD-   22720 0373D 1   1.00000     0.00000
 Structure written by MMmdl.
 44 45  0  0  0  0  0  0  0  0  1 V2000
  152.5972  137.6306  158.4619 C   0  0  0  0  0  0  0  0  0  0  0  0
  152.3118  137.5602  157.0702 O   0  0  0  0  0  0  0  0  0  0  0  0
  150.9516  137.7663  156.6639 C   0  0  2  0  0  0  0  0  0  0  0  0
  150.3510  138.9748  157.3927 C   0  0  0  0  0  0  0  0  0  0  0  0
  150.1850  136.4295  156.6601 C   0  0  0  0  0  0  0  0  0  0  0  0
  150.7759  136.1804  155.2737 C   0  0  1  0  0  0  0  0  0  0  0  0
  149.8373  135.5310  154.3642 N   0  0  0  0  0  0  0  0  0  0  0  0
  149.4796  134.2423  154.4429 C   0  0  0  0  0  0  0  0  0  0  0  0
  149.8941  133.4792  155.3153 O   0  0  0  0  0  0  0  0  0  0  0  0
  148.6498  133.9100  153.4371 N   0  0  0  0  0  0  0  0  0  0  0  0
  148.0504  132.6702  153.1604 C   0  0  0  0  0  0  0  0  0  0  0  0
  148.6112  131.4624  153.4304 C   0  0  0  0  0  0  0  0  0  0  0  0
  147.9360  130.2124  153.1230 C   0  0  0  0  0  0  0  0  0  0  0  0
  148.5507  128.8670  153.4775 C   0  0  0  0  0  0  0  0  0  0  0  0
  147.8091  128.2161  154.3748 F   0  0  0  0  0  0  0  0  0  0  0  0
  148.6410  128.1090  152.3855 F   0  0  0  0  0  0  0  0  0  0  0  0
  149.7763  129.0190  153.9795 F   0  0  0  0  0  0  0  0  0  0  0  0
  146.7075  130.3115  152.5824 C   0  0  0  0  0  0  0  0  0  0  0  0
  146.1232  131.5491  152.3040 N   0  0  0  0  0  0  0  0  0  0  0  0
  146.7081  132.7407  152.5600 C   0  0  0  0  0  0  0  0  0  0  0  0
  146.1233  133.7900  152.2927 O   0  0  0  0  0  0  0  0  0  0  0  0
  150.8905  137.7170  155.1019 C   0  0  0  0  0  0  0  0  0  0  0  0
  149.6909  138.4325  154.4517 C   0  0  0  0  0  0  0  0  0  0  0  0
  152.1285  138.2153  154.3479 C   0  0  0  0  0  0  0  0  0  0  0  0
  145.2022  131.5388  151.8897 H   0  0  0  0  0  0  0  0  0  0  0  0
  153.6253  137.3101  158.6294 H   0  0  0  0  0  0  0  0  0  0  0  0
  151.9496  136.9835  159.0524 H   0  0  0  0  0  0  0  0  0  0  0  0
  152.5143  138.6497  158.8393 H   0  0  0  0  0  0  0  0  0  0  0  0
  149.3537  139.2151  157.0260 H   0  0  0  0  0  0  0  0  0  0  0  0
  150.9702  139.8625  157.2632 H   0  0  0  0  0  0  0  0  0  0  0  0
  150.2429  138.7935  158.4617 H   0  0  0  0  0  0  0  0  0  0  0  0
  150.4856  135.7010  157.4122 H   0  0  0  0  0  0  0  0  0  0  0  0
  149.1018  136.5629  156.6569 H   0  0  0  0  0  0  0  0  0  0  0  0
  151.7480  135.6855  155.3351 H   0  0  0  0  0  0  0  0  0  0  0  0
  149.4567  136.0926  153.6166 H   0  0  0  0  0  0  0  0  0  0  0  0
  148.4658  134.6277  152.7512 H   0  0  0  0  0  0  0  0  0  0  0  0
  149.5801  131.3952  153.8986 H   0  0  0  0  0  0  0  0  0  0  0  0
  146.0838  129.4667  152.3292 H   0  0  0  0  0  0  0  0  0  0  0  0
  149.6143  138.2050  153.3878 H   0  0  0  0  0  0  0  0  0  0  0  0
  149.7756  139.5159  154.5428 H   0  0  0  0  0  0  0  0  0  0  0  0
  148.7427  138.1455  154.9067 H   0  0  0  0  0  0  0  0  0  0  0  0
  152.0287  138.0674  153.2721 H   0  0  0  0  0  0  0  0  0  0  0  0
  153.0325  137.6871  154.6512 H   0  0  0  0  0  0  0  0  0  0  0  0
  152.2997  139.2779  154.5212 H   0  0  0  0  0  0  0  0  0  0  0  0
  1  2  1  0  0  0  0
  1 26  1  0  0  0  0
  1 27  1  0  0  0  0
  1 28  1  0  0  0  0
  2  3  1  0  0  0  0
  3 22  1  0  0  0  0
  3  4  1  0  0  0  0
  3  5  1  0  0  0  0
  4 29  1  0  0  0  0
  4 30  1  0  0  0  0
  4 31  1  0  0  0  0
  5  6  1  0  0  0  0
  5 32  1  0  0  0  0
  5 33  1  0  0  0  0
  6  7  1  0  0  0  0
  6 22  1  0  0  0  0
  6 34  1  0  0  0  0
  7  8  1  0  0  0  0
  7 35  1  0  0  0  0
  8  9  2  0  0  0  0
  8 10  1  0  0  0  0
 10 11  1  0  0  0  0
 10 36  1  0  0  0  0
 11 20  1  0  0  0  0
 11 12  2  0  0  0  0
 12 13  1  0  0  0  0
 12 37  1  0  0  0  0
 13 14  1  0  0  0  0
 13 18  2  0  0  0  0
 14 15  1  0  0  0  0
 14 16  1  0  0  0  0
 14 17  1  0  0  0  0
 18 19  1  0  0  0  0
 18 38  1  0  0  0  0
 19 25  1  0  0  0  0
 19 20  1  0  0  0  0
 20 21  2  0  0  0  0
 22 23  1  0  0  0  0
 22 24  1  0  0  0  0
 23 39  1  0  0  0  0
 23 40  1  0  0  0  0
 23 41  1  0  0  0  0
 24 42  1  0  0  0  0
 24 43  1  0  0  0  0
 24 44  1  0  0  0  0
M  END
> <s_m_source_file>
AV-unprocessed.smi

> <i_m_source_file_index>
697

> <i_lp_mmshare_version>
43012

> <i_f3d_flags>
0

> <s_epik_input>
W0NIM11PW0NAQF0xKFtDSDNdKVtDSDJdW0NASF0oQzEoW0NIM10pW0NIM10pW05IXUMoPU8pW05IXWMyW2NIXWMoQyhGKShGKUYpW2NIXVtuSF1jMj1P

> <s_epik_cmdline>
J2VwaWtfcHl0aG9uJywgJy1waCcsICc3LjAnLCAnLXRuJywgJzgnLCAnLW1hJywgJzIwMCcsICctbWV0YWxfYmluZGluZycsICctaW1hZScsICc8aW5maWxlLm1hZT4nLCAnLW9tYWUnLCAnPG91dGZpbGUubWFlPic=

> <r_lp_tautomer_probability>
1

> <r_epik_Ionization_Penalty>
0.0036482

> <r_epik_Ionization_Penalty_Charging>
0.00362828

> <r_epik_Ionization_Penalty_Neutral>
1.99208e-05

> <r_epik_State_Penalty>
-0

> <r_epik_Charging_Adjusted_Penalty>
0.00362828

> <i_epik_Tot_Q>
0

> <i_epik_Tot_abs_Q>
0

> <r_epik_Metal_State_Penalty>
0.369362

> <b_epik_Metal_Only>
0

> <s_lp_Force_Field>
OPLS_2005

> <r_lp_Energy>
34.8139

> <b_lp_Chiralities_Consistent>
1

> <s_lp_Variant>
AV-unprocessed.smi:697-2

> <Gold.Version>
5.8.1

> <Gold.Id.Protein>
6NUR|6NUR_protein|mol2

> <Gold.PLP.Fitness>
38.4922

> <Gold.PLP.PLP>
-33.2803

> <Gold.PLP.part.hbond>
-2.3616

> <Gold.PLP.part.metal>
0.0000

> <Gold.PLP.part.buried>
-4.2055

> <Gold.PLP.part.nonpolar>
-26.5010

> <Gold.PLP.part.repulsive>
0.1922

> <Gold.PLP.ligand.clash>
0.0000

> <Gold.PLP.ligand.torsion>
0.5929

> <Gold.PLP.Chemscore.Hbond>
1.9920

> <Gold.PLP.Chemscore.CHOScore>
0.0000

> <Gold.PLP.Chemscore.Metal>
0.0000

> <Gold.Chemscore.Hbonds>
donor molecule, donor type, donor heavy atom, donor atom, acceptor molecule, acceptor atom, score
      L1  H     7    35       P1  7948  0.96
      L1  H    10    36       P1  7948  1.00

> <Gold.PLP.Chemscore.Internal.Correction>
0.4216

> <Gold.Rescore>
     Score         DG    S(hbond)    S(metal)    S(lipo)     H(rot)  DE(clash)    DE(int)     intcor
     13.14     -14.62       1.31        0.00      69.22       1.31       0.07       1.41       ----

> <Gold.Chemscore.Fitness>
13.1373

> <Gold.Chemscore.DG>
-14.6150

> <Gold.Chemscore.ZeroCoef>
-5.4800

> <Gold.Chemscore.Hbond>
1.3114

> <Gold.Chemscore.Metal>
0.0000

> <Gold.Chemscore.Lipo>
69.2216

> <Gold.Chemscore.Internal_Hbond>
0.0000

> <Gold.Chemscore.DEClash>
0.0681

> <Gold.Chemscore.DEInternal>
1.4097

> <Gold.Chemscore.Rot>
1.3062

> <Gold.Chemscore.Internal.Correction>
   9.000000E+99

> <Gold.Chemscore.Hbonds>
donor molecule, donor type, donor heavy atom, donor atom, acceptor molecule, acceptor atom, score
      L1  H     7    35       P1  7948  0.56
      L1  H    10    36       P1  7948  0.24

> <Gold.Chemscore.Hbond.Weighted>
-4.3801

> <Gold.Chemscore.Metal.Weighted>
-0.0000

> <Gold.Chemscore.Lipo.Weighted>
-8.0989

> <Gold.Chemscore.Internal_Hbond.Weighted>
0.0000

> <Gold.Chemscore.DEClash.Weighted>
0.0681

> <Gold.Chemscore.DEInternal.Weighted>
1.4097

> <Gold.Chemscore.Rot.Weighted>
3.3440

> <Gold.Chemscore.Internal.Correction.Weighted>
   9.000000E+99

> <Gold.Protein.RotatedTorsions>
[ 6907 6896 6895 6894 ] final    7.61 input  -60.11 | X-H torsion
[ 7974 7965 7964 7962 ] final    5.11 input  175.53 | X-H torsion
[ 8008 7997 7996 7995 ] final -176.21 input   59.86 | X-H torsion
[ 10167 10162 10161 10158 ] final  -11.55 input  -65.29 | X-H torsion
[ 10718 10713 10712 10709 ] final -160.01 input   66.30 | X-H torsion
[ 10763 10752 10751 10750 ] final -168.86 input  -60.55 | X-H torsion
[ 11005 11000 10999 10996 ] final -107.31 input  -57.11 | X-H torsion

> <Gold.Protein.ActiveResidues>
 VAL166  LYS551  ARG553  GLY616  TRP617  ASP618  TYR619  PRO620  LYS621  CYS622 
 ASP623  PHE694  ASN695  SER759  ASP760  ASP761  ALA762  ILE779  LEU786  VAL792 
 PHE793  MET794  SER795  GLU796  ALA797  LYS798  CYS799  TRP800  GLU811  SER814 

> <Gold.Protein.RotatedAtoms>
  151.6927  135.0944  160.0236 H   0  0  0  0  0  0  0  0  0  0  0  0  # atno 6907 bound_to 6896
  152.3769  133.6489  159.6139 H   0  0  0  0  0  0  0  0  0  0  0  0  # atno 6908 bound_to 6896
  150.7716  133.9095  159.3406 H   0  0  0  0  0  0  0  0  0  0  0  0  # atno 6909 bound_to 6896
  146.2442  140.0434  142.8380 H   0  0  0  0  0  0  0  0  0  0  0  0  # atno 7974 bound_to 7965
  155.9921  140.1203  157.0628 H   0  0  0  0  0  0  0  0  0  0  0  0  # atno 8008 bound_to 7997
  154.4215  140.1123  156.5648 H   0  0  0  0  0  0  0  0  0  0  0  0  # atno 8009 bound_to 7997
  155.6328  140.3473  155.4691 H   0  0  0  0  0  0  0  0  0  0  0  0  # atno 8010 bound_to 7997
  140.7141  143.5627  150.9178 H   0  0  0  0  0  0  0  0  0  0  0  0  # atno 10167 bound_to 10162
  156.5761  130.8709  151.2851 H   0  0  0  0  0  0  0  0  0  0  0  0  # atno 10718 bound_to 10713
  154.6584  135.2921  154.9898 H   0  0  0  0  0  0  0  0  0  0  0  0  # atno 10763 bound_to 10752
  154.0966  135.6583  153.4865 H   0  0  0  0  0  0  0  0  0  0  0  0  # atno 10764 bound_to 10752
  153.0416  135.5232  154.7524 H   0  0  0  0  0  0  0  0  0  0  0  0  # atno 10765 bound_to 10752
  141.0960  133.8969  157.1960 H   0  0  0  0  0  0  0  0  0  0  0  0  # atno 11005 bound_to 11000
  145.1049  140.9369  143.4691 LP  0  0  0  0  0  0  0  0  0  0  0  0  # atno 17320 bound_to 7965
  145.0635  139.3087  143.5868 LP  0  0  0  0  0  0  0  0  0  0  0  0  # atno 17321 bound_to 7965
  139.9353  143.6446  152.3067 LP  0  0  0  0  0  0  0  0  0  0  0  0  # atno 17342 bound_to 10162
  139.6911  144.7646  151.1437 LP  0  0  0  0  0  0  0  0  0  0  0  0  # atno 17343 bound_to 10162
  157.7337  130.9735  150.1992 LP  0  0  0  0  0  0  0  0  0  0  0  0  # atno 17370 bound_to 10713
  156.2672  130.3717  149.8069 LP  0  0  0  0  0  0  0  0  0  0  0  0  # atno 17371 bound_to 10713
  139.9798  135.0102  156.9720 LP  0  0  0  0  0  0  0  0  0  0  0  0  # atno 17394 bound_to 11000
  140.5138  134.0976  155.7276 LP  0  0  0  0  0  0  0  0  0  0  0  0  # atno 17395 bound_to 11000

$$$$
