AV-unprocessed.smi:655|AV-procd|sdf|3216|dock1
  -GOLD-   22720 0153D 1   1.00000     0.00000
 Structure written by MMmdl.
 34 35  0  0  0  0  0  0  0  0  2 V2000
  152.9796  142.8840  162.4653 C   0  0  0  0  0  0  0  0  0  0  0  0
  152.9275  142.8945  160.9310 C   0  0  2  0  0  0  0  0  0  0  0  0
  151.7941  143.7947  160.4095 C   0  0  0  0  0  0  0  0  0  0  0  0
  151.7468  143.8126  158.8708 C   0  0  0  0  0  0  0  0  0  0  0  0
  151.6396  142.4018  158.2434 C   0  0  1  0  0  0  0  0  0  0  0  0
  150.3668  141.8927  158.5980 O   0  0  0  0  0  0  0  0  0  0  0  0
  151.6784  142.5265  156.6932 C   0  0  0  0  0  0  0  0  0  0  0  0
  151.0025  141.4348  155.9694 N   0  0  0  0  0  0  0  0  0  0  0  0
  149.8040  141.7372  155.2980 C   0  0  0  0  0  0  0  0  0  0  0  0
  149.1167  140.8093  154.6046 C   0  0  0  0  0  0  0  0  0  0  0  0
  147.6532  141.2155  153.7812 Cl  0  0  0  0  0  0  0  0  0  0  0  0
  149.6475  139.4485  154.5689 C   0  0  0  0  0  0  0  0  0  0  0  0
  149.0492  138.5781  153.9382 O   0  0  0  0  0  0  0  0  0  0  0  0
  150.8032  139.2009  155.2517 N   0  5  0  0  0  0  0  0  0  0  0  0
  151.4856  140.1566  155.9549 C   0  0  0  0  0  0  0  0  0  0  0  0
  152.5170  139.9011  156.5766 O   0  0  0  0  0  0  0  0  0  0  0  0
  152.7353  141.4733  158.8254 C   0  0  0  0  0  0  0  0  0  0  0  0
  152.7752  141.4728  160.3638 C   0  0  0  0  0  0  0  0  0  0  0  0
  152.0576  142.4867  162.8912 H   0  0  0  0  0  0  0  0  0  0  0  0
  153.1229  143.8900  162.8601 H   0  0  0  0  0  0  0  0  0  0  0  0
  153.8047  142.2686  162.8248 H   0  0  0  0  0  0  0  0  0  0  0  0
  153.8744  143.3012  160.5729 H   0  0  0  0  0  0  0  0  0  0  0  0
  150.8366  143.4520  160.8040 H   0  0  0  0  0  0  0  0  0  0  0  0
  151.9287  144.8122  160.7785 H   0  0  0  0  0  0  0  0  0  0  0  0
  150.9174  144.4382  158.5376 H   0  0  0  0  0  0  0  0  0  0  0  0
  152.6529  144.2993  158.5076 H   0  0  0  0  0  0  0  0  0  0  0  0
  150.4167  141.5430  159.4746 H   0  0  0  0  0  0  0  0  0  0  0  0
  151.2913  143.4980  156.3802 H   0  0  0  0  0  0  0  0  0  0  0  0
  152.7197  142.5428  156.3683 H   0  0  0  0  0  0  0  0  0  0  0  0
  149.4845  142.7662  155.3737 H   0  0  0  0  0  0  0  0  0  0  0  0
  152.5947  140.4496  158.4767 H   0  0  0  0  0  0  0  0  0  0  0  0
  153.7098  141.7922  158.4541 H   0  0  0  0  0  0  0  0  0  0  0  0
  153.6016  140.8471  160.7026 H   0  0  0  0  0  0  0  0  0  0  0  0
  151.8657  141.0138  160.7540 H   0  0  0  0  0  0  0  0  0  0  0  0
  1  2  1  0  0  0  0
  1 19  1  0  0  0  0
  1 20  1  0  0  0  0
  1 21  1  0  0  0  0
  2 18  1  0  0  0  0
  2  3  1  0  0  0  0
  2 22  1  0  0  0  0
  3  4  1  0  0  0  0
  3 23  1  0  0  0  0
  3 24  1  0  0  0  0
  4  5  1  0  0  0  0
  4 25  1  0  0  0  0
  4 26  1  0  0  0  0
  5  6  1  0  0  0  0
  5  7  1  0  0  0  0
  5 17  1  0  0  0  0
  6 27  1  0  0  0  0
  7  8  1  0  0  0  0
  7 28  1  0  0  0  0
  7 29  1  0  0  0  0
  8 15  1  0  0  0  0
  8  9  1  0  0  0  0
  9 10  2  0  0  0  0
  9 30  1  0  0  0  0
 10 11  1  0  0  0  0
 10 12  1  0  0  0  0
 12 13  2  0  0  0  0
 12 14  1  0  0  0  0
 14 15  1  0  0  0  0
 15 16  2  0  0  0  0
 17 18  1  0  0  0  0
 17 31  1  0  0  0  0
 17 32  1  0  0  0  0
 18 33  1  0  0  0  0
 18 34  1  0  0  0  0
M  CHG  1  14  -1
M  END
> <s_m_source_file>
AV-unprocessed.smi

> <i_m_source_file_index>
655

> <i_lp_mmshare_version>
43012

> <i_f3d_flags>
0

> <s_epik_input>
W0NIMl0xW0NIMl1bQ0BIXShbQ0gzXSlbQ0gyXVtDSDJdW0NAQF0xKFtPSF0pW0NIMl1uMltjSF1jKENsKWMoPU8pW25IXWMyPU8=

> <s_epik_cmdline>
J2VwaWtfcHl0aG9uJywgJy1waCcsICc3LjAnLCAnLXRuJywgJzgnLCAnLW1hJywgJzIwMCcsICctbWV0YWxfYmluZGluZycsICctaW1hZScsICc8aW5maWxlLm1hZT4nLCAnLW9tYWUnLCAnPG91dGZpbGUubWFlPic=

> <r_epik_Ionization_Penalty>
2.34257

> <r_epik_Ionization_Penalty_Charging>
1.00552e-07

> <r_epik_Ionization_Penalty_Neutral>
2.34257

> <r_epik_State_Penalty>
2.4963

> <r_epik_Charging_Adjusted_Penalty>
2.4963

> <i_epik_Tot_Q>
-1

> <i_epik_Tot_abs_Q>
1

> <r_epik_Metal_State_Penalty>
0.0381881

> <b_epik_Metal_Only>
0

> <s_lp_Force_Field>
OPLS_2005

> <r_lp_Energy>
26.568

> <b_lp_Chiralities_Consistent>
1

> <s_lp_Variant>
AV-unprocessed.smi:655-3

> <Gold.Version>
5.8.1

> <Gold.Id.Protein>
6NUR|6NUR_protein|mol2

> <Gold.PLP.Fitness>
44.8639

> <Gold.PLP.PLP>
-39.7128

> <Gold.PLP.part.hbond>
-1.0000

> <Gold.PLP.part.metal>
0.0000

> <Gold.PLP.part.buried>
-5.0231

> <Gold.PLP.part.nonpolar>
-32.6970

> <Gold.PLP.part.repulsive>
0.3438

> <Gold.PLP.ligand.clash>
0.0000

> <Gold.PLP.ligand.torsion>
0.4600

> <Gold.PLP.Chemscore.Hbond>
1.0000

> <Gold.PLP.Chemscore.CHOScore>
1.0000

> <Gold.PLP.Chemscore.Metal>
0.0000

> <Gold.Chemscore.Hbonds>
donor molecule, donor type, donor heavy atom, donor atom, acceptor molecule, acceptor atom, score
      P1  H  7997  8010       L1    16  1.00
      L1  C     9    30       P1  8028  1.00

> <Gold.PLP.Chemscore.Internal.Correction>
0.0710

> <Gold.Rescore>
     Score         DG    S(hbond)    S(metal)    S(lipo)     H(rot)  DE(clash)    DE(int)     intcor
     13.43     -17.04       1.00        0.00     109.97       1.81       1.71       1.90       ----

> <Gold.Chemscore.Fitness>
13.4329

> <Gold.Chemscore.DG>
-17.0420

> <Gold.Chemscore.ZeroCoef>
-5.4800

> <Gold.Chemscore.Hbond>
0.9961

> <Gold.Chemscore.Metal>
0.0000

> <Gold.Chemscore.Lipo>
109.9706

> <Gold.Chemscore.Internal_Hbond>
0.0000

> <Gold.Chemscore.DEClash>
1.7138

> <Gold.Chemscore.DEInternal>
1.8953

> <Gold.Chemscore.Rot>
1.8092

> <Gold.Chemscore.Internal.Correction>
   9.000000E+99

> <Gold.Chemscore.Hbonds>
donor molecule, donor type, donor heavy atom, donor atom, acceptor molecule, acceptor atom, score
      P1  H  7997  8010       L1    16  0.94

> <Gold.Chemscore.Hbond.Weighted>
-3.3270

> <Gold.Chemscore.Metal.Weighted>
-0.0000

> <Gold.Chemscore.Lipo.Weighted>
-12.8666

> <Gold.Chemscore.Internal_Hbond.Weighted>
0.0000

> <Gold.Chemscore.DEClash.Weighted>
1.7138

> <Gold.Chemscore.DEInternal.Weighted>
1.8953

> <Gold.Chemscore.Rot.Weighted>
4.6316

> <Gold.Chemscore.Internal.Correction.Weighted>
   9.000000E+99

> <Gold.Protein.RotatedTorsions>
[ 6907 6896 6895 6894 ] final  171.43 input  -60.11 | X-H torsion
[ 7974 7965 7964 7962 ] final  -25.28 input  175.53 | X-H torsion
[ 8008 7997 7996 7995 ] final   88.65 input   59.86 | X-H torsion
[ 10167 10162 10161 10158 ] final  148.01 input  -65.29 | X-H torsion
[ 10718 10713 10712 10709 ] final  -95.11 input   66.30 | X-H torsion
[ 10763 10752 10751 10750 ] final   61.63 input  -60.55 | X-H torsion
[ 11005 11000 10999 10996 ] final  -88.28 input  -57.11 | X-H torsion

> <Gold.Protein.ActiveResidues>
 VAL166  LYS551  ARG553  GLY616  TRP617  ASP618  TYR619  PRO620  LYS621  CYS622 
 ASP623  PHE694  ASN695  SER759  ASP760  ASP761  ALA762  ILE779  LEU786  VAL792 
 PHE793  MET794  SER795  GLU796  ALA797  LYS798  CYS799  TRP800  GLU811  SER814 

> <Gold.Protein.RotatedAtoms>
  151.8003  133.3369  159.3524 H   0  0  0  0  0  0  0  0  0  0  0  0  # atno 6907 bound_to 6896
  150.7361  134.5760  159.5924 H   0  0  0  0  0  0  0  0  0  0  0  0  # atno 6908 bound_to 6896
  152.3148  134.7455  160.0379 H   0  0  0  0  0  0  0  0  0  0  0  0  # atno 6909 bound_to 6896
  146.1501  140.4865  142.8615 H   0  0  0  0  0  0  0  0  0  0  0  0  # atno 7974 bound_to 7965
  155.9904  140.3369  155.6747 H   0  0  0  0  0  0  0  0  0  0  0  0  # atno 8008 bound_to 7997
  155.6429  140.0697  157.2630 H   0  0  0  0  0  0  0  0  0  0  0  0  # atno 8009 bound_to 7997
  154.4217  140.1739  156.1579 H   0  0  0  0  0  0  0  0  0  0  0  0  # atno 8010 bound_to 7997
  139.4881  144.5712  151.7051 H   0  0  0  0  0  0  0  0  0  0  0  0  # atno 10167 bound_to 10162
  156.0038  130.5095  150.6028 H   0  0  0  0  0  0  0  0  0  0  0  0  # atno 10718 bound_to 10713
  152.9957  135.5493  154.6065 H   0  0  0  0  0  0  0  0  0  0  0  0  # atno 10763 bound_to 10752
  154.5395  135.2819  155.1110 H   0  0  0  0  0  0  0  0  0  0  0  0  # atno 10764 bound_to 10752
  154.2393  135.6419  153.5254 H   0  0  0  0  0  0  0  0  0  0  0  0  # atno 10765 bound_to 10752
  141.1604  133.7561  156.9429 H   0  0  0  0  0  0  0  0  0  0  0  0  # atno 11005 bound_to 11000
  144.7893  140.6000  143.6552 LP  0  0  0  0  0  0  0  0  0  0  0  0  # atno 17320 bound_to 7965
  145.4844  139.1493  143.3744 LP  0  0  0  0  0  0  0  0  0  0  0  0  # atno 17321 bound_to 7965
  140.5300  144.0746  150.6050 LP  0  0  0  0  0  0  0  0  0  0  0  0  # atno 17342 bound_to 10162
  140.3733  143.2843  152.0254 LP  0  0  0  0  0  0  0  0  0  0  0  0  # atno 17343 bound_to 10162
  157.3874  131.0790  151.1424 LP  0  0  0  0  0  0  0  0  0  0  0  0  # atno 17370 bound_to 10713
  157.2127  130.6445  149.5780 LP  0  0  0  0  0  0  0  0  0  0  0  0  # atno 17371 bound_to 10713
  140.1309  134.9356  157.2336 LP  0  0  0  0  0  0  0  0  0  0  0  0  # atno 17394 bound_to 11000
  140.2954  134.3192  155.7304 LP  0  0  0  0  0  0  0  0  0  0  0  0  # atno 17395 bound_to 11000

$$$$
