#       Name:                AV-unprocessed.smi:213
#       Creating user name   scv26
#       Creation time:       Thu Mar 26 20:01:59 2020


#       File generated by GOLD software.
#

@<TRIPOS>MOLECULE
AV-unprocessed.smi:213
    68    71     1
SMALL
NO_CHARGES


@<TRIPOS>ATOM
      1 ****        -4.1441   0.2866  -0.6606 C.3            1 S1                 0.0000
      2 ****        -3.0482   0.4025   0.4131 C.3            1 S1                 0.0000
      3 ****        -3.6233   0.3682   1.8469 C.3            1 S1                 0.0000
      4 ****        -4.3122  -0.8676   2.2200 N.3            1 S1                 0.0000
      5 ****        -3.4023  -2.0048   2.3468 C.3            1 S1                 0.0000
      6 ****        -4.1412  -3.2872   2.7687 C.3            1 S1                 0.0000
      7 ****        -4.8459  -3.0593   3.9848 O.3            1 S1                 0.0000
      8 ****        -5.7771  -1.9868   3.8857 C.3            1 S1                 0.0000
      9 ****        -5.0382  -0.7017   3.4745 C.3            1 S1                 0.0000
     10 ****        -2.2350   1.6047   0.2048 N.pl3          1 S1                 0.0000
     11 ****        -2.8033   2.9329   0.4277 C.3            1 S1                 0.0000
     12 ****        -0.8833   1.4792   0.2505 C.ar           1 S1                 0.0000
     13 ****        -0.1661   2.3186   1.0446 N.ar           1 S1                 0.0000
     14 ****         1.1655   2.2223   1.1036 C.ar           1 S1                 0.0000
     15 ****         1.9706   1.3791   0.4552 N.ar           1 S1                 0.0000
     16 ****         1.2595   0.5418  -0.3523 C.ar           1 S1                 0.0000
     17 ****        -0.1553   0.5202  -0.5119 C.ar           1 S1                 0.0000
     18 ****        -0.5086  -0.4613  -1.4322 N.2            1 S1                 0.0000
     19 ****         0.6286  -0.9931  -1.7883 C.2            1 S1                 0.0000
     20 ****         1.7416  -0.4430  -1.1950 N.pl3          1 S1                 0.0000
     21 ****         3.1262  -0.8185  -1.4205 C.3            1 S1                 0.0000
     22 ****         3.8651   0.1913  -2.3214 C.3            1 S1                 0.0000
     23 ****         3.1943   0.2804  -3.5644 O.3            1 S1                 0.0000
     24 ****         5.3311  -0.2076  -2.5720 C.3            1 S1                 0.0000
     25 ****         6.1154   0.7856  -3.4324 C.3            1 S1                 0.0000
     26 ****         7.5372   0.5075  -3.0041 C.3            1 S1                 0.0000
     27 ****         7.3661   0.2679  -1.5076 C.3            1 S1                 0.0000
     28 ****         6.0517  -0.2585  -1.3415 O.3            1 S1                 0.0000
     29 ****        -4.6838  -0.6561  -0.5691 H              1 S1                 0.0000
     30 ****        -3.7123   0.3170  -1.6614 H              1 S1                 0.0000
     31 ****        -4.8766   1.0901  -0.5867 H              1 S1                 0.0000
     32 ****        -2.4047  -0.4666   0.3026 H              1 S1                 0.0000
     33 ****        -2.8214   0.5603   2.5617 H              1 S1                 0.0000
     34 ****        -4.3181   1.2028   1.9504 H              1 S1                 0.0000
     35 ****        -2.8945  -2.1953   1.4024 H              1 S1                 0.0000
     36 ****        -2.6261  -1.7779   3.0796 H              1 S1                 0.0000
     37 ****        -4.8378  -3.6040   1.9910 H              1 S1                 0.0000
     38 ****        -3.4325  -4.1025   2.9153 H              1 S1                 0.0000
     39 ****        -6.5537  -2.2350   3.1605 H              1 S1                 0.0000
     40 ****        -6.2691  -1.8506   4.8489 H              1 S1                 0.0000
     41 ****        -4.3462  -0.4142   4.2676 H              1 S1                 0.0000
     42 ****        -5.7590   0.1114   3.3805 H              1 S1                 0.0000
     43 ****        -2.2742   3.6826  -0.1619 H              1 S1                 0.0000
     44 ****        -2.7337   3.2100   1.4801 H              1 S1                 0.0000
     45 ****        -3.8531   2.9686   0.1396 H              1 S1                 0.0000
     46 ****         1.6560   2.9236   1.7625 H              1 S1                 0.0000
     47 ****         0.6879  -1.7969  -2.5080 H              1 S1                 0.0000
     48 ****         3.6184  -0.8950  -0.4504 H              1 S1                 0.0000
     49 ****         3.1513  -1.8153  -1.8629 H              1 S1                 0.0000
     50 ****         3.8381   1.1771  -1.8551 H              1 S1                 0.0000
     51 ****         2.3128   0.5822  -3.4063 H              1 S1                 0.0000
     52 ****         5.3838  -1.1976  -3.0286 H              1 S1                 0.0000
     53 ****         5.9556   0.6414  -4.5014 H              1 S1                 0.0000
     54 ****         5.8454   1.8125  -3.1816 H              1 S1                 0.0000
     55 ****         7.9053  -0.3963  -3.4918 H              1 S1                 0.0000
     56 ****         8.2228   1.3244  -3.2313 H              1 S1                 0.0000
     57 ****         8.1206  -0.4095  -1.1071 H              1 S1                 0.0000
     58 ****         7.4312   1.2092  -0.9605 H              1 S1                 0.0000
     59 ****        -4.9524  -1.0615   1.4766 LP             1 S1                 0.0000
     60 ****        -4.1841  -2.8435   4.7027 LP             1 S1                 0.0000
     61 ****        -5.3421  -3.8927   4.2284 LP             1 S1                 0.0000
     62 ****        -0.6384   3.0126   1.5880 LP             1 S1                 0.0000
     63 ****         2.9660   1.3632   0.5492 LP             1 S1                 0.0000
     64 ****        -1.4256  -0.7041  -1.7489 LP             1 S1                 0.0000
     65 ****         3.1703  -0.6191  -4.0006 LP             1 S1                 0.0000
     66 ****         3.6710   0.9270  -4.1600 LP             1 S1                 0.0000
     67 ****         6.1144  -1.2088  -1.0364 LP             1 S1                 0.0000
     68 ****         5.5661   0.2811  -0.6537 LP             1 S1                 0.0000
@<TRIPOS>BOND
    1    1    2 1     
    2    1   29 1     
    3    1   30 1     
    4    1   31 1     
    5    2    3 1     
    6    2   10 1     
    7    2   32 1     
    8    3    4 1     
    9    3   33 1     
   10    3   34 1     
   11    4    9 1     
   12    4    5 1     
   13    5    6 1     
   14    5   35 1     
   15    5   36 1     
   16    6    7 1     
   17    6   37 1     
   18    6   38 1     
   19    7    8 1     
   20    8    9 1     
   21    8   39 1     
   22    8   40 1     
   23    9   41 1     
   24    9   42 1     
   25   10   11 1     
   26   10   12 1     
   27   11   43 1     
   28   11   44 1     
   29   11   45 1     
   30   12   17 ar    
   31   12   13 ar    
   32   13   14 ar    
   33   14   15 ar    
   34   14   46 1     
   35   15   16 ar    
   36   16   20 1     
   37   16   17 ar    
   38   17   18 1     
   39   18   19 2     
   40   19   20 1     
   41   19   47 1     
   42   20   21 1     
   43   21   22 1     
   44   21   48 1     
   45   21   49 1     
   46   22   23 1     
   47   22   24 1     
   48   22   50 1     
   49   23   51 1     
   50   24   28 1     
   51   24   25 1     
   52   24   52 1     
   53   25   26 1     
   54   25   53 1     
   55   25   54 1     
   56   26   27 1     
   57   26   55 1     
   58   26   56 1     
   59   27   28 1     
   60   27   57 1     
   61   27   58 1     
   62    4   59 1     
   63    7   60 1     
   64    7   61 1     
   65   13   62 1     
   66   15   63 1     
   67   18   64 1     
   68   23   65 1     
   69   23   66 1     
   70   28   67 1     
   71   28   68 1     
@<TRIPOS>SUBSTRUCTURE
      1 S1             1
@<TRIPOS>SET
LONE_PAIRS      STATIC     ATOMS    <user>   **** ""
10 59 60 61 62 63 64 65 66 67 68
DONOR_HYDROGENS      STATIC     ATOMS    <user>   **** ""
1 51
ATOM$BLUE        STATIC     ATOMS    COLORGROUP SYSTEM
10 59 60 61 62 63 64 65 66 67 68
ATOM$RED        STATIC     ATOMS    COLORGROUP SYSTEM
1 51
