AV-unprocessed.smi:654|AV-procd|sdf|3213|dock4
  -GOLD-   22720 0153D 1   1.00000     0.00000
 Structure written by MMmdl.
 48 50  0  0  0  0  0  0  0  0  2 V2000
  146.7256  137.7687  150.9434 O   0  0  0  0  0  0  0  0  0  0  0  0
  145.8708  137.8308  151.8277 C   0  0  0  0  0  0  0  0  0  0  0  0
  145.9753  138.6863  152.8588 N   0  0  0  0  0  0  0  0  0  0  0  0
  147.0648  139.6361  153.0649 C   0  0  0  0  0  0  0  0  0  0  0  0
  148.3447  138.9761  153.6160 C   0  0  0  0  0  0  0  0  0  0  0  0
  149.2047  139.9147  154.4450 C   0  0  0  0  0  0  0  0  0  0  0  0
  150.4121  139.4629  155.0216 C   0  0  0  0  0  0  0  0  0  0  0  0
  151.1856  140.3544  155.7942 C   0  0  0  0  0  0  0  0  0  0  0  0
  150.7343  141.6784  155.9716 C   0  0  0  0  0  0  0  0  0  0  0  0
  149.5744  142.0751  155.4036 N   0  3  0  0  0  0  0  0  0  0  0  0
  148.8057  141.2526  154.6571 C   0  0  0  0  0  0  0  0  0  0  0  0
  144.7616  137.0476  151.8476 N   0  0  0  0  0  0  0  0  0  0  0  0
  143.7983  136.9349  152.9539 C   0  0  0  0  0  0  0  0  0  0  0  0
  144.0409  135.6123  153.6917 C   0  0  0  0  0  0  0  0  0  0  0  0
  143.7445  134.1951  152.5905 S   0  0  0  0  0  0  0  0  0  0  0  0
  144.7457  134.6504  151.1230 C   0  0  0  0  0  0  0  0  0  0  0  0
  146.2584  134.4453  151.4083 C   0  0  0  0  0  0  0  0  0  0  0  0
  146.6541  132.9676  151.5805 C   0  0  0  0  0  0  0  0  0  0  0  0
  146.2314  132.1304  150.3666 C   0  0  0  0  0  0  0  0  0  0  0  0
  144.7278  132.2765  150.1005 C   0  0  0  0  0  0  0  0  0  0  0  0
  144.3331  133.7545  149.9281 C   0  0  0  0  0  0  0  0  0  0  0  0
  144.4353  136.1260  150.7492 C   0  0  0  0  0  0  0  0  0  0  0  0
  145.2436  138.6749  153.5544 H   0  0  0  0  0  0  0  0  0  0  0  0
  147.2803  140.0924  152.0986 H   0  0  0  0  0  0  0  0  0  0  0  0
  146.7403  140.4455  153.7208 H   0  0  0  0  0  0  0  0  0  0  0  0
  148.0783  138.1107  154.2240 H   0  0  0  0  0  0  0  0  0  0  0  0
  148.9422  138.5873  152.7906 H   0  0  0  0  0  0  0  0  0  0  0  0
  150.7410  138.4441  154.8770 H   0  0  0  0  0  0  0  0  0  0  0  0
  152.1115  140.0268  156.2442 H   0  0  0  0  0  0  0  0  0  0  0  0
  151.2617  142.4260  156.5460 H   0  0  0  0  0  0  0  0  0  0  0  0
  147.8985  141.6850  154.2598 H   0  0  0  0  0  0  0  0  0  0  0  0
  143.8455  137.7664  153.6574 H   0  0  0  0  0  0  0  0  0  0  0  0
  142.7803  136.9602  152.5626 H   0  0  0  0  0  0  0  0  0  0  0  0
  145.0602  135.5674  154.0763 H   0  0  0  0  0  0  0  0  0  0  0  0
  143.3743  135.5292  154.5500 H   0  0  0  0  0  0  0  0  0  0  0  0
  146.8371  134.8644  150.5839 H   0  0  0  0  0  0  0  0  0  0  0  0
  146.5654  134.9965  152.2966 H   0  0  0  0  0  0  0  0  0  0  0  0
  147.7322  132.8898  151.7230 H   0  0  0  0  0  0  0  0  0  0  0  0
  146.1980  132.5615  152.4837 H   0  0  0  0  0  0  0  0  0  0  0  0
  146.7923  132.4502  149.4873 H   0  0  0  0  0  0  0  0  0  0  0  0
  146.4818  131.0819  150.5303 H   0  0  0  0  0  0  0  0  0  0  0  0
  144.4565  131.7167  149.2051 H   0  0  0  0  0  0  0  0  0  0  0  0
  144.1642  131.8296  150.9200 H   0  0  0  0  0  0  0  0  0  0  0  0
  143.2576  133.8252  149.7614 H   0  0  0  0  0  0  0  0  0  0  0  0
  144.8017  134.1292  149.0169 H   0  0  0  0  0  0  0  0  0  0  0  0
  143.3786  136.2306  150.4980 H   0  0  0  0  0  0  0  0  0  0  0  0
  144.9633  136.3944  149.8325 H   0  0  0  0  0  0  0  0  0  0  0  0
  149.2656  143.0375  155.5439 H   0  0  0  0  0  0  0  0  0  0  0  0
  1  2  2  0  0  0  0
  2  3  1  0  0  0  0
  2 12  1  0  0  0  0
  3  4  1  0  0  0  0
  3 23  1  0  0  0  0
  4  5  1  0  0  0  0
  4 24  1  0  0  0  0
  4 25  1  0  0  0  0
  5  6  1  0  0  0  0
  5 26  1  0  0  0  0
  5 27  1  0  0  0  0
  6 11  1  0  0  0  0
  6  7  2  0  0  0  0
  7  8  1  0  0  0  0
  7 28  1  0  0  0  0
  8  9  2  0  0  0  0
  8 29  1  0  0  0  0
  9 10  1  0  0  0  0
  9 30  1  0  0  0  0
 10 11  2  0  0  0  0
 10 48  1  0  0  0  0
 11 31  1  0  0  0  0
 12 22  1  0  0  0  0
 12 13  1  0  0  0  0
 13 14  1  0  0  0  0
 13 32  1  0  0  0  0
 13 33  1  0  0  0  0
 14 15  1  0  0  0  0
 14 34  1  0  0  0  0
 14 35  1  0  0  0  0
 15 16  1  0  0  0  0
 16 21  1  0  0  0  0
 16 17  1  0  0  0  0
 16 22  1  0  0  0  0
 17 18  1  0  0  0  0
 17 36  1  0  0  0  0
 17 37  1  0  0  0  0
 18 19  1  0  0  0  0
 18 38  1  0  0  0  0
 18 39  1  0  0  0  0
 19 20  1  0  0  0  0
 19 40  1  0  0  0  0
 19 41  1  0  0  0  0
 20 21  1  0  0  0  0
 20 42  1  0  0  0  0
 20 43  1  0  0  0  0
 21 44  1  0  0  0  0
 21 45  1  0  0  0  0
 22 46  1  0  0  0  0
 22 47  1  0  0  0  0
M  CHG  1  10   1
M  END
> <s_m_source_file>
AV-unprocessed.smi

> <i_m_source_file_index>
654

> <i_lp_mmshare_version>
43012

> <i_f3d_flags>
0

> <s_epik_input>
W2NIXTFuW2NIXVtjSF1bY0hdYzFbQ0gyXVtDSDJdW05IXUMoPU8pTihbQ0gyXTIpW0NIMl1bQ0gyXVNDMjNbQ0gyXVtDSDJdW0NIMl1bQ0gyXVtDSDJdMw==

> <s_epik_cmdline>
J2VwaWtfcHl0aG9uJywgJy1waCcsICc3LjAnLCAnLXRuJywgJzgnLCAnLW1hJywgJzIwMCcsICctbWV0YWxfYmluZGluZycsICctaW1hZScsICc8aW5maWxlLm1hZT4nLCAnLW9tYWUnLCAnPG91dGZpbGUubWFlPic=

> <r_epik_Ionization_Penalty>
2.2093

> <r_epik_Ionization_Penalty_Charging>
2.20925

> <r_epik_Ionization_Penalty_Neutral>
4.66963e-05

> <r_epik_State_Penalty>
2.35335

> <r_epik_Charging_Adjusted_Penalty>
4.5626

> <i_epik_Tot_Q>
1

> <i_epik_Tot_abs_Q>
1

> <r_epik_Metal_State_Penalty>
2.36748

> <b_epik_Metal_Only>
0

> <s_lp_Force_Field>
OPLS_2005

> <r_lp_Energy>
39.5462

> <b_lp_Chiralities_Consistent>
1

> <s_lp_Variant>
AV-unprocessed.smi:654-2

> <Gold.Version>
5.8.1

> <Gold.Id.Protein>
6NUR|6NUR_protein|mol2

> <Gold.PLP.Fitness>
45.5445

> <Gold.PLP.PLP>
-37.1561

> <Gold.PLP.part.hbond>
-3.0000

> <Gold.PLP.part.metal>
0.0000

> <Gold.PLP.part.buried>
7.8196

> <Gold.PLP.part.nonpolar>
-43.6188

> <Gold.PLP.part.repulsive>
2.3700

> <Gold.PLP.ligand.clash>
0.0000

> <Gold.PLP.ligand.torsion>
0.3087

> <Gold.PLP.Chemscore.Hbond>
3.0000

> <Gold.PLP.Chemscore.CHOScore>
0.0000

> <Gold.PLP.Chemscore.Metal>
0.0000

> <Gold.Chemscore.Hbonds>
donor molecule, donor type, donor heavy atom, donor atom, acceptor molecule, acceptor atom, score
      L1  H    10    48       P1  8028  2.00
      P1  H  7954  7966       L1     1  1.00

> <Gold.PLP.Chemscore.Internal.Correction>
0.0058

> <Gold.Rescore>
     Score         DG    S(hbond)    S(metal)    S(lipo)     H(rot)  DE(clash)    DE(int)     intcor
     17.94     -21.00       1.99        0.00     104.21       1.30       2.76       0.29       ----

> <Gold.Chemscore.Fitness>
17.9421

> <Gold.Chemscore.DG>
-21.0002

> <Gold.Chemscore.ZeroCoef>
-5.4800

> <Gold.Chemscore.Hbond>
1.9890

> <Gold.Chemscore.Metal>
0.0000

> <Gold.Chemscore.Lipo>
104.2130

> <Gold.Chemscore.Internal_Hbond>
0.0000

> <Gold.Chemscore.DEClash>
2.7646

> <Gold.Chemscore.DEInternal>
0.2934

> <Gold.Chemscore.Rot>
1.2953

> <Gold.Chemscore.Internal.Correction>
   9.000000E+99

> <Gold.Chemscore.Hbonds>
donor molecule, donor type, donor heavy atom, donor atom, acceptor molecule, acceptor atom, score
      L1  H    10    48       P1  8028  1.00
      P1  H  7954  7966       L1     1  1.00

> <Gold.Chemscore.Hbond.Weighted>
-6.6431

> <Gold.Chemscore.Metal.Weighted>
-0.0000

> <Gold.Chemscore.Lipo.Weighted>
-12.1929

> <Gold.Chemscore.Internal_Hbond.Weighted>
0.0000

> <Gold.Chemscore.DEClash.Weighted>
2.7646

> <Gold.Chemscore.DEInternal.Weighted>
0.2934

> <Gold.Chemscore.Rot.Weighted>
3.3159

> <Gold.Chemscore.Internal.Correction.Weighted>
   9.000000E+99

> <Gold.Protein.RotatedTorsions>
[ 6907 6896 6895 6894 ] final  -56.15 input  -60.11 | X-H torsion
[ 7974 7965 7964 7962 ] final   51.10 input  175.53 | X-H torsion
[ 8008 7997 7996 7995 ] final  -89.42 input   59.86 | X-H torsion
[ 10167 10162 10161 10158 ] final   71.28 input  -65.29 | X-H torsion
[ 10718 10713 10712 10709 ] final   63.84 input   66.30 | X-H torsion
[ 10763 10752 10751 10750 ] final   25.23 input  -60.55 | X-H torsion
[ 11005 11000 10999 10996 ] final  152.45 input  -57.11 | X-H torsion

> <Gold.Protein.ActiveResidues>
 VAL166  LYS551  ARG553  GLY616  TRP617  ASP618  TYR619  PRO620  LYS621  CYS622 
 ASP623  PHE694  ASN695  SER759  ASP760  ASP761  ALA762  ILE779  LEU786  VAL792 
 PHE793  MET794  SER795  GLU796  ALA797  LYS798  CYS799  TRP800  GLU811  SER814 

> <Gold.Protein.RotatedAtoms>
  150.8192  134.7390  159.6756 H   0  0  0  0  0  0  0  0  0  0  0  0  # atno 6907 bound_to 6896
  152.4309  134.5777  159.9949 H   0  0  0  0  0  0  0  0  0  0  0  0  # atno 6908 bound_to 6896
  151.5965  133.3323  159.3074 H   0  0  0  0  0  0  0  0  0  0  0  0  # atno 6909 bound_to 6896
  145.9947  139.4375  143.0052 H   0  0  0  0  0  0  0  0  0  0  0  0  # atno 7974 bound_to 7965
  154.6864  140.0542  157.0318 H   0  0  0  0  0  0  0  0  0  0  0  0  # atno 8008 bound_to 7997
  155.0879  140.3216  155.4563 H   0  0  0  0  0  0  0  0  0  0  0  0  # atno 8009 bound_to 7997
  156.2712  140.2053  156.6006 H   0  0  0  0  0  0  0  0  0  0  0  0  # atno 8010 bound_to 7997
  140.0478  144.5336  150.7386 H   0  0  0  0  0  0  0  0  0  0  0  0  # atno 10167 bound_to 10162
  157.5999  130.9127  149.9767 H   0  0  0  0  0  0  0  0  0  0  0  0  # atno 10718 bound_to 10713
  153.0707  135.6587  154.0254 H   0  0  0  0  0  0  0  0  0  0  0  0  # atno 10763 bound_to 10752
  153.9901  135.2947  155.3414 H   0  0  0  0  0  0  0  0  0  0  0  0  # atno 10764 bound_to 10752
  154.7080  135.5217  153.8694 H   0  0  0  0  0  0  0  0  0  0  0  0  # atno 10765 bound_to 10752
  140.1309  134.8802  157.2202 H   0  0  0  0  0  0  0  0  0  0  0  0  # atno 11005 bound_to 11000
  145.7578  140.9947  143.1216 LP  0  0  0  0  0  0  0  0  0  0  0  0  # atno 17320 bound_to 7965
  144.6900  139.9293  143.7471 LP  0  0  0  0  0  0  0  0  0  0  0  0  # atno 17321 bound_to 7965
  140.7231  143.2608  151.4213 LP  0  0  0  0  0  0  0  0  0  0  0  0  # atno 17342 bound_to 10162
  139.5972  144.1372  152.2157 LP  0  0  0  0  0  0  0  0  0  0  0  0  # atno 17343 bound_to 10162
  156.1069  130.3652  150.0117 LP  0  0  0  0  0  0  0  0  0  0  0  0  # atno 17370 bound_to 10713
  156.8223  130.9363  151.3640 LP  0  0  0  0  0  0  0  0  0  0  0  0  # atno 17371 bound_to 10713
  140.2844  134.3313  155.7333 LP  0  0  0  0  0  0  0  0  0  0  0  0  # atno 17394 bound_to 11000
  141.2170  133.7497  156.9411 LP  0  0  0  0  0  0  0  0  0  0  0  0  # atno 17395 bound_to 11000

$$$$
