#       Name:                AV-unprocessed.smi:671
#       Creating user name   scv26
#       Creation time:       Fri Mar 27 00:24:13 2020


#       File generated by GOLD software.
#

@<TRIPOS>MOLECULE
AV-unprocessed.smi:671
    52    53     1
SMALL
NO_CHARGES


@<TRIPOS>ATOM
      1 ****         4.4124  -4.5739  -3.5128 C.3            1 S1                 0.0000
      2 ****         4.4413  -3.4102  -4.4463 C.2            1 S1                 0.0000
      3 ****         4.9364  -3.4512  -5.7118 N.pl3          1 S1                 1.0000
      4 ****         4.8189  -2.2496  -6.2940 N.pl3          1 S1                 0.0000
      5 ****         5.2996  -2.0860  -7.6663 C.3            1 S1                 0.0000
      6 ****         4.2423  -1.3620  -5.4338 C.2            1 S1                 0.0000
      7 ****         3.9635   0.0693  -5.7613 C.3            1 S1                 0.0000
      8 ****         4.0003  -2.0946  -4.2633 C.2            1 S1                 0.0000
      9 ****         3.3700  -1.5758  -3.0011 C.3            1 S1                 0.0000
     10 ****         1.8670  -1.9182  -2.8967 C.3            1 S1                 0.0000
     11 ****         1.0168  -1.1571  -3.9259 C.3            1 S1                 0.0000
     12 ****         1.3622  -1.6201  -1.5541 N.am           1 S1                 0.0000
     13 ****         1.4427  -2.3831  -0.4481 C.2            1 S1                 0.0000
     14 ****         1.9706  -3.4930  -0.4641 O.2            1 S1                 0.0000
     15 ****         0.8836  -1.8404   0.6467 N.am           1 S1                 0.0000
     16 ****         0.8400  -2.4445   1.9749 C.3            1 S1                 0.0000
     17 ****        -0.5617  -2.2864   2.5948 C.3            1 S1                 0.0000
     18 ****        -0.4016  -1.3275   3.7756 C.3            1 S1                 0.0000
     19 ****         1.0375  -1.5359   4.2347 C.3            1 S1                 0.0000
     20 ****         1.8191  -1.7321   2.9327 C.3            1 S1                 0.0000
     21 ****         3.1505  -2.4722   3.1187 C.3            1 S1                 0.0000
     22 ****         3.3827  -4.8409  -3.2742 H              1 S1                 0.0000
     23 ****         4.9303  -4.3241  -2.5870 H              1 S1                 0.0000
     24 ****         4.9012  -5.4405  -3.9589 H              1 S1                 0.0000
     25 ****         4.8748  -1.1810  -8.1009 H              1 S1                 0.0000
     26 ****         4.9966  -2.9462  -8.2645 H              1 S1                 0.0000
     27 ****         6.3872  -2.0091  -7.6563 H              1 S1                 0.0000
     28 ****         3.5014   0.5844  -4.9202 H              1 S1                 0.0000
     29 ****         3.2863   0.1335  -6.6131 H              1 S1                 0.0000
     30 ****         4.8909   0.5835  -6.0135 H              1 S1                 0.0000
     31 ****         3.9036  -1.9958  -2.1480 H              1 S1                 0.0000
     32 ****         3.5091  -0.4985  -2.9115 H              1 S1                 0.0000
     33 ****         1.7272  -2.9833  -3.0881 H              1 S1                 0.0000
     34 ****         1.3082  -1.4061  -4.9461 H              1 S1                 0.0000
     35 ****         1.1162  -0.0778  -3.8046 H              1 S1                 0.0000
     36 ****        -0.0398  -1.4068  -3.8223 H              1 S1                 0.0000
     37 ****         0.8253  -0.7686  -1.4688 H              1 S1                 0.0000
     38 ****         0.4665  -0.9262   0.5550 H              1 S1                 0.0000
     39 ****         1.0681  -3.5109   1.9239 H              1 S1                 0.0000
     40 ****        -1.3129  -1.9363   1.8855 H              1 S1                 0.0000
     41 ****        -0.9014  -3.2558   2.9621 H              1 S1                 0.0000
     42 ****        -0.5326  -0.2988   3.4381 H              1 S1                 0.0000
     43 ****        -1.1270  -1.5135   4.5682 H              1 S1                 0.0000
     44 ****         1.4128  -0.7008   4.8270 H              1 S1                 0.0000
     45 ****         1.0967  -2.4348   4.8504 H              1 S1                 0.0000
     46 ****         2.0361  -0.7366   2.5403 H              1 S1                 0.0000
     47 ****         2.9972  -3.4673   3.5372 H              1 S1                 0.0000
     48 ****         3.8110  -1.9247   3.7914 H              1 S1                 0.0000
     49 ****         3.6675  -2.5877   2.1658 H              1 S1                 0.0000
     50 ****         5.3463  -4.2341  -6.2054 H              1 S1                 0.0000
     51 ****         2.3549  -3.8516  -1.3148 LP             1 S1                 0.0000
     52 ****         2.0157  -4.0373   0.3735 LP             1 S1                 0.0000
@<TRIPOS>BOND
    1    1    2 1     
    2    1   22 1     
    3    1   23 1     
    4    1   24 1     
    5    2    8 1     
    6    2    3 2     
    7    3    4 1     
    8    3   50 1     
    9    4    5 1     
   10    4    6 1     
   11    5   25 1     
   12    5   26 1     
   13    5   27 1     
   14    6    7 1     
   15    6    8 2     
   16    7   28 1     
   17    7   29 1     
   18    7   30 1     
   19    8    9 1     
   20    9   10 1     
   21    9   31 1     
   22    9   32 1     
   23   10   11 1     
   24   10   12 1     
   25   10   33 1     
   26   11   34 1     
   27   11   35 1     
   28   11   36 1     
   29   12   13 am    
   30   12   37 1     
   31   13   14 2     
   32   13   15 am    
   33   15   16 1     
   34   15   38 1     
   35   16   20 1     
   36   16   17 1     
   37   16   39 1     
   38   17   18 1     
   39   17   40 1     
   40   17   41 1     
   41   18   19 1     
   42   18   42 1     
   43   18   43 1     
   44   19   20 1     
   45   19   44 1     
   46   19   45 1     
   47   20   21 1     
   48   20   46 1     
   49   21   47 1     
   50   21   48 1     
   51   21   49 1     
   52   14   51 1     
   53   14   52 1     
@<TRIPOS>SUBSTRUCTURE
      1 S1             1
@<TRIPOS>SET
LONE_PAIRS      STATIC     ATOMS    <user>   **** ""
2 51 52
DONOR_HYDROGENS      STATIC     ATOMS    <user>   **** ""
3 50 37 38
ATOM$BLUE        STATIC     ATOMS    COLORGROUP SYSTEM
2 51 52
ATOM$RED        STATIC     ATOMS    COLORGROUP SYSTEM
3 50 37 38
