AV-unprocessed.smi:1324|AV-procd|sdf|5471|dock4
  -GOLD-   22720 5 43D 1   1.00000     0.00000
 Structure written by MMmdl.
 42 43  0  0  0  0  0  0  0  0  2 V2000
  147.9724  135.1531  159.1625 C   0  0  0  0  0  0  0  0  0  0  0  0
  148.8439  135.8674  158.1518 C   0  0  0  0  0  0  0  0  0  0  0  0
  148.4353  136.9656  157.6401 N   0  0  0  0  0  0  0  0  0  0  0  0
  149.2423  137.6350  156.7046 C   0  0  0  0  0  0  0  0  0  0  0  0
  148.6809  138.9340  156.1536 C   0  0  0  0  0  0  0  0  0  0  0  0
  150.4540  137.1328  156.3306 C   0  0  0  0  0  0  0  0  0  0  0  0
  151.3730  137.8230  155.3220 C   0  0  0  0  0  0  0  0  0  0  0  0
  151.9385  139.1845  155.7353 C   0  0  0  0  0  0  0  0  0  0  0  0
  152.6332  139.8417  154.9595 O   0  0  0  0  0  0  0  0  0  0  0  0
  151.6268  139.5960  156.9743 N   0  0  0  0  0  0  0  0  0  0  0  0
  152.0483  140.8563  157.5829 C   0  0  0  0  0  0  0  0  0  0  0  0
  152.6985  140.5628  158.9551 C   0  0  0  0  0  0  0  0  0  0  0  0
  152.8647  141.7476  159.9237 C   0  0  0  0  0  0  0  0  0  0  0  0
  153.1960  143.1008  159.2759 C   0  0  0  0  0  0  0  0  0  0  0  0
  151.9389  143.8631  158.8254 C   0  0  0  0  0  0  0  0  0  0  0  0
  151.2677  143.3066  157.5614 C   0  0  0  0  0  0  0  0  0  0  0  0
  150.8500  141.8264  157.6342 C   0  0  0  0  0  0  0  0  0  0  0  0
  150.8837  135.8599  156.9365 C   0  0  0  0  0  0  0  0  0  0  0  0
  151.9594  135.3532  156.6195 O   0  0  0  0  0  0  0  0  0  0  0  0
  150.0492  135.2776  157.8442 N   0  5  0  0  0  0  0  0  0  0  0  0
  146.9588  135.5560  159.1610 H   0  0  0  0  0  0  0  0  0  0  0  0
  148.3874  135.2694  160.1638 H   0  0  0  0  0  0  0  0  0  0  0  0
  147.9146  134.0885  158.9325 H   0  0  0  0  0  0  0  0  0  0  0  0
  149.3000  139.7771  156.4609 H   0  0  0  0  0  0  0  0  0  0  0  0
  147.6678  139.1116  156.5167 H   0  0  0  0  0  0  0  0  0  0  0  0
  148.6447  138.9066  155.0643 H   0  0  0  0  0  0  0  0  0  0  0  0
  152.2163  137.1644  155.1148 H   0  0  0  0  0  0  0  0  0  0  0  0
  150.8667  137.9326  154.3622 H   0  0  0  0  0  0  0  0  0  0  0  0
  151.0524  138.9883  157.5404 H   0  0  0  0  0  0  0  0  0  0  0  0
  152.8024  141.3003  156.9302 H   0  0  0  0  0  0  0  0  0  0  0  0
  152.1304  139.7894  159.4745 H   0  0  0  0  0  0  0  0  0  0  0  0
  153.6812  140.1252  158.7738 H   0  0  0  0  0  0  0  0  0  0  0  0
  151.9632  141.8495  160.5292 H   0  0  0  0  0  0  0  0  0  0  0  0
  153.6542  141.4917  160.6315 H   0  0  0  0  0  0  0  0  0  0  0  0
  153.7036  143.7140  160.0216 H   0  0  0  0  0  0  0  0  0  0  0  0
  153.9046  142.9831  158.4551 H   0  0  0  0  0  0  0  0  0  0  0  0
  151.2155  143.8981  159.6410 H   0  0  0  0  0  0  0  0  0  0  0  0
  152.2136  144.9006  158.6329 H   0  0  0  0  0  0  0  0  0  0  0  0
  150.3798  143.9067  157.3592 H   0  0  0  0  0  0  0  0  0  0  0  0
  151.9236  143.4593  156.7034 H   0  0  0  0  0  0  0  0  0  0  0  0
  150.2063  141.6383  156.7734 H   0  0  0  0  0  0  0  0  0  0  0  0
  150.2321  141.6370  158.5127 H   0  0  0  0  0  0  0  0  0  0  0  0
  1  2  1  0  0  0  0
  1 21  1  0  0  0  0
  1 22  1  0  0  0  0
  1 23  1  0  0  0  0
  2 20  1  0  0  0  0
  2  3  2  0  0  0  0
  3  4  1  0  0  0  0
  4  5  1  0  0  0  0
  4  6  2  0  0  0  0
  5 24  1  0  0  0  0
  5 25  1  0  0  0  0
  5 26  1  0  0  0  0
  6  7  1  0  0  0  0
  6 18  1  0  0  0  0
  7  8  1  0  0  0  0
  7 27  1  0  0  0  0
  7 28  1  0  0  0  0
  8  9  2  0  0  0  0
  8 10  1  0  0  0  0
 10 11  1  0  0  0  0
 10 29  1  0  0  0  0
 11 17  1  0  0  0  0
 11 12  1  0  0  0  0
 11 30  1  0  0  0  0
 12 13  1  0  0  0  0
 12 31  1  0  0  0  0
 12 32  1  0  0  0  0
 13 14  1  0  0  0  0
 13 33  1  0  0  0  0
 13 34  1  0  0  0  0
 14 15  1  0  0  0  0
 14 35  1  0  0  0  0
 14 36  1  0  0  0  0
 15 16  1  0  0  0  0
 15 37  1  0  0  0  0
 15 38  1  0  0  0  0
 16 17  1  0  0  0  0
 16 39  1  0  0  0  0
 16 40  1  0  0  0  0
 17 41  1  0  0  0  0
 17 42  1  0  0  0  0
 18 19  2  0  0  0  0
 18 20  1  0  0  0  0
M  CHG  1  20  -1
M  END
> <s_m_source_file>
AV-unprocessed.smi

> <i_m_source_file_index>
1324

> <i_lp_mmshare_version>
43012

> <i_f3d_flags>
0

> <s_epik_input>
W0NIM11jMW5jKFtDSDNdKWMoYyg9TylbbkhdMSlbQ0gyXUMoPU8pW05IXVtDSF0yW0NIMl1bQ0gyXVtDSDJdW0NIMl1bQ0gyXVtDSDJdMg==

> <s_epik_cmdline>
J2VwaWtfcHl0aG9uJywgJy1waCcsICc3LjAnLCAnLXRuJywgJzgnLCAnLW1hJywgJzIwMCcsICctbWV0YWxfYmluZGluZycsICctaW1hZScsICc8aW5maWxlLm1hZT4nLCAnLW9tYWUnLCAnPG91dGZpbGUubWFlPic=

> <r_lp_tautomer_probability>
0.839158

> <r_epik_Ionization_Penalty>
6.62804

> <r_epik_Ionization_Penalty_Charging>
7.40585e-08

> <r_epik_Ionization_Penalty_Neutral>
6.62804

> <r_epik_State_Penalty>
4.44437

> <r_epik_Charging_Adjusted_Penalty>
4.44437

> <i_epik_Tot_Q>
-1

> <i_epik_Tot_abs_Q>
1

> <r_epik_Metal_State_Penalty>
0.804717

> <b_epik_Metal_Only>
1

> <s_lp_Force_Field>
OPLS_2005

> <r_lp_Energy>
20.4911

> <b_lp_Chiralities_Consistent>
1

> <s_lp_Variant>
AV-unprocessed.smi:1324-3

> <Gold.Version>
5.8.1

> <Gold.Id.Protein>
6NUR|6NUR_protein|mol2

> <Gold.PLP.Fitness>
44.0304

> <Gold.PLP.PLP>
-31.5899

> <Gold.PLP.part.hbond>
-3.9750

> <Gold.PLP.part.metal>
0.0000

> <Gold.PLP.part.buried>
-4.5445

> <Gold.PLP.part.nonpolar>
-24.0901

> <Gold.PLP.part.repulsive>
0.1098

> <Gold.PLP.ligand.clash>
0.0000

> <Gold.PLP.ligand.torsion>
0.1536

> <Gold.PLP.Chemscore.Hbond>
4.2426

> <Gold.PLP.Chemscore.CHOScore>
0.0000

> <Gold.PLP.Chemscore.Metal>
0.0000

> <Gold.Chemscore.Hbonds>
donor molecule, donor type, donor heavy atom, donor atom, acceptor molecule, acceptor atom, score
      P1  H  6896  6909       L1    20  1.63
      P1  H  7989  7998       L1     9  0.54
      P1  H  7997  8008       L1     9  0.89
      P1  H 10752 10764       L1    19  1.00

> <Gold.PLP.Chemscore.Internal.Correction>
0.0196

> <Gold.Rescore>
     Score         DG    S(hbond)    S(metal)    S(lipo)     H(rot)  DE(clash)    DE(int)     intcor
     20.43     -20.53       2.78        0.00      80.92       1.45       0.01       0.09       ----

> <Gold.Chemscore.Fitness>
20.4259

> <Gold.Chemscore.DG>
-20.5294

> <Gold.Chemscore.ZeroCoef>
-5.4800

> <Gold.Chemscore.Hbond>
2.7786

> <Gold.Chemscore.Metal>
0.0000

> <Gold.Chemscore.Lipo>
80.9226

> <Gold.Chemscore.Internal_Hbond>
0.0000

> <Gold.Chemscore.DEClash>
0.0126

> <Gold.Chemscore.DEInternal>
0.0909

> <Gold.Chemscore.Rot>
1.4450

> <Gold.Chemscore.Internal.Correction>
   9.000000E+99

> <Gold.Chemscore.Hbonds>
donor molecule, donor type, donor heavy atom, donor atom, acceptor molecule, acceptor atom, score
      P1  H  6896  6909       L1    20  0.44
      P1  H  7989  7998       L1     9  0.49
      P1  H  7997  8008       L1     9  0.61
      P1  H 10752 10764       L1    19  0.99

> <Gold.Chemscore.Hbond.Weighted>
-9.2807

> <Gold.Chemscore.Metal.Weighted>
-0.0000

> <Gold.Chemscore.Lipo.Weighted>
-9.4679

> <Gold.Chemscore.Internal_Hbond.Weighted>
0.0000

> <Gold.Chemscore.DEClash.Weighted>
0.0126

> <Gold.Chemscore.DEInternal.Weighted>
0.0909

> <Gold.Chemscore.Rot.Weighted>
3.6992

> <Gold.Chemscore.Internal.Correction.Weighted>
   9.000000E+99

> <Gold.Protein.RotatedTorsions>
[ 6907 6896 6895 6894 ] final   41.00 input  -60.11 | X-H torsion
[ 7974 7965 7964 7962 ] final  105.07 input  175.53 | X-H torsion
[ 8008 7997 7996 7995 ] final  -14.13 input   59.86 | X-H torsion
[ 10167 10162 10161 10158 ] final   91.16 input  -65.29 | X-H torsion
[ 10718 10713 10712 10709 ] final -144.51 input   66.30 | X-H torsion
[ 10763 10752 10751 10750 ] final  -19.78 input  -60.55 | X-H torsion
[ 11005 11000 10999 10996 ] final   52.99 input  -57.11 | X-H torsion

> <Gold.Protein.ActiveResidues>
 VAL166  LYS551  ARG553  GLY616  TRP617  ASP618  TYR619  PRO620  LYS621  CYS622 
 ASP623  PHE694  ASN695  SER759  ASP760  ASP761  ALA762  ILE779  LEU786  VAL792 
 PHE793  MET794  SER795  GLU796  ALA797  LYS798  CYS799  TRP800  GLU811  SER814 

> <Gold.Protein.RotatedAtoms>
  152.1897  134.8683  160.0518 H   0  0  0  0  0  0  0  0  0  0  0  0  # atno 6907 bound_to 6896
  151.9577  133.3680  159.4031 H   0  0  0  0  0  0  0  0  0  0  0  0  # atno 6908 bound_to 6896
  150.6933  134.4197  159.5243 H   0  0  0  0  0  0  0  0  0  0  0  0  # atno 6909 bound_to 6896
  145.3245  139.2503  143.3694 H   0  0  0  0  0  0  0  0  0  0  0  0  # atno 7974 bound_to 7965
  154.5236  140.2231  155.8931 H   0  0  0  0  0  0  0  0  0  0  0  0  # atno 8008 bound_to 7997
  156.1688  140.3126  155.8902 H   0  0  0  0  0  0  0  0  0  0  0  0  # atno 8009 bound_to 7997
  155.3600  140.0460  157.3037 H   0  0  0  0  0  0  0  0  0  0  0  0  # atno 8010 bound_to 7997
  139.8402  144.6645  150.9293 H   0  0  0  0  0  0  0  0  0  0  0  0  # atno 10167 bound_to 10162
  156.3710  130.7788  151.1969 H   0  0  0  0  0  0  0  0  0  0  0  0  # atno 10718 bound_to 10713
  153.6101  135.6996  153.5350 H   0  0  0  0  0  0  0  0  0  0  0  0  # atno 10763 bound_to 10752
  153.3024  135.4125  155.1264 H   0  0  0  0  0  0  0  0  0  0  0  0  # atno 10764 bound_to 10752
  154.8565  135.3652  154.5639 H   0  0  0  0  0  0  0  0  0  0  0  0  # atno 10765 bound_to 10752
  140.0803  134.5347  155.8953 H   0  0  0  0  0  0  0  0  0  0  0  0  # atno 11005 bound_to 11000
  146.3069  140.3809  142.8684 LP  0  0  0  0  0  0  0  0  0  0  0  0  # atno 17320 bound_to 7965
  144.8913  140.7527  143.5925 LP  0  0  0  0  0  0  0  0  0  0  0  0  # atno 17321 bound_to 7965
  140.7799  143.3920  151.1294 LP  0  0  0  0  0  0  0  0  0  0  0  0  # atno 17342 bound_to 10162
  139.7567  143.8697  152.3090 LP  0  0  0  0  0  0  0  0  0  0  0  0  # atno 17343 bound_to 10162
  157.7484  131.0372  150.4445 LP  0  0  0  0  0  0  0  0  0  0  0  0  # atno 17370 bound_to 10713
  156.4672  130.4045  149.6540 LP  0  0  0  0  0  0  0  0  0  0  0  0  # atno 17371 bound_to 10713
  141.2044  133.6639  156.6121 LP  0  0  0  0  0  0  0  0  0  0  0  0  # atno 17394 bound_to 11000
  140.3497  134.7779  157.4458 LP  0  0  0  0  0  0  0  0  0  0  0  0  # atno 17395 bound_to 11000

$$$$
