#       Name:                AV-unprocessed.smi:1344
#       Creating user name   scv26
#       Creation time:       Fri Mar 27 05:09:11 2020


#       File generated by GOLD software.
#

@<TRIPOS>MOLECULE
AV-unprocessed.smi:1344
    37    39     1
SMALL
NO_CHARGES


@<TRIPOS>ATOM
      1 ****        -0.8778  -2.2572  -3.1463 O.2            1 S1                 0.0000
      2 ****        -0.4178  -2.1602  -2.0085 C.2            1 S1                 0.0000
      3 ****         1.0923  -2.0277  -1.8026 C.3            1 S1                 0.0000
      4 ****         1.4681  -0.5831  -1.6405 C.2            1 S1                 0.0000
      5 ****         1.9895   0.2441  -2.6051 C.2            1 S1                 0.0000
      6 ****         2.2774   1.8531  -2.0014 S.3            1 S1                 0.0000
      7 ****         1.6683   1.3346  -0.4270 C.2            1 S1                 0.0000
      8 ****         1.5399   2.1447   0.7396 N.am           1 S1                 0.0000
      9 ****         0.9007   1.6458   1.9532 C.3            1 S1                 0.0000
     10 ****         0.9433   2.8371   2.9052 C.3            1 S1                 0.0000
     11 ****         1.6166   3.8371   2.1104 N.am           1 S1                 0.0000
     12 ****         1.9461   3.4216   0.8853 C.2            1 S1                 0.0000
     13 ****         2.5289   4.1181   0.0564 O.2            1 S1                 0.0000
     14 ****         1.2986   0.0498  -0.4037 N.2            1 S1                 0.0000
     15 ****        -1.1715  -2.1574  -0.8985 N.am           1 S1                 0.0000
     16 ****        -2.5948  -2.2439  -0.8589 C.3            1 S1                 0.0000
     17 ****        -3.3125  -1.4668   0.2235 C.3            1 S1                 0.0000
     18 ****        -3.2221  -2.9652   0.3143 C.3            1 S1                 0.0000
     19 ****         1.3949  -2.6078  -0.9296 H              1 S1                 0.0000
     20 ****         1.6097  -2.4668  -2.6568 H              1 S1                 0.0000
     21 ****         2.2166   0.0055  -3.6337 H              1 S1                 0.0000
     22 ****        -0.1248   1.3336   1.7497 H              1 S1                 0.0000
     23 ****         1.4514   0.7945   2.3561 H              1 S1                 0.0000
     24 ****        -0.0555   3.1771   3.1812 H              1 S1                 0.0000
     25 ****         1.5093   2.6194   3.8115 H              1 S1                 0.0000
     26 ****         1.8173   4.7623   2.4618 H              1 S1                 0.0000
     27 ****        -0.6981  -2.0710  -0.0106 H              1 S1                 0.0000
     28 ****        -3.1176  -2.3324  -1.8102 H              1 S1                 0.0000
     29 ****        -2.7091  -0.8845   0.9177 H              1 S1                 0.0000
     30 ****        -4.2801  -1.0361  -0.0262 H              1 S1                 0.0000
     31 ****        -4.1289  -3.5358   0.1247 H              1 S1                 0.0000
     32 ****        -2.5587  -3.3838   1.0690 H              1 S1                 0.0000
     33 ****        -0.2643  -2.2493  -3.9360 LP             1 S1                 0.0000
     34 ****        -1.8649  -2.3438  -3.2808 LP             1 S1                 0.0000
     35 ****         2.7508   3.7437  -0.8439 LP             1 S1                 0.0000
     36 ****         2.7810   5.0590   0.2826 LP             1 S1                 0.0000
     37 ****         0.9399  -0.4090   0.4092 LP             1 S1                 0.0000
@<TRIPOS>BOND
    1    1    2 2     
    2    2    3 1     
    3    2   15 am    
    4    3    4 1     
    5    3   19 1     
    6    3   20 1     
    7    4   14 1     
    8    4    5 2     
    9    5    6 1     
   10    5   21 1     
   11    6    7 1     
   12    7    8 1     
   13    7   14 2     
   14    8   12 am    
   15    8    9 1     
   16    9   10 1     
   17    9   22 1     
   18    9   23 1     
   19   10   11 1     
   20   10   24 1     
   21   10   25 1     
   22   11   12 am    
   23   11   26 1     
   24   12   13 2     
   25   15   16 1     
   26   15   27 1     
   27   16   18 1     
   28   16   17 1     
   29   16   28 1     
   30   17   18 1     
   31   17   29 1     
   32   17   30 1     
   33   18   31 1     
   34   18   32 1     
   35    1   33 1     
   36    1   34 1     
   37   13   35 1     
   38   13   36 1     
   39   14   37 1     
@<TRIPOS>SUBSTRUCTURE
      1 S1             1
@<TRIPOS>SET
LONE_PAIRS      STATIC     ATOMS    <user>   **** ""
5 33 34 35 36 37
DONOR_HYDROGENS      STATIC     ATOMS    <user>   **** ""
2 26 27
ATOM$BLUE        STATIC     ATOMS    COLORGROUP SYSTEM
5 33 34 35 36 37
ATOM$RED        STATIC     ATOMS    COLORGROUP SYSTEM
2 26 27
