AV-unprocessed.smi:2858|AV-procd|sdf|10999|dock1
  -GOLD-   2272015453D 1   1.00000     0.00000
 Structure written by MMmdl.
 40 41  0  0  0  0  0  0  0  0  2 V2000
  149.2819  131.7887  153.1550 O   0  0  0  0  0  0  0  0  0  0  0  0
  148.9750  132.8709  153.6482 C   0  0  0  0  0  0  0  0  0  0  0  0
  150.0778  133.8255  154.1311 C   0  0  0  0  0  0  0  0  0  0  0  0
  149.6159  135.2207  154.3507 N   0  3  2  0  0  0  0  0  0  0  0  0
  150.6830  136.0797  154.9215 C   0  0  0  0  0  0  0  0  0  0  0  0
  150.4012  137.5784  154.7221 C   0  0  0  0  0  0  0  0  0  0  0  0
  151.6387  138.4461  155.0052 C   0  0  0  0  0  0  0  0  0  0  0  0
  151.2802  139.6965  155.6647 N   0  0  0  0  0  0  0  0  0  0  0  0
  151.9608  140.2513  156.6782 C   0  0  0  0  0  0  0  0  0  0  0  0
  152.9702  139.7470  157.1722 O   0  0  0  0  0  0  0  0  0  0  0  0
  151.3880  141.3981  157.0831 N   0  0  0  0  0  0  0  0  0  0  0  0
  151.7867  142.2443  158.1510 C   0  0  0  0  0  0  0  0  0  0  0  0
  151.3294  143.5856  158.2137 C   0  0  0  0  0  0  0  0  0  0  0  0
  151.7159  144.3966  159.2980 C   0  0  0  0  0  0  0  0  0  0  0  0
  152.5388  143.8473  160.2969 C   0  0  0  0  0  0  0  0  0  0  0  0
  152.9316  142.5028  160.1666 C   0  0  0  0  0  0  0  0  0  0  0  0
  152.5613  141.7215  159.1296 N   0  0  0  0  0  0  0  0  0  0  0  0
  148.3445  135.2657  155.1124 C   0  0  0  0  0  0  0  0  0  0  0  0
  147.2395  134.5174  154.3463 C   0  0  0  0  0  0  0  0  0  0  0  0
  147.6933  133.2480  153.7837 N   0  0  0  0  0  0  0  0  0  0  0  0
  150.4829  133.4269  155.0625 H   0  0  0  0  0  0  0  0  0  0  0  0
  150.8890  133.8235  153.4018 H   0  0  0  0  0  0  0  0  0  0  0  0
  150.8218  135.8466  155.9783 H   0  0  0  0  0  0  0  0  0  0  0  0
  151.6273  135.8460  154.4271 H   0  0  0  0  0  0  0  0  0  0  0  0
  150.0640  137.7530  153.6994 H   0  0  0  0  0  0  0  0  0  0  0  0
  149.5875  137.8958  155.3734 H   0  0  0  0  0  0  0  0  0  0  0  0
  152.3591  137.8982  155.6152 H   0  0  0  0  0  0  0  0  0  0  0  0
  152.1453  138.6896  154.0708 H   0  0  0  0  0  0  0  0  0  0  0  0
  150.4603  140.1760  155.3214 H   0  0  0  0  0  0  0  0  0  0  0  0
  150.5058  141.6330  156.6527 H   0  0  0  0  0  0  0  0  0  0  0  0
  150.6802  143.9988  157.4566 H   0  0  0  0  0  0  0  0  0  0  0  0
  151.3808  145.4212  159.3642 H   0  0  0  0  0  0  0  0  0  0  0  0
  152.8548  144.4386  161.1436 H   0  0  0  0  0  0  0  0  0  0  0  0
  153.5568  142.0405  160.9159 H   0  0  0  0  0  0  0  0  0  0  0  0
  148.4979  134.8093  156.0917 H   0  0  0  0  0  0  0  0  0  0  0  0
  148.0234  136.2912  155.2902 H   0  0  0  0  0  0  0  0  0  0  0  0
  146.3810  134.3401  154.9946 H   0  0  0  0  0  0  0  0  0  0  0  0
  146.8857  135.1347  153.5196 H   0  0  0  0  0  0  0  0  0  0  0  0
  146.9787  132.6079  153.4665 H   0  0  0  0  0  0  0  0  0  0  0  0
  149.4116  135.5901  153.4331 H   0  0  0  0  0  0  0  0  0  0  0  0
  1  2  2  0  0  0  0
  2 20  1  0  0  0  0
  2  3  1  0  0  0  0
  3  4  1  0  0  0  0
  3 21  1  0  0  0  0
  3 22  1  0  0  0  0
  4  5  1  0  0  0  0
  4 18  1  0  0  0  0
  4 40  1  0  0  0  0
  5  6  1  0  0  0  0
  5 23  1  0  0  0  0
  5 24  1  0  0  0  0
  6  7  1  0  0  0  0
  6 25  1  0  0  0  0
  6 26  1  0  0  0  0
  7  8  1  0  0  0  0
  7 27  1  0  0  0  0
  7 28  1  0  0  0  0
  8  9  1  0  0  0  0
  8 29  1  0  0  0  0
  9 10  2  0  0  0  0
  9 11  1  0  0  0  0
 11 12  1  0  0  0  0
 11 30  1  0  0  0  0
 12 17  1  0  0  0  0
 12 13  2  0  0  0  0
 13 14  1  0  0  0  0
 13 31  1  0  0  0  0
 14 15  2  0  0  0  0
 14 32  1  0  0  0  0
 15 16  1  0  0  0  0
 15 33  1  0  0  0  0
 16 17  2  0  0  0  0
 16 34  1  0  0  0  0
 18 19  1  0  0  0  0
 18 35  1  0  0  0  0
 18 36  1  0  0  0  0
 19 20  1  0  0  0  0
 19 37  1  0  0  0  0
 19 38  1  0  0  0  0
 20 39  1  0  0  0  0
M  CHG  1   4   1
M  END
> <s_m_source_file>
AV-unprocessed.smi

> <i_m_source_file_index>
2858

> <i_lp_mmshare_version>
43012

> <i_f3d_flags>
0

> <s_epik_input>
Tz1DMVtDSDJdTihbQ0gyXVtDSDJdW05IXTEpW0NIMl1bQ0gyXVtDSDJdW05IXUMoPU8pW05IXWMyW2NIXVtjSF1bY0hdW2NIXW4y

> <s_epik_cmdline>
J2VwaWtfcHl0aG9uJywgJy1waCcsICc3LjAnLCAnLXRuJywgJzgnLCAnLW1hJywgJzIwMCcsICctbWV0YWxfYmluZGluZycsICctaW1hZScsICc8aW5maWxlLm1hZT4nLCAnLW9tYWUnLCAnPG91dGZpbGUubWFlPic=

> <r_epik_Ionization_Penalty>
0.11034

> <r_epik_Ionization_Penalty_Charging>
0.110189

> <r_epik_Ionization_Penalty_Neutral>
0.000150894

> <r_epik_State_Penalty>
0.0999426

> <r_epik_Charging_Adjusted_Penalty>
0.210132

> <i_epik_Tot_Q>
1

> <i_epik_Tot_abs_Q>
1

> <r_epik_Metal_State_Penalty>
0.172915

> <b_epik_Metal_Only>
0

> <s_lp_Force_Field>
OPLS_2005

> <r_lp_Energy>
23.7119

> <b_lp_Chiralities_Consistent>
1

> <s_lp_Variant>
AV-unprocessed.smi:2858-1

> <Gold.Version>
5.8.1

> <Gold.Id.Protein>
6NUR|6NUR_protein|mol2

> <Gold.PLP.Fitness>
44.4150

> <Gold.PLP.PLP>
-36.5404

> <Gold.PLP.part.hbond>
-2.0000

> <Gold.PLP.part.metal>
0.0000

> <Gold.PLP.part.buried>
-4.4281

> <Gold.PLP.part.nonpolar>
-29.8766

> <Gold.PLP.part.repulsive>
0.3632

> <Gold.PLP.ligand.clash>
0.0000

> <Gold.PLP.ligand.torsion>
0.6322

> <Gold.PLP.Chemscore.Hbond>
3.0000

> <Gold.PLP.Chemscore.CHOScore>
0.0000

> <Gold.PLP.Chemscore.Metal>
0.0000

> <Gold.Chemscore.Hbonds>
donor molecule, donor type, donor heavy atom, donor atom, acceptor molecule, acceptor atom, score
      L1  H     4    40       P1  7948  1.90
      P1  H  7997  8008       L1    10  1.00

> <Gold.PLP.Chemscore.Internal.Correction>
0.1391

> <Gold.Rescore>
     Score         DG    S(hbond)    S(metal)    S(lipo)     H(rot)  DE(clash)    DE(int)     intcor
     13.32     -15.43       1.96        0.00      74.66       2.08       0.01       2.10       ----

> <Gold.Chemscore.Fitness>
13.3200

> <Gold.Chemscore.DG>
-15.4265

> <Gold.Chemscore.ZeroCoef>
-5.4800

> <Gold.Chemscore.Hbond>
1.9553

> <Gold.Chemscore.Metal>
0.0000

> <Gold.Chemscore.Lipo>
74.6557

> <Gold.Chemscore.Internal_Hbond>
0.0000

> <Gold.Chemscore.DEClash>
0.0060

> <Gold.Chemscore.DEInternal>
2.1005

> <Gold.Chemscore.Rot>
2.0777

> <Gold.Chemscore.Internal.Correction>
   9.000000E+99

> <Gold.Chemscore.Hbonds>
donor molecule, donor type, donor heavy atom, donor atom, acceptor molecule, acceptor atom, score
      L1  H     4    40       P1  7948  0.22
      P1  H  7997  8008       L1    10  0.95

> <Gold.Chemscore.Hbond.Weighted>
-6.5306

> <Gold.Chemscore.Metal.Weighted>
-0.0000

> <Gold.Chemscore.Lipo.Weighted>
-8.7347

> <Gold.Chemscore.Internal_Hbond.Weighted>
0.0000

> <Gold.Chemscore.DEClash.Weighted>
0.0060

> <Gold.Chemscore.DEInternal.Weighted>
2.1005

> <Gold.Chemscore.Rot.Weighted>
5.3188

> <Gold.Chemscore.Internal.Correction.Weighted>
   9.000000E+99

> <Gold.Protein.RotatedTorsions>
[ 6907 6896 6895 6894 ] final -119.80 input  -60.11 | X-H torsion
[ 7974 7965 7964 7962 ] final  -80.41 input  175.53 | X-H torsion
[ 8008 7997 7996 7995 ] final  -77.32 input   59.86 | X-H torsion
[ 10167 10162 10161 10158 ] final  152.84 input  -65.29 | X-H torsion
[ 10718 10713 10712 10709 ] final  111.65 input   66.30 | X-H torsion
[ 10763 10752 10751 10750 ] final  154.46 input  -60.55 | X-H torsion
[ 11005 11000 10999 10996 ] final -155.50 input  -57.11 | X-H torsion

> <Gold.Protein.ActiveResidues>
 VAL166  LYS551  ARG553  GLY616  TRP617  ASP618  TYR619  PRO620  LYS621  CYS622 
 ASP623  PHE694  ASN695  SER759  ASP760  ASP761  ALA762  ILE779  LEU786  VAL792 
 PHE793  MET794  SER795  GLU796  ALA797  LYS798  CYS799  TRP800  GLU811  SER814 

> <Gold.Protein.RotatedAtoms>
  150.8337  133.8049  159.3088 H   0  0  0  0  0  0  0  0  0  0  0  0  # atno 6907 bound_to 6896
  151.5771  135.1058  160.0018 H   0  0  0  0  0  0  0  0  0  0  0  0  # atno 6908 bound_to 6896
  152.4412  133.7411  159.6697 H   0  0  0  0  0  0  0  0  0  0  0  0  # atno 6909 bound_to 6896
  145.5604  140.9483  143.1450 H   0  0  0  0  0  0  0  0  0  0  0  0  # atno 7974 bound_to 7965
  154.5586  140.0712  156.8782 H   0  0  0  0  0  0  0  0  0  0  0  0  # atno 8008 bound_to 7997
  155.2855  140.3374  155.4237 H   0  0  0  0  0  0  0  0  0  0  0  0  # atno 8009 bound_to 7997
  156.2023  140.1726  156.7859 H   0  0  0  0  0  0  0  0  0  0  0  0  # atno 8010 bound_to 7997
  139.4830  144.5324  151.7701 H   0  0  0  0  0  0  0  0  0  0  0  0  # atno 10167 bound_to 10162
  157.6434  131.0954  150.6780 H   0  0  0  0  0  0  0  0  0  0  0  0  # atno 10718 bound_to 10713
  154.1527  135.2814  155.3131 H   0  0  0  0  0  0  0  0  0  0  0  0  # atno 10763 bound_to 10752
  154.6206  135.5469  153.7574 H   0  0  0  0  0  0  0  0  0  0  0  0  # atno 10764 bound_to 10752
  153.0216  135.6438  154.1670 H   0  0  0  0  0  0  0  0  0  0  0  0  # atno 10765 bound_to 10752
  140.6858  134.4095  157.5223 H   0  0  0  0  0  0  0  0  0  0  0  0  # atno 11005 bound_to 11000
  144.7486  139.7254  143.7282 LP  0  0  0  0  0  0  0  0  0  0  0  0  # atno 17320 bound_to 7965
  146.1855  139.5069  142.9839 LP  0  0  0  0  0  0  0  0  0  0  0  0  # atno 17321 bound_to 7965
  140.4852  144.1391  150.5939 LP  0  0  0  0  0  0  0  0  0  0  0  0  # atno 17342 bound_to 10162
  140.4233  143.2601  151.9688 LP  0  0  0  0  0  0  0  0  0  0  0  0  # atno 17343 bound_to 10162
  156.7100  130.4649  149.5550 LP  0  0  0  0  0  0  0  0  0  0  0  0  # atno 17370 bound_to 10713
  156.1736  130.6453  151.0867 LP  0  0  0  0  0  0  0  0  0  0  0  0  # atno 17371 bound_to 10713
  139.8938  134.8722  156.2206 LP  0  0  0  0  0  0  0  0  0  0  0  0  # atno 17394 bound_to 11000
  141.0281  133.7003  156.1383 LP  0  0  0  0  0  0  0  0  0  0  0  0  # atno 17395 bound_to 11000

$$$$
