AV-unprocessed.smi:40|AV-procd|sdf|374|dock1
  -GOLD-   2262016223D 1   1.00000     0.00000
 Structure written by MMmdl.
 47 48  0  0  0  0  0  0  0  0  1 V2000
  152.1319  144.6232  158.2498 C   0  0  0  0  0  0  0  0  0  0  0  0
  152.1802  144.1983  159.7234 C   0  0  0  0  0  0  0  0  0  0  0  0
  152.0365  142.6828  159.9381 C   0  0  0  0  0  0  0  0  0  0  0  0
  153.2094  141.8620  159.3733 C   0  0  0  0  0  0  0  0  0  0  0  0
  153.0466  140.3527  159.5978 C   0  0  0  0  0  0  0  0  0  0  0  0
  152.4784  139.7653  158.4394 O   0  0  0  0  0  0  0  0  0  0  0  0
  152.0733  138.4829  158.4518 C   0  0  0  0  0  0  0  0  0  0  0  0
  152.2926  137.7009  159.3766 O   0  0  0  0  0  0  0  0  0  0  0  0
  151.3169  138.1491  157.2551 N   0  0  0  0  0  0  0  0  0  0  0  0
  150.7466  136.9707  156.9013 C   0  0  0  0  0  0  0  0  0  0  0  0
  150.4475  136.0268  157.7810 N   0  0  0  0  0  0  0  0  0  0  0  0
  149.8597  134.8336  157.4581 C   0  0  0  0  0  0  0  0  0  0  0  0
  149.6323  133.9915  158.3254 O   0  0  0  0  0  0  0  0  0  0  0  0
  149.5432  134.6171  156.0965 N   0  0  0  0  0  0  0  0  0  0  0  0
  148.8742  133.3283  155.6725 C   0  0  1  0  0  0  0  0  0  0  0  0
  147.8959  133.6481  154.7319 O   0  0  0  0  0  0  0  0  0  0  0  0
  147.8896  132.6616  153.7125 C   0  0  1  0  0  0  0  0  0  0  0  0
  147.2890  133.2394  152.4260 C   0  0  0  0  0  0  0  0  0  0  0  0
  149.3580  132.2488  153.5895 C   0  0  2  0  0  0  0  0  0  0  0  0
  149.4579  130.9350  153.0777 O   0  0  0  0  0  0  0  0  0  0  0  0
  149.8499  132.3131  155.0312 C   0  0  1  0  0  0  0  0  0  0  0  0
  151.2147  132.6894  155.0852 O   0  0  0  0  0  0  0  0  0  0  0  0
  149.8298  135.5984  155.1602 C   0  0  0  0  0  0  0  0  0  0  0  0
  150.4152  136.7645  155.5075 C   0  0  0  0  0  0  0  0  0  0  0  0
  150.6827  137.7009  154.5807 F   0  0  0  0  0  0  0  0  0  0  0  0
  148.3716  132.9183  156.5490 H   0  0  0  0  0  0  0  0  0  0  0  0
  147.2883  131.8218  154.0662 H   0  0  0  0  0  0  0  0  0  0  0  0
  149.9008  132.9541  152.9576 H   0  0  0  0  0  0  0  0  0  0  0  0
  149.7123  131.3569  155.5382 H   0  0  0  0  0  0  0  0  0  0  0  0
  152.1709  145.7089  158.1606 H   0  0  0  0  0  0  0  0  0  0  0  0
  151.2125  144.2840  157.7719 H   0  0  0  0  0  0  0  0  0  0  0  0
  152.9734  144.2194  157.6875 H   0  0  0  0  0  0  0  0  0  0  0  0
  153.1063  144.5506  160.1792 H   0  0  0  0  0  0  0  0  0  0  0  0
  151.3725  144.7026  160.2547 H   0  0  0  0  0  0  0  0  0  0  0  0
  151.9567  142.4987  161.0101 H   0  0  0  0  0  0  0  0  0  0  0  0
  151.0984  142.3367  159.5031 H   0  0  0  0  0  0  0  0  0  0  0  0
  153.2978  142.0425  158.3023 H   0  0  0  0  0  0  0  0  0  0  0  0
  154.1466  142.1964  159.8199 H   0  0  0  0  0  0  0  0  0  0  0  0
  154.0120  139.8953  159.8185 H   0  0  0  0  0  0  0  0  0  0  0  0
  152.3934  140.1724  160.4524 H   0  0  0  0  0  0  0  0  0  0  0  0
  151.2362  138.9087  156.5949 H   0  0  0  0  0  0  0  0  0  0  0  0
  147.2931  132.4993  151.6257 H   0  0  0  0  0  0  0  0  0  0  0  0
  147.8508  134.1085  152.0826 H   0  0  0  0  0  0  0  0  0  0  0  0
  146.2570  133.5522  152.5855 H   0  0  0  0  0  0  0  0  0  0  0  0
  149.2807  130.9593  152.1498 H   0  0  0  0  0  0  0  0  0  0  0  0
  151.2655  133.6328  155.0728 H   0  0  0  0  0  0  0  0  0  0  0  0
  149.5844  135.4338  154.1208 H   0  0  0  0  0  0  0  0  0  0  0  0
  1  2  1  0  0  0  0
  1 30  1  0  0  0  0
  1 31  1  0  0  0  0
  1 32  1  0  0  0  0
  2  3  1  0  0  0  0
  2 33  1  0  0  0  0
  2 34  1  0  0  0  0
  3  4  1  0  0  0  0
  3 35  1  0  0  0  0
  3 36  1  0  0  0  0
  4  5  1  0  0  0  0
  4 37  1  0  0  0  0
  4 38  1  0  0  0  0
  5  6  1  0  0  0  0
  5 39  1  0  0  0  0
  5 40  1  0  0  0  0
  6  7  1  0  0  0  0
  7  8  2  0  0  0  0
  7  9  1  0  0  0  0
  9 10  1  0  0  0  0
  9 41  1  0  0  0  0
 10 24  1  0  0  0  0
 10 11  2  0  0  0  0
 11 12  1  0  0  0  0
 12 13  2  0  0  0  0
 12 14  1  0  0  0  0
 14 15  1  0  0  0  0
 14 23  1  0  0  0  0
 15 26  1  0  0  0  0
 15 21  1  0  0  0  0
 15 16  1  0  0  0  0
 16 17  1  0  0  0  0
 17 27  1  0  0  0  0
 17 18  1  0  0  0  0
 17 19  1  0  0  0  0
 18 42  1  0  0  0  0
 18 43  1  0  0  0  0
 18 44  1  0  0  0  0
 19 28  1  0  0  0  0
 19 20  1  0  0  0  0
 19 21  1  0  0  0  0
 20 45  1  0  0  0  0
 21 29  1  0  0  0  0
 21 22  1  0  0  0  0
 22 46  1  0  0  0  0
 23 24  2  0  0  0  0
 23 47  1  0  0  0  0
 24 25  1  0  0  0  0
M  END
> <s_m_source_file>
AV-unprocessed.smi

> <i_m_source_file_index>
40

> <i_lp_mmshare_version>
43012

> <i_f3d_flags>
0

> <s_epik_input>
W0NIM11bQ0gyXVtDSDJdW0NIMl1bQ0gyXU9DKD1PKVtOSF1jMW5jKD1PKW4oW2NIXWMxRilbQ0BASF0yT1tDQEhdKFtDSDNdKVtDQEBIXShbT0hdKVtDQEhdMltPSF0=

> <s_epik_cmdline>
J2VwaWtfcHl0aG9uJywgJy1waCcsICc3LjAnLCAnLXRuJywgJzgnLCAnLW1hJywgJzIwMCcsICctbWV0YWxfYmluZGluZycsICctaW1hZScsICc8aW5maWxlLm1hZT4nLCAnLW9tYWUnLCAnPG91dGZpbGUubWFlPic=

> <r_lp_tautomer_probability>
1

> <r_epik_Ionization_Penalty>
2.29506e-06

> <r_epik_Ionization_Penalty_Charging>
8.26867e-09

> <r_epik_Ionization_Penalty_Neutral>
2.2868e-06

> <r_epik_State_Penalty>
-0

> <r_epik_Charging_Adjusted_Penalty>
8.26867e-09

> <i_epik_Tot_Q>
0

> <i_epik_Tot_abs_Q>
0

> <r_epik_Metal_State_Penalty>
-0

> <b_epik_Metal_Only>
0

> <s_epik_Chemistry_Notes>
This compound has an ester and may undergo hydrolysis at high or low pH. This compound contains an acetal/aminal-like group ( X-CH(R)-Y where X, Y are N, S, or O) that may be acid/base labile, releasing an aldehyde.

> <s_lp_Force_Field>
OPLS_2005

> <r_lp_Energy>
36.5799

> <b_lp_Chiralities_Consistent>
1

> <s_lp_Variant>
AV-unprocessed.smi:40-8

> <Gold.Version>
5.8.1

> <Gold.Id.Protein>
6NUR|6NUR_protein|mol2

> <Gold.PLP.Fitness>
45.2218

> <Gold.PLP.PLP>
-37.8368

> <Gold.PLP.part.hbond>
-1.9916

> <Gold.PLP.part.metal>
0.0000

> <Gold.PLP.part.buried>
-3.4621

> <Gold.PLP.part.nonpolar>
-31.5508

> <Gold.PLP.part.repulsive>
0.0786

> <Gold.PLP.ligand.clash>
0.0000

> <Gold.PLP.ligand.torsion>
0.9641

> <Gold.PLP.Chemscore.Hbond>
2.0000

> <Gold.PLP.Chemscore.CHOScore>
1.0000

> <Gold.PLP.Chemscore.Metal>
0.0000

> <Gold.Chemscore.Hbonds>
donor molecule, donor type, donor heavy atom, donor atom, acceptor molecule, acceptor atom, score
      L1  H    20    45       P1 10747  0.80
      P1  H  6896  6907       L1    13  0.83
      L1  C    23    47       P1  7948  1.00

> <Gold.PLP.Chemscore.Internal.Correction>
0.3131

> <Gold.Rescore>
     Score         DG    S(hbond)    S(metal)    S(lipo)     H(rot)  DE(clash)    DE(int)     intcor
      9.73     -11.24       1.53        0.00      86.53       3.70       0.22       1.29       ----

> <Gold.Chemscore.Fitness>
9.7254

> <Gold.Chemscore.DG>
-11.2391

> <Gold.Chemscore.ZeroCoef>
-5.4800

> <Gold.Chemscore.Hbond>
1.5259

> <Gold.Chemscore.Metal>
0.0000

> <Gold.Chemscore.Lipo>
86.5262

> <Gold.Chemscore.Internal_Hbond>
0.0000

> <Gold.Chemscore.DEClash>
0.2231

> <Gold.Chemscore.DEInternal>
1.2906

> <Gold.Chemscore.Rot>
3.6957

> <Gold.Chemscore.Internal.Correction>
   9.000000E+99

> <Gold.Chemscore.Hbonds>
donor molecule, donor type, donor heavy atom, donor atom, acceptor molecule, acceptor atom, score
      L1  H    20    45       P1 10747  0.12
      P1  H  6896  6907       L1    13  0.53

> <Gold.Chemscore.Hbond.Weighted>
-5.0965

> <Gold.Chemscore.Metal.Weighted>
-0.0000

> <Gold.Chemscore.Lipo.Weighted>
-10.1236

> <Gold.Chemscore.Internal_Hbond.Weighted>
0.0000

> <Gold.Chemscore.DEClash.Weighted>
0.2231

> <Gold.Chemscore.DEInternal.Weighted>
1.2906

> <Gold.Chemscore.Rot.Weighted>
9.4610

> <Gold.Chemscore.Internal.Correction.Weighted>
   9.000000E+99

> <Gold.Protein.RotatedTorsions>
[ 6907 6896 6895 6894 ] final  -97.16 input  -60.11 | X-H torsion
[ 7974 7965 7964 7962 ] final  -42.57 input  175.53 | X-H torsion
[ 8008 7997 7996 7995 ] final  137.96 input   59.86 | X-H torsion
[ 10167 10162 10161 10158 ] final -103.53 input  -65.29 | X-H torsion
[ 10718 10713 10712 10709 ] final  -64.63 input   66.30 | X-H torsion
[ 10763 10752 10751 10750 ] final  171.67 input  -60.55 | X-H torsion
[ 11005 11000 10999 10996 ] final -111.24 input  -57.11 | X-H torsion

> <Gold.Protein.ActiveResidues>
 VAL166  LYS551  ARG553  GLY616  TRP617  ASP618  TYR619  PRO620  LYS621  CYS622 
 ASP623  PHE694  ASN695  SER759  ASP760  ASP761  ALA762  ILE779  LEU786  VAL792 
 PHE793  MET794  SER795  GLU796  ALA797  LYS798  CYS799  TRP800  GLU811  SER814 

> <Gold.Protein.RotatedAtoms>
  150.7008  134.1391  159.4097 H   0  0  0  0  0  0  0  0  0  0  0  0  # atno 6907 bound_to 6896
  151.9375  135.0226  160.0543 H   0  0  0  0  0  0  0  0  0  0  0  0  # atno 6908 bound_to 6896
  152.2122  133.4884  159.5153 H   0  0  0  0  0  0  0  0  0  0  0  0  # atno 6909 bound_to 6896
  146.0103  140.6972  142.9227 H   0  0  0  0  0  0  0  0  0  0  0  0  # atno 7974 bound_to 7965
  156.3000  140.2406  156.3996 H   0  0  0  0  0  0  0  0  0  0  0  0  # atno 8008 bound_to 7997
  154.8540  140.0423  157.1642 H   0  0  0  0  0  0  0  0  0  0  0  0  # atno 8009 bound_to 7997
  154.8968  140.2971  155.5343 H   0  0  0  0  0  0  0  0  0  0  0  0  # atno 8010 bound_to 7997
  140.2190  143.3690  152.0986 H   0  0  0  0  0  0  0  0  0  0  0  0  # atno 10167 bound_to 10162
  156.0717  130.4236  150.1448 H   0  0  0  0  0  0  0  0  0  0  0  0  # atno 10718 bound_to 10713
  154.4152  135.2757  155.2011 H   0  0  0  0  0  0  0  0  0  0  0  0  # atno 10763 bound_to 10752
  154.3980  135.6051  153.5884 H   0  0  0  0  0  0  0  0  0  0  0  0  # atno 10764 bound_to 10752
  152.9832  135.5919  154.4440 H   0  0  0  0  0  0  0  0  0  0  0  0  # atno 10765 bound_to 10752
  141.0745  133.9324  157.2417 H   0  0  0  0  0  0  0  0  0  0  0  0  # atno 11005 bound_to 11000
  144.6950  140.3386  143.7203 LP  0  0  0  0  0  0  0  0  0  0  0  0  # atno 17320 bound_to 7965
  145.7352  139.1748  143.2407 LP  0  0  0  0  0  0  0  0  0  0  0  0  # atno 17321 bound_to 7965
  139.5151  144.6958  151.5634 LP  0  0  0  0  0  0  0  0  0  0  0  0  # atno 17342 bound_to 10162
  140.6269  143.9152  150.6572 LP  0  0  0  0  0  0  0  0  0  0  0  0  # atno 17343 bound_to 10162
  156.9497  130.9771  151.3500 LP  0  0  0  0  0  0  0  0  0  0  0  0  # atno 17370 bound_to 10713
  157.5792  130.8364  149.8499 LP  0  0  0  0  0  0  0  0  0  0  0  0  # atno 17371 bound_to 10713
  139.9558  135.0166  156.9123 LP  0  0  0  0  0  0  0  0  0  0  0  0  # atno 17394 bound_to 11000
  140.5602  134.0542  155.7396 LP  0  0  0  0  0  0  0  0  0  0  0  0  # atno 17395 bound_to 11000

$$$$
