AV-unprocessed.smi:1830|AV-procd|sdf|7434|dock4
  -GOLD-   22720 9123D 1   1.00000     0.00000
 Structure written by MMmdl.
 53 56  0  0  0  0  0  0  0  0  2 V2000
  150.0233  134.8663  155.4818 O   0  0  0  0  0  0  0  0  0  0  0  0
  149.0864  135.6102  155.1922 C   0  0  0  0  0  0  0  0  0  0  0  0
  147.8385  135.1758  154.9678 N   0  0  0  0  0  0  0  0  0  0  0  0
  147.4144  133.7805  155.0137 C   0  0  0  0  0  0  0  0  0  0  0  0
  146.6623  133.3737  153.7342 C   0  0  2  0  0  0  0  0  0  0  0  0
  147.3763  132.2278  152.9909 C   0  0  0  0  0  0  0  0  0  0  0  0
  146.7304  131.9202  151.6931 N   0  3  1  0  0  0  0  0  0  0  0  0
  145.5196  131.0712  151.7436 C   0  0  0  0  0  0  0  0  0  0  0  0
  144.6413  131.5003  150.5574 C   0  0  0  0  0  0  0  0  0  0  0  0
  145.4498  132.5696  149.8153 C   0  0  0  0  0  0  0  0  0  0  0  0
  146.4197  133.1063  150.8689 C   0  0  1  0  0  0  0  0  0  0  0  0
  145.7945  134.2347  151.7190 C   0  0  0  0  0  0  0  0  0  0  0  0
  146.6021  134.4931  152.8576 O   0  0  0  0  0  0  0  0  0  0  0  0
  149.1715  136.9412  155.0336 N   0  0  0  0  0  0  0  0  0  0  0  0
  150.3233  137.7717  155.1402 C   0  0  0  0  0  0  0  0  0  0  0  0
  151.6052  137.2366  155.4176 C   0  0  0  0  0  0  0  0  0  0  0  0
  152.7114  138.1000  155.4964 C   0  0  0  0  0  0  0  0  0  0  0  0
  152.4974  139.4738  155.2973 C   0  0  0  0  0  0  0  0  0  0  0  0
  151.2816  140.0012  155.0511 N   0  0  0  0  0  0  0  0  0  0  0  0
  150.2024  139.1829  154.9874 C   0  0  0  0  0  0  0  0  0  0  0  0
  148.9502  139.7943  154.7484 N   0  0  0  0  0  0  0  0  0  0  0  0
  148.1325  139.3833  153.6120 C   0  0  0  0  0  0  0  0  0  0  0  0
  147.0937  140.4893  153.4534 C   0  0  0  0  0  0  0  0  0  0  0  0
  147.8887  141.7367  153.8268 C   0  0  0  0  0  0  0  0  0  0  0  0
  148.8557  141.2425  154.9085 C   0  0  0  0  0  0  0  0  0  0  0  0
  147.1325  135.8595  154.7367 H   0  0  0  0  0  0  0  0  0  0  0  0
  148.2653  133.1202  155.1904 H   0  0  0  0  0  0  0  0  0  0  0  0
  146.7563  133.6702  155.8759 H   0  0  0  0  0  0  0  0  0  0  0  0
  145.6516  133.0656  154.0084 H   0  0  0  0  0  0  0  0  0  0  0  0
  148.4077  132.5186  152.7871 H   0  0  0  0  0  0  0  0  0  0  0  0
  147.4212  131.3277  153.6053 H   0  0  0  0  0  0  0  0  0  0  0  0
  145.8033  130.0203  151.6802 H   0  0  0  0  0  0  0  0  0  0  0  0
  144.9773  131.2118  152.6794 H   0  0  0  0  0  0  0  0  0  0  0  0
  144.3875  130.6623  149.9074 H   0  0  0  0  0  0  0  0  0  0  0  0
  143.7060  131.9248  150.9247 H   0  0  0  0  0  0  0  0  0  0  0  0
  146.0140  132.1012  149.0077 H   0  0  0  0  0  0  0  0  0  0  0  0
  144.8234  133.3447  149.3721 H   0  0  0  0  0  0  0  0  0  0  0  0
  147.3368  133.4741  150.4067 H   0  0  0  0  0  0  0  0  0  0  0  0
  145.7169  135.1477  151.1283 H   0  0  0  0  0  0  0  0  0  0  0  0
  144.7816  133.9837  152.0386 H   0  0  0  0  0  0  0  0  0  0  0  0
  148.3390  137.4026  154.6977 H   0  0  0  0  0  0  0  0  0  0  0  0
  151.7576  136.1806  155.5799 H   0  0  0  0  0  0  0  0  0  0  0  0
  153.7000  137.7175  155.7028 H   0  0  0  0  0  0  0  0  0  0  0  0
  153.3220  140.1695  155.3455 H   0  0  0  0  0  0  0  0  0  0  0  0
  148.7331  139.3185  152.7037 H   0  0  0  0  0  0  0  0  0  0  0  0
  147.6681  138.4127  153.7871 H   0  0  0  0  0  0  0  0  0  0  0  0
  146.6704  140.5347  152.4497 H   0  0  0  0  0  0  0  0  0  0  0  0
  146.2774  140.3407  154.1619 H   0  0  0  0  0  0  0  0  0  0  0  0
  148.4540  142.0822  152.9599 H   0  0  0  0  0  0  0  0  0  0  0  0
  147.2576  142.5586  154.1655 H   0  0  0  0  0  0  0  0  0  0  0  0
  148.4496  141.4617  155.8963 H   0  0  0  0  0  0  0  0  0  0  0  0
  149.8285  141.7295  154.8246 H   0  0  0  0  0  0  0  0  0  0  0  0
  147.3989  131.3838  151.1585 H   0  0  0  0  0  0  0  0  0  0  0  0
  1  2  2  0  0  0  0
  2  3  1  0  0  0  0
  2 14  1  0  0  0  0
  3  4  1  0  0  0  0
  3 26  1  0  0  0  0
  4  5  1  0  0  0  0
  4 27  1  0  0  0  0
  4 28  1  0  0  0  0
  5 13  1  0  0  0  0
  5  6  1  0  0  0  0
  5 29  1  0  0  0  0
  6  7  1  0  0  0  0
  6 30  1  0  0  0  0
  6 31  1  0  0  0  0
  7 11  1  0  0  0  0
  7  8  1  0  0  0  0
  7 53  1  0  0  0  0
  8  9  1  0  0  0  0
  8 32  1  0  0  0  0
  8 33  1  0  0  0  0
  9 10  1  0  0  0  0
  9 34  1  0  0  0  0
  9 35  1  0  0  0  0
 10 11  1  0  0  0  0
 10 36  1  0  0  0  0
 10 37  1  0  0  0  0
 11 12  1  0  0  0  0
 11 38  1  0  0  0  0
 12 13  1  0  0  0  0
 12 39  1  0  0  0  0
 12 40  1  0  0  0  0
 14 15  1  0  0  0  0
 14 41  1  0  0  0  0
 15 20  1  0  0  0  0
 15 16  2  0  0  0  0
 16 17  1  0  0  0  0
 16 42  1  0  0  0  0
 17 18  2  0  0  0  0
 17 43  1  0  0  0  0
 18 19  1  0  0  0  0
 18 44  1  0  0  0  0
 19 20  2  0  0  0  0
 20 21  1  0  0  0  0
 21 25  1  0  0  0  0
 21 22  1  0  0  0  0
 22 23  1  0  0  0  0
 22 45  1  0  0  0  0
 22 46  1  0  0  0  0
 23 24  1  0  0  0  0
 23 47  1  0  0  0  0
 23 48  1  0  0  0  0
 24 25  1  0  0  0  0
 24 49  1  0  0  0  0
 24 50  1  0  0  0  0
 25 51  1  0  0  0  0
 25 52  1  0  0  0  0
M  CHG  1   7   1
M  END
> <s_m_source_file>
AV-unprocessed.smi

> <i_m_source_file_index>
1830

> <i_lp_mmshare_version>
43012

> <i_f3d_flags>
0

> <s_epik_input>
W0NIMl0xW0NIMl1bQ0gyXVtDQEhdKE4xMilbQ0gyXU9bQ0BASF0oW0NIMl0yKVtDSDJdW05IXUMoPU8pW05IXWMzW2NIXVtjSF1bY0hdbmMzTjRbQ0gyXVtDSDJdW0NIMl1bQ0gyXTQ=

> <s_epik_cmdline>
J2VwaWtfcHl0aG9uJywgJy1waCcsICc3LjAnLCAnLXRuJywgJzgnLCAnLW1hJywgJzIwMCcsICctbWV0YWxfYmluZGluZycsICctaW1hZScsICc8aW5maWxlLm1hZT4nLCAnLW9tYWUnLCAnPG91dGZpbGUubWFlPic=

> <r_lp_tautomer_probability>
1

> <r_epik_Ionization_Penalty>
0.193547

> <r_epik_Ionization_Penalty_Charging>
0.10673

> <r_epik_Ionization_Penalty_Neutral>
0.0868166

> <r_epik_State_Penalty>
0.173595

> <r_epik_Charging_Adjusted_Penalty>
0.280326

> <i_epik_Tot_Q>
1

> <i_epik_Tot_abs_Q>
1

> <r_epik_Metal_State_Penalty>
0.164683

> <b_epik_Metal_Only>
0

> <s_lp_Force_Field>
OPLS_2005

> <r_lp_Energy>
64.5086

> <b_lp_Chiralities_Consistent>
1

> <s_lp_Variant>
AV-unprocessed.smi:1830-3

> <Gold.Version>
5.8.1

> <Gold.Id.Protein>
6NUR|6NUR_protein|mol2

> <Gold.PLP.Fitness>
42.8944

> <Gold.PLP.PLP>
-38.5128

> <Gold.PLP.part.hbond>
-2.3142

> <Gold.PLP.part.metal>
0.0000

> <Gold.PLP.part.buried>
-2.3550

> <Gold.PLP.part.nonpolar>
-34.4372

> <Gold.PLP.part.repulsive>
0.8361

> <Gold.PLP.ligand.clash>
0.0000

> <Gold.PLP.ligand.torsion>
0.9667

> <Gold.PLP.Chemscore.Hbond>
2.0000

> <Gold.PLP.Chemscore.CHOScore>
0.0000

> <Gold.PLP.Chemscore.Metal>
0.0000

> <Gold.Chemscore.Hbonds>
donor molecule, donor type, donor heavy atom, donor atom, acceptor molecule, acceptor atom, score
      L1  H     7    53       P1 10747  1.00
      P1  H  7989  7998       L1    19  0.95

> <Gold.PLP.Chemscore.Internal.Correction>
0.3151

> <Gold.Rescore>
     Score         DG    S(hbond)    S(metal)    S(lipo)     H(rot)  DE(clash)    DE(int)     intcor
     14.82     -18.27       1.16        0.00     106.82       1.41       0.11       3.33       ----

> <Gold.Chemscore.Fitness>
14.8199

> <Gold.Chemscore.DG>
-18.2671

> <Gold.Chemscore.ZeroCoef>
-5.4800

> <Gold.Chemscore.Hbond>
1.1646

> <Gold.Chemscore.Metal>
0.0000

> <Gold.Chemscore.Lipo>
106.8241

> <Gold.Chemscore.Internal_Hbond>
0.0000

> <Gold.Chemscore.DEClash>
0.1134

> <Gold.Chemscore.DEInternal>
3.3337

> <Gold.Chemscore.Rot>
1.4067

> <Gold.Chemscore.Internal.Correction>
   9.000000E+99

> <Gold.Chemscore.Hbonds>
donor molecule, donor type, donor heavy atom, donor atom, acceptor molecule, acceptor atom, score
      L1  H     7    53       P1 10747  1.00
      P1  H  7989  7998       L1    19  0.19

> <Gold.Chemscore.Hbond.Weighted>
-3.8898

> <Gold.Chemscore.Metal.Weighted>
-0.0000

> <Gold.Chemscore.Lipo.Weighted>
-12.4984

> <Gold.Chemscore.Internal_Hbond.Weighted>
0.0000

> <Gold.Chemscore.DEClash.Weighted>
0.1134

> <Gold.Chemscore.DEInternal.Weighted>
3.3337

> <Gold.Chemscore.Rot.Weighted>
3.6011

> <Gold.Chemscore.Internal.Correction.Weighted>
   9.000000E+99

> <Gold.Protein.RotatedTorsions>
[ 6907 6896 6895 6894 ] final  166.79 input  -60.11 | X-H torsion
[ 7974 7965 7964 7962 ] final  166.61 input  175.53 | X-H torsion
[ 8008 7997 7996 7995 ] final   61.85 input   59.86 | X-H torsion
[ 10167 10162 10161 10158 ] final   22.59 input  -65.29 | X-H torsion
[ 10718 10713 10712 10709 ] final   87.65 input   66.30 | X-H torsion
[ 10763 10752 10751 10750 ] final  161.55 input  -60.55 | X-H torsion
[ 11005 11000 10999 10996 ] final  -68.47 input  -57.11 | X-H torsion

> <Gold.Protein.ActiveResidues>
 VAL166  LYS551  ARG553  GLY616  TRP617  ASP618  TYR619  PRO620  LYS621  CYS622 
 ASP623  PHE694  ASN695  SER759  ASP760  ASP761  ALA762  ILE779  LEU786  VAL792 
 PHE793  MET794  SER795  GLU796  ALA797  LYS798  CYS799  TRP800  GLU811  SER814 

> <Gold.Protein.RotatedAtoms>
  151.8734  133.3480  159.3742 H   0  0  0  0  0  0  0  0  0  0  0  0  # atno 6907 bound_to 6896
  150.7146  134.5090  159.5607 H   0  0  0  0  0  0  0  0  0  0  0  0  # atno 6908 bound_to 6896
  152.2627  134.8017  160.0479 H   0  0  0  0  0  0  0  0  0  0  0  0  # atno 6909 bound_to 6896
  144.7456  139.8640  143.6383 H   0  0  0  0  0  0  0  0  0  0  0  0  # atno 7974 bound_to 7965
  155.6049  140.3494  155.4605 H   0  0  0  0  0  0  0  0  0  0  0  0  # atno 8008 bound_to 7997
  156.0199  140.1251  157.0392 H   0  0  0  0  0  0  0  0  0  0  0  0  # atno 8009 bound_to 7997
  154.4311  140.1064  156.5935 H   0  0  0  0  0  0  0  0  0  0  0  0  # atno 8010 bound_to 7997
  140.5336  143.9799  150.6479 H   0  0  0  0  0  0  0  0  0  0  0  0  # atno 10167 bound_to 10162
  157.6942  131.0264  150.3156 H   0  0  0  0  0  0  0  0  0  0  0  0  # atno 10718 bound_to 10713
  154.2646  135.2767  155.2763 H   0  0  0  0  0  0  0  0  0  0  0  0  # atno 10763 bound_to 10752
  154.5354  135.5718  153.6797 H   0  0  0  0  0  0  0  0  0  0  0  0  # atno 10764 bound_to 10752
  152.9956  135.6238  154.2798 H   0  0  0  0  0  0  0  0  0  0  0  0  # atno 10765 bound_to 10752
  141.1532  133.6741  156.6450 H   0  0  0  0  0  0  0  0  0  0  0  0  # atno 11005 bound_to 11000
  146.1328  139.4366  143.0158 LP  0  0  0  0  0  0  0  0  0  0  0  0  # atno 17320 bound_to 7965
  145.7138  141.0098  143.1439 LP  0  0  0  0  0  0  0  0  0  0  0  0  # atno 17321 bound_to 7965
  140.3181  143.3155  152.0812 LP  0  0  0  0  0  0  0  0  0  0  0  0  # atno 17342 bound_to 10162
  139.4963  144.6592  151.6503 LP  0  0  0  0  0  0  0  0  0  0  0  0  # atno 17343 bound_to 10162
  156.3651  130.3853  149.7220 LP  0  0  0  0  0  0  0  0  0  0  0  0  # atno 17370 bound_to 10713
  156.4654  130.7971  151.2990 LP  0  0  0  0  0  0  0  0  0  0  0  0  # atno 17371 bound_to 10713
  140.3364  134.7886  157.4365 LP  0  0  0  0  0  0  0  0  0  0  0  0  # atno 17394 bound_to 11000
  140.0974  134.5518  155.8385 LP  0  0  0  0  0  0  0  0  0  0  0  0  # atno 17395 bound_to 11000

$$$$
