AV-unprocessed.smi:2786|AV-procd|sdf|10750|dock1
  -GOLD-   2272015183D 1   1.00000     0.00000
 Structure written by MMmdl.
 28 29  0  0  0  0  0  0  0  0  3 V2000
  152.4304  141.8779  159.7727 C   0  0  0  0  0  0  0  0  0  0  0  0
  152.0716  143.0821  159.0207 N   0  0  0  0  0  0  0  0  0  0  0  0
  152.4201  144.3713  159.3332 C   0  0  0  0  0  0  0  0  0  0  0  0
  151.8816  145.1710  158.3598 C   0  0  0  0  0  0  0  0  0  0  0  0
  151.2260  144.3377  157.4949 N   0  3  0  0  0  0  0  0  0  0  0  0
  151.3322  143.0647  157.8984 C   0  0  0  0  0  0  0  0  0  0  0  0
  150.7543  141.8674  157.1991 C   0  0  2  0  0  0  0  0  0  0  0  0
  151.8112  140.7524  157.0273 C   0  0  0  0  0  0  0  0  0  0  0  0
  151.2162  139.5666  156.3764 N   0  3  0  0  0  0  0  0  0  0  0  0
  150.5847  139.9251  155.0913 C   0  0  0  0  0  0  0  0  0  0  0  0
  149.5484  141.0419  155.3096 C   0  0  0  0  0  0  0  0  0  0  0  0
  150.1961  142.2140  155.8915 N   0  0  0  0  0  0  0  0  0  0  0  0
  153.1148  142.1417  160.5799 H   0  0  0  0  0  0  0  0  0  0  0  0
  152.9187  141.1647  159.1078 H   0  0  0  0  0  0  0  0  0  0  0  0
  151.5281  141.4350  160.1953 H   0  0  0  0  0  0  0  0  0  0  0  0
  153.0125  144.6194  160.2026 H   0  0  0  0  0  0  0  0  0  0  0  0
  151.9159  146.2420  158.2211 H   0  0  0  0  0  0  0  0  0  0  0  0
  149.9398  141.5118  157.8314 H   0  0  0  0  0  0  0  0  0  0  0  0
  152.6533  141.1069  156.4307 H   0  0  0  0  0  0  0  0  0  0  0  0
  152.2119  140.4522  157.9958 H   0  0  0  0  0  0  0  0  0  0  0  0
  151.9328  138.8724  156.2169 H   0  0  0  0  0  0  0  0  0  0  0  0
  151.3510  140.2434  154.3829 H   0  0  0  0  0  0  0  0  0  0  0  0
  150.1067  139.0404  154.6701 H   0  0  0  0  0  0  0  0  0  0  0  0
  149.0972  141.3239  154.3579 H   0  0  0  0  0  0  0  0  0  0  0  0
  148.7398  140.7017  155.9583 H   0  0  0  0  0  0  0  0  0  0  0  0
  149.5161  142.9548  155.9964 H   0  0  0  0  0  0  0  0  0  0  0  0
  150.5104  139.1784  156.9858 H   0  0  0  0  0  0  0  0  0  0  0  0
  150.7245  144.6386  156.6683 H   0  0  0  0  0  0  0  0  0  0  0  0
  1  2  1  0  0  0  0
  1 13  1  0  0  0  0
  1 14  1  0  0  0  0
  1 15  1  0  0  0  0
  2  6  1  0  0  0  0
  2  3  1  0  0  0  0
  3  4  2  0  0  0  0
  3 16  1  0  0  0  0
  4  5  1  0  0  0  0
  4 17  1  0  0  0  0
  5  6  2  0  0  0  0
  5 28  1  0  0  0  0
  6  7  1  0  0  0  0
  7 12  1  0  0  0  0
  7  8  1  0  0  0  0
  7 18  1  0  0  0  0
  8  9  1  0  0  0  0
  8 19  1  0  0  0  0
  8 20  1  0  0  0  0
  9 10  1  0  0  0  0
  9 21  1  0  0  0  0
  9 27  1  0  0  0  0
 10 11  1  0  0  0  0
 10 22  1  0  0  0  0
 10 23  1  0  0  0  0
 11 12  1  0  0  0  0
 11 24  1  0  0  0  0
 11 25  1  0  0  0  0
 12 26  1  0  0  0  0
M  CHG  1   5   1
M  CHG  1   9   1
M  END
> <s_m_source_file>
AV-unprocessed.smi

> <i_m_source_file_index>
2786

> <i_lp_mmshare_version>
43012

> <i_f3d_flags>
0

> <s_epik_input>
W0NIM11uMVtjSF1bY0hdbmMxW0NAQEhdMltDSDJdW05IXVtDSDJdW0NIMl1bTkhdMg==

> <s_epik_cmdline>
J2VwaWtfcHl0aG9uJywgJy1waCcsICc3LjAnLCAnLXRuJywgJzgnLCAnLW1hJywgJzIwMCcsICctbWV0YWxfYmluZGluZycsICctaW1hZScsICc8aW5maWxlLm1hZT4nLCAnLW9tYWUnLCAnPG91dGZpbGUubWFlPic=

> <r_lp_tautomer_probability>
1

> <r_epik_Ionization_Penalty>
1.19986

> <r_epik_Ionization_Penalty_Charging>
0.069211

> <r_epik_Ionization_Penalty_Neutral>
1.13065

> <r_epik_State_Penalty>
0.776615

> <r_epik_Charging_Adjusted_Penalty>
0.845826

> <i_epik_Tot_Q>
2

> <i_epik_Tot_abs_Q>
2

> <r_epik_Metal_State_Penalty>
4.73559

> <b_epik_Metal_Only>
0

> <s_lp_Force_Field>
OPLS_2005

> <r_lp_Energy>
18.3539

> <b_lp_Chiralities_Consistent>
1

> <s_lp_Variant>
AV-unprocessed.smi:2786-3

> <Gold.Version>
5.8.1

> <Gold.Id.Protein>
6NUR|6NUR_protein|mol2

> <Gold.PLP.Fitness>
37.2164

> <Gold.PLP.PLP>
-28.6175

> <Gold.PLP.part.hbond>
-2.0000

> <Gold.PLP.part.metal>
0.0000

> <Gold.PLP.part.buried>
-3.2831

> <Gold.PLP.part.nonpolar>
-22.9329

> <Gold.PLP.part.repulsive>
0.1319

> <Gold.PLP.ligand.clash>
0.0000

> <Gold.PLP.ligand.torsion>
0.1938

> <Gold.PLP.Chemscore.Hbond>
2.9920

> <Gold.PLP.Chemscore.CHOScore>
0.0000

> <Gold.PLP.Chemscore.Metal>
0.0000

> <Gold.Chemscore.Hbonds>
donor molecule, donor type, donor heavy atom, donor atom, acceptor molecule, acceptor atom, score
      L1  H     5    28       P1  8028  1.78
      L1  H    12    26       P1  8028  1.00

> <Gold.PLP.Chemscore.Internal.Correction>
0.0105

> <Gold.Rescore>
     Score         DG    S(hbond)    S(metal)    S(lipo)     H(rot)  DE(clash)    DE(int)     intcor
     15.69     -15.78       1.70        0.00      61.24       1.00       0.03       0.06       ----

> <Gold.Chemscore.Fitness>
15.6927

> <Gold.Chemscore.DG>
-15.7751

> <Gold.Chemscore.ZeroCoef>
-5.4800

> <Gold.Chemscore.Hbond>
1.7037

> <Gold.Chemscore.Metal>
0.0000

> <Gold.Chemscore.Lipo>
61.2374

> <Gold.Chemscore.Internal_Hbond>
0.0000

> <Gold.Chemscore.DEClash>
0.0256

> <Gold.Chemscore.DEInternal>
0.0569

> <Gold.Chemscore.Rot>
1.0000

> <Gold.Chemscore.Internal.Correction>
   9.000000E+99

> <Gold.Chemscore.Hbonds>
donor molecule, donor type, donor heavy atom, donor atom, acceptor molecule, acceptor atom, score
      L1  H     5    28       P1  8028  0.77
      L1  H    12    26       P1  8028  0.96

> <Gold.Chemscore.Hbond.Weighted>
-5.6903

> <Gold.Chemscore.Metal.Weighted>
-0.0000

> <Gold.Chemscore.Lipo.Weighted>
-7.1648

> <Gold.Chemscore.Internal_Hbond.Weighted>
0.0000

> <Gold.Chemscore.DEClash.Weighted>
0.0256

> <Gold.Chemscore.DEInternal.Weighted>
0.0569

> <Gold.Chemscore.Rot.Weighted>
2.5600

> <Gold.Chemscore.Internal.Correction.Weighted>
   9.000000E+99

> <Gold.Protein.RotatedTorsions>
[ 6907 6896 6895 6894 ] final  109.61 input  -60.11 | X-H torsion
[ 7974 7965 7964 7962 ] final -168.84 input  175.53 | X-H torsion
[ 8008 7997 7996 7995 ] final   61.40 input   59.86 | X-H torsion
[ 10167 10162 10161 10158 ] final  107.34 input  -65.29 | X-H torsion
[ 10718 10713 10712 10709 ] final  129.95 input   66.30 | X-H torsion
[ 10763 10752 10751 10750 ] final   74.09 input  -60.55 | X-H torsion
[ 11005 11000 10999 10996 ] final  -93.01 input  -57.11 | X-H torsion

> <Gold.Protein.ActiveResidues>
 VAL166  LYS551  ARG553  GLY616  TRP617  ASP618  TYR619  PRO620  LYS621  CYS622 
 ASP623  PHE694  ASN695  SER759  ASP760  ASP761  ALA762  ILE779  LEU786  VAL792 
 PHE793  MET794  SER795  GLU796  ALA797  LYS798  CYS799  TRP800  GLU811  SER814 

> <Gold.Protein.RotatedAtoms>
  152.5059  133.8920  159.7398 H   0  0  0  0  0  0  0  0  0  0  0  0  # atno 6907 bound_to 6896
  150.9356  133.6707  159.2808 H   0  0  0  0  0  0  0  0  0  0  0  0  # atno 6908 bound_to 6896
  151.4036  135.0979  159.9616 H   0  0  0  0  0  0  0  0  0  0  0  0  # atno 6909 bound_to 6896
  144.7196  140.2311  143.6304 H   0  0  0  0  0  0  0  0  0  0  0  0  # atno 7974 bound_to 7965
  155.5977  140.3493  155.4585 H   0  0  0  0  0  0  0  0  0  0  0  0  # atno 8008 bound_to 7997
  156.0252  140.1262  157.0340 H   0  0  0  0  0  0  0  0  0  0  0  0  # atno 8009 bound_to 7997
  154.4330  140.1054  156.6007 H   0  0  0  0  0  0  0  0  0  0  0  0  # atno 8010 bound_to 7997
  139.6935  144.7104  151.1308 H   0  0  0  0  0  0  0  0  0  0  0  0  # atno 10167 bound_to 10162
  157.5107  131.1096  150.9297 H   0  0  0  0  0  0  0  0  0  0  0  0  # atno 10718 bound_to 10713
  153.0564  135.5039  154.7990 H   0  0  0  0  0  0  0  0  0  0  0  0  # atno 10763 bound_to 10752
  154.6813  135.2969  154.9611 H   0  0  0  0  0  0  0  0  0  0  0  0  # atno 10764 bound_to 10752
  154.0396  135.6718  153.4841 H   0  0  0  0  0  0  0  0  0  0  0  0  # atno 10765 bound_to 10752
  141.1508  133.7859  157.0100 H   0  0  0  0  0  0  0  0  0  0  0  0  # atno 11005 bound_to 11000
  145.8410  139.2130  143.1827 LP  0  0  0  0  0  0  0  0  0  0  0  0  # atno 17320 bound_to 7965
  146.0346  140.8224  142.9859 LP  0  0  0  0  0  0  0  0  0  0  0  0  # atno 17321 bound_to 7965
  140.7689  143.5525  150.9188 LP  0  0  0  0  0  0  0  0  0  0  0  0  # atno 17342 bound_to 10162
  139.9204  143.6613  152.3098 LP  0  0  0  0  0  0  0  0  0  0  0  0  # atno 17343 bound_to 10162
  156.9938  130.5573  149.5305 LP  0  0  0  0  0  0  0  0  0  0  0  0  # atno 17370 bound_to 10713
  156.0287  130.5380  150.8477 LP  0  0  0  0  0  0  0  0  0  0  0  0  # atno 17371 bound_to 10713
  140.0884  134.9607  157.1736 LP  0  0  0  0  0  0  0  0  0  0  0  0  # atno 17394 bound_to 11000
  140.3480  134.2630  155.7202 LP  0  0  0  0  0  0  0  0  0  0  0  0  # atno 17395 bound_to 11000

$$$$
