#       Name:                AV-unprocessed.smi:2393
#       Creating user name   scv26
#       Creation time:       Fri Mar 27 13:11:53 2020


#       File generated by GOLD software.
#

@<TRIPOS>MOLECULE
AV-unprocessed.smi:2393
    48    49     1
SMALL
NO_CHARGES


@<TRIPOS>ATOM
      1 ****        -5.2857   3.7530   0.4831 C.3            1 S1                 0.0000
      2 ****        -4.6091   2.4083   0.3183 C.ar           1 S1                 0.0000
      3 ****        -5.3527   1.2135   0.3672 C.ar           1 S1                 0.0000
      4 ****        -4.6636  -0.0051   0.2101 C.ar           1 S1                 0.0000
      5 ****        -5.4001  -1.3278   0.2507 C.3            1 S1                 0.0000
      6 ****        -3.3289  -0.0771   0.0194 N.ar           1 S1                 0.0000
      7 ****        -2.6025   1.0671  -0.0288 C.ar           1 S1                 0.0000
      8 ****        -1.1976   1.0996  -0.2341 N.am           1 S1                 0.0000
      9 ****        -0.3483   0.0609  -0.3243 C.2            1 S1                 0.0000
     10 ****        -0.6532  -1.1230  -0.1761 O.2            1 S1                 0.0000
     11 ****         0.8997   0.4749  -0.5893 N.am           1 S1                 0.0000
     12 ****         2.0582  -0.4006  -0.7440 C.3            1 S1                 0.0000
     13 ****         3.1052   0.2686  -1.6418 C.3            1 S1                 0.0000
     14 ****         4.3714  -0.5952  -1.7242 C.3            1 S1                 0.0000
     15 ****         4.8904  -0.8451  -0.4193 O.3            1 S1                 0.0000
     16 ****         4.0131  -1.5105   0.4960 C.3            1 S1                 0.0000
     17 ****         3.7754  -2.9739   0.0641 C.3            1 S1                 0.0000
     18 ****         4.7575  -1.5019   1.8413 C.3            1 S1                 0.0000
     19 ****         2.6924  -0.7129   0.6231 C.3            1 S1                 0.0000
     20 ****        -3.2166   2.3315   0.1149 C.ar           1 S1                 0.0000
     21 ****        -6.3705   3.6490   0.5232 H              1 S1                 0.0000
     22 ****        -5.0373   4.4079  -0.3523 H              1 S1                 0.0000
     23 ****        -4.9533   4.2304   1.4052 H              1 S1                 0.0000
     24 ****        -6.4220   1.2302   0.5208 H              1 S1                 0.0000
     25 ****        -6.4802  -1.1786   0.2548 H              1 S1                 0.0000
     26 ****        -5.1284  -1.8833   1.1486 H              1 S1                 0.0000
     27 ****        -5.1453  -1.9342  -0.6190 H              1 S1                 0.0000
     28 ****        -0.7955   2.0193  -0.3378 H              1 S1                 0.0000
     29 ****         1.0614   1.4658  -0.6941 H              1 S1                 0.0000
     30 ****         1.7405  -1.3286  -1.2219 H              1 S1                 0.0000
     31 ****         2.7002   0.4320  -2.6411 H              1 S1                 0.0000
     32 ****         3.3654   1.2509  -1.2444 H              1 S1                 0.0000
     33 ****         4.1731  -1.5298  -2.2487 H              1 S1                 0.0000
     34 ****         5.1350  -0.0759  -2.3032 H              1 S1                 0.0000
     35 ****         3.1885  -3.5096   0.8110 H              1 S1                 0.0000
     36 ****         4.7201  -3.5056  -0.0540 H              1 S1                 0.0000
     37 ****         3.2366  -3.0546  -0.8788 H              1 S1                 0.0000
     38 ****         4.1655  -1.9745   2.6257 H              1 S1                 0.0000
     39 ****         4.9824  -0.4848   2.1640 H              1 S1                 0.0000
     40 ****         5.7044  -2.0385   1.7721 H              1 S1                 0.0000
     41 ****         2.8930   0.2293   1.1359 H              1 S1                 0.0000
     42 ****         1.9864  -1.2551   1.2537 H              1 S1                 0.0000
     43 ****        -2.6267   3.2359   0.0732 H              1 S1                 0.0000
     44 ****        -2.8806  -0.9649  -0.0852 LP             1 S1                 0.0000
     45 ****        -1.5992  -1.3738   0.0291 LP             1 S1                 0.0000
     46 ****         0.0453  -1.8336  -0.2609 LP             1 S1                 0.0000
     47 ****         5.1395   0.0357  -0.0167 LP             1 S1                 0.0000
     48 ****         5.7100  -1.4092  -0.5203 LP             1 S1                 0.0000
@<TRIPOS>BOND
    1    1    2 1     
    2    1   21 1     
    3    1   22 1     
    4    1   23 1     
    5    2   20 ar    
    6    2    3 ar    
    7    3    4 ar    
    8    3   24 1     
    9    4    5 1     
   10    4    6 ar    
   11    5   25 1     
   12    5   26 1     
   13    5   27 1     
   14    6    7 ar    
   15    7    8 1     
   16    7   20 ar    
   17    8    9 am    
   18    8   28 1     
   19    9   10 2     
   20    9   11 am    
   21   11   12 1     
   22   11   29 1     
   23   12   19 1     
   24   12   13 1     
   25   12   30 1     
   26   13   14 1     
   27   13   31 1     
   28   13   32 1     
   29   14   15 1     
   30   14   33 1     
   31   14   34 1     
   32   15   16 1     
   33   16   17 1     
   34   16   18 1     
   35   16   19 1     
   36   17   35 1     
   37   17   36 1     
   38   17   37 1     
   39   18   38 1     
   40   18   39 1     
   41   18   40 1     
   42   19   41 1     
   43   19   42 1     
   44   20   43 1     
   45    6   44 1     
   46   10   45 1     
   47   10   46 1     
   48   15   47 1     
   49   15   48 1     
@<TRIPOS>SUBSTRUCTURE
      1 S1             1
@<TRIPOS>SET
LONE_PAIRS      STATIC     ATOMS    <user>   **** ""
5 44 45 46 47 48
DONOR_HYDROGENS      STATIC     ATOMS    <user>   **** ""
2 28 29
ATOM$BLUE        STATIC     ATOMS    COLORGROUP SYSTEM
5 44 45 46 47 48
ATOM$RED        STATIC     ATOMS    COLORGROUP SYSTEM
2 28 29
