AV-unprocessed.smi:1607|AV-procd|sdf|6465|dock9
  -GOLD-   22720 7123D 1   1.00000     0.00000
 Structure written by MMmdl.
 39 40  0  0  0  0  0  0  0  0  2 V2000
  153.0426  142.6997  161.1318 C   0  0  0  0  0  0  0  0  0  0  0  0
  152.9309  143.6140  159.8989 C   0  0  2  0  0  0  0  0  0  0  0  0
  152.0889  144.8758  160.1650 C   0  0  0  0  0  0  0  0  0  0  0  0
  150.5916  144.5431  160.2315 C   0  0  0  0  0  0  0  0  0  0  0  0
  150.1401  143.7742  158.9797 C   0  0  0  0  0  0  0  0  0  0  0  0
  150.9513  142.5446  158.7861 N   0  3  1  0  0  0  0  0  0  0  0  0
  150.4423  141.7007  157.6761 C   0  0  0  0  0  0  0  0  0  0  0  0
  150.6116  142.3793  156.3027 C   0  0  0  0  0  0  0  0  0  0  0  0
  149.4347  142.1931  155.4622 N   0  0  0  0  0  0  0  0  0  0  0  0
  149.2447  141.1573  154.6298 C   0  0  0  0  0  0  0  0  0  0  0  0
  150.0681  140.2546  154.4792 O   0  0  0  0  0  0  0  0  0  0  0  0
  147.9273  141.1347  153.8514 C   0  0  0  0  0  0  0  0  0  0  0  0
  146.8622  141.7727  154.6032 N   0  0  0  0  0  0  0  0  0  0  0  0
  146.0766  142.8096  154.3040 C   0  0  0  0  0  0  0  0  0  0  0  0
  145.2242  143.0755  155.2819 N   0  0  0  0  0  0  0  0  0  0  0  0
  145.5298  142.1181  156.2347 N   0  0  0  0  0  0  0  0  0  0  0  0
  146.5004  141.3418  155.8373 N   0  0  0  0  0  0  0  0  0  0  0  0
  152.4005  142.8611  158.6613 C   0  0  0  0  0  0  0  0  0  0  0  0
  152.0759  142.2928  161.4278 H   0  0  0  0  0  0  0  0  0  0  0  0
  153.4497  143.2419  161.9856 H   0  0  0  0  0  0  0  0  0  0  0  0
  153.7064  141.8576  160.9339 H   0  0  0  0  0  0  0  0  0  0  0  0
  153.9452  143.9440  159.6703 H   0  0  0  0  0  0  0  0  0  0  0  0
  152.4108  145.3652  161.0848 H   0  0  0  0  0  0  0  0  0  0  0  0
  152.2576  145.5953  159.3624 H   0  0  0  0  0  0  0  0  0  0  0  0
  150.3801  143.9519  161.1230 H   0  0  0  0  0  0  0  0  0  0  0  0
  150.0131  145.4621  160.3314 H   0  0  0  0  0  0  0  0  0  0  0  0
  149.0870  143.5108  159.0866 H   0  0  0  0  0  0  0  0  0  0  0  0
  150.2207  144.4087  158.0955 H   0  0  0  0  0  0  0  0  0  0  0  0
  150.9929  140.7591  157.6542 H   0  0  0  0  0  0  0  0  0  0  0  0
  149.3994  141.4410  157.8645 H   0  0  0  0  0  0  0  0  0  0  0  0
  150.8116  143.4465  156.4032 H   0  0  0  0  0  0  0  0  0  0  0  0
  151.4698  141.9528  155.7826 H   0  0  0  0  0  0  0  0  0  0  0  0
  148.7083  142.8920  155.5267 H   0  0  0  0  0  0  0  0  0  0  0  0
  148.0315  141.6481  152.8944 H   0  0  0  0  0  0  0  0  0  0  0  0
  147.6511  140.1016  153.6349 H   0  0  0  0  0  0  0  0  0  0  0  0
  146.1311  143.3659  153.3799 H   0  0  0  0  0  0  0  0  0  0  0  0
  152.5545  143.4688  157.7680 H   0  0  0  0  0  0  0  0  0  0  0  0
  152.9829  141.9518  158.5174 H   0  0  0  0  0  0  0  0  0  0  0  0
  150.8400  142.0019  159.6306 H   0  0  0  0  0  0  0  0  0  0  0  0
  1  2  1  0  0  0  0
  1 19  1  0  0  0  0
  1 20  1  0  0  0  0
  1 21  1  0  0  0  0
  2 18  1  0  0  0  0
  2  3  1  0  0  0  0
  2 22  1  0  0  0  0
  3  4  1  0  0  0  0
  3 23  1  0  0  0  0
  3 24  1  0  0  0  0
  4  5  1  0  0  0  0
  4 25  1  0  0  0  0
  4 26  1  0  0  0  0
  5  6  1  0  0  0  0
  5 27  1  0  0  0  0
  5 28  1  0  0  0  0
  6  7  1  0  0  0  0
  6 18  1  0  0  0  0
  6 39  1  0  0  0  0
  7  8  1  0  0  0  0
  7 29  1  0  0  0  0
  7 30  1  0  0  0  0
  8  9  1  0  0  0  0
  8 31  1  0  0  0  0
  8 32  1  0  0  0  0
  9 10  1  0  0  0  0
  9 33  1  0  0  0  0
 10 11  2  0  0  0  0
 10 12  1  0  0  0  0
 12 13  1  0  0  0  0
 12 34  1  0  0  0  0
 12 35  1  0  0  0  0
 13 17  1  0  0  0  0
 13 14  1  0  0  0  0
 14 15  2  0  0  0  0
 14 36  1  0  0  0  0
 15 16  1  0  0  0  0
 16 17  2  0  0  0  0
 18 37  1  0  0  0  0
 18 38  1  0  0  0  0
M  CHG  1   6   1
M  END
> <s_m_source_file>
AV-unprocessed.smi

> <i_m_source_file_index>
1607

> <i_lp_mmshare_version>
43012

> <i_f3d_flags>
0

> <s_epik_input>
W0NIM11bQ0BASF0xW0NIMl1bQ0gyXVtDSDJdTihbQ0gyXTEpW0NIMl1bQ0gyXVtOSF1DKD1PKVtDSDJdbjJbY0hdbm5uMg==

> <s_epik_cmdline>
J2VwaWtfcHl0aG9uJywgJy1waCcsICc3LjAnLCAnLXRuJywgJzgnLCAnLW1hJywgJzIwMCcsICctbWV0YWxfYmluZGluZycsICctaW1hZScsICc8aW5maWxlLm1hZT4nLCAnLW9tYWUnLCAnPG91dGZpbGUubWFlPic=

> <r_lp_tautomer_probability>
1

> <r_epik_Ionization_Penalty>
0.00268321

> <r_epik_Ionization_Penalty_Charging>
0.00267875

> <r_epik_Ionization_Penalty_Neutral>
4.46125e-06

> <r_epik_State_Penalty>
0.00186642

> <r_epik_Charging_Adjusted_Penalty>
0.00454517

> <i_epik_Tot_Q>
1

> <i_epik_Tot_abs_Q>
1

> <r_epik_Metal_State_Penalty>
-0

> <b_epik_Metal_Only>
0

> <s_lp_Force_Field>
OPLS_2005

> <r_lp_Energy>
22.0016

> <b_lp_Chiralities_Consistent>
1

> <s_lp_Variant>
AV-unprocessed.smi:1607-3

> <Gold.Version>
5.8.1

> <Gold.Id.Protein>
6NUR|6NUR_protein|mol2

> <Gold.PLP.Fitness>
42.9712

> <Gold.PLP.PLP>
-39.3986

> <Gold.PLP.part.hbond>
-2.0000

> <Gold.PLP.part.metal>
0.0000

> <Gold.PLP.part.buried>
-6.0019

> <Gold.PLP.part.nonpolar>
-32.7506

> <Gold.PLP.part.repulsive>
0.7943

> <Gold.PLP.ligand.clash>
0.0000

> <Gold.PLP.ligand.torsion>
0.8749

> <Gold.PLP.Chemscore.Hbond>
1.7680

> <Gold.PLP.Chemscore.CHOScore>
0.0000

> <Gold.PLP.Chemscore.Metal>
0.0000

> <Gold.Chemscore.Hbonds>
donor molecule, donor type, donor heavy atom, donor atom, acceptor molecule, acceptor atom, score
      L1  H     9    33       P1  8028  0.59
      P1  H  7989  7998       L1    11  0.99

> <Gold.PLP.Chemscore.Internal.Correction>
0.0184

> <Gold.Rescore>
     Score         DG    S(hbond)    S(metal)    S(lipo)     H(rot)  DE(clash)    DE(int)     intcor
     12.13     -13.19       1.42        0.00      84.17       2.69       0.35       0.70       ----

> <Gold.Chemscore.Fitness>
12.1339

> <Gold.Chemscore.DG>
-13.1887

> <Gold.Chemscore.ZeroCoef>
-5.4800

> <Gold.Chemscore.Hbond>
1.4238

> <Gold.Chemscore.Metal>
0.0000

> <Gold.Chemscore.Lipo>
84.1669

> <Gold.Chemscore.Internal_Hbond>
0.0000

> <Gold.Chemscore.DEClash>
0.3527

> <Gold.Chemscore.DEInternal>
0.7020

> <Gold.Chemscore.Rot>
2.6932

> <Gold.Chemscore.Internal.Correction>
   9.000000E+99

> <Gold.Chemscore.Hbonds>
donor molecule, donor type, donor heavy atom, donor atom, acceptor molecule, acceptor atom, score
      L1  H     9    33       P1  8028  0.58
      P1  H  7989  7998       L1    11  0.73

> <Gold.Chemscore.Hbond.Weighted>
-4.7556

> <Gold.Chemscore.Metal.Weighted>
-0.0000

> <Gold.Chemscore.Lipo.Weighted>
-9.8475

> <Gold.Chemscore.Internal_Hbond.Weighted>
0.0000

> <Gold.Chemscore.DEClash.Weighted>
0.3527

> <Gold.Chemscore.DEInternal.Weighted>
0.7020

> <Gold.Chemscore.Rot.Weighted>
6.8945

> <Gold.Chemscore.Internal.Correction.Weighted>
   9.000000E+99

> <Gold.Protein.RotatedTorsions>
[ 6907 6896 6895 6894 ] final -154.70 input  -60.11 | X-H torsion
[ 7974 7965 7964 7962 ] final   22.03 input  175.53 | X-H torsion
[ 8008 7997 7996 7995 ] final  142.92 input   59.86 | X-H torsion
[ 10167 10162 10161 10158 ] final  153.82 input  -65.29 | X-H torsion
[ 10718 10713 10712 10709 ] final  -78.49 input   66.30 | X-H torsion
[ 10763 10752 10751 10750 ] final   60.07 input  -60.55 | X-H torsion
[ 11005 11000 10999 10996 ] final   15.21 input  -57.11 | X-H torsion

> <Gold.Protein.ActiveResidues>
 VAL166  LYS551  ARG553  GLY616  TRP617  ASP618  TYR619  PRO620  LYS621  CYS622 
 ASP623  PHE694  ASN695  SER759  ASP760  ASP761  ALA762  ILE779  LEU786  VAL792 
 PHE793  MET794  SER795  GLU796  ALA797  LYS798  CYS799  TRP800  GLU811  SER814 

> <Gold.Protein.RotatedAtoms>
  151.2615  133.4300  159.2616 H   0  0  0  0  0  0  0  0  0  0  0  0  # atno 6907 bound_to 6896
  151.0527  134.9684  159.8230 H   0  0  0  0  0  0  0  0  0  0  0  0  # atno 6908 bound_to 6896
  152.5385  134.2568  159.8973 H   0  0  0  0  0  0  0  0  0  0  0  0  # atno 6909 bound_to 6896
  146.2046  139.7944  142.8735 H   0  0  0  0  0  0  0  0  0  0  0  0  # atno 7974 bound_to 7965
  156.2940  140.2276  156.4806 H   0  0  0  0  0  0  0  0  0  0  0  0  # atno 8008 bound_to 7997
  154.7856  140.0457  157.1182 H   0  0  0  0  0  0  0  0  0  0  0  0  # atno 8009 bound_to 7997
  154.9706  140.3066  155.4993 H   0  0  0  0  0  0  0  0  0  0  0  0  # atno 8010 bound_to 7997
  139.4825  144.5240  151.7831 H   0  0  0  0  0  0  0  0  0  0  0  0  # atno 10167 bound_to 10162
  156.0116  130.4519  150.3504 H   0  0  0  0  0  0  0  0  0  0  0  0  # atno 10718 bound_to 10713
  152.9911  135.5549  154.5815 H   0  0  0  0  0  0  0  0  0  0  0  0  # atno 10763 bound_to 10752
  154.5195  135.2807  155.1276 H   0  0  0  0  0  0  0  0  0  0  0  0  # atno 10764 bound_to 10752
  154.2635  135.6376  153.5336 H   0  0  0  0  0  0  0  0  0  0  0  0  # atno 10765 bound_to 10752
  140.4608  134.1129  155.7716 H   0  0  0  0  0  0  0  0  0  0  0  0  # atno 11005 bound_to 11000
  145.3363  141.0278  143.3417 LP  0  0  0  0  0  0  0  0  0  0  0  0  # atno 17320 bound_to 7965
  144.8763  139.4967  143.6744 LP  0  0  0  0  0  0  0  0  0  0  0  0  # atno 17321 bound_to 7965
  140.4757  144.1522  150.5924 LP  0  0  0  0  0  0  0  0  0  0  0  0  # atno 17342 bound_to 10162
  140.4333  143.2558  151.9568 LP  0  0  0  0  0  0  0  0  0  0  0  0  # atno 17343 bound_to 10162
  157.1596  131.0341  151.2847 LP  0  0  0  0  0  0  0  0  0  0  0  0  # atno 17370 bound_to 10713
  157.4322  130.7497  149.7000 LP  0  0  0  0  0  0  0  0  0  0  0  0  # atno 17371 bound_to 10713
  141.1622  133.8771  157.1816 LP  0  0  0  0  0  0  0  0  0  0  0  0  # atno 17394 bound_to 11000
  139.9946  135.0051  157.0054 LP  0  0  0  0  0  0  0  0  0  0  0  0  # atno 17395 bound_to 11000

$$$$
