AV-unprocessed.smi:2973|AV-procd|sdf|11347|dock4
  -GOLD-   2272016263D 1   1.00000     0.00000
 Structure written by MMmdl.
 48 50  0  0  0  0  0  0  0  0  2 V2000
  151.0039  140.2321  157.8696 C   0  0  0  0  0  0  0  0  0  0  0  0
  151.8981  140.1856  159.1287 C   0  0  2  0  0  0  0  0  0  0  0  0
  152.6099  141.5381  159.3485 C   0  0  0  0  0  0  0  0  0  0  0  0
  153.4141  141.5544  160.6570 C   0  0  0  0  0  0  0  0  0  0  0  0
  154.4329  140.4083  160.6944 C   0  0  0  0  0  0  0  0  0  0  0  0
  153.7477  139.0465  160.4853 C   0  0  0  0  0  0  0  0  0  0  0  0
  152.9082  138.9923  159.1821 C   0  0  2  0  0  0  0  0  0  0  0  0
  153.7848  138.9711  158.0215 N   0  5  0  0  0  0  0  0  0  0  0  0
  153.6175  137.8007  157.3639 C   0  0  0  0  0  0  0  0  0  0  0  0
  154.1894  137.4474  156.3335 O   0  0  0  0  0  0  0  0  0  0  0  0
  152.6995  137.0289  157.9769 N   0  0  0  0  0  0  0  0  0  0  0  0
  152.2480  135.7108  157.5034 C   0  0  0  0  0  0  0  0  0  0  0  0
  151.2715  135.7471  156.3143 C   0  0  0  0  0  0  0  0  0  0  0  0
  151.5276  136.4734  155.3542 O   0  0  0  0  0  0  0  0  0  0  0  0
  150.1674  134.9828  156.3709 N   0  0  0  0  0  0  0  0  0  0  0  0
  149.1283  134.9211  155.3510 C   0  0  0  0  0  0  0  0  0  0  0  0
  149.3169  133.7047  154.4291 C   0  0  0  0  0  0  0  0  0  0  0  0
  148.0343  133.3134  153.7202 C   0  0  0  0  0  0  0  0  0  0  0  0
  147.9936  133.2058  152.3134 C   0  0  0  0  0  0  0  0  0  0  0  0
  146.7793  132.8355  151.7035 C   0  0  0  0  0  0  0  0  0  0  0  0
  145.6585  132.5882  152.5193 C   0  0  0  0  0  0  0  0  0  0  0  0
  145.8029  132.7208  153.9149 C   0  0  0  0  0  0  0  0  0  0  0  0
  146.9629  133.0733  154.5097 N   0  0  0  0  0  0  0  0  0  0  0  0
  152.2165  137.6419  159.0632 C   0  0  0  0  0  0  0  0  0  0  0  0
  151.3562  137.2250  159.8401 O   0  0  0  0  0  0  0  0  0  0  0  0
  151.5939  140.3548  156.9610 H   0  0  0  0  0  0  0  0  0  0  0  0
  150.3057  141.0676  157.9201 H   0  0  0  0  0  0  0  0  0  0  0  0
  150.4069  139.3269  157.7604 H   0  0  0  0  0  0  0  0  0  0  0  0
  151.2174  140.0609  159.9728 H   0  0  0  0  0  0  0  0  0  0  0  0
  153.2738  141.7494  158.5094 H   0  0  0  0  0  0  0  0  0  0  0  0
  151.8772  142.3456  159.3685 H   0  0  0  0  0  0  0  0  0  0  0  0
  153.9271  142.5103  160.7652 H   0  0  0  0  0  0  0  0  0  0  0  0
  152.7354  141.4693  161.5065 H   0  0  0  0  0  0  0  0  0  0  0  0
  155.1884  140.5649  159.9235 H   0  0  0  0  0  0  0  0  0  0  0  0
  154.9628  140.4137  161.6471 H   0  0  0  0  0  0  0  0  0  0  0  0
  154.4999  138.2556  160.4932 H   0  0  0  0  0  0  0  0  0  0  0  0
  153.1018  138.8517  161.3430 H   0  0  0  0  0  0  0  0  0  0  0  0
  153.1125  135.1094  157.2178 H   0  0  0  0  0  0  0  0  0  0  0  0
  151.7724  135.1645  158.3194 H   0  0  0  0  0  0  0  0  0  0  0  0
  150.0300  134.4173  157.1969 H   0  0  0  0  0  0  0  0  0  0  0  0
  148.1433  134.8986  155.8203 H   0  0  0  0  0  0  0  0  0  0  0  0
  149.1753  135.8417  154.7684 H   0  0  0  0  0  0  0  0  0  0  0  0
  150.0834  133.9178  153.6824 H   0  0  0  0  0  0  0  0  0  0  0  0
  149.6791  132.8496  155.0016 H   0  0  0  0  0  0  0  0  0  0  0  0
  148.8716  133.4008  151.7151 H   0  0  0  0  0  0  0  0  0  0  0  0
  146.7095  132.7435  150.6297 H   0  0  0  0  0  0  0  0  0  0  0  0
  144.7109  132.3037  152.0861 H   0  0  0  0  0  0  0  0  0  0  0  0
  144.9642  132.5393  154.5707 H   0  0  0  0  0  0  0  0  0  0  0  0
  1  2  1  0  0  0  0
  1 26  1  0  0  0  0
  1 27  1  0  0  0  0
  1 28  1  0  0  0  0
  2  7  1  0  0  0  0
  2  3  1  0  0  0  0
  2 29  1  0  0  0  0
  3  4  1  0  0  0  0
  3 30  1  0  0  0  0
  3 31  1  0  0  0  0
  4  5  1  0  0  0  0
  4 32  1  0  0  0  0
  4 33  1  0  0  0  0
  5  6  1  0  0  0  0
  5 34  1  0  0  0  0
  5 35  1  0  0  0  0
  6  7  1  0  0  0  0
  6 36  1  0  0  0  0
  6 37  1  0  0  0  0
  7 24  1  0  0  0  0
  7  8  1  0  0  0  0
  8  9  1  0  0  0  0
  9 10  2  0  0  0  0
  9 11  1  0  0  0  0
 11 12  1  0  0  0  0
 11 24  1  0  0  0  0
 12 13  1  0  0  0  0
 12 38  1  0  0  0  0
 12 39  1  0  0  0  0
 13 14  2  0  0  0  0
 13 15  1  0  0  0  0
 15 16  1  0  0  0  0
 15 40  1  0  0  0  0
 16 17  1  0  0  0  0
 16 41  1  0  0  0  0
 16 42  1  0  0  0  0
 17 18  1  0  0  0  0
 17 43  1  0  0  0  0
 17 44  1  0  0  0  0
 18 23  1  0  0  0  0
 18 19  2  0  0  0  0
 19 20  1  0  0  0  0
 19 45  1  0  0  0  0
 20 21  2  0  0  0  0
 20 46  1  0  0  0  0
 21 22  1  0  0  0  0
 21 47  1  0  0  0  0
 22 23  2  0  0  0  0
 22 48  1  0  0  0  0
 24 25  2  0  0  0  0
M  CHG  1   8  -1
M  END
> <s_m_source_file>
AV-unprocessed.smi

> <i_m_source_file_index>
2973

> <i_lp_mmshare_version>
43012

> <i_f3d_flags>
0

> <s_epik_input>
W0NIMl0xW0NIMl1bQ0gyXVtDSDJdW0NAQEhdKFtDSDNdKVtDQF0xMltOSF1DKD1PKU4oQzI9TylbQ0gyXUMoPU8pW05IXVtDSDJdW0NIMl1jM1tjSF1bY0hdW2NIXVtjSF1uMw==

> <s_epik_cmdline>
J2VwaWtfcHl0aG9uJywgJy1waCcsICc3LjAnLCAnLXRuJywgJzgnLCAnLW1hJywgJzIwMCcsICctbWV0YWxfYmluZGluZycsICctaW1hZScsICc8aW5maWxlLm1hZT4nLCAnLW9tYWUnLCAnPG91dGZpbGUubWFlPic=

> <r_lp_tautomer_probability>
1

> <r_epik_Ionization_Penalty>
6.04175

> <r_epik_Ionization_Penalty_Charging>
6.01728

> <r_epik_Ionization_Penalty_Neutral>
0.0244696

> <r_epik_State_Penalty>
6.03712

> <r_epik_Charging_Adjusted_Penalty>
12.0544

> <i_epik_Tot_Q>
-1

> <i_epik_Tot_abs_Q>
1

> <r_epik_Metal_State_Penalty>
2.01153

> <b_epik_Metal_Only>
1

> <s_lp_Force_Field>
OPLS_2005

> <r_lp_Energy>
17.3345

> <b_lp_Chiralities_Consistent>
1

> <s_lp_Variant>
AV-unprocessed.smi:2973-11

> <Gold.Version>
5.8.1

> <Gold.Id.Protein>
6NUR|6NUR_protein|mol2

> <Gold.PLP.Fitness>
49.1458

> <Gold.PLP.PLP>
-35.4649

> <Gold.PLP.part.hbond>
-4.8362

> <Gold.PLP.part.metal>
0.0000

> <Gold.PLP.part.buried>
-1.3752

> <Gold.PLP.part.nonpolar>
-28.7937

> <Gold.PLP.part.repulsive>
0.2454

> <Gold.PLP.ligand.clash>
0.0000

> <Gold.PLP.ligand.torsion>
0.6754

> <Gold.PLP.Chemscore.Hbond>
4.0000

> <Gold.PLP.Chemscore.CHOScore>
1.0000

> <Gold.PLP.Chemscore.Metal>
0.0000

> <Gold.Chemscore.Hbonds>
donor molecule, donor type, donor heavy atom, donor atom, acceptor molecule, acceptor atom, score
      P1  H  6896  6908       L1    25  0.93
      P1  H  7997  8009       L1     8  2.00
      P1  H 10752 10763       L1    10  0.07
      P1  H 10752 10765       L1    14  0.98
      L1  C    22    48       P1 10957  1.00

> <Gold.PLP.Chemscore.Internal.Correction>
0.0317

> <Gold.Rescore>
     Score         DG    S(hbond)    S(metal)    S(lipo)     H(rot)  DE(clash)    DE(int)     intcor
     18.59     -20.30       3.07        0.00      78.60       1.81       0.05       1.66       ----

> <Gold.Chemscore.Fitness>
18.5937

> <Gold.Chemscore.DG>
-20.2999

> <Gold.Chemscore.ZeroCoef>
-5.4800

> <Gold.Chemscore.Hbond>
3.0701

> <Gold.Chemscore.Metal>
0.0000

> <Gold.Chemscore.Lipo>
78.6043

> <Gold.Chemscore.Internal_Hbond>
0.0000

> <Gold.Chemscore.DEClash>
0.0504

> <Gold.Chemscore.DEInternal>
1.6558

> <Gold.Chemscore.Rot>
1.8090

> <Gold.Chemscore.Internal.Correction>
   9.000000E+99

> <Gold.Chemscore.Hbonds>
donor molecule, donor type, donor heavy atom, donor atom, acceptor molecule, acceptor atom, score
      P1  H  6896  6908       L1    25  0.66
      P1  H  7997  8009       L1     8  0.60
      P1  H 10752 10763       L1    10  0.07
      P1  H 10752 10765       L1    14  0.56

> <Gold.Chemscore.Hbond.Weighted>
-10.2542

> <Gold.Chemscore.Metal.Weighted>
-0.0000

> <Gold.Chemscore.Lipo.Weighted>
-9.1967

> <Gold.Chemscore.Internal_Hbond.Weighted>
0.0000

> <Gold.Chemscore.DEClash.Weighted>
0.0504

> <Gold.Chemscore.DEInternal.Weighted>
1.6558

> <Gold.Chemscore.Rot.Weighted>
4.6310

> <Gold.Chemscore.Internal.Correction.Weighted>
   9.000000E+99

> <Gold.Protein.RotatedTorsions>
[ 6907 6896 6895 6894 ] final -125.73 input  -60.11 | X-H torsion
[ 7974 7965 7964 7962 ] final -105.40 input  175.53 | X-H torsion
[ 8008 7997 7996 7995 ] final  160.58 input   59.86 | X-H torsion
[ 10167 10162 10161 10158 ] final   -6.89 input  -65.29 | X-H torsion
[ 10718 10713 10712 10709 ] final  130.99 input   66.30 | X-H torsion
[ 10763 10752 10751 10750 ] final  165.58 input  -60.55 | X-H torsion
[ 11005 11000 10999 10996 ] final   87.57 input  -57.11 | X-H torsion

> <Gold.Protein.ActiveResidues>
 VAL166  LYS551  ARG553  GLY616  TRP617  ASP618  TYR619  PRO620  LYS621  CYS622 
 ASP623  PHE694  ASN695  SER759  ASP760  ASP761  ALA762  ILE779  LEU786  VAL792 
 PHE793  MET794  SER795  GLU796  ALA797  LYS798  CYS799  TRP800  GLU811  SER814 

> <Gold.Protein.RotatedAtoms>
  150.8897  133.7260  159.2908 H   0  0  0  0  0  0  0  0  0  0  0  0  # atno 6907 bound_to 6896
  151.4814  135.1051  159.9788 H   0  0  0  0  0  0  0  0  0  0  0  0  # atno 6908 bound_to 6896
  152.4812  133.8212  159.7110 H   0  0  0  0  0  0  0  0  0  0  0  0  # atno 6909 bound_to 6896
  145.2310  140.9170  143.3205 H   0  0  0  0  0  0  0  0  0  0  0  0  # atno 7974 bound_to 7965
  156.2162  140.1800  156.7582 H   0  0  0  0  0  0  0  0  0  0  0  0  # atno 8008 bound_to 7997
  154.5796  140.0668  156.9113 H   0  0  0  0  0  0  0  0  0  0  0  0  # atno 8009 bound_to 7997
  155.2527  140.3330  155.4283 H   0  0  0  0  0  0  0  0  0  0  0  0  # atno 8010 bound_to 7997
  140.7011  143.6142  150.8674 H   0  0  0  0  0  0  0  0  0  0  0  0  # atno 10167 bound_to 10162
  157.5010  131.1094  150.9427 H   0  0  0  0  0  0  0  0  0  0  0  0  # atno 10718 bound_to 10713
  154.3262  135.2755  155.2495 H   0  0  0  0  0  0  0  0  0  0  0  0  # atno 10763 bound_to 10752
  154.4827  135.5854  153.6404 H   0  0  0  0  0  0  0  0  0  0  0  0  # atno 10764 bound_to 10752
  152.9871  135.6115  154.3451 H   0  0  0  0  0  0  0  0  0  0  0  0  # atno 10765 bound_to 10752
  139.8916  134.8431  156.2878 H   0  0  0  0  0  0  0  0  0  0  0  0  # atno 11005 bound_to 11000
  144.9677  139.3913  143.6324 LP  0  0  0  0  0  0  0  0  0  0  0  0  # atno 17320 bound_to 7965
  146.3353  139.8760  142.8832 LP  0  0  0  0  0  0  0  0  0  0  0  0  # atno 17321 bound_to 7965
  139.9865  143.5894  152.2925 LP  0  0  0  0  0  0  0  0  0  0  0  0  # atno 17342 bound_to 10162
  139.6534  144.7661  151.2104 LP  0  0  0  0  0  0  0  0  0  0  0  0  # atno 17343 bound_to 10162
  157.0098  130.5632  149.5319 LP  0  0  0  0  0  0  0  0  0  0  0  0  # atno 17370 bound_to 10713
  156.0229  130.5324  150.8326 LP  0  0  0  0  0  0  0  0  0  0  0  0  # atno 17371 bound_to 10713
  140.9996  133.7159  156.0940 LP  0  0  0  0  0  0  0  0  0  0  0  0  # atno 17394 bound_to 11000
  140.7516  134.4039  157.5540 LP  0  0  0  0  0  0  0  0  0  0  0  0  # atno 17395 bound_to 11000

$$$$
