AV-unprocessed.smi:1046|AV-procd|sdf|4550|dock9
  -GOLD-   22720 2583D 1   1.00000     0.00000
 Structure written by MMmdl.
 53 55  0  0  0  0  0  0  0  0  2 V2000
  154.0275  142.3707  163.0934 C   0  0  0  0  0  0  0  0  0  0  0  0
  153.2939  142.4721  161.7677 C   0  0  0  0  0  0  0  0  0  0  0  0
  152.4702  143.5938  161.5224 C   0  0  0  0  0  0  0  0  0  0  0  0
  151.7696  143.7251  160.3033 C   0  0  0  0  0  0  0  0  0  0  0  0
  150.9204  144.7232  159.8570 N   0  0  0  0  0  0  0  0  0  0  0  0
  150.5891  144.2733  158.6501 C   0  0  0  0  0  0  0  0  0  0  0  0
  151.1233  143.0993  158.2615 N   0  0  0  0  0  0  0  0  0  0  0  0
  150.9117  142.4121  157.0007 C   0  0  0  0  0  0  0  0  0  0  0  0
  149.5943  141.6134  156.9912 C   0  0  2  0  0  0  0  0  0  0  0  0
  149.7746  140.3502  157.5993 O   0  0  0  0  0  0  0  0  0  0  0  0
  148.9079  141.4270  155.6192 C   0  0  0  0  0  0  0  0  0  0  0  0
  147.4375  141.4741  155.6013 N   0  0  0  0  0  0  0  0  0  0  0  0
  146.9109  142.1170  154.3964 C   0  0  0  0  0  0  0  0  0  0  0  0
  147.0892  141.2657  153.1240 C   0  0  0  0  0  0  0  0  0  0  0  0
  146.4157  139.9530  153.2889 N   0  3  0  0  0  0  0  0  0  0  0  0
  146.4773  139.1252  152.0578 C   0  0  0  0  0  0  0  0  0  0  0  0
  145.8059  137.7519  152.2308 C   0  0  0  0  0  0  0  0  0  0  0  0
  144.4096  137.9097  152.3698 O   0  0  0  0  0  0  0  0  0  0  0  0
  146.9168  139.2603  154.5049 C   0  0  0  0  0  0  0  0  0  0  0  0
  146.7746  140.1717  155.7426 C   0  0  0  0  0  0  0  0  0  0  0  0
  151.9168  142.6950  159.3290 C   0  0  0  0  0  0  0  0  0  0  0  0
  152.7343  141.5748  159.5604 C   0  0  0  0  0  0  0  0  0  0  0  0
  153.4283  141.4600  160.7832 C   0  0  0  0  0  0  0  0  0  0  0  0
  154.3099  140.2474  161.0232 C   0  0  0  0  0  0  0  0  0  0  0  0
  153.7696  143.1973  163.7557 H   0  0  0  0  0  0  0  0  0  0  0  0
  155.1059  142.3925  162.9341 H   0  0  0  0  0  0  0  0  0  0  0  0
  153.7706  141.4421  163.6037 H   0  0  0  0  0  0  0  0  0  0  0  0
  152.3692  144.3659  162.2708 H   0  0  0  0  0  0  0  0  0  0  0  0
  149.9204  144.8301  158.0100 H   0  0  0  0  0  0  0  0  0  0  0  0
  150.9101  143.1577  156.2047 H   0  0  0  0  0  0  0  0  0  0  0  0
  151.7648  141.7554  156.8304 H   0  0  0  0  0  0  0  0  0  0  0  0
  148.8811  142.1506  157.6181 H   0  0  0  0  0  0  0  0  0  0  0  0
  149.4672  140.4013  158.4916 H   0  0  0  0  0  0  0  0  0  0  0  0
  149.2910  142.2251  154.9813 H   0  0  0  0  0  0  0  0  0  0  0  0
  149.2664  140.5078  155.1575 H   0  0  0  0  0  0  0  0  0  0  0  0
  145.8488  142.3225  154.5375 H   0  0  0  0  0  0  0  0  0  0  0  0
  147.3811  143.0915  154.2591 H   0  0  0  0  0  0  0  0  0  0  0  0
  146.6553  141.7951  152.2747 H   0  0  0  0  0  0  0  0  0  0  0  0
  148.1466  141.1180  152.8991 H   0  0  0  0  0  0  0  0  0  0  0  0
  145.9809  139.6495  151.2397 H   0  0  0  0  0  0  0  0  0  0  0  0
  147.5178  139.0025  151.7541 H   0  0  0  0  0  0  0  0  0  0  0  0
  145.9928  137.1381  151.3492 H   0  0  0  0  0  0  0  0  0  0  0  0
  146.2029  137.2029  153.0840 H   0  0  0  0  0  0  0  0  0  0  0  0
  144.1864  138.8080  152.1759 H   0  0  0  0  0  0  0  0  0  0  0  0
  146.3455  138.3491  154.6779 H   0  0  0  0  0  0  0  0  0  0  0  0
  147.9529  138.9528  154.3605 H   0  0  0  0  0  0  0  0  0  0  0  0
  147.1344  139.6399  156.6181 H   0  0  0  0  0  0  0  0  0  0  0  0
  145.7126  140.3398  155.9267 H   0  0  0  0  0  0  0  0  0  0  0  0
  152.8267  140.8117  158.8020 H   0  0  0  0  0  0  0  0  0  0  0  0
  154.3500  139.6046  160.1433 H   0  0  0  0  0  0  0  0  0  0  0  0
  153.9253  139.6556  161.8541 H   0  0  0  0  0  0  0  0  0  0  0  0
  155.3293  140.5541  161.2582 H   0  0  0  0  0  0  0  0  0  0  0  0
  145.4387  140.1565  153.4457 H   0  0  0  0  0  0  0  0  0  0  0  0
  1  2  1  0  0  0  0
  1 25  1  0  0  0  0
  1 26  1  0  0  0  0
  1 27  1  0  0  0  0
  2 23  1  0  0  0  0
  2  3  2  0  0  0  0
  3  4  1  0  0  0  0
  3 28  1  0  0  0  0
  4 21  2  0  0  0  0
  4  5  1  0  0  0  0
  5  6  2  0  0  0  0
  6  7  1  0  0  0  0
  6 29  1  0  0  0  0
  7  8  1  0  0  0  0
  7 21  1  0  0  0  0
  8  9  1  0  0  0  0
  8 30  1  0  0  0  0
  8 31  1  0  0  0  0
  9 10  1  0  0  0  0
  9 11  1  0  0  0  0
  9 32  1  0  0  0  0
 10 33  1  0  0  0  0
 11 12  1  0  0  0  0
 11 34  1  0  0  0  0
 11 35  1  0  0  0  0
 12 20  1  0  0  0  0
 12 13  1  0  0  0  0
 13 14  1  0  0  0  0
 13 36  1  0  0  0  0
 13 37  1  0  0  0  0
 14 15  1  0  0  0  0
 14 38  1  0  0  0  0
 14 39  1  0  0  0  0
 15 16  1  0  0  0  0
 15 19  1  0  0  0  0
 15 53  1  0  0  0  0
 16 17  1  0  0  0  0
 16 40  1  0  0  0  0
 16 41  1  0  0  0  0
 17 18  1  0  0  0  0
 17 42  1  0  0  0  0
 17 43  1  0  0  0  0
 18 44  1  0  0  0  0
 19 20  1  0  0  0  0
 19 45  1  0  0  0  0
 19 46  1  0  0  0  0
 20 47  1  0  0  0  0
 20 48  1  0  0  0  0
 21 22  1  0  0  0  0
 22 23  2  0  0  0  0
 22 49  1  0  0  0  0
 23 24  1  0  0  0  0
 24 50  1  0  0  0  0
 24 51  1  0  0  0  0
 24 52  1  0  0  0  0
M  CHG  1  15   1
M  END
> <s_m_source_file>
AV-unprocessed.smi

> <i_m_source_file_index>
1046

> <i_lp_mmshare_version>
43012

> <i_f3d_flags>
0

> <s_epik_input>
W0NIM11jKFtjSF0xKWMoW0NIM10pW2NIXWMoYzEyKW4oW2NIXW4yKVtDSDJdW0NASF0oW09IXSlbQ0gyXU4zW0NIMl1bQ0gyXU4oW0NIMl1bQ0gyXTMpW0NIMl1bQ0gyXVtPSF0=

> <s_epik_cmdline>
J2VwaWtfcHl0aG9uJywgJy1waCcsICc3LjAnLCAnLXRuJywgJzgnLCAnLW1hJywgJzIwMCcsICctbWV0YWxfYmluZGluZycsICctaW1hZScsICc8aW5maWxlLm1hZT4nLCAnLW9tYWUnLCAnPG91dGZpbGUubWFlPic=

> <r_epik_Ionization_Penalty>
0.218081

> <r_epik_Ionization_Penalty_Charging>
0.0909554

> <r_epik_Ionization_Penalty_Neutral>
0.127126

> <r_epik_State_Penalty>
0.825642

> <r_epik_Charging_Adjusted_Penalty>
0.916597

> <i_epik_Tot_Q>
1

> <i_epik_Tot_abs_Q>
1

> <r_epik_Metal_State_Penalty>
0.740189

> <b_epik_Metal_Only>
0

> <s_lp_Force_Field>
OPLS_2005

> <r_lp_Energy>
40.3597

> <b_lp_Chiralities_Consistent>
1

> <s_lp_Variant>
AV-unprocessed.smi:1046-3

> <Gold.Version>
5.8.1

> <Gold.Id.Protein>
6NUR|6NUR_protein|mol2

> <Gold.PLP.Fitness>
60.8735

> <Gold.PLP.PLP>
-52.4371

> <Gold.PLP.part.hbond>
-3.0000

> <Gold.PLP.part.metal>
0.0000

> <Gold.PLP.part.buried>
-6.7559

> <Gold.PLP.part.nonpolar>
-44.9397

> <Gold.PLP.part.repulsive>
0.2251

> <Gold.PLP.ligand.clash>
0.0000

> <Gold.PLP.ligand.torsion>
1.5433

> <Gold.PLP.Chemscore.Hbond>
2.8377

> <Gold.PLP.Chemscore.CHOScore>
0.9244

> <Gold.PLP.Chemscore.Metal>
0.0000

> <Gold.Chemscore.Hbonds>
donor molecule, donor type, donor heavy atom, donor atom, acceptor molecule, acceptor atom, score
      L1  H    15    53       P1 10175  1.68
      L1  H    18    44       P1 10175  1.00
      L1  C     6    29       P1  8028  0.40
      L1  C     6    29       P1  8029  0.67

> <Gold.PLP.Chemscore.Internal.Correction>
0.2367

> <Gold.Rescore>
     Score         DG    S(hbond)    S(metal)    S(lipo)     H(rot)  DE(clash)    DE(int)     intcor
     17.74     -19.92       1.82        0.00     141.52       3.21       0.64       1.54       ----

> <Gold.Chemscore.Fitness>
17.7410

> <Gold.Chemscore.DG>
-19.9199

> <Gold.Chemscore.ZeroCoef>
-5.4800

> <Gold.Chemscore.Hbond>
1.8230

> <Gold.Chemscore.Metal>
0.0000

> <Gold.Chemscore.Lipo>
141.5183

> <Gold.Chemscore.Internal_Hbond>
0.0000

> <Gold.Chemscore.DEClash>
0.6403

> <Gold.Chemscore.DEInternal>
1.5386

> <Gold.Chemscore.Rot>
3.2058

> <Gold.Chemscore.Internal.Correction>
   9.000000E+99

> <Gold.Chemscore.Hbonds>
donor molecule, donor type, donor heavy atom, donor atom, acceptor molecule, acceptor atom, score
      L1  H    15    53       P1 10175  0.78
      L1  H    18    44       P1 10175  0.99

> <Gold.Chemscore.Hbond.Weighted>
-6.0890

> <Gold.Chemscore.Metal.Weighted>
-0.0000

> <Gold.Chemscore.Lipo.Weighted>
-16.5576

> <Gold.Chemscore.Internal_Hbond.Weighted>
0.0000

> <Gold.Chemscore.DEClash.Weighted>
0.6403

> <Gold.Chemscore.DEInternal.Weighted>
1.5386

> <Gold.Chemscore.Rot.Weighted>
8.2067

> <Gold.Chemscore.Internal.Correction.Weighted>
   9.000000E+99

> <Gold.Protein.RotatedTorsions>
[ 6907 6896 6895 6894 ] final   -5.12 input  -60.11 | X-H torsion
[ 7974 7965 7964 7962 ] final -174.38 input  175.53 | X-H torsion
[ 8008 7997 7996 7995 ] final -150.18 input   59.86 | X-H torsion
[ 10167 10162 10161 10158 ] final  -33.27 input  -65.29 | X-H torsion
[ 10718 10713 10712 10709 ] final -101.63 input   66.30 | X-H torsion
[ 10763 10752 10751 10750 ] final  -52.79 input  -60.55 | X-H torsion
[ 11005 11000 10999 10996 ] final   -1.12 input  -57.11 | X-H torsion

> <Gold.Protein.ActiveResidues>
 VAL166  LYS551  ARG553  GLY616  TRP617  ASP618  TYR619  PRO620  LYS621  CYS622 
 ASP623  PHE694  ASN695  SER759  ASP760  ASP761  ALA762  ILE779  LEU786  VAL792 
 PHE793  MET794  SER795  GLU796  ALA797  LYS798  CYS799  TRP800  GLU811  SER814 

> <Gold.Protein.RotatedAtoms>
  151.4866  135.1055  159.9791 H   0  0  0  0  0  0  0  0  0  0  0  0  # atno 6907 bound_to 6896
  152.4758  133.8130  159.7024 H   0  0  0  0  0  0  0  0  0  0  0  0  # atno 6908 bound_to 6896
  150.8795  133.7330  159.2963 H   0  0  0  0  0  0  0  0  0  0  0  0  # atno 6909 bound_to 6896
  144.7132  140.1481  143.6386 H   0  0  0  0  0  0  0  0  0  0  0  0  # atno 7974 bound_to 7965
  155.6194  140.0680  157.2682 H   0  0  0  0  0  0  0  0  0  0  0  0  # atno 8008 bound_to 7997
  154.4233  140.1787  156.1404 H   0  0  0  0  0  0  0  0  0  0  0  0  # atno 8009 bound_to 7997
  156.0021  140.3335  155.6859 H   0  0  0  0  0  0  0  0  0  0  0  0  # atno 8010 bound_to 7997
  140.7207  143.3633  151.1920 H   0  0  0  0  0  0  0  0  0  0  0  0  # atno 10167 bound_to 10162
  156.0201  130.5382  150.6991 H   0  0  0  0  0  0  0  0  0  0  0  0  # atno 10718 bound_to 10713
  154.1485  135.6494  153.4958 H   0  0  0  0  0  0  0  0  0  0  0  0  # atno 10763 bound_to 10752
  153.0145  135.5332  154.6833 H   0  0  0  0  0  0  0  0  0  0  0  0  # atno 10764 bound_to 10752
  154.6114  135.2954  155.0399 H   0  0  0  0  0  0  0  0  0  0  0  0  # atno 10765 bound_to 10752
  140.6438  133.9465  155.8341 H   0  0  0  0  0  0  0  0  0  0  0  0  # atno 11005 bound_to 11000
  145.9142  139.2505  143.1420 LP  0  0  0  0  0  0  0  0  0  0  0  0  # atno 17320 bound_to 7965
  145.9686  140.8778  143.0174 LP  0  0  0  0  0  0  0  0  0  0  0  0  # atno 17321 bound_to 7965
  139.7189  143.9255  152.2978 LP  0  0  0  0  0  0  0  0  0  0  0  0  # atno 17342 bound_to 10162
  139.9005  144.6914  150.8670 LP  0  0  0  0  0  0  0  0  0  0  0  0  # atno 17343 bound_to 10162
  157.4655  131.0887  151.0699 LP  0  0  0  0  0  0  0  0  0  0  0  0  # atno 17370 bound_to 10713
  157.1175  130.6047  149.5497 LP  0  0  0  0  0  0  0  0  0  0  0  0  # atno 17371 bound_to 10713
  141.0587  134.0378  157.3688 LP  0  0  0  0  0  0  0  0  0  0  0  0  # atno 17394 bound_to 11000
  139.9070  135.0182  156.7530 LP  0  0  0  0  0  0  0  0  0  0  0  0  # atno 17395 bound_to 11000

$$$$
