#       Name:                AV-unprocessed.smi:890
#       Creating user name   scv26
#       Creation time:       Fri Mar 27 01:54:40 2020


#       File generated by GOLD software.
#

@<TRIPOS>MOLECULE
AV-unprocessed.smi:890
    56    59     1
SMALL
NO_CHARGES


@<TRIPOS>ATOM
      1 ****         1.4734   1.9985   0.6523 O.2            1 S1                 0.0000
      2 ****         1.0845   0.8478   0.8501 C.2            1 S1                 0.0000
      3 ****         1.8758  -0.2233   1.0263 N.am           1 S1                 0.0000
      4 ****         3.2980  -0.2963   0.9818 C.ar           1 S1                 0.0000
      5 ****         4.1302   0.8051   1.3002 C.ar           1 S1                 0.0000
      6 ****         5.5266   0.6447   1.2634 C.ar           1 S1                 0.0000
      7 ****         6.0446  -0.6156   0.9189 C.ar           1 S1                 0.0000
      8 ****         5.2669  -1.6776   0.6274 N.ar           1 S1                 0.0000
      9 ****         3.9193  -1.5345   0.6630 C.ar           1 S1                 0.0000
     10 ****         3.1326  -2.6560   0.3240 N.3            1 S1                 0.0000
     11 ****         2.5674  -2.5863  -1.0211 C.3            1 S1                 0.0000
     12 ****         2.6202  -4.0057  -1.5905 C.3            1 S1                 0.0000
     13 ****         3.7849  -4.6371  -0.8382 C.3            1 S1                 0.0000
     14 ****         3.6653  -3.9997   0.5445 C.3            1 S1                 0.0000
     15 ****        -0.2110   0.5048   0.8975 N.am           1 S1                 0.0000
     16 ****        -1.3307   1.4288   0.7420 C.3            1 S1                 0.0000
     17 ****        -2.6112   0.8009   1.3169 C.3            1 S1                 0.0000
     18 ****        -3.8256   1.7194   1.0990 C.3            1 S1                 0.0000
     19 ****        -4.0016   2.0389  -0.3396 N.4            1 S1                 1.0000
     20 ****        -5.2239   2.8335  -0.5899 C.3            1 S1                 0.0000
     21 ****        -6.4812   2.0022  -0.6975 C.3            1 S1                 0.0000
     22 ****        -5.8456   2.5788  -1.9432 C.3            1 S1                 0.0000
     23 ****        -2.7930   2.6817  -0.9122 C.3            1 S1                 0.0000
     24 ****        -1.5550   1.7865  -0.7400 C.3            1 S1                 0.0000
     25 ****         1.4061  -1.1136   1.1040 H              1 S1                 0.0000
     26 ****         3.7266   1.7634   1.5877 H              1 S1                 0.0000
     27 ****         6.1845   1.4679   1.4995 H              1 S1                 0.0000
     28 ****         7.1116  -0.7774   0.8810 H              1 S1                 0.0000
     29 ****         1.5456  -2.2067  -0.9983 H              1 S1                 0.0000
     30 ****         3.1590  -1.9133  -1.6443 H              1 S1                 0.0000
     31 ****         1.6974  -4.5359  -1.3512 H              1 S1                 0.0000
     32 ****         2.7496  -4.0235  -2.6729 H              1 S1                 0.0000
     33 ****         3.7385  -5.7261  -0.8106 H              1 S1                 0.0000
     34 ****         4.7287  -4.3466  -1.3020 H              1 S1                 0.0000
     35 ****         4.6092  -4.0291   1.0891 H              1 S1                 0.0000
     36 ****         2.9387  -4.5487   1.1443 H              1 S1                 0.0000
     37 ****        -0.4381  -0.4654   1.0606 H              1 S1                 0.0000
     38 ****        -1.1145   2.3415   1.3014 H              1 S1                 0.0000
     39 ****        -2.7980  -0.1639   0.8422 H              1 S1                 0.0000
     40 ****        -2.4860   0.6026   2.3821 H              1 S1                 0.0000
     41 ****        -4.7237   1.2303   1.4776 H              1 S1                 0.0000
     42 ****        -3.7052   2.6437   1.6664 H              1 S1                 0.0000
     43 ****        -5.2547   3.8271  -0.1459 H              1 S1                 0.0000
     44 ****        -6.4043   0.9270  -0.5466 H              1 S1                 0.0000
     45 ****        -7.4119   2.4533  -0.3592 H              1 S1                 0.0000
     46 ****        -6.3573   3.4097  -2.4248 H              1 S1                 0.0000
     47 ****        -5.3468   1.8857  -2.6186 H              1 S1                 0.0000
     48 ****        -2.9525   2.8819  -1.9724 H              1 S1                 0.0000
     49 ****        -2.6286   3.6464  -0.4292 H              1 S1                 0.0000
     50 ****        -0.6799   2.2968  -1.1439 H              1 S1                 0.0000
     51 ****        -1.6800   0.8759  -1.3279 H              1 S1                 0.0000
     52 ****        -4.1230   1.1599  -0.8222 H              1 S1                 0.0000
     53 ****         2.4530   2.1952   0.6122 LP             1 S1                 0.0000
     54 ****         0.8097   2.7367   0.5316 LP             1 S1                 0.0000
     55 ****         5.6778  -2.5575   0.3886 LP             1 S1                 0.0000
     56 ****         2.4258  -2.5549   1.0242 LP             1 S1                 0.0000
@<TRIPOS>BOND
    1    1    2 2     
    2    2    3 am    
    3    2   15 am    
    4    3    4 1     
    5    3   25 1     
    6    4    9 ar    
    7    4    5 ar    
    8    5    6 ar    
    9    5   26 1     
   10    6    7 ar    
   11    6   27 1     
   12    7    8 ar    
   13    7   28 1     
   14    8    9 ar    
   15    9   10 1     
   16   10   14 1     
   17   10   11 1     
   18   11   12 1     
   19   11   29 1     
   20   11   30 1     
   21   12   13 1     
   22   12   31 1     
   23   12   32 1     
   24   13   14 1     
   25   13   33 1     
   26   13   34 1     
   27   14   35 1     
   28   14   36 1     
   29   15   16 1     
   30   15   37 1     
   31   16   24 1     
   32   16   17 1     
   33   16   38 1     
   34   17   18 1     
   35   17   39 1     
   36   17   40 1     
   37   18   19 1     
   38   18   41 1     
   39   18   42 1     
   40   19   20 1     
   41   19   23 1     
   42   19   52 1     
   43   20   22 1     
   44   20   21 1     
   45   20   43 1     
   46   21   22 1     
   47   21   44 1     
   48   21   45 1     
   49   22   46 1     
   50   22   47 1     
   51   23   24 1     
   52   23   48 1     
   53   23   49 1     
   54   24   50 1     
   55   24   51 1     
   56    1   53 1     
   57    1   54 1     
   58    8   55 1     
   59   10   56 1     
@<TRIPOS>SUBSTRUCTURE
      1 S1             1
@<TRIPOS>SET
LONE_PAIRS      STATIC     ATOMS    <user>   **** ""
4 53 54 55 56
DONOR_HYDROGENS      STATIC     ATOMS    <user>   **** ""
3 25 37 52
ATOM$BLUE        STATIC     ATOMS    COLORGROUP SYSTEM
4 53 54 55 56
ATOM$RED        STATIC     ATOMS    COLORGROUP SYSTEM
3 25 37 52
