AV-unprocessed.smi:1856|AV-procd|sdf|7536|dock1
  -GOLD-   22720 9253D 1   1.00000     0.00000
 Structure written by MMmdl.
 44 45  0  0  0  0  0  0  0  0  1 V2000
  154.4671  133.7949  164.2377 C   0  0  0  0  0  0  0  0  0  0  0  0
  155.1889  135.1477  164.3334 C   0  0  0  0  0  0  0  0  0  0  0  0
  154.2796  136.3798  164.1513 C   0  0  0  0  0  0  0  0  0  0  0  0
  155.0176  137.7196  164.2501 C   0  0  0  0  0  0  0  0  0  0  0  0
  155.4235  138.1317  165.3366 O   0  0  0  0  0  0  0  0  0  0  0  0
  155.1987  138.3874  163.0995 N   0  0  0  0  0  0  0  0  0  0  0  0
  155.8604  139.6841  162.9744 C   0  0  1  0  0  0  0  0  0  0  0  0
  157.1538  139.5478  162.1592 C   0  0  0  0  0  0  0  0  0  0  0  0
  154.8927  140.6567  162.3464 C   0  0  0  0  0  0  0  0  0  0  0  0
  154.4324  141.7191  163.0128 N   0  0  0  0  0  0  0  0  0  0  0  0
  153.5991  142.3229  162.0938 C   0  0  0  0  0  0  0  0  0  0  0  0
  152.8091  143.4899  162.1994 C   0  0  0  0  0  0  0  0  0  0  0  0
  152.0210  143.9190  161.1117 C   0  0  0  0  0  0  0  0  0  0  0  0
  152.0115  143.1888  159.9058 C   0  0  0  0  0  0  0  0  0  0  0  0
  152.7931  142.0245  159.7795 C   0  0  0  0  0  0  0  0  0  0  0  0
  153.5789  141.6003  160.8683 C   0  0  0  0  0  0  0  0  0  0  0  0
  154.4386  140.5244  161.0722 N   0  0  0  0  0  0  0  0  0  0  0  0
  154.7605  139.4930  160.0945 C   0  0  0  0  0  0  0  0  0  0  0  0
  153.5475  138.6163  159.7256 C   0  0  1  0  0  0  0  0  0  0  0  0
  153.6903  137.8896  158.3788 C   0  0  0  0  0  0  0  0  0  0  0  0
  153.3666  137.6529  160.7415 O   0  0  0  0  0  0  0  0  0  0  0  0
  155.1471  132.9790  164.4832 H   0  0  0  0  0  0  0  0  0  0  0  0
  154.0852  133.6060  163.2352 H   0  0  0  0  0  0  0  0  0  0  0  0
  153.6284  133.7461  164.9326 H   0  0  0  0  0  0  0  0  0  0  0  0
  155.6610  135.2141  165.3142 H   0  0  0  0  0  0  0  0  0  0  0  0
  156.0051  135.1770  163.6102 H   0  0  0  0  0  0  0  0  0  0  0  0
  153.7679  136.3299  163.1896 H   0  0  0  0  0  0  0  0  0  0  0  0
  153.4963  136.3517  164.9105 H   0  0  0  0  0  0  0  0  0  0  0  0
  154.8330  137.9798  162.2514 H   0  0  0  0  0  0  0  0  0  0  0  0
  156.1445  140.0177  163.9712 H   0  0  0  0  0  0  0  0  0  0  0  0
  157.6608  140.5089  162.0697 H   0  0  0  0  0  0  0  0  0  0  0  0
  156.9554  139.1823  161.1510 H   0  0  0  0  0  0  0  0  0  0  0  0
  157.8458  138.8526  162.6355 H   0  0  0  0  0  0  0  0  0  0  0  0
  152.8086  144.0554  163.1195 H   0  0  0  0  0  0  0  0  0  0  0  0
  151.4200  144.8119  161.2036 H   0  0  0  0  0  0  0  0  0  0  0  0
  151.4041  143.5232  159.0777 H   0  0  0  0  0  0  0  0  0  0  0  0
  152.7846  141.4638  158.8569 H   0  0  0  0  0  0  0  0  0  0  0  0
  155.1512  139.9786  159.1998 H   0  0  0  0  0  0  0  0  0  0  0  0
  155.5810  138.8849  160.4759 H   0  0  0  0  0  0  0  0  0  0  0  0
  152.6485  139.2321  159.6968 H   0  0  0  0  0  0  0  0  0  0  0  0
  153.7579  138.5954  157.5506 H   0  0  0  0  0  0  0  0  0  0  0  0
  152.8298  137.2477  158.1866 H   0  0  0  0  0  0  0  0  0  0  0  0
  154.5842  137.2655  158.3575 H   0  0  0  0  0  0  0  0  0  0  0  0
  153.4708  136.7930  160.3634 H   0  0  0  0  0  0  0  0  0  0  0  0
  1  2  1  0  0  0  0
  1 22  1  0  0  0  0
  1 23  1  0  0  0  0
  1 24  1  0  0  0  0
  2  3  1  0  0  0  0
  2 25  1  0  0  0  0
  2 26  1  0  0  0  0
  3  4  1  0  0  0  0
  3 27  1  0  0  0  0
  3 28  1  0  0  0  0
  4  5  2  0  0  0  0
  4  6  1  0  0  0  0
  6  7  1  0  0  0  0
  6 29  1  0  0  0  0
  7  8  1  0  0  0  0
  7  9  1  0  0  0  0
  7 30  1  0  0  0  0
  8 31  1  0  0  0  0
  8 32  1  0  0  0  0
  8 33  1  0  0  0  0
  9 17  1  0  0  0  0
  9 10  2  0  0  0  0
 10 11  1  0  0  0  0
 11 16  2  0  0  0  0
 11 12  1  0  0  0  0
 12 13  2  0  0  0  0
 12 34  1  0  0  0  0
 13 14  1  0  0  0  0
 13 35  1  0  0  0  0
 14 15  2  0  0  0  0
 14 36  1  0  0  0  0
 15 16  1  0  0  0  0
 15 37  1  0  0  0  0
 16 17  1  0  0  0  0
 17 18  1  0  0  0  0
 18 19  1  0  0  0  0
 18 38  1  0  0  0  0
 18 39  1  0  0  0  0
 19 20  1  0  0  0  0
 19 21  1  0  0  0  0
 19 40  1  0  0  0  0
 20 41  1  0  0  0  0
 20 42  1  0  0  0  0
 20 43  1  0  0  0  0
 21 44  1  0  0  0  0
M  END
> <s_m_source_file>
AV-unprocessed.smi

> <i_m_source_file_index>
1856

> <i_lp_mmshare_version>
43012

> <i_f3d_flags>
0

> <s_epik_input>
W0NIM11bQ0gyXVtDSDJdQyg9TylbTkhdW0NASF0oW0NIM10pYyhuMSluKFtDSDJdW0NASF0oW0NIM10pW09IXSljKGMxMilbY0hdW2NIXVtjSF1bY0hdMg==

> <s_epik_cmdline>
J2VwaWtfcHl0aG9uJywgJy1waCcsICc3LjAnLCAnLXRuJywgJzgnLCAnLW1hJywgJzIwMCcsICctbWV0YWxfYmluZGluZycsICctaW1hZScsICc8aW5maWxlLm1hZT4nLCAnLW9tYWUnLCAnPG91dGZpbGUubWFlPic=

> <r_epik_Ionization_Penalty>
0.134222

> <r_epik_Ionization_Penalty_Charging>
0

> <r_epik_Ionization_Penalty_Neutral>
0.134222

> <r_epik_State_Penalty>
0.123585

> <r_epik_Charging_Adjusted_Penalty>
0.123585

> <i_epik_Tot_Q>
0

> <i_epik_Tot_abs_Q>
0

> <r_epik_Metal_State_Penalty>
0.100548

> <b_epik_Metal_Only>
0

> <s_lp_Force_Field>
OPLS_2005

> <r_lp_Energy>
2.58859

> <b_lp_Chiralities_Consistent>
1

> <s_lp_Variant>
AV-unprocessed.smi:1856-4

> <Gold.Version>
5.8.1

> <Gold.Id.Protein>
6NUR|6NUR_protein|mol2

> <Gold.PLP.Fitness>
44.9704

> <Gold.PLP.PLP>
-45.5695

> <Gold.PLP.part.hbond>
-1.0000

> <Gold.PLP.part.metal>
0.0000

> <Gold.PLP.part.buried>
-4.8992

> <Gold.PLP.part.nonpolar>
-38.6198

> <Gold.PLP.part.repulsive>
0.0943

> <Gold.PLP.ligand.clash>
0.0000

> <Gold.PLP.ligand.torsion>
0.4232

> <Gold.PLP.Chemscore.Hbond>
0.0000

> <Gold.PLP.Chemscore.CHOScore>
0.0000

> <Gold.PLP.Chemscore.Metal>
0.0000

> <Gold.PLP.Chemscore.Internal.Correction>
0.2472

> <Gold.Rescore>
     Score         DG    S(hbond)    S(metal)    S(lipo)     H(rot)  DE(clash)    DE(int)     intcor
     12.32     -12.65       0.00        0.00     114.82       2.45       0.03       0.30       ----

> <Gold.Chemscore.Fitness>
12.3243

> <Gold.Chemscore.DG>
-12.6521

> <Gold.Chemscore.ZeroCoef>
-5.4800

> <Gold.Chemscore.Hbond>
0.0000

> <Gold.Chemscore.Metal>
0.0000

> <Gold.Chemscore.Lipo>
114.8168

> <Gold.Chemscore.Internal_Hbond>
0.0000

> <Gold.Chemscore.DEClash>
0.0303

> <Gold.Chemscore.DEInternal>
0.2975

> <Gold.Chemscore.Rot>
2.4459

> <Gold.Chemscore.Internal.Correction>
   9.000000E+99

> <Gold.Chemscore.Hbond.Weighted>
-0.0000

> <Gold.Chemscore.Metal.Weighted>
-0.0000

> <Gold.Chemscore.Lipo.Weighted>
-13.4336

> <Gold.Chemscore.Internal_Hbond.Weighted>
0.0000

> <Gold.Chemscore.DEClash.Weighted>
0.0303

> <Gold.Chemscore.DEInternal.Weighted>
0.2975

> <Gold.Chemscore.Rot.Weighted>
6.2614

> <Gold.Chemscore.Internal.Correction.Weighted>
   9.000000E+99

> <Gold.Protein.RotatedTorsions>
[ 6907 6896 6895 6894 ] final   47.38 input  -60.11 | X-H torsion
[ 7974 7965 7964 7962 ] final   63.29 input  175.53 | X-H torsion
[ 8008 7997 7996 7995 ] final -110.39 input   59.86 | X-H torsion
[ 10167 10162 10161 10158 ] final  126.83 input  -65.29 | X-H torsion
[ 10718 10713 10712 10709 ] final  132.66 input   66.30 | X-H torsion
[ 10763 10752 10751 10750 ] final -165.18 input  -60.55 | X-H torsion
[ 11005 11000 10999 10996 ] final  -68.23 input  -57.11 | X-H torsion

> <Gold.Protein.ActiveResidues>
 VAL166  LYS551  ARG553  GLY616  TRP617  ASP618  TYR619  PRO620  LYS621  CYS622 
 ASP623  PHE694  ASN695  SER759  ASP760  ASP761  ALA762  ILE779  LEU786  VAL792 
 PHE793  MET794  SER795  GLU796  ALA797  LYS798  CYS799  TRP800  GLU811  SER814 

> <Gold.Protein.RotatedAtoms>
  152.2674  134.7970  160.0419 H   0  0  0  0  0  0  0  0  0  0  0  0  # atno 6907 bound_to 6896
  151.8594  133.3449  159.3707 H   0  0  0  0  0  0  0  0  0  0  0  0  # atno 6908 bound_to 6896
  150.7139  134.5148  159.5669 H   0  0  0  0  0  0  0  0  0  0  0  0  # atno 6909 bound_to 6896
  145.8635  139.3331  143.0804 H   0  0  0  0  0  0  0  0  0  0  0  0  # atno 7974 bound_to 7965
  154.9738  140.0397  157.2246 H   0  0  0  0  0  0  0  0  0  0  0  0  # atno 8008 bound_to 7997
  154.7777  140.2813  155.6066 H   0  0  0  0  0  0  0  0  0  0  0  0  # atno 8009 bound_to 7997
  156.2931  140.2598  156.2595 H   0  0  0  0  0  0  0  0  0  0  0  0  # atno 8010 bound_to 7997
  139.5610  144.6881  151.4043 H   0  0  0  0  0  0  0  0  0  0  0  0  # atno 10167 bound_to 10162
  157.4849  131.1088  150.9633 H   0  0  0  0  0  0  0  0  0  0  0  0  # atno 10718 bound_to 10713
  154.6957  135.2978  154.9415 H   0  0  0  0  0  0  0  0  0  0  0  0  # atno 10763 bound_to 10752
  154.0364  135.6663  153.4789 H   0  0  0  0  0  0  0  0  0  0  0  0  # atno 10764 bound_to 10752
  153.0644  135.5097  154.8073 H   0  0  0  0  0  0  0  0  0  0  0  0  # atno 10765 bound_to 10752
  141.1527  133.6736  156.6415 H   0  0  0  0  0  0  0  0  0  0  0  0  # atno 11005 bound_to 11000
  145.9220  140.9109  143.0400 LP  0  0  0  0  0  0  0  0  0  0  0  0  # atno 17320 bound_to 7965
  144.6726  140.1301  143.7444 LP  0  0  0  0  0  0  0  0  0  0  0  0  # atno 17321 bound_to 7965
  140.6890  143.7907  150.7227 LP  0  0  0  0  0  0  0  0  0  0  0  0  # atno 17342 bound_to 10162
  140.1383  143.4464  152.2210 LP  0  0  0  0  0  0  0  0  0  0  0  0  # atno 17343 bound_to 10162
  157.0354  130.5728  149.5349 LP  0  0  0  0  0  0  0  0  0  0  0  0  # atno 17370 bound_to 10713
  156.0141  130.5235  150.8081 LP  0  0  0  0  0  0  0  0  0  0  0  0  # atno 17371 bound_to 10713
  140.3390  134.7865  157.4383 LP  0  0  0  0  0  0  0  0  0  0  0  0  # atno 17394 bound_to 11000
  140.0954  134.5545  155.8404 LP  0  0  0  0  0  0  0  0  0  0  0  0  # atno 17395 bound_to 11000

$$$$
