AV-unprocessed.smi:1125|AV-procd|sdf|4834|dock5
  -GOLD-   22720 3393D 1   1.00000     0.00000
 Structure written by MMmdl.
 46 47  0  0  0  0  0  0  0  0  2 V2000
  143.4861  133.0489  148.4924 C   0  0  0  0  0  0  0  0  0  0  0  0
  144.6765  133.2806  149.3385 N   0  3  2  0  0  0  0  0  0  0  0  0
  145.1544  132.0369  149.9927 C   0  0  0  0  0  0  0  0  0  0  0  0
  146.4601  132.2846  150.7673 C   0  0  0  0  0  0  0  0  0  0  0  0
  146.2854  133.4109  151.7992 C   0  0  1  0  0  0  0  0  0  0  0  0
  147.5538  133.6681  152.4728 N   0  0  0  0  0  0  0  0  0  0  0  0
  148.1626  132.8274  153.3247 C   0  0  0  0  0  0  0  0  0  0  0  0
  147.6820  131.7485  153.6712 O   0  0  0  0  0  0  0  0  0  0  0  0
  149.5220  133.2702  153.8682 C   0  0  0  0  0  0  0  0  0  0  0  0
  149.3730  134.5359  154.6616 C   0  0  0  0  0  0  0  0  0  0  0  0
  148.4491  134.7891  155.6439 C   0  0  0  0  0  0  0  0  0  0  0  0
  148.6452  136.3795  156.3234 S   0  0  0  0  0  0  0  0  0  0  0  0
  150.0023  136.6601  155.2263 C   0  0  0  0  0  0  0  0  0  0  0  0
  150.8114  137.9329  155.1576 C   0  0  0  0  0  0  0  0  0  0  0  0
  151.4199  138.2410  156.5398 C   0  0  0  0  0  0  0  0  0  0  0  0
  149.9308  139.1371  154.7598 C   0  0  0  0  0  0  0  0  0  0  0  0
  151.9185  137.7905  154.0956 C   0  0  0  0  0  0  0  0  0  0  0  0
  150.2387  135.6096  154.4316 N   0  0  0  0  0  0  0  0  0  0  0  0
  145.7620  134.6766  151.0950 C   0  0  0  0  0  0  0  0  0  0  0  0
  144.4707  134.3795  150.3145 C   0  0  0  0  0  0  0  0  0  0  0  0
  142.6384  132.7155  149.0924 H   0  0  0  0  0  0  0  0  0  0  0  0
  143.6917  132.2888  147.7379 H   0  0  0  0  0  0  0  0  0  0  0  0
  143.1986  133.9633  147.9723 H   0  0  0  0  0  0  0  0  0  0  0  0
  144.3842  131.6597  150.6676 H   0  0  0  0  0  0  0  0  0  0  0  0
  145.3194  131.2671  149.2380 H   0  0  0  0  0  0  0  0  0  0  0  0
  146.7733  131.3656  151.2646 H   0  0  0  0  0  0  0  0  0  0  0  0
  147.2548  132.5419  150.0654 H   0  0  0  0  0  0  0  0  0  0  0  0
  145.5525  133.0852  152.5402 H   0  0  0  0  0  0  0  0  0  0  0  0
  148.0271  134.5315  152.2473 H   0  0  0  0  0  0  0  0  0  0  0  0
  149.9410  132.4700  154.4799 H   0  0  0  0  0  0  0  0  0  0  0  0
  150.2139  133.4186  153.0383 H   0  0  0  0  0  0  0  0  0  0  0  0
  147.6726  134.1352  156.0128 H   0  0  0  0  0  0  0  0  0  0  0  0
  151.9959  139.1670  156.5235 H   0  0  0  0  0  0  0  0  0  0  0  0
  152.0926  137.4475  156.8671 H   0  0  0  0  0  0  0  0  0  0  0  0
  150.6446  138.3483  157.2993 H   0  0  0  0  0  0  0  0  0  0  0  0
  149.1274  139.3028  155.4788 H   0  0  0  0  0  0  0  0  0  0  0  0
  149.4767  138.9981  153.7780 H   0  0  0  0  0  0  0  0  0  0  0  0
  150.5151  140.0567  154.7143 H   0  0  0  0  0  0  0  0  0  0  0  0
  152.5116  138.7019  154.0131 H   0  0  0  0  0  0  0  0  0  0  0  0
  151.4979  137.5808  153.1114 H   0  0  0  0  0  0  0  0  0  0  0  0
  152.6041  136.9783  154.3395 H   0  0  0  0  0  0  0  0  0  0  0  0
  145.5738  135.4656  151.8240 H   0  0  0  0  0  0  0  0  0  0  0  0
  146.5199  135.0623  150.4115 H   0  0  0  0  0  0  0  0  0  0  0  0
  144.1482  135.2797  149.7896 H   0  0  0  0  0  0  0  0  0  0  0  0
  143.6692  134.1102  151.0043 H   0  0  0  0  0  0  0  0  0  0  0  0
  145.4142  133.5818  148.7177 H   0  0  0  0  0  0  0  0  0  0  0  0
  1  2  1  0  0  0  0
  1 21  1  0  0  0  0
  1 22  1  0  0  0  0
  1 23  1  0  0  0  0
  2 20  1  0  0  0  0
  2  3  1  0  0  0  0
  2 46  1  0  0  0  0
  3  4  1  0  0  0  0
  3 24  1  0  0  0  0
  3 25  1  0  0  0  0
  4  5  1  0  0  0  0
  4 26  1  0  0  0  0
  4 27  1  0  0  0  0
  5  6  1  0  0  0  0
  5 19  1  0  0  0  0
  5 28  1  0  0  0  0
  6  7  1  0  0  0  0
  6 29  1  0  0  0  0
  7  8  2  0  0  0  0
  7  9  1  0  0  0  0
  9 10  1  0  0  0  0
  9 30  1  0  0  0  0
  9 31  1  0  0  0  0
 10 18  1  0  0  0  0
 10 11  2  0  0  0  0
 11 12  1  0  0  0  0
 11 32  1  0  0  0  0
 12 13  1  0  0  0  0
 13 14  1  0  0  0  0
 13 18  2  0  0  0  0
 14 15  1  0  0  0  0
 14 16  1  0  0  0  0
 14 17  1  0  0  0  0
 15 33  1  0  0  0  0
 15 34  1  0  0  0  0
 15 35  1  0  0  0  0
 16 36  1  0  0  0  0
 16 37  1  0  0  0  0
 16 38  1  0  0  0  0
 17 39  1  0  0  0  0
 17 40  1  0  0  0  0
 17 41  1  0  0  0  0
 19 20  1  0  0  0  0
 19 42  1  0  0  0  0
 19 43  1  0  0  0  0
 20 44  1  0  0  0  0
 20 45  1  0  0  0  0
M  CHG  1   2   1
M  END
> <s_m_source_file>
AV-unprocessed.smi

> <i_m_source_file_index>
1125

> <i_lp_mmshare_version>
43012

> <i_f3d_flags>
0

> <s_epik_input>
W0NIM11OMVtDSDJdW0NIMl1bQ0hdKFtDSDJdW0NIMl0xKVtOSF1DKD1PKVtDSDJdYzJbY0hdc2MobjIpQyhbQ0gzXSkoW0NIM10pW0NIM10=

> <s_epik_cmdline>
J2VwaWtfcHl0aG9uJywgJy1waCcsICc3LjAnLCAnLXRuJywgJzgnLCAnLW1hJywgJzIwMCcsICctbWV0YWxfYmluZGluZycsICctaW1hZScsICc8aW5maWxlLm1hZT4nLCAnLW9tYWUnLCAnPG91dGZpbGUubWFlPic=

> <r_epik_Ionization_Penalty>
0.00829478

> <r_epik_Ionization_Penalty_Charging>
0.0082618

> <r_epik_Ionization_Penalty_Neutral>
3.29858e-05

> <r_epik_State_Penalty>
0.00621662

> <r_epik_Charging_Adjusted_Penalty>
0.0144784

> <i_epik_Tot_Q>
1

> <i_epik_Tot_abs_Q>
1

> <r_epik_Metal_State_Penalty>
0.00621672

> <b_epik_Metal_Only>
0

> <s_lp_Force_Field>
OPLS_2005

> <r_lp_Energy>
7.4161

> <b_lp_Chiralities_Consistent>
1

> <s_lp_Variant>
AV-unprocessed.smi:1125-1

> <Gold.Version>
5.8.1

> <Gold.Id.Protein>
6NUR|6NUR_protein|mol2

> <Gold.PLP.Fitness>
38.0390

> <Gold.PLP.PLP>
-32.4963

> <Gold.PLP.part.hbond>
-2.0000

> <Gold.PLP.part.metal>
0.0000

> <Gold.PLP.part.buried>
-0.5130

> <Gold.PLP.part.nonpolar>
-31.4858

> <Gold.PLP.part.repulsive>
2.0125

> <Gold.PLP.ligand.clash>
0.0000

> <Gold.PLP.ligand.torsion>
0.2259

> <Gold.PLP.Chemscore.Hbond>
1.9920

> <Gold.PLP.Chemscore.CHOScore>
0.0000

> <Gold.PLP.Chemscore.Metal>
0.0000

> <Gold.Chemscore.Hbonds>
donor molecule, donor type, donor heavy atom, donor atom, acceptor molecule, acceptor atom, score
      L1  H     2    46       P1  7921  1.00
      L1  H     6    29       P1  7948  1.00

> <Gold.PLP.Chemscore.Internal.Correction>
0.0185

> <Gold.Rescore>
     Score         DG    S(hbond)    S(metal)    S(lipo)     H(rot)  DE(clash)    DE(int)     intcor
     15.82     -17.96       1.78        0.00      86.48       1.40       1.84       0.30       ----

> <Gold.Chemscore.Fitness>
15.8243

> <Gold.Chemscore.DG>
-17.9609

> <Gold.Chemscore.ZeroCoef>
-5.4800

> <Gold.Chemscore.Hbond>
1.7830

> <Gold.Chemscore.Metal>
0.0000

> <Gold.Chemscore.Lipo>
86.4753

> <Gold.Chemscore.Internal_Hbond>
0.0000

> <Gold.Chemscore.DEClash>
1.8399

> <Gold.Chemscore.DEInternal>
0.2967

> <Gold.Chemscore.Rot>
1.4030

> <Gold.Chemscore.Internal.Correction>
   9.000000E+99

> <Gold.Chemscore.Hbonds>
donor molecule, donor type, donor heavy atom, donor atom, acceptor molecule, acceptor atom, score
      L1  H     2    46       P1  7921  0.38
      L1  H     6    29       P1  7948  0.30

> <Gold.Chemscore.Hbond.Weighted>
-5.9551

> <Gold.Chemscore.Metal.Weighted>
-0.0000

> <Gold.Chemscore.Lipo.Weighted>
-10.1176

> <Gold.Chemscore.Internal_Hbond.Weighted>
0.0000

> <Gold.Chemscore.DEClash.Weighted>
1.8399

> <Gold.Chemscore.DEInternal.Weighted>
0.2967

> <Gold.Chemscore.Rot.Weighted>
3.5917

> <Gold.Chemscore.Internal.Correction.Weighted>
   9.000000E+99

> <Gold.Protein.RotatedTorsions>
[ 6907 6896 6895 6894 ] final   51.06 input  -60.11 | X-H torsion
[ 7974 7965 7964 7962 ] final   89.01 input  175.53 | X-H torsion
[ 8008 7997 7996 7995 ] final  133.79 input   59.86 | X-H torsion
[ 10167 10162 10161 10158 ] final  -18.23 input  -65.29 | X-H torsion
[ 10718 10713 10712 10709 ] final   17.47 input   66.30 | X-H torsion
[ 10763 10752 10751 10750 ] final  -55.25 input  -60.55 | X-H torsion
[ 11005 11000 10999 10996 ] final  -69.17 input  -57.11 | X-H torsion

> <Gold.Protein.ActiveResidues>
 VAL166  LYS551  ARG553  GLY616  TRP617  ASP618  TYR619  PRO620  LYS621  CYS622 
 ASP623  PHE694  ASN695  SER759  ASP760  ASP761  ALA762  ILE779  LEU786  VAL792 
 PHE793  MET794  SER795  GLU796  ALA797  LYS798  CYS799  TRP800  GLU811  SER814 

> <Gold.Protein.RotatedAtoms>
  152.3086  134.7525  160.0341 H   0  0  0  0  0  0  0  0  0  0  0  0  # atno 6907 bound_to 6896
  151.8013  133.3365  159.3536 H   0  0  0  0  0  0  0  0  0  0  0  0  # atno 6908 bound_to 6896
  150.7309  134.5681  159.5921 H   0  0  0  0  0  0  0  0  0  0  0  0  # atno 6909 bound_to 6896
  145.5381  139.2287  143.2581 H   0  0  0  0  0  0  0  0  0  0  0  0  # atno 7974 bound_to 7965
  156.2995  140.2512  156.3310 H   0  0  0  0  0  0  0  0  0  0  0  0  # atno 8008 bound_to 7997
  154.9145  140.0402  157.1983 H   0  0  0  0  0  0  0  0  0  0  0  0  # atno 8009 bound_to 7997
  154.8372  140.2885  155.5687 H   0  0  0  0  0  0  0  0  0  0  0  0  # atno 8010 bound_to 7997
  140.7256  143.4937  150.9959 H   0  0  0  0  0  0  0  0  0  0  0  0  # atno 10167 bound_to 10162
  157.0826  130.6394  149.5830 H   0  0  0  0  0  0  0  0  0  0  0  0  # atno 10718 bound_to 10713
  154.1878  135.6432  153.5051 H   0  0  0  0  0  0  0  0  0  0  0  0  # atno 10763 bound_to 10752
  153.0042  135.5421  154.6446 H   0  0  0  0  0  0  0  0  0  0  0  0  # atno 10764 bound_to 10752
  154.5827  135.2927  155.0689 H   0  0  0  0  0  0  0  0  0  0  0  0  # atno 10765 bound_to 10752
  141.1548  133.6758  156.6559 H   0  0  0  0  0  0  0  0  0  0  0  0  # atno 11005 bound_to 11000
  146.2000  140.6200  142.9107 LP  0  0  0  0  0  0  0  0  0  0  0  0  # atno 17320 bound_to 7965
  144.7591  140.5379  143.6748 LP  0  0  0  0  0  0  0  0  0  0  0  0  # atno 17321 bound_to 7965
  139.8642  143.7275  152.3171 LP  0  0  0  0  0  0  0  0  0  0  0  0  # atno 17342 bound_to 10162
  139.7501  144.7536  151.0520 LP  0  0  0  0  0  0  0  0  0  0  0  0  # atno 17343 bound_to 10162
  155.9919  130.4975  150.7319 LP  0  0  0  0  0  0  0  0  0  0  0  0  # atno 17370 bound_to 10713
  157.4787  131.0900  151.0561 LP  0  0  0  0  0  0  0  0  0  0  0  0  # atno 17371 bound_to 10713
  140.3285  134.7949  157.4307 LP  0  0  0  0  0  0  0  0  0  0  0  0  # atno 17394 bound_to 11000
  140.1037  134.5438  155.8329 LP  0  0  0  0  0  0  0  0  0  0  0  0  # atno 17395 bound_to 11000

$$$$
