#       Name:                AV-unprocessed.smi:3138
#       Creating user name   scv26
#       Creation time:       Fri Mar 27 17:35:17 2020


#       File generated by GOLD software.
#

@<TRIPOS>MOLECULE
AV-unprocessed.smi:3138
    41    42     1
SMALL
NO_CHARGES


@<TRIPOS>ATOM
      1 ****        -0.8712  -0.5199  -1.7189 O.2            1 S1                 0.0000
      2 ****        -0.4331   0.5316  -1.2479 C.2            1 S1                 0.0000
      3 ****         0.8891   0.4960  -0.4662 C.3            1 S1                 0.0000
      4 ****         1.4273  -0.8730  -0.3286 N.4            1 S1                 1.0000
      5 ****         2.6946  -0.9518   0.4244 C.3            1 S1                 0.0000
      6 ****         3.1757  -2.4065   0.5675 C.3            1 S1                 0.0000
      7 ****         2.2327  -3.2493   1.2837 N.pl3          1 S1                 0.0000
      8 ****         1.6942  -4.4565   0.8893 C.2            1 S1                 0.0000
      9 ****         0.8790  -4.8871   1.8965 C.2            1 S1                 0.0000
     10 ****         0.9949  -3.8699   2.8844 C.2            1 S1                 0.0000
     11 ****         1.8101  -2.8944   2.5168 N.2            1 S1                 0.0000
     12 ****        -1.0787   1.7144  -1.3936 N.am           1 S1                 0.0000
     13 ****        -0.6500   2.9974  -0.8187 C.3            1 S1                 0.0000
     14 ****        -1.6292   3.3897   0.3025 C.3            1 S1                 0.0000
     15 ****        -3.0750   3.4472  -0.2264 C.3            1 S1                 0.0000
     16 ****        -3.4505   2.1680  -0.9986 C.3            1 S1                 0.0000
     17 ****        -2.3844   1.8293  -2.0570 C.3            1 S1                 0.0000
     18 ****         1.6268   1.1162  -0.9772 H              1 S1                 0.0000
     19 ****         0.7300   0.9092   0.5310 H              1 S1                 0.0000
     20 ****         0.7371  -1.4367   0.1476 H              1 S1                 0.0000
     21 ****         3.4530  -0.3662  -0.0964 H              1 S1                 0.0000
     22 ****         2.5647  -0.4954   1.4066 H              1 S1                 0.0000
     23 ****         3.3565  -2.8413  -0.4164 H              1 S1                 0.0000
     24 ****         4.1267  -2.4335   1.1009 H              1 S1                 0.0000
     25 ****         1.9313  -4.9046  -0.0645 H              1 S1                 0.0000
     26 ****         0.2934  -5.7942   1.9266 H              1 S1                 0.0000
     27 ****         0.5172  -3.8134   3.8516 H              1 S1                 0.0000
     28 ****         0.3688   2.9904  -0.4350 H              1 S1                 0.0000
     29 ****        -0.6575   3.7583  -1.6006 H              1 S1                 0.0000
     30 ****        -1.5643   2.6636   1.1140 H              1 S1                 0.0000
     31 ****        -1.3495   4.3545   0.7265 H              1 S1                 0.0000
     32 ****        -3.7721   3.6103   0.5960 H              1 S1                 0.0000
     33 ****        -3.1768   4.3062  -0.8908 H              1 S1                 0.0000
     34 ****        -3.5473   1.3352  -0.3008 H              1 S1                 0.0000
     35 ****        -4.4253   2.2902  -1.4718 H              1 S1                 0.0000
     36 ****        -2.3395   2.6173  -2.8102 H              1 S1                 0.0000
     37 ****        -2.6704   0.9235  -2.5936 H              1 S1                 0.0000
     38 ****         1.5705  -1.2552  -1.2525 H              1 S1                 0.0000
     39 ****        -0.3677  -1.3741  -1.5888 LP             1 S1                 0.0000
     40 ****        -1.7301  -0.5188  -2.2311 LP             1 S1                 0.0000
     41 ****         2.0581  -2.0766   3.0362 LP             1 S1                 0.0000
@<TRIPOS>BOND
    1    1    2 2     
    2    2    3 1     
    3    2   12 am    
    4    3    4 1     
    5    3   18 1     
    6    3   19 1     
    7    4    5 1     
    8    4   20 1     
    9    4   38 1     
   10    5    6 1     
   11    5   21 1     
   12    5   22 1     
   13    6    7 1     
   14    6   23 1     
   15    6   24 1     
   16    7   11 1     
   17    7    8 1     
   18    8    9 2     
   19    8   25 1     
   20    9   10 1     
   21    9   26 1     
   22   10   11 2     
   23   10   27 1     
   24   12   17 1     
   25   12   13 1     
   26   13   14 1     
   27   13   28 1     
   28   13   29 1     
   29   14   15 1     
   30   14   30 1     
   31   14   31 1     
   32   15   16 1     
   33   15   32 1     
   34   15   33 1     
   35   16   17 1     
   36   16   34 1     
   37   16   35 1     
   38   17   36 1     
   39   17   37 1     
   40    1   39 1     
   41    1   40 1     
   42   11   41 1     
@<TRIPOS>SUBSTRUCTURE
      1 S1             1
@<TRIPOS>SET
LONE_PAIRS      STATIC     ATOMS    <user>   **** ""
3 39 40 41
DONOR_HYDROGENS      STATIC     ATOMS    <user>   **** ""
2 20 38
ATOM$BLUE        STATIC     ATOMS    COLORGROUP SYSTEM
3 39 40 41
ATOM$RED        STATIC     ATOMS    COLORGROUP SYSTEM
2 20 38
