AV-unprocessed.smi:2472|AV-procd|sdf|9742|dock9
  -GOLD-   2272013383D 1   1.00000     0.00000
 Structure written by MMmdl.
 48 50  0  0  0  0  0  0  0  0  2 V2000
  150.1926  138.8191  154.2896 C   0  0  0  0  0  0  0  0  0  0  0  0
  149.1037  139.8775  154.2722 C   0  0  0  0  0  0  0  0  0  0  0  0
  149.3720  141.1615  154.7952 C   0  0  0  0  0  0  0  0  0  0  0  0
  148.4127  142.1111  154.7875 N   0  3  0  0  0  0  0  0  0  0  0  0
  147.1742  141.8937  154.2986 C   0  0  0  0  0  0  0  0  0  0  0  0
  146.8422  140.6339  153.7620 C   0  0  0  0  0  0  0  0  0  0  0  0
  147.8205  139.6078  153.7313 C   0  0  0  0  0  0  0  0  0  0  0  0
  147.5495  138.3072  153.2218 N   0  0  0  0  0  0  0  0  0  0  0  0
  146.3991  137.6169  153.2924 C   0  0  0  0  0  0  0  0  0  0  0  0
  145.3702  138.0132  153.8396 O   0  0  0  0  0  0  0  0  0  0  0  0
  146.4981  136.4385  152.6515 N   0  0  0  0  0  0  0  0  0  0  0  0
  145.4497  135.4168  152.4698 C   0  0  0  0  0  0  0  0  0  0  0  0
  144.3931  135.4197  153.6123 C   0  0  0  0  0  0  0  0  0  0  0  0
  144.7159  135.0755  154.7501 O   0  0  0  0  0  0  0  0  0  0  0  0
  143.1366  135.7873  153.3119 N   0  0  0  0  0  0  0  0  0  0  0  0
  142.0350  135.8577  154.2590 C   0  0  0  0  0  0  0  0  0  0  0  0
  140.8137  136.5710  153.7183 C   0  0  0  0  0  0  0  0  0  0  0  0
  140.2066  137.7329  154.4689 C   0  0  0  0  0  0  0  0  0  0  0  0
  139.4656  136.4199  154.3831 C   0  0  0  0  0  0  0  0  0  0  0  0
  144.7288  135.6973  151.1292 C   0  0  0  0  0  0  0  0  0  0  0  0
  144.3951  134.3346  150.5261 C   0  0  0  0  0  0  0  0  0  0  0  0
  145.5855  133.4650  150.9075 C   0  0  0  0  0  0  0  0  0  0  0  0
  146.0720  134.0000  152.2606 C   0  0  0  0  0  0  0  0  0  0  0  0
  151.1221  139.2139  154.7009 H   0  0  0  0  0  0  0  0  0  0  0  0
  150.3966  138.4646  153.2788 H   0  0  0  0  0  0  0  0  0  0  0  0
  149.8875  137.9691  154.9005 H   0  0  0  0  0  0  0  0  0  0  0  0
  150.3203  141.4577  155.2199 H   0  0  0  0  0  0  0  0  0  0  0  0
  146.4881  142.7259  154.3560 H   0  0  0  0  0  0  0  0  0  0  0  0
  145.8403  140.4717  153.3940 H   0  0  0  0  0  0  0  0  0  0  0  0
  148.2796  137.9001  152.6557 H   0  0  0  0  0  0  0  0  0  0  0  0
  147.3900  136.2190  152.2329 H   0  0  0  0  0  0  0  0  0  0  0  0
  142.9370  136.0521  152.3588 H   0  0  0  0  0  0  0  0  0  0  0  0
  141.7606  134.8474  154.5664 H   0  0  0  0  0  0  0  0  0  0  0  0
  142.3657  136.3836  155.1562 H   0  0  0  0  0  0  0  0  0  0  0  0
  140.8067  136.6625  152.6334 H   0  0  0  0  0  0  0  0  0  0  0  0
  140.6425  138.0011  155.4293 H   0  0  0  0  0  0  0  0  0  0  0  0
  139.8236  138.5652  153.8820 H   0  0  0  0  0  0  0  0  0  0  0  0
  138.5904  136.3761  153.7379 H   0  0  0  0  0  0  0  0  0  0  0  0
  139.4094  135.8156  155.2864 H   0  0  0  0  0  0  0  0  0  0  0  0
  143.8368  136.3172  151.2368 H   0  0  0  0  0  0  0  0  0  0  0  0
  145.3924  136.2269  150.4435 H   0  0  0  0  0  0  0  0  0  0  0  0
  143.4852  133.9389  150.9789 H   0  0  0  0  0  0  0  0  0  0  0  0
  144.2375  134.3791  149.4481 H   0  0  0  0  0  0  0  0  0  0  0  0
  145.3306  132.4055  150.9453 H   0  0  0  0  0  0  0  0  0  0  0  0
  146.3745  133.5865  150.1641 H   0  0  0  0  0  0  0  0  0  0  0  0
  147.1624  134.0124  152.2640 H   0  0  0  0  0  0  0  0  0  0  0  0
  145.7857  133.3087  153.0545 H   0  0  0  0  0  0  0  0  0  0  0  0
  148.6317  143.0305  155.1721 H   0  0  0  0  0  0  0  0  0  0  0  0
  1  2  1  0  0  0  0
  1 24  1  0  0  0  0
  1 25  1  0  0  0  0
  1 26  1  0  0  0  0
  2  7  1  0  0  0  0
  2  3  2  0  0  0  0
  3  4  1  0  0  0  0
  3 27  1  0  0  0  0
  4  5  2  0  0  0  0
  4 48  1  0  0  0  0
  5  6  1  0  0  0  0
  5 28  1  0  0  0  0
  6  7  2  0  0  0  0
  6 29  1  0  0  0  0
  7  8  1  0  0  0  0
  8  9  1  0  0  0  0
  8 30  1  0  0  0  0
  9 10  2  0  0  0  0
  9 11  1  0  0  0  0
 11 12  1  0  0  0  0
 11 31  1  0  0  0  0
 12 23  1  0  0  0  0
 12 13  1  0  0  0  0
 12 20  1  0  0  0  0
 13 14  2  0  0  0  0
 13 15  1  0  0  0  0
 15 16  1  0  0  0  0
 15 32  1  0  0  0  0
 16 17  1  0  0  0  0
 16 33  1  0  0  0  0
 16 34  1  0  0  0  0
 17 19  1  0  0  0  0
 17 18  1  0  0  0  0
 17 35  1  0  0  0  0
 18 19  1  0  0  0  0
 18 36  1  0  0  0  0
 18 37  1  0  0  0  0
 19 38  1  0  0  0  0
 19 39  1  0  0  0  0
 20 21  1  0  0  0  0
 20 40  1  0  0  0  0
 20 41  1  0  0  0  0
 21 22  1  0  0  0  0
 21 42  1  0  0  0  0
 21 43  1  0  0  0  0
 22 23  1  0  0  0  0
 22 44  1  0  0  0  0
 22 45  1  0  0  0  0
 23 46  1  0  0  0  0
 23 47  1  0  0  0  0
M  CHG  1   4   1
M  END
> <s_m_source_file>
AV-unprocessed.smi

> <i_m_source_file_index>
2472

> <i_lp_mmshare_version>
43012

> <i_f3d_flags>
0

> <s_epik_input>
W0NIM11jMVtjSF1uW2NIXVtjSF1jMVtOSF1DKD1PKVtOSF1DMihbQ0gyXVtDSDJdW0NIMl1bQ0gyXTIpQyg9TylbTkhdW0NIMl1bQ0hdM1tDSDJdW0NIMl0z

> <s_epik_cmdline>
J2VwaWtfcHl0aG9uJywgJy1waCcsICc3LjAnLCAnLXRuJywgJzgnLCAnLW1hJywgJzIwMCcsICctbWV0YWxfYmluZGluZycsICctaW1hZScsICc8aW5maWxlLm1hZT4nLCAnLW9tYWUnLCAnPG91dGZpbGUubWFlPic=

> <r_epik_Ionization_Penalty>
0.772167

> <r_epik_Ionization_Penalty_Charging>
0.772149

> <r_epik_Ionization_Penalty_Neutral>
1.87678e-05

> <r_epik_State_Penalty>
0.800952

> <r_epik_Charging_Adjusted_Penalty>
1.5731

> <i_epik_Tot_Q>
1

> <i_epik_Tot_abs_Q>
1

> <r_epik_Metal_State_Penalty>
0.9454

> <b_epik_Metal_Only>
0

> <s_lp_Force_Field>
OPLS_2005

> <r_lp_Energy>
39.076

> <b_lp_Chiralities_Consistent>
1

> <s_lp_Variant>
AV-unprocessed.smi:2472-2

> <Gold.Version>
5.8.1

> <Gold.Id.Protein>
6NUR|6NUR_protein|mol2

> <Gold.PLP.Fitness>
47.6577

> <Gold.PLP.PLP>
-39.6402

> <Gold.PLP.part.hbond>
-3.0000

> <Gold.PLP.part.metal>
0.0000

> <Gold.PLP.part.buried>
-6.0020

> <Gold.PLP.part.nonpolar>
-32.1273

> <Gold.PLP.part.repulsive>
0.4890

> <Gold.PLP.ligand.clash>
1.6872

> <Gold.PLP.ligand.torsion>
1.4075

> <Gold.PLP.Chemscore.Hbond>
3.9600

> <Gold.PLP.Chemscore.CHOScore>
0.0000

> <Gold.PLP.Chemscore.Metal>
0.0000

> <Gold.Chemscore.Hbonds>
donor molecule, donor type, donor heavy atom, donor atom, acceptor molecule, acceptor atom, score
      L1  H     4    48       P1  8028  2.00
      L1  H     8    30       P1  7948  0.93
      L1  H    11    31       P1  7948  1.00

> <Gold.PLP.Chemscore.Internal.Correction>
0.6397

> <Gold.Rescore>
     Score         DG    S(hbond)    S(metal)    S(lipo)     H(rot)  DE(clash)    DE(int)     intcor
     18.37     -22.19       2.94        0.00      94.58       1.63       0.27       3.56       ----

> <Gold.Chemscore.Fitness>
18.3681

> <Gold.Chemscore.DG>
-22.1944

> <Gold.Chemscore.ZeroCoef>
-5.4800

> <Gold.Chemscore.Hbond>
2.9394

> <Gold.Chemscore.Metal>
0.0000

> <Gold.Chemscore.Lipo>
94.5816

> <Gold.Chemscore.Internal_Hbond>
0.0000

> <Gold.Chemscore.DEClash>
0.2653

> <Gold.Chemscore.DEInternal>
3.5609

> <Gold.Chemscore.Rot>
1.6286

> <Gold.Chemscore.Internal.Correction>
   9.000000E+99

> <Gold.Chemscore.Hbonds>
donor molecule, donor type, donor heavy atom, donor atom, acceptor molecule, acceptor atom, score
      L1  H     4    48       P1  8028  1.00
      L1  H     8    30       P1  7948  0.89
      L1  H    11    31       P1  7948  0.98

> <Gold.Chemscore.Hbond.Weighted>
-9.8175

> <Gold.Chemscore.Metal.Weighted>
-0.0000

> <Gold.Chemscore.Lipo.Weighted>
-11.0660

> <Gold.Chemscore.Internal_Hbond.Weighted>
0.0000

> <Gold.Chemscore.DEClash.Weighted>
0.2653

> <Gold.Chemscore.DEInternal.Weighted>
3.5609

> <Gold.Chemscore.Rot.Weighted>
4.1692

> <Gold.Chemscore.Internal.Correction.Weighted>
   9.000000E+99

> <Gold.Protein.RotatedTorsions>
[ 6907 6896 6895 6894 ] final   25.22 input  -60.11 | X-H torsion
[ 7974 7965 7964 7962 ] final   12.40 input  175.53 | X-H torsion
[ 8008 7997 7996 7995 ] final   94.00 input   59.86 | X-H torsion
[ 10167 10162 10161 10158 ] final    1.23 input  -65.29 | X-H torsion
[ 10718 10713 10712 10709 ] final  -61.30 input   66.30 | X-H torsion
[ 10763 10752 10751 10750 ] final -166.60 input  -60.55 | X-H torsion
[ 11005 11000 10999 10996 ] final -133.33 input  -57.11 | X-H torsion

> <Gold.Protein.ActiveResidues>
 VAL166  LYS551  ARG553  GLY616  TRP617  ASP618  TYR619  PRO620  LYS621  CYS622 
 ASP623  PHE694  ASN695  SER759  ASP760  ASP761  ALA762  ILE779  LEU786  VAL792 
 PHE793  MET794  SER795  GLU796  ALA797  LYS798  CYS799  TRP800  GLU811  SER814 

> <Gold.Protein.RotatedAtoms>
  151.9693  135.0085  160.0551 H   0  0  0  0  0  0  0  0  0  0  0  0  # atno 6907 bound_to 6896
  152.1798  133.4694  159.4960 H   0  0  0  0  0  0  0  0  0  0  0  0  # atno 6908 bound_to 6896
  150.6915  134.1766  159.4275 H   0  0  0  0  0  0  0  0  0  0  0  0  # atno 6909 bound_to 6896
  146.2352  139.9342  142.8492 H   0  0  0  0  0  0  0  0  0  0  0  0  # atno 7974 bound_to 7965
  156.0530  140.3305  155.7373 H   0  0  0  0  0  0  0  0  0  0  0  0  # atno 8008 bound_to 7997
  155.5571  140.0615  157.2854 H   0  0  0  0  0  0  0  0  0  0  0  0  # atno 8009 bound_to 7997
  154.4445  140.1884  156.0733 H   0  0  0  0  0  0  0  0  0  0  0  0  # atno 8010 bound_to 7997
  140.6692  143.7094  150.7889 H   0  0  0  0  0  0  0  0  0  0  0  0  # atno 10167 bound_to 10162
  156.0931  130.4197  150.0975 H   0  0  0  0  0  0  0  0  0  0  0  0  # atno 10718 bound_to 10713
  154.6817  135.2955  154.9604 H   0  0  0  0  0  0  0  0  0  0  0  0  # atno 10763 bound_to 10752
  154.0597  135.6633  153.4814 H   0  0  0  0  0  0  0  0  0  0  0  0  # atno 10764 bound_to 10752
  153.0551  135.5149  154.7863 H   0  0  0  0  0  0  0  0  0  0  0  0  # atno 10765 bound_to 10752
  140.9090  134.1592  157.4403 H   0  0  0  0  0  0  0  0  0  0  0  0  # atno 11005 bound_to 11000
  145.2015  140.9856  143.4153 LP  0  0  0  0  0  0  0  0  0  0  0  0  # atno 17320 bound_to 7965
  144.9769  139.3822  143.6281 LP  0  0  0  0  0  0  0  0  0  0  0  0  # atno 17321 bound_to 7965
  140.0777  143.4999  152.2547 LP  0  0  0  0  0  0  0  0  0  0  0  0  # atno 17342 bound_to 10162
  139.5954  144.7565  151.3300 LP  0  0  0  0  0  0  0  0  0  0  0  0  # atno 17343 bound_to 10162
  156.8980  130.9611  151.3580 LP  0  0  0  0  0  0  0  0  0  0  0  0  # atno 17370 bound_to 10713
  157.6085  130.8565  149.8914 LP  0  0  0  0  0  0  0  0  0  0  0  0  # atno 17371 bound_to 10713
  139.8754  134.9928  156.5615 LP  0  0  0  0  0  0  0  0  0  0  0  0  # atno 17394 bound_to 11000
  140.8134  133.8411  155.8830 LP  0  0  0  0  0  0  0  0  0  0  0  0  # atno 17395 bound_to 11000

$$$$
