#       Name:                AV-unprocessed.smi:2009
#       Creating user name   scv26
#       Creation time:       Fri Mar 27 10:38:47 2020


#       File generated by GOLD software.
#

@<TRIPOS>MOLECULE
AV-unprocessed.smi:2009
    40    41     1
SMALL
NO_CHARGES


@<TRIPOS>ATOM
      1 ****        -2.7135  -1.4635   2.3215 C.3            1 S1                 0.0000
      2 ****        -2.3741  -0.7883   0.9858 C.3            1 S1                 0.0000
      3 ****        -2.7243  -1.6904  -0.2245 C.3            1 S1                 0.0000
      4 ****        -2.5775  -1.0387  -1.5230 N.pl3          1 S1                 0.0000
      5 ****        -1.4751  -1.0265  -2.3553 C.2            1 S1                 0.0000
      6 ****        -1.8036  -0.2997  -3.4632 C.2            1 S1                 0.0000
      7 ****        -3.1510   0.0883  -3.2237 C.2            1 S1                 0.0000
      8 ****        -3.6165  -0.3641  -2.0708 N.2            1 S1                 0.0000
      9 ****        -0.9545  -0.4614   0.9724 N.pl3          1 S1                -1.0000
     10 ****        -0.4995   1.0890   0.8323 S.o2           1 S1                 0.0000
     11 ****        -0.8376   1.6960  -0.4656 O.2            1 S1                 0.0000
     12 ****        -0.7792   1.8703   2.0483 O.2            1 S1                 0.0000
     13 ****         1.2184   0.8204   0.7969 N.3            1 S1                 0.0000
     14 ****         2.0755   1.9463   1.2246 C.3            1 S1                 0.0000
     15 ****         3.5227   1.4966   1.4862 C.3            1 S1                 0.0000
     16 ****         4.1109   0.7796   0.2692 C.3            1 S1                 0.0000
     17 ****         3.2091  -0.4010  -0.0968 C.3            1 S1                 0.0000
     18 ****         1.7651   0.0602  -0.3516 C.3            1 S1                 0.0000
     19 ****        -3.7742  -1.7087   2.3760 H              1 S1                 0.0000
     20 ****        -2.4854  -0.8082   3.1631 H              1 S1                 0.0000
     21 ****        -2.1515  -2.3885   2.4557 H              1 S1                 0.0000
     22 ****        -2.9919   0.1084   0.9184 H              1 S1                 0.0000
     23 ****        -2.1037  -2.5877  -0.2195 H              1 S1                 0.0000
     24 ****        -3.7551  -2.0367  -0.1373 H              1 S1                 0.0000
     25 ****        -0.5564  -1.5252  -2.0852 H              1 S1                 0.0000
     26 ****        -1.1765  -0.0789  -4.3138 H              1 S1                 0.0000
     27 ****        -3.8026   0.6776  -3.8516 H              1 S1                 0.0000
     28 ****         2.0493   2.7204   0.4568 H              1 S1                 0.0000
     29 ****         1.6756   2.3905   2.1357 H              1 S1                 0.0000
     30 ****         4.1375   2.3594   1.7436 H              1 S1                 0.0000
     31 ****         3.5471   0.8314   2.3505 H              1 S1                 0.0000
     32 ****         4.1850   1.4695  -0.5722 H              1 S1                 0.0000
     33 ****         5.1211   0.4317   0.4858 H              1 S1                 0.0000
     34 ****         3.5976  -0.9062  -0.9814 H              1 S1                 0.0000
     35 ****         3.2196  -1.1360   0.7091 H              1 S1                 0.0000
     36 ****         1.1477  -0.8130  -0.5559 H              1 S1                 0.0000
     37 ****         1.7204   0.6879  -1.2423 H              1 S1                 0.0000
     38 ****        -4.5318  -0.2364  -1.6888 LP             1 S1                 0.0000
     39 ****        -0.2683  -1.1848   1.0488 LP             1 S1                 0.0000
     40 ****         1.2817   0.1670   1.5513 LP             1 S1                 0.0000
@<TRIPOS>BOND
    1    1    2 1     
    2    1   19 1     
    3    1   20 1     
    4    1   21 1     
    5    2    3 1     
    6    2    9 1     
    7    2   22 1     
    8    3    4 1     
    9    3   23 1     
   10    3   24 1     
   11    4    8 1     
   12    4    5 1     
   13    5    6 2     
   14    5   25 1     
   15    6    7 1     
   16    6   26 1     
   17    7    8 2     
   18    7   27 1     
   19    9   10 1     
   20   10   11 2     
   21   10   12 2     
   22   10   13 1     
   23   13   18 1     
   24   13   14 1     
   25   14   15 1     
   26   14   28 1     
   27   14   29 1     
   28   15   16 1     
   29   15   30 1     
   30   15   31 1     
   31   16   17 1     
   32   16   32 1     
   33   16   33 1     
   34   17   18 1     
   35   17   34 1     
   36   17   35 1     
   37   18   36 1     
   38   18   37 1     
   39    8   38 1     
   40    9   39 1     
   41   13   40 1     
@<TRIPOS>SUBSTRUCTURE
      1 S1             1
@<TRIPOS>SET
LONE_PAIRS      STATIC     ATOMS    <user>   **** ""
5 38 39 11 12 40
ATOM$BLUE        STATIC     ATOMS    COLORGROUP SYSTEM
5 38 39 11 12 40
