AV-unprocessed.smi:2750|AV-procd|sdf|10590|dock10
  -GOLD-   2272015 43D 1   1.00000     0.00000
 Structure written by MMmdl.
 25 26  0  0  0  0  0  0  0  0  2 V2000
  152.6423  135.6875  157.1168 O   0  0  0  0  0  0  0  0  0  0  0  0
  152.4008  136.7455  157.7383 C   0  0  0  0  0  0  0  0  0  0  0  0
  151.9291  136.8141  158.8953 O   0  5  0  0  0  0  0  0  0  0  0  0
  152.7369  138.0592  157.0254 C   0  0  0  0  0  0  0  0  0  0  0  0
  151.5864  138.6736  156.3843 N   0  0  0  0  0  0  0  0  0  0  0  0
  151.5042  139.8990  155.7550 C   0  0  0  0  0  0  0  0  0  0  0  0
  150.2037  139.9583  155.3425 C   0  0  0  0  0  0  0  0  0  0  0  0
  149.5004  141.0482  154.5893 C   0  0  0  0  0  0  0  0  0  0  0  0
  148.0685  141.3079  155.1006 C   0  0  1  0  0  0  0  0  0  0  0  0
  147.5448  142.6048  154.7051 N   0  0  0  0  0  0  0  0  0  0  0  0
  146.4261  142.5045  153.9746 C   0  0  0  0  0  0  0  0  0  0  0  0
  145.7790  143.4409  153.5121 O   0  0  0  0  0  0  0  0  0  0  0  0
  146.1394  141.2054  153.8357 N   0  0  0  0  0  0  0  0  0  0  0  0
  147.0314  140.4201  154.4370 C   0  0  0  0  0  0  0  0  0  0  0  0
  147.0368  139.1909  154.4638 O   0  0  0  0  0  0  0  0  0  0  0  0
  149.5582  138.7836  155.7289 N   0  0  0  0  0  0  0  0  0  0  0  0
  150.3985  138.0223  156.3572 N   0  0  0  0  0  0  0  0  0  0  0  0
  153.1450  138.7611  157.7530 H   0  0  0  0  0  0  0  0  0  0  0  0
  153.5131  137.8913  156.2768 H   0  0  0  0  0  0  0  0  0  0  0  0
  152.3353  140.5829  155.6672 H   0  0  0  0  0  0  0  0  0  0  0  0
  150.0861  141.9675  154.6432 H   0  0  0  0  0  0  0  0  0  0  0  0
  149.4600  140.7883  153.5307 H   0  0  0  0  0  0  0  0  0  0  0  0
  148.0120  141.2024  156.1848 H   0  0  0  0  0  0  0  0  0  0  0  0
  147.9935  143.4754  154.9514 H   0  0  0  0  0  0  0  0  0  0  0  0
  145.3428  140.8591  153.3210 H   0  0  0  0  0  0  0  0  0  0  0  0
  1  2  2  0  0  0  0
  2  3  1  0  0  0  0
  2  4  1  0  0  0  0
  4  5  1  0  0  0  0
  4 18  1  0  0  0  0
  4 19  1  0  0  0  0
  5 17  1  0  0  0  0
  5  6  1  0  0  0  0
  6  7  2  0  0  0  0
  6 20  1  0  0  0  0
  7  8  1  0  0  0  0
  7 16  1  0  0  0  0
  8  9  1  0  0  0  0
  8 21  1  0  0  0  0
  8 22  1  0  0  0  0
  9 14  1  0  0  0  0
  9 10  1  0  0  0  0
  9 23  1  0  0  0  0
 10 11  1  0  0  0  0
 10 24  1  0  0  0  0
 11 12  2  0  0  0  0
 11 13  1  0  0  0  0
 13 14  1  0  0  0  0
 13 25  1  0  0  0  0
 14 15  2  0  0  0  0
 16 17  2  0  0  0  0
M  CHG  1   3  -1
M  END
> <s_m_source_file>
AV-unprocessed.smi

> <i_m_source_file_index>
2750

> <i_lp_mmshare_version>
43012

> <i_f3d_flags>
0

> <s_epik_input>
Tz1DKFtPSF0pW0NIMl1uMVtjSF1jKG5uMSlbQ0gyXVtDQEBIXTJbTkhdQyg9TylbTkhdQzI9Tw==

> <s_epik_cmdline>
J2VwaWtfcHl0aG9uJywgJy1waCcsICc3LjAnLCAnLXRuJywgJzgnLCAnLW1hJywgJzIwMCcsICctbWV0YWxfYmluZGluZycsICctaW1hZScsICc8aW5maWxlLm1hZT4nLCAnLW9tYWUnLCAnPG91dGZpbGUubWFlPic=

> <r_lp_tautomer_probability>
1

> <r_epik_Ionization_Penalty>
0.019671

> <r_epik_Ionization_Penalty_Charging>
2.66176e-05

> <r_epik_Ionization_Penalty_Neutral>
0.0196444

> <r_epik_State_Penalty>
0.0155882

> <r_epik_Charging_Adjusted_Penalty>
0.0156148

> <i_epik_Tot_Q>
-1

> <i_epik_Tot_abs_Q>
1

> <r_epik_Metal_State_Penalty>
0.396229

> <b_epik_Metal_Only>
0

> <s_lp_Force_Field>
OPLS_2005

> <r_lp_Energy>
18.3652

> <b_lp_Chiralities_Consistent>
1

> <s_lp_Variant>
AV-unprocessed.smi:2750-2

> <Gold.Version>
5.8.1

> <Gold.Id.Protein>
6NUR|6NUR_protein|mol2

> <Gold.PLP.Fitness>
38.0738

> <Gold.PLP.PLP>
-22.4245

> <Gold.PLP.part.hbond>
-4.0000

> <Gold.PLP.part.metal>
0.0000

> <Gold.PLP.part.buried>
-3.7560

> <Gold.PLP.part.nonpolar>
-16.1795

> <Gold.PLP.part.repulsive>
0.5085

> <Gold.PLP.ligand.clash>
0.0000

> <Gold.PLP.ligand.torsion>
0.8737

> <Gold.PLP.Chemscore.Hbond>
5.7920

> <Gold.PLP.Chemscore.CHOScore>
0.0000

> <Gold.PLP.Chemscore.Metal>
0.0000

> <Gold.Chemscore.Hbonds>
donor molecule, donor type, donor heavy atom, donor atom, acceptor molecule, acceptor atom, score
      L1  H    10    24       P1  8028  1.00
      L1  H    13    25       P1 10175  1.00
      P1  H  6896  6909       L1     3  1.76
      P1  H 10752 10764       L1     1  2.00

> <Gold.PLP.Chemscore.Internal.Correction>
0.0208

> <Gold.Rescore>
     Score         DG    S(hbond)    S(metal)    S(lipo)     H(rot)  DE(clash)    DE(int)     intcor
     12.06     -14.34       3.69        0.00      32.34       2.84       0.08       2.19       ----

> <Gold.Chemscore.Fitness>
12.0566

> <Gold.Chemscore.DG>
-14.3356

> <Gold.Chemscore.ZeroCoef>
-5.4800

> <Gold.Chemscore.Hbond>
3.6918

> <Gold.Chemscore.Metal>
0.0000

> <Gold.Chemscore.Lipo>
32.3365

> <Gold.Chemscore.Internal_Hbond>
0.0000

> <Gold.Chemscore.DEClash>
0.0850

> <Gold.Chemscore.DEInternal>
2.1940

> <Gold.Chemscore.Rot>
2.8354

> <Gold.Chemscore.Internal.Correction>
   9.000000E+99

> <Gold.Chemscore.Hbonds>
donor molecule, donor type, donor heavy atom, donor atom, acceptor molecule, acceptor atom, score
      L1  H    10    24       P1  8028  0.70
      L1  H    13    25       P1 10175  0.70
      P1  H  6896  6909       L1     3  0.82
      P1  H 10752 10764       L1     1  0.95

> <Gold.Chemscore.Hbond.Weighted>
-12.3308

> <Gold.Chemscore.Metal.Weighted>
-0.0000

> <Gold.Chemscore.Lipo.Weighted>
-3.7834

> <Gold.Chemscore.Internal_Hbond.Weighted>
0.0000

> <Gold.Chemscore.DEClash.Weighted>
0.0850

> <Gold.Chemscore.DEInternal.Weighted>
2.1940

> <Gold.Chemscore.Rot.Weighted>
7.2586

> <Gold.Chemscore.Internal.Correction.Weighted>
   9.000000E+99

> <Gold.Protein.RotatedTorsions>
[ 6907 6896 6895 6894 ] final  123.87 input  -60.11 | X-H torsion
[ 7974 7965 7964 7962 ] final   91.77 input  175.53 | X-H torsion
[ 8008 7997 7996 7995 ] final  -12.60 input   59.86 | X-H torsion
[ 10167 10162 10161 10158 ] final -111.14 input  -65.29 | X-H torsion
[ 10718 10713 10712 10709 ] final  152.07 input   66.30 | X-H torsion
[ 10763 10752 10751 10750 ] final   -3.81 input  -60.55 | X-H torsion
[ 11005 11000 10999 10996 ] final  163.67 input  -57.11 | X-H torsion

> <Gold.Protein.ActiveResidues>
 VAL166  LYS551  ARG553  GLY616  TRP617  ASP618  TYR619  PRO620  LYS621  CYS622 
 ASP623  PHE694  ASN695  SER759  ASP760  ASP761  ALA762  ILE779  LEU786  VAL792 
 PHE793  MET794  SER795  GLU796  ALA797  LYS798  CYS799  TRP800  GLU811  SER814 

> <Gold.Protein.RotatedAtoms>
  152.4125  133.6986  159.6410 H   0  0  0  0  0  0  0  0  0  0  0  0  # atno 6907 bound_to 6896
  150.8005  133.8598  159.3237 H   0  0  0  0  0  0  0  0  0  0  0  0  # atno 6908 bound_to 6896
  151.6336  135.1022  160.0178 H   0  0  0  0  0  0  0  0  0  0  0  0  # atno 6909 bound_to 6896
  145.5012  139.2276  143.2776 H   0  0  0  0  0  0  0  0  0  0  0  0  # atno 7974 bound_to 7965
  154.5363  140.2272  155.8717 H   0  0  0  0  0  0  0  0  0  0  0  0  # atno 8008 bound_to 7997
  156.1815  140.3099  155.9120 H   0  0  0  0  0  0  0  0  0  0  0  0  # atno 8009 bound_to 7997
  155.3347  140.0447  157.3034 H   0  0  0  0  0  0  0  0  0  0  0  0  # atno 8010 bound_to 7997
  140.1369  143.4313  152.1589 H   0  0  0  0  0  0  0  0  0  0  0  0  # atno 10167 bound_to 10162
  157.2626  131.0801  151.1655 H   0  0  0  0  0  0  0  0  0  0  0  0  # atno 10718 bound_to 10713
  153.3764  135.6996  153.6598 H   0  0  0  0  0  0  0  0  0  0  0  0  # atno 10763 bound_to 10752
  153.5227  135.3608  155.2640 H   0  0  0  0  0  0  0  0  0  0  0  0  # atno 10764 bound_to 10752
  154.8687  135.4162  154.3053 H   0  0  0  0  0  0  0  0  0  0  0  0  # atno 10765 bound_to 10752
  140.2381  134.8072  157.3384 H   0  0  0  0  0  0  0  0  0  0  0  0  # atno 11005 bound_to 11000
  146.2225  140.5813  142.9011 LP  0  0  0  0  0  0  0  0  0  0  0  0  # atno 17320 bound_to 7965
  144.7779  140.5778  143.6625 LP  0  0  0  0  0  0  0  0  0  0  0  0  # atno 17321 bound_to 7965
  139.5491  144.7323  151.4489 LP  0  0  0  0  0  0  0  0  0  0  0  0  # atno 17342 bound_to 10162
  140.6784  143.8138  150.7088 LP  0  0  0  0  0  0  0  0  0  0  0  0  # atno 17343 bound_to 10162
  157.3159  130.6913  149.6241 LP  0  0  0  0  0  0  0  0  0  0  0  0  # atno 17370 bound_to 10713
  155.9664  130.4350  150.5072 LP  0  0  0  0  0  0  0  0  0  0  0  0  # atno 17371 bound_to 10713
  140.1681  134.4643  155.7849 LP  0  0  0  0  0  0  0  0  0  0  0  0  # atno 17394 bound_to 11000
  141.2213  133.6930  156.7661 LP  0  0  0  0  0  0  0  0  0  0  0  0  # atno 17395 bound_to 11000

$$$$
