AV-unprocessed.smi:1960|AV-procd|sdf|7916|dock1
  -GOLD-   2272010 83D 1   1.00000     0.00000
 Structure written by MMmdl.
 38 39  0  0  0  0  0  0  0  0  1 V2000
  150.2122  138.0436  158.7711 C   0  0  0  0  0  0  0  0  0  0  0  0
  148.6333  137.1642  159.1141 S   0  0  0  0  0  0  0  0  0  0  0  0
  148.8423  135.7308  158.8590 O   0  0  0  0  0  0  0  0  0  0  0  0
  148.1377  137.6067  160.4265 O   0  0  0  0  0  0  0  0  0  0  0  0
  147.5399  137.7672  157.9015 N   0  0  0  0  0  0  0  0  0  0  0  0
  148.0558  138.5811  156.7825 C   0  0  0  0  0  0  0  0  0  0  0  0
  148.1878  137.7558  155.4904 C   0  0  0  0  0  0  0  0  0  0  0  0
  146.8653  137.0564  155.1328 C   0  0  0  0  0  0  0  0  0  0  0  0
  147.0232  136.2163  153.9487 N   0  0  0  0  0  0  0  0  0  0  0  0
  146.0918  135.3827  153.4629 C   0  0  0  0  0  0  0  0  0  0  0  0
  144.9816  135.2368  153.9737 O   0  0  0  0  0  0  0  0  0  0  0  0
  146.5270  134.7620  152.3521 N   0  0  0  0  0  0  0  0  0  0  0  0
  145.8513  133.8061  151.5457 C   0  0  0  0  0  0  0  0  0  0  0  0
  146.6263  132.8021  150.9292 C   0  0  0  0  0  0  0  0  0  0  0  0
  145.9779  131.8326  150.1381 C   0  0  0  0  0  0  0  0  0  0  0  0
  144.6428  131.8062  149.9434 N   0  0  0  0  0  0  0  0  0  0  0  0
  143.9006  132.7594  150.5456 C   0  0  0  0  0  0  0  0  0  0  0  0
  144.4485  133.7738  151.3563 C   0  0  0  0  0  0  0  0  0  0  0  0
  146.4080  136.1997  156.3225 C   0  0  0  0  0  0  0  0  0  0  0  0
  146.2893  137.0389  157.6072 C   0  0  0  0  0  0  0  0  0  0  0  0
  150.9610  137.7245  159.4954 H   0  0  0  0  0  0  0  0  0  0  0  0
  150.0666  139.1183  158.8650 H   0  0  0  0  0  0  0  0  0  0  0  0
  150.5632  137.8000  157.7699 H   0  0  0  0  0  0  0  0  0  0  0  0
  147.3674  139.4101  156.6148 H   0  0  0  0  0  0  0  0  0  0  0  0
  149.0142  139.0271  157.0468 H   0  0  0  0  0  0  0  0  0  0  0  0
  148.4975  138.4118  154.6762 H   0  0  0  0  0  0  0  0  0  0  0  0
  148.9800  137.0159  155.6008 H   0  0  0  0  0  0  0  0  0  0  0  0
  146.1011  137.8115  154.9379 H   0  0  0  0  0  0  0  0  0  0  0  0
  147.9067  136.2761  153.4643 H   0  0  0  0  0  0  0  0  0  0  0  0
  147.4321  135.0500  152.0104 H   0  0  0  0  0  0  0  0  0  0  0  0
  147.6992  132.7747  151.0521 H   0  0  0  0  0  0  0  0  0  0  0  0
  146.5481  131.0561  149.6498 H   0  0  0  0  0  0  0  0  0  0  0  0
  142.8344  132.7087  150.3819 H   0  0  0  0  0  0  0  0  0  0  0  0
  143.7870  134.4893  151.8196 H   0  0  0  0  0  0  0  0  0  0  0  0
  145.4443  135.7402  156.1002 H   0  0  0  0  0  0  0  0  0  0  0  0
  147.1063  135.3783  156.4797 H   0  0  0  0  0  0  0  0  0  0  0  0
  146.0108  136.4063  158.4495 H   0  0  0  0  0  0  0  0  0  0  0  0
  145.4864  137.7679  157.4924 H   0  0  0  0  0  0  0  0  0  0  0  0
  1  2  1  0  0  0  0
  1 21  1  0  0  0  0
  1 22  1  0  0  0  0
  1 23  1  0  0  0  0
  2  3  2  0  0  0  0
  2  4  2  0  0  0  0
  2  5  1  0  0  0  0
  5 20  1  0  0  0  0
  5  6  1  0  0  0  0
  6  7  1  0  0  0  0
  6 24  1  0  0  0  0
  6 25  1  0  0  0  0
  7  8  1  0  0  0  0
  7 26  1  0  0  0  0
  7 27  1  0  0  0  0
  8  9  1  0  0  0  0
  8 19  1  0  0  0  0
  8 28  1  0  0  0  0
  9 10  1  0  0  0  0
  9 29  1  0  0  0  0
 10 11  2  0  0  0  0
 10 12  1  0  0  0  0
 12 13  1  0  0  0  0
 12 30  1  0  0  0  0
 13 18  1  0  0  0  0
 13 14  2  0  0  0  0
 14 15  1  0  0  0  0
 14 31  1  0  0  0  0
 15 16  2  0  0  0  0
 15 32  1  0  0  0  0
 16 17  1  0  0  0  0
 17 18  2  0  0  0  0
 17 33  1  0  0  0  0
 18 34  1  0  0  0  0
 19 20  1  0  0  0  0
 19 35  1  0  0  0  0
 19 36  1  0  0  0  0
 20 37  1  0  0  0  0
 20 38  1  0  0  0  0
M  END
> <s_m_source_file>
AV-unprocessed.smi

> <i_m_source_file_index>
1960

> <i_lp_mmshare_version>
43012

> <i_f3d_flags>
0

> <s_epik_input>
W0NIM11TKD1PKSg9TylOMVtDSDJdW0NIMl1bQ0hdKFtDSDJdW0NIMl0xKVtOSF1DKD1PKVtOSF1jMltjSF1bY0hdbltjSF1bY0hdMg==

> <s_epik_cmdline>
J2VwaWtfcHl0aG9uJywgJy1waCcsICc3LjAnLCAnLXRuJywgJzgnLCAnLW1hJywgJzIwMCcsICctbWV0YWxfYmluZGluZycsICctaW1hZScsICc8aW5maWxlLm1hZT4nLCAnLW9tYWUnLCAnPG91dGZpbGUubWFlPic=

> <r_epik_Ionization_Penalty>
0.116752

> <r_epik_Ionization_Penalty_Charging>
0

> <r_epik_Ionization_Penalty_Neutral>
0.116752

> <r_epik_State_Penalty>
0.106329

> <r_epik_Charging_Adjusted_Penalty>
0.106329

> <i_epik_Tot_Q>
0

> <i_epik_Tot_abs_Q>
0

> <r_epik_Metal_State_Penalty>
0.0886803

> <b_epik_Metal_Only>
0

> <s_lp_Force_Field>
OPLS_2005

> <r_lp_Energy>
6.48368

> <b_lp_Chiralities_Consistent>
1

> <s_lp_Variant>
AV-unprocessed.smi:1960-1

> <Gold.Version>
5.8.1

> <Gold.Id.Protein>
6NUR|6NUR_protein|mol2

> <Gold.PLP.Fitness>
41.2642

> <Gold.PLP.PLP>
-24.8187

> <Gold.PLP.part.hbond>
-5.4259

> <Gold.PLP.part.metal>
0.0000

> <Gold.PLP.part.buried>
-3.3244

> <Gold.PLP.part.nonpolar>
-16.3032

> <Gold.PLP.part.repulsive>
0.2190

> <Gold.PLP.ligand.clash>
0.0000

> <Gold.PLP.ligand.torsion>
1.4905

> <Gold.PLP.Chemscore.Hbond>
4.2256

> <Gold.PLP.Chemscore.CHOScore>
1.5647

> <Gold.PLP.Chemscore.Metal>
0.0000

> <Gold.Chemscore.Hbonds>
donor molecule, donor type, donor heavy atom, donor atom, acceptor molecule, acceptor atom, score
      L1  H     9    29       P1  7948  1.00
      L1  H    12    30       P1  7948  1.00
      P1  H  6896  6909       L1     3  0.37
      P1  H  6931  6943       L1     4  0.53
      P1  H  6934  6947       L1     4  0.58
      L1  C    15    32       P1 10747  0.76
      L1  C    17    33       P1 10186  0.74

> <Gold.PLP.Chemscore.Internal.Correction>
2.0556

> <Gold.Rescore>
     Score         DG    S(hbond)    S(metal)    S(lipo)     H(rot)  DE(clash)    DE(int)     intcor
     18.37     -21.29       3.98        0.00      43.43       1.00       0.04       2.88       ----

> <Gold.Chemscore.Fitness>
18.3666

> <Gold.Chemscore.DG>
-21.2920

> <Gold.Chemscore.ZeroCoef>
-5.4800

> <Gold.Chemscore.Hbond>
3.9792

> <Gold.Chemscore.Metal>
0.0000

> <Gold.Chemscore.Lipo>
43.4313

> <Gold.Chemscore.Internal_Hbond>
0.0000

> <Gold.Chemscore.DEClash>
0.0431

> <Gold.Chemscore.DEInternal>
2.8823

> <Gold.Chemscore.Rot>
1.0000

> <Gold.Chemscore.Internal.Correction>
   9.000000E+99

> <Gold.Chemscore.Hbonds>
donor molecule, donor type, donor heavy atom, donor atom, acceptor molecule, acceptor atom, score
      L1  H     9    29       P1  7948  0.96
      L1  H    12    30       P1  7948  0.93
      P1  H  6896  6909       L1     3  0.37
      P1  H  6931  6943       L1     4  0.54
      P1  H  6934  6947       L1     4  0.58
      P1  H 10785 10796       L1    16  0.01

> <Gold.Chemscore.Hbond.Weighted>
-13.2906

> <Gold.Chemscore.Metal.Weighted>
-0.0000

> <Gold.Chemscore.Lipo.Weighted>
-5.0815

> <Gold.Chemscore.Internal_Hbond.Weighted>
0.0000

> <Gold.Chemscore.DEClash.Weighted>
0.0431

> <Gold.Chemscore.DEInternal.Weighted>
2.8823

> <Gold.Chemscore.Rot.Weighted>
2.5600

> <Gold.Chemscore.Internal.Correction.Weighted>
   9.000000E+99

> <Gold.Protein.RotatedTorsions>
[ 6907 6896 6895 6894 ] final   43.73 input  -60.11 | X-H torsion
[ 7974 7965 7964 7962 ] final  -46.37 input  175.53 | X-H torsion
[ 8008 7997 7996 7995 ] final  -47.21 input   59.86 | X-H torsion
[ 10167 10162 10161 10158 ] final  179.14 input  -65.29 | X-H torsion
[ 10718 10713 10712 10709 ] final  -59.74 input   66.30 | X-H torsion
[ 10763 10752 10751 10750 ] final  -12.76 input  -60.55 | X-H torsion
[ 11005 11000 10999 10996 ] final  -34.72 input  -57.11 | X-H torsion

> <Gold.Protein.ActiveResidues>
 VAL166  LYS551  ARG553  GLY616  TRP617  ASP618  TYR619  PRO620  LYS621  CYS622 
 ASP623  PHE694  ASN695  SER759  ASP760  ASP761  ALA762  ILE779  LEU786  VAL792 
 PHE793  MET794  SER795  GLU796  ALA797  LYS798  CYS799  TRP800  GLU811  SER814 

> <Gold.Protein.RotatedAtoms>
  152.2238  134.8387  160.0482 H   0  0  0  0  0  0  0  0  0  0  0  0  # atno 6907 bound_to 6896
  151.9161  133.3568  159.3889 H   0  0  0  0  0  0  0  0  0  0  0  0  # atno 6908 bound_to 6896
  150.7007  134.4608  159.5424 H   0  0  0  0  0  0  0  0  0  0  0  0  # atno 6909 bound_to 6896
  145.9726  140.7367  142.9403 H   0  0  0  0  0  0  0  0  0  0  0  0  # atno 7974 bound_to 7965
  154.4014  140.1352  156.4138 H   0  0  0  0  0  0  0  0  0  0  0  0  # atno 8008 bound_to 7997
  155.7708  140.3484  155.5225 H   0  0  0  0  0  0  0  0  0  0  0  0  # atno 8009 bound_to 7997
  155.8769  140.0981  157.1502 H   0  0  0  0  0  0  0  0  0  0  0  0  # atno 8010 bound_to 7997
  139.5323  144.2596  152.0717 H   0  0  0  0  0  0  0  0  0  0  0  0  # atno 10167 bound_to 10162
  156.1040  130.4182  150.0757 H   0  0  0  0  0  0  0  0  0  0  0  0  # atno 10718 bound_to 10713
  153.5032  135.7017  153.5820 H   0  0  0  0  0  0  0  0  0  0  0  0  # atno 10763 bound_to 10752
  153.3943  135.3888  155.1944 H   0  0  0  0  0  0  0  0  0  0  0  0  # atno 10764 bound_to 10752
  154.8709  135.3866  154.4505 H   0  0  0  0  0  0  0  0  0  0  0  0  # atno 10765 bound_to 10752
  140.9738  133.7094  156.1569 H   0  0  0  0  0  0  0  0  0  0  0  0  # atno 11005 bound_to 11000
  144.6841  140.2775  143.7297 LP  0  0  0  0  0  0  0  0  0  0  0  0  # atno 17320 bound_to 7965
  145.7884  139.1917  143.2117 LP  0  0  0  0  0  0  0  0  0  0  0  0  # atno 17321 bound_to 7965
  140.2062  144.4609  150.6407 LP  0  0  0  0  0  0  0  0  0  0  0  0  # atno 17342 bound_to 10162
  140.6510  143.2225  151.6078 LP  0  0  0  0  0  0  0  0  0  0  0  0  # atno 17343 bound_to 10162
  156.8737  130.9533  151.3606 LP  0  0  0  0  0  0  0  0  0  0  0  0  # atno 17370 bound_to 10713
  157.6214  130.8658  149.9116 LP  0  0  0  0  0  0  0  0  0  0  0  0  # atno 17371 bound_to 10713
  140.7289  134.4277  157.5568 LP  0  0  0  0  0  0  0  0  0  0  0  0  # atno 17394 bound_to 11000
  139.8923  134.8759  156.2279 LP  0  0  0  0  0  0  0  0  0  0  0  0  # atno 17395 bound_to 11000

$$$$
