#       Name:                AV-unprocessed.smi:249
#       Creating user name   scv26
#       Creation time:       Thu Mar 26 20:56:56 2020


#       File generated by GOLD software.
#

@<TRIPOS>MOLECULE
AV-unprocessed.smi:249
    72    75     1
SMALL
NO_CHARGES


@<TRIPOS>ATOM
      1 ****        -3.5337  -4.1521   3.6074 C.3            1 S1                 0.0000
      2 ****        -3.9138  -3.5191   2.2588 C.3            1 S1                 0.0000
      3 ****        -3.2692  -2.1950   2.0202 N.4            1 S1                 1.0000
      4 ****        -3.7257  -1.1707   3.0036 C.3            1 S1                 0.0000
      5 ****        -2.9700   0.1559   2.8511 C.3            1 S1                 0.0000
      6 ****        -3.1343   0.7118   1.4275 C.3            1 S1                 0.0000
      7 ****        -2.5039   2.0253   1.2371 N.3            1 S1                 0.0000
      8 ****        -3.0905   3.1572   1.9460 C.3            1 S1                 0.0000
      9 ****        -1.1516   2.0663   1.1721 C.ar           1 S1                 0.0000
     10 ****        -0.4220   2.1716   2.3139 N.ar           1 S1                 0.0000
     11 ****         0.9129   2.2042   2.2534 C.ar           1 S1                 0.0000
     12 ****         1.7012   2.1471   1.1780 N.ar           1 S1                 0.0000
     13 ****         0.9700   2.0512   0.0306 C.ar           1 S1                 0.0000
     14 ****        -0.4489   2.0075  -0.0611 C.ar           1 S1                 0.0000
     15 ****        -0.8388   1.9126  -1.3912 N.2            1 S1                 0.0000
     16 ****         0.2878   1.8982  -2.0505 C.2            1 S1                 0.0000
     17 ****         1.4227   1.9688  -1.2744 N.pl3          1 S1                 0.0000
     18 ****         2.7959   1.9674  -1.7478 C.3            1 S1                 0.0000
     19 ****         3.2674   0.5805  -2.2509 C.3            1 S1                 0.0000
     20 ****         3.0143  -0.5498  -1.2230 C.3            1 S1                 0.0000
     21 ****         3.7525  -0.3449  -0.0359 O.3            1 S1                 0.0000
     22 ****         4.7412   0.6185  -2.7283 C.3            1 S1                 0.0000
     23 ****         5.0248   1.6040  -3.8484 C.3            1 S1                 0.0000
     24 ****         6.3539   1.0930  -4.3917 C.3            1 S1                 0.0000
     25 ****         6.3022  -0.3211  -4.2476 O.3            1 S1                 0.0000
     26 ****         5.2430  -0.6823  -3.3661 C.3            1 S1                 0.0000
     27 ****        -2.6567  -0.3589   0.4300 C.3            1 S1                 0.0000
     28 ****        -3.4024  -1.6983   0.6112 C.3            1 S1                 0.0000
     29 ****        -2.8766  -2.6968  -0.4413 C.3            1 S1                 0.0000
     30 ****        -3.8913  -5.1809   3.6574 H              1 S1                 0.0000
     31 ****        -3.9749  -3.6264   4.4536 H              1 S1                 0.0000
     32 ****        -2.4520  -4.1740   3.7437 H              1 S1                 0.0000
     33 ****        -3.6020  -4.2344   1.5013 H              1 S1                 0.0000
     34 ****        -4.9974  -3.4275   2.1728 H              1 S1                 0.0000
     35 ****        -4.7982  -1.0057   2.8867 H              1 S1                 0.0000
     36 ****        -3.5714  -1.5183   4.0235 H              1 S1                 0.0000
     37 ****        -3.3469   0.8676   3.5857 H              1 S1                 0.0000
     38 ****        -1.9160  -0.0027   3.0819 H              1 S1                 0.0000
     39 ****        -4.1999   0.8651   1.2513 H              1 S1                 0.0000
     40 ****        -2.6893   4.0981   1.5673 H              1 S1                 0.0000
     41 ****        -2.8893   3.1059   3.0164 H              1 S1                 0.0000
     42 ****        -4.1712   3.1751   1.8039 H              1 S1                 0.0000
     43 ****         1.4226   2.2887   3.2019 H              1 S1                 0.0000
     44 ****         0.3237   1.8306  -3.1283 H              1 S1                 0.0000
     45 ****         2.8675   2.7087  -2.5439 H              1 S1                 0.0000
     46 ****         3.4441   2.3179  -0.9437 H              1 S1                 0.0000
     47 ****         2.6563   0.3400  -3.1223 H              1 S1                 0.0000
     48 ****         1.9565  -0.6219  -0.9701 H              1 S1                 0.0000
     49 ****         3.2879  -1.5195  -1.6387 H              1 S1                 0.0000
     50 ****         3.5767  -1.0600   0.5564 H              1 S1                 0.0000
     51 ****         5.3912   0.8653  -1.8870 H              1 S1                 0.0000
     52 ****         4.2551   1.5404  -4.6191 H              1 S1                 0.0000
     53 ****         5.0850   2.6386  -3.5090 H              1 S1                 0.0000
     54 ****         6.5233   1.3845  -5.4284 H              1 S1                 0.0000
     55 ****         7.1814   1.4738  -3.7916 H              1 S1                 0.0000
     56 ****         5.5825  -1.4041  -2.6229 H              1 S1                 0.0000
     57 ****         4.4565  -1.1531  -3.9574 H              1 S1                 0.0000
     58 ****        -2.8063   0.0060  -0.5869 H              1 S1                 0.0000
     59 ****        -1.5857  -0.5339   0.5445 H              1 S1                 0.0000
     60 ****        -4.4622  -1.5273   0.4143 H              1 S1                 0.0000
     61 ****        -2.8405  -2.2370  -1.4296 H              1 S1                 0.0000
     62 ****        -3.5180  -3.5715  -0.5426 H              1 S1                 0.0000
     63 ****        -1.8677  -3.0347  -0.2019 H              1 S1                 0.0000
     64 ****        -2.2807  -2.3282   2.1795 H              1 S1                 0.0000
     65 ****        -2.7835   2.1720   0.2882 LP             1 S1                 0.0000
     66 ****        -0.8839   2.2247   3.1993 LP             1 S1                 0.0000
     67 ****         2.7004   2.1716   1.2094 LP             1 S1                 0.0000
     68 ****        -1.7677   1.8661  -1.7586 LP             1 S1                 0.0000
     69 ****         3.4770   0.5183   0.3872 LP             1 S1                 0.0000
     70 ****         4.7294  -0.3154  -0.2477 LP             1 S1                 0.0000
     71 ****         7.1702  -0.6479  -3.8738 LP             1 S1                 0.0000
     72 ****         6.1459  -0.7397  -5.1422 LP             1 S1                 0.0000
@<TRIPOS>BOND
    1    1    2 1     
    2    1   30 1     
    3    1   31 1     
    4    1   32 1     
    5    2    3 1     
    6    2   33 1     
    7    2   34 1     
    8    3   28 1     
    9    3    4 1     
   10    3   64 1     
   11    4    5 1     
   12    4   35 1     
   13    4   36 1     
   14    5    6 1     
   15    5   37 1     
   16    5   38 1     
   17    6    7 1     
   18    6   27 1     
   19    6   39 1     
   20    7    8 1     
   21    7    9 1     
   22    8   40 1     
   23    8   41 1     
   24    8   42 1     
   25    9   14 ar    
   26    9   10 ar    
   27   10   11 ar    
   28   11   12 ar    
   29   11   43 1     
   30   12   13 ar    
   31   13   17 1     
   32   13   14 ar    
   33   14   15 1     
   34   15   16 2     
   35   16   17 1     
   36   16   44 1     
   37   17   18 1     
   38   18   19 1     
   39   18   45 1     
   40   18   46 1     
   41   19   20 1     
   42   19   22 1     
   43   19   47 1     
   44   20   21 1     
   45   20   48 1     
   46   20   49 1     
   47   21   50 1     
   48   22   26 1     
   49   22   23 1     
   50   22   51 1     
   51   23   24 1     
   52   23   52 1     
   53   23   53 1     
   54   24   25 1     
   55   24   54 1     
   56   24   55 1     
   57   25   26 1     
   58   26   56 1     
   59   26   57 1     
   60   27   28 1     
   61   27   58 1     
   62   27   59 1     
   63   28   29 1     
   64   28   60 1     
   65   29   61 1     
   66   29   62 1     
   67   29   63 1     
   68    7   65 1     
   69   10   66 1     
   70   12   67 1     
   71   15   68 1     
   72   21   69 1     
   73   21   70 1     
   74   25   71 1     
   75   25   72 1     
@<TRIPOS>SUBSTRUCTURE
      1 S1             1
@<TRIPOS>SET
LONE_PAIRS      STATIC     ATOMS    <user>   **** ""
8 65 66 67 68 69 70 71 72
DONOR_HYDROGENS      STATIC     ATOMS    <user>   **** ""
2 64 50
ATOM$BLUE        STATIC     ATOMS    COLORGROUP SYSTEM
8 65 66 67 68 69 70 71 72
ATOM$RED        STATIC     ATOMS    COLORGROUP SYSTEM
2 64 50
