AV-unprocessed.smi:21|AV-procd|sdf|132|dock4
  -GOLD-   2262015323D 1   1.00000     0.00000
 Structure written by MMmdl.
 62 65  0  0  0  0  0  0  0  0  2 V2000
  146.2372  131.4055  151.6516 C   0  0  0  0  0  0  0  0  0  0  0  0
  147.2656  131.3304  152.6259 O   0  0  0  0  0  0  0  0  0  0  0  0
  147.9786  132.5468  152.7962 C   0  0  2  0  0  0  0  0  0  0  0  0
  148.7607  132.6068  154.1036 C   0  0  0  0  0  0  0  0  0  0  0  0
  148.9148  134.1107  154.3824 C   0  0  2  0  0  0  0  0  0  0  0  0
  149.0710  134.4521  155.8873 C   0  0  0  0  0  0  0  0  0  0  0  0
  150.4041  134.9463  156.2370 N   0  0  0  0  0  0  0  0  0  0  0  0
  151.4715  133.9574  156.3698 C   0  0  0  0  0  0  0  0  0  0  0  0
  150.5247  136.1185  156.9218 C   0  0  0  0  0  0  0  0  0  0  0  0
  150.2156  136.1354  158.2468 N   0  0  0  0  0  0  0  0  0  0  0  0
  150.2915  137.2661  158.9531 C   0  0  0  0  0  0  0  0  0  0  0  0
  150.6499  138.4818  158.5412 N   0  0  0  0  0  0  0  0  0  0  0  0
  150.9735  138.4780  157.2173 C   0  0  0  0  0  0  0  0  0  0  0  0
  150.9437  137.3539  156.3412 C   0  0  0  0  0  0  0  0  0  0  0  0
  151.3562  137.7470  155.0720 N   0  0  0  0  0  0  0  0  0  0  0  0
  151.6007  139.0231  155.1873 C   0  0  0  0  0  0  0  0  0  0  0  0
  151.4024  139.5430  156.4445 N   0  0  0  0  0  0  0  0  0  0  0  0
  151.5986  140.9246  156.8507 C   0  0  0  0  0  0  0  0  0  0  0  0
  150.7474  141.3342  158.0796 C   0  0  2  0  0  0  0  0  0  0  0  0
  149.2309  141.2025  157.7820 C   0  0  0  0  0  0  0  0  0  0  0  0
  148.8326  142.0312  156.7103 O   0  0  0  0  0  0  0  0  0  0  0  0
  151.1346  142.7646  158.5479 C   0  0  1  0  0  0  0  0  0  0  0  0
  152.3792  142.8624  159.4145 C   0  0  0  0  0  0  0  0  0  0  0  0
  152.7477  144.3374  159.3014 C   0  0  0  0  0  0  0  0  0  0  0  0
  152.3287  144.7404  158.0034 O   0  0  0  0  0  0  0  0  0  0  0  0
  151.5207  143.7256  157.4168 C   0  0  0  0  0  0  0  0  0  0  0  0
  147.7650  134.7638  153.6866 N   0  3  2  0  0  0  0  0  0  0  0  0
  146.8937  135.6656  154.4767 C   0  0  0  0  0  0  0  0  0  0  0  0
  147.0126  133.7160  152.9613 C   0  0  0  0  0  0  0  0  0  0  0  0
  148.6385  132.7376  151.9477 H   0  0  0  0  0  0  0  0  0  0  0  0
  149.8016  134.4634  153.8542 H   0  0  0  0  0  0  0  0  0  0  0  0
  145.7045  130.4555  151.6116 H   0  0  0  0  0  0  0  0  0  0  0  0
  146.6399  131.6017  150.6575 H   0  0  0  0  0  0  0  0  0  0  0  0
  145.5150  132.1848  151.8978 H   0  0  0  0  0  0  0  0  0  0  0  0
  148.1727  132.1379  154.8937 H   0  0  0  0  0  0  0  0  0  0  0  0
  149.7188  132.0895  154.0461 H   0  0  0  0  0  0  0  0  0  0  0  0
  148.3737  135.2458  156.1544 H   0  0  0  0  0  0  0  0  0  0  0  0
  148.7844  133.6025  156.5009 H   0  0  0  0  0  0  0  0  0  0  0  0
  152.4469  134.4133  156.1953 H   0  0  0  0  0  0  0  0  0  0  0  0
  151.3485  133.1547  155.6424 H   0  0  0  0  0  0  0  0  0  0  0  0
  151.4685  133.5139  157.3663 H   0  0  0  0  0  0  0  0  0  0  0  0
  150.0257  137.1848  159.9969 H   0  0  0  0  0  0  0  0  0  0  0  0
  151.9401  139.6235  154.3557 H   0  0  0  0  0  0  0  0  0  0  0  0
  152.6617  141.0464  157.0581 H   0  0  0  0  0  0  0  0  0  0  0  0
  151.3739  141.5761  156.0054 H   0  0  0  0  0  0  0  0  0  0  0  0
  150.9910  140.6359  158.8821 H   0  0  0  0  0  0  0  0  0  0  0  0
  148.9669  140.1673  157.5640 H   0  0  0  0  0  0  0  0  0  0  0  0
  148.6252  141.5058  158.6348 H   0  0  0  0  0  0  0  0  0  0  0  0
  147.9503  142.3292  156.8726 H   0  0  0  0  0  0  0  0  0  0  0  0
  150.2993  143.2009  159.0988 H   0  0  0  0  0  0  0  0  0  0  0  0
  152.2106  142.5608  160.4483 H   0  0  0  0  0  0  0  0  0  0  0  0
  153.1795  142.2455  159.0030 H   0  0  0  0  0  0  0  0  0  0  0  0
  152.2017  144.9248  160.0407 H   0  0  0  0  0  0  0  0  0  0  0  0
  153.8134  144.5127  159.4492 H   0  0  0  0  0  0  0  0  0  0  0  0
  152.1150  143.2122  156.6595 H   0  0  0  0  0  0  0  0  0  0  0  0
  150.6516  144.1626  156.9242 H   0  0  0  0  0  0  0  0  0  0  0  0
  146.4143  135.1382  155.3023 H   0  0  0  0  0  0  0  0  0  0  0  0
  146.1078  136.0749  153.8411 H   0  0  0  0  0  0  0  0  0  0  0  0
  147.4572  136.5094  154.8748 H   0  0  0  0  0  0  0  0  0  0  0  0
  146.6277  134.0806  152.0086 H   0  0  0  0  0  0  0  0  0  0  0  0
  146.1606  133.3977  153.5655 H   0  0  0  0  0  0  0  0  0  0  0  0
  148.1860  135.3424  152.9735 H   0  0  0  0  0  0  0  0  0  0  0  0
  1  2  1  0  0  0  0
  1 32  1  0  0  0  0
  1 33  1  0  0  0  0
  1 34  1  0  0  0  0
  2  3  1  0  0  0  0
  3 30  1  0  0  0  0
  3 29  1  0  0  0  0
  3  4  1  0  0  0  0
  4  5  1  0  0  0  0
  4 35  1  0  0  0  0
  4 36  1  0  0  0  0
  5 31  1  0  0  0  0
  5  6  1  0  0  0  0
  5 27  1  0  0  0  0
  6  7  1  0  0  0  0
  6 37  1  0  0  0  0
  6 38  1  0  0  0  0
  7  8  1  0  0  0  0
  7  9  1  0  0  0  0
  8 39  1  0  0  0  0
  8 40  1  0  0  0  0
  8 41  1  0  0  0  0
  9 14  1  0  0  0  0
  9 10  2  0  0  0  0
 10 11  1  0  0  0  0
 11 12  2  0  0  0  0
 11 42  1  0  0  0  0
 12 13  1  0  0  0  0
 13 17  1  0  0  0  0
 13 14  2  0  0  0  0
 14 15  1  0  0  0  0
 15 16  2  0  0  0  0
 16 17  1  0  0  0  0
 16 43  1  0  0  0  0
 17 18  1  0  0  0  0
 18 19  1  0  0  0  0
 18 44  1  0  0  0  0
 18 45  1  0  0  0  0
 19 20  1  0  0  0  0
 19 22  1  0  0  0  0
 19 46  1  0  0  0  0
 20 21  1  0  0  0  0
 20 47  1  0  0  0  0
 20 48  1  0  0  0  0
 21 49  1  0  0  0  0
 22 26  1  0  0  0  0
 22 23  1  0  0  0  0
 22 50  1  0  0  0  0
 23 24  1  0  0  0  0
 23 51  1  0  0  0  0
 23 52  1  0  0  0  0
 24 25  1  0  0  0  0
 24 53  1  0  0  0  0
 24 54  1  0  0  0  0
 25 26  1  0  0  0  0
 26 55  1  0  0  0  0
 26 56  1  0  0  0  0
 27 28  1  0  0  0  0
 27 29  1  0  0  0  0
 27 62  1  0  0  0  0
 28 57  1  0  0  0  0
 28 58  1  0  0  0  0
 28 59  1  0  0  0  0
 29 60  1  0  0  0  0
 29 61  1  0  0  0  0
M  CHG  1  27   1
M  END
> <s_m_source_file>
AV-unprocessed.smi

> <i_m_source_file_index>
21

> <i_lp_mmshare_version>
43012

> <i_f3d_flags>
0

> <s_epik_input>
W0NIM11PW0NASF0xW0NIMl1bQ0BIXShOKFtDSDNdKVtDSDJdMSlbQ0gyXU4oW0NIM10pYyhuW2NIXW4yKWMoYzIzKW5bY0hdbjNbQ0gyXVtDQEhdKFtDSDJdW09IXSlbQ0BASF00W0NIMl1bQ0gyXU9bQ0gyXTQ=

> <s_epik_cmdline>
J2VwaWtfcHl0aG9uJywgJy1waCcsICc3LjAnLCAnLXRuJywgJzgnLCAnLW1hJywgJzIwMCcsICctbWV0YWxfYmluZGluZycsICctaW1hZScsICc8aW5maWxlLm1hZT4nLCAnLW9tYWUnLCAnPG91dGZpbGUubWFlPic=

> <r_lp_tautomer_probability>
1

> <r_epik_Ionization_Penalty>
0.0157465

> <r_epik_Ionization_Penalty_Charging>
0.015354

> <r_epik_Ionization_Penalty_Neutral>
0.000392529

> <r_epik_State_Penalty>
0.0120612

> <r_epik_Charging_Adjusted_Penalty>
0.0274152

> <i_epik_Tot_Q>
1

> <i_epik_Tot_abs_Q>
1

> <r_epik_Metal_State_Penalty>
0.0121253

> <b_epik_Metal_Only>
0

> <s_lp_Force_Field>
OPLS_2005

> <r_lp_Energy>
62.0887

> <b_lp_Chiralities_Consistent>
1

> <s_lp_Variant>
AV-unprocessed.smi:21-12

> <Gold.Version>
5.8.1

> <Gold.Id.Protein>
6NUR|6NUR_protein|mol2

> <Gold.PLP.Fitness>
46.7018

> <Gold.PLP.PLP>
-43.6309

> <Gold.PLP.part.hbond>
-3.0000

> <Gold.PLP.part.metal>
0.0000

> <Gold.PLP.part.buried>
-7.1951

> <Gold.PLP.part.nonpolar>
-33.4317

> <Gold.PLP.part.repulsive>
0.5833

> <Gold.PLP.ligand.clash>
0.0000

> <Gold.PLP.ligand.torsion>
3.3476

> <Gold.PLP.Chemscore.Hbond>
2.9833

> <Gold.PLP.Chemscore.CHOScore>
0.0000

> <Gold.PLP.Chemscore.Metal>
0.0000

> <Gold.Chemscore.Hbonds>
donor molecule, donor type, donor heavy atom, donor atom, acceptor molecule, acceptor atom, score
      L1  H    27    62       P1  7948  2.00
      P1  H  6896  6908       L1    10  0.93

> <Gold.PLP.Chemscore.Internal.Correction>
0.8160

> <Gold.Rescore>
     Score         DG    S(hbond)    S(metal)    S(lipo)     H(rot)  DE(clash)    DE(int)     intcor
     10.21     -14.95       1.62        0.00     102.09       3.08       0.10       4.65       ----

> <Gold.Chemscore.Fitness>
10.2067

> <Gold.Chemscore.DG>
-14.9495

> <Gold.Chemscore.ZeroCoef>
-5.4800

> <Gold.Chemscore.Hbond>
1.6166

> <Gold.Chemscore.Metal>
0.0000

> <Gold.Chemscore.Lipo>
102.0874

> <Gold.Chemscore.Internal_Hbond>
0.0000

> <Gold.Chemscore.DEClash>
0.0952

> <Gold.Chemscore.DEInternal>
4.6477

> <Gold.Chemscore.Rot>
3.0758

> <Gold.Chemscore.Internal.Correction>
   9.000000E+99

> <Gold.Chemscore.Hbonds>
donor molecule, donor type, donor heavy atom, donor atom, acceptor molecule, acceptor atom, score
      L1  H    27    62       P1  7948  0.98
      P1  H  6896  6908       L1    10  0.22

> <Gold.Chemscore.Hbond.Weighted>
-5.3995

> <Gold.Chemscore.Metal.Weighted>
-0.0000

> <Gold.Chemscore.Lipo.Weighted>
-11.9442

> <Gold.Chemscore.Internal_Hbond.Weighted>
0.0000

> <Gold.Chemscore.DEClash.Weighted>
0.0952

> <Gold.Chemscore.DEInternal.Weighted>
4.6477

> <Gold.Chemscore.Rot.Weighted>
7.8741

> <Gold.Chemscore.Internal.Correction.Weighted>
   9.000000E+99

> <Gold.Protein.RotatedTorsions>
[ 6907 6896 6895 6894 ] final -174.90 input  -60.11 | X-H torsion
[ 7974 7965 7964 7962 ] final   39.43 input  175.53 | X-H torsion
[ 8008 7997 7996 7995 ] final -139.67 input   59.86 | X-H torsion
[ 10167 10162 10161 10158 ] final   -9.18 input  -65.29 | X-H torsion
[ 10718 10713 10712 10709 ] final  -15.45 input   66.30 | X-H torsion
[ 10763 10752 10751 10750 ] final  -62.19 input  -60.55 | X-H torsion
[ 11005 11000 10999 10996 ] final  -48.47 input  -57.11 | X-H torsion

> <Gold.Protein.ActiveResidues>
 VAL166  LYS551  ARG553  GLY616  TRP617  ASP618  TYR619  PRO620  LYS621  CYS622 
 ASP623  PHE694  ASN695  SER759  ASP760  ASP761  ALA762  ILE779  LEU786  VAL792 
 PHE793  MET794  SER795  GLU796  ALA797  LYS798  CYS799  TRP800  GLU811  SER814 

> <Gold.Protein.RotatedAtoms>
  151.5798  133.3379  159.3005 H   0  0  0  0  0  0  0  0  0  0  0  0  # atno 6907 bound_to 6896
  150.8320  134.7580  159.6872 H   0  0  0  0  0  0  0  0  0  0  0  0  # atno 6908 bound_to 6896
  152.4402  134.5613  159.9946 H   0  0  0  0  0  0  0  0  0  0  0  0  # atno 6909 bound_to 6896
  146.0985  139.5653  142.9429 H   0  0  0  0  0  0  0  0  0  0  0  0  # atno 7974 bound_to 7965
  155.4487  140.0537  157.3003 H   0  0  0  0  0  0  0  0  0  0  0  0  # atno 8008 bound_to 7997
  154.4786  140.2072  155.9773 H   0  0  0  0  0  0  0  0  0  0  0  0  # atno 8009 bound_to 7997
  156.1171  140.3194  155.8160 H   0  0  0  0  0  0  0  0  0  0  0  0  # atno 8010 bound_to 7997
  140.7080  143.5887  150.8916 H   0  0  0  0  0  0  0  0  0  0  0  0  # atno 10167 bound_to 10162
  156.6015  130.4825  149.6238 H   0  0  0  0  0  0  0  0  0  0  0  0  # atno 10718 bound_to 10713
  154.2961  135.6244  153.5405 H   0  0  0  0  0  0  0  0  0  0  0  0  # atno 10763 bound_to 10752
  152.9846  135.5667  154.5336 H   0  0  0  0  0  0  0  0  0  0  0  0  # atno 10764 bound_to 10752
  154.4957  135.2869  155.1437 H   0  0  0  0  0  0  0  0  0  0  0  0  # atno 10765 bound_to 10752
  141.0703  133.6681  156.3446 H   0  0  0  0  0  0  0  0  0  0  0  0  # atno 11005 bound_to 11000
  145.5901  141.0371  143.2075 LP  0  0  0  0  0  0  0  0  0  0  0  0  # atno 17320 bound_to 7965
  144.7414  139.7439  143.7309 LP  0  0  0  0  0  0  0  0  0  0  0  0  # atno 17321 bound_to 7965
  139.9612  143.6161  152.3001 LP  0  0  0  0  0  0  0  0  0  0  0  0  # atno 17342 bound_to 10162
  139.6715  144.7660  151.1775 LP  0  0  0  0  0  0  0  0  0  0  0  0  # atno 17343 bound_to 10162
  156.2465  130.6882  151.1605 LP  0  0  0  0  0  0  0  0  0  0  0  0  # atno 17370 bound_to 10713
  157.7278  131.0636  150.5848 LP  0  0  0  0  0  0  0  0  0  0  0  0  # atno 17371 bound_to 10713
  140.5688  134.5861  157.5452 LP  0  0  0  0  0  0  0  0  0  0  0  0  # atno 17394 bound_to 11000
  139.9516  134.7606  156.0434 LP  0  0  0  0  0  0  0  0  0  0  0  0  # atno 17395 bound_to 11000

$$$$
