AV-unprocessed.smi:156|AV-procd|sdf|1288|dock3
  -GOLD-   2262018563D 1   1.00000     0.00000
 Structure written by MMmdl.
 51 53  0  0  0  0  0  0  0  0  1 V2000
  148.5468  139.0351  156.7342 C   0  0  0  0  0  0  0  0  0  0  0  0
  149.1992  138.1734  155.6349 C   0  0  1  0  0  0  0  0  0  0  0  0
  150.7192  137.9247  155.8786 C   0  0  2  0  0  0  0  0  0  0  0  0
  151.0219  137.3993  157.2947 C   0  0  0  0  0  0  0  0  0  0  0  0
  151.7694  139.4336  155.5509 S   0  0  0  0  0  0  0  0  0  0  0  0
  152.8403  138.9119  154.1446 C   0  0  0  0  0  0  0  0  0  0  0  0
  150.8933  140.5071  155.0572 O   0  0  0  0  0  0  0  0  0  0  0  0
  152.6411  139.6918  156.7067 O   0  0  0  0  0  0  0  0  0  0  0  0
  148.4290  136.9291  155.4724 N   0  0  0  0  0  0  0  0  0  0  0  0
  148.3642  135.9621  156.5658 C   0  0  0  0  0  0  0  0  0  0  0  0
  147.4635  136.8766  154.5112 C   0  0  0  0  0  0  0  0  0  0  0  0
  147.0089  138.0509  153.9994 N   0  0  0  0  0  0  0  0  0  0  0  0
  146.0794  138.0679  153.0413 C   0  0  0  0  0  0  0  0  0  0  0  0
  145.4711  137.0383  152.4537 N   0  0  0  0  0  0  0  0  0  0  0  0
  145.9112  135.8515  152.9598 C   0  0  0  0  0  0  0  0  0  0  0  0
  146.8965  135.6781  153.9761 C   0  0  0  0  0  0  0  0  0  0  0  0
  147.0715  134.3190  154.2178 N   0  0  0  0  0  0  0  0  0  0  0  0
  146.2554  133.7300  153.3887 C   0  0  0  0  0  0  0  0  0  0  0  0
  145.5052  134.5758  152.6049 N   0  0  0  0  0  0  0  0  0  0  0  0
  144.5231  134.1989  151.5970 C   0  0  0  0  0  0  0  0  0  0  0  0
  145.0425  133.2261  150.5101 C   0  0  0  0  0  0  0  0  0  0  0  0
  146.5420  133.4882  150.3132 C   0  0  0  0  0  0  0  0  0  0  0  0
  147.0793  132.6621  149.3002 O   0  0  0  0  0  0  0  0  0  0  0  0
  144.6585  131.7481  150.6938 C   0  0  0  0  0  0  0  0  0  0  0  0
  143.6237  131.8353  149.6922 O   0  0  0  0  0  0  0  0  0  0  0  0
  144.2067  133.0709  149.2275 C   0  0  0  0  0  0  0  0  0  0  0  0
  148.9612  140.0424  156.7585 H   0  0  0  0  0  0  0  0  0  0  0  0
  148.6812  138.5936  157.7222 H   0  0  0  0  0  0  0  0  0  0  0  0
  147.4751  139.1420  156.5620 H   0  0  0  0  0  0  0  0  0  0  0  0
  149.1299  138.7688  154.7263 H   0  0  0  0  0  0  0  0  0  0  0  0
  151.0748  137.1635  155.1858 H   0  0  0  0  0  0  0  0  0  0  0  0
  150.6127  136.4008  157.4463 H   0  0  0  0  0  0  0  0  0  0  0  0
  150.6029  138.0490  158.0626 H   0  0  0  0  0  0  0  0  0  0  0  0
  152.0948  137.3240  157.4703 H   0  0  0  0  0  0  0  0  0  0  0  0
  153.5110  139.7312  153.8866 H   0  0  0  0  0  0  0  0  0  0  0  0
  152.2272  138.6717  153.2772 H   0  0  0  0  0  0  0  0  0  0  0  0
  153.4350  138.0449  154.4242 H   0  0  0  0  0  0  0  0  0  0  0  0
  148.0880  134.9746  156.1943 H   0  0  0  0  0  0  0  0  0  0  0  0
  147.6319  136.2725  157.3115 H   0  0  0  0  0  0  0  0  0  0  0  0
  149.3242  135.8532  157.0667 H   0  0  0  0  0  0  0  0  0  0  0  0
  145.7822  139.0468  152.6953 H   0  0  0  0  0  0  0  0  0  0  0  0
  146.1797  132.6544  153.3289 H   0  0  0  0  0  0  0  0  0  0  0  0
  143.6670  133.7738  152.1217 H   0  0  0  0  0  0  0  0  0  0  0  0
  144.1568  135.1163  151.1348 H   0  0  0  0  0  0  0  0  0  0  0  0
  146.7286  134.5315  150.0567 H   0  0  0  0  0  0  0  0  0  0  0  0
  147.0963  133.2904  151.2313 H   0  0  0  0  0  0  0  0  0  0  0  0
  147.6393  132.0161  149.7030 H   0  0  0  0  0  0  0  0  0  0  0  0
  145.4405  131.0457  150.4006 H   0  0  0  0  0  0  0  0  0  0  0  0
  144.2758  131.4958  151.6816 H   0  0  0  0  0  0  0  0  0  0  0  0
  143.4687  133.8538  149.0613 H   0  0  0  0  0  0  0  0  0  0  0  0
  144.8069  132.9178  148.3288 H   0  0  0  0  0  0  0  0  0  0  0  0
  1  2  1  0  0  0  0
  1 27  1  0  0  0  0
  1 28  1  0  0  0  0
  1 29  1  0  0  0  0
  2  3  1  0  0  0  0
  2  9  1  0  0  0  0
  2 30  1  0  0  0  0
  3  4  1  0  0  0  0
  3  5  1  0  0  0  0
  3 31  1  0  0  0  0
  4 32  1  0  0  0  0
  4 33  1  0  0  0  0
  4 34  1  0  0  0  0
  5  6  1  0  0  0  0
  5  7  2  0  0  0  0
  5  8  2  0  0  0  0
  6 35  1  0  0  0  0
  6 36  1  0  0  0  0
  6 37  1  0  0  0  0
  9 10  1  0  0  0  0
  9 11  1  0  0  0  0
 10 38  1  0  0  0  0
 10 39  1  0  0  0  0
 10 40  1  0  0  0  0
 11 16  1  0  0  0  0
 11 12  2  0  0  0  0
 12 13  1  0  0  0  0
 13 14  2  0  0  0  0
 13 41  1  0  0  0  0
 14 15  1  0  0  0  0
 15 19  1  0  0  0  0
 15 16  2  0  0  0  0
 16 17  1  0  0  0  0
 17 18  2  0  0  0  0
 18 19  1  0  0  0  0
 18 42  1  0  0  0  0
 19 20  1  0  0  0  0
 20 21  1  0  0  0  0
 20 43  1  0  0  0  0
 20 44  1  0  0  0  0
 21 26  1  0  0  0  0
 21 22  1  0  0  0  0
 21 24  1  0  0  0  0
 22 23  1  0  0  0  0
 22 45  1  0  0  0  0
 22 46  1  0  0  0  0
 23 47  1  0  0  0  0
 24 25  1  0  0  0  0
 24 48  1  0  0  0  0
 24 49  1  0  0  0  0
 25 26  1  0  0  0  0
 26 50  1  0  0  0  0
 26 51  1  0  0  0  0
M  END
> <s_m_source_file>
AV-unprocessed.smi

> <i_m_source_file_index>
156

> <i_lp_mmshare_version>
43012

> <i_f3d_flags>
0

> <s_epik_input>
W0NIM11TKD1PKSg9TylbQ0BASF0oW0NIM10pW0NAQEhdKFtDSDNdKU4oW0NIM10pYyhuW2NIXW4xKWMoYzEyKW5bY0hdbjJbQ0gyXUMzKFtDSDJdW09IXSlbQ0gyXU9bQ0gyXTM=

> <s_epik_cmdline>
J2VwaWtfcHl0aG9uJywgJy1waCcsICc3LjAnLCAnLXRuJywgJzgnLCAnLW1hJywgJzIwMCcsICctbWV0YWxfYmluZGluZycsICctaW1hZScsICc8aW5maWxlLm1hZT4nLCAnLW9tYWUnLCAnPG91dGZpbGUubWFlPic=

> <r_lp_tautomer_probability>
1

> <r_epik_Ionization_Penalty>
0.00107697

> <r_epik_Ionization_Penalty_Charging>
0

> <r_epik_Ionization_Penalty_Neutral>
0.00107697

> <r_epik_State_Penalty>
0.000614712

> <r_epik_Charging_Adjusted_Penalty>
0.000614712

> <i_epik_Tot_Q>
0

> <i_epik_Tot_abs_Q>
0

> <r_epik_Metal_State_Penalty>
-0

> <b_epik_Metal_Only>
0

> <s_lp_Force_Field>
OPLS_2005

> <r_lp_Energy>
29.1467

> <b_lp_Chiralities_Consistent>
1

> <s_lp_Variant>
AV-unprocessed.smi:156-2

> <Gold.Version>
5.8.1

> <Gold.Id.Protein>
6NUR|6NUR_protein|mol2

> <Gold.PLP.Fitness>
42.9223

> <Gold.PLP.PLP>
-29.9094

> <Gold.PLP.part.hbond>
-5.5830

> <Gold.PLP.part.metal>
0.0000

> <Gold.PLP.part.buried>
-3.4811

> <Gold.PLP.part.nonpolar>
-20.3997

> <Gold.PLP.part.repulsive>
1.1327

> <Gold.PLP.ligand.clash>
0.0000

> <Gold.PLP.ligand.torsion>
1.6079

> <Gold.PLP.Chemscore.Hbond>
3.9920

> <Gold.PLP.Chemscore.CHOScore>
0.9242

> <Gold.PLP.Chemscore.Metal>
0.0000

> <Gold.Chemscore.Hbonds>
donor molecule, donor type, donor heavy atom, donor atom, acceptor molecule, acceptor atom, score
      L1  H    23    47       P1 10747  1.00
      P1  H  7989  7998       L1     7  1.00
      P1  H  7997  8010       L1     8  1.00
      P1  H 10785 10796       L1    25  0.94
      L1  C    13    41       P1 10175  0.97

> <Gold.PLP.Chemscore.Internal.Correction>
1.4801

> <Gold.Rescore>
     Score         DG    S(hbond)    S(metal)    S(lipo)     H(rot)  DE(clash)    DE(int)     intcor
     15.05     -17.00       3.77        0.00      61.00       3.21       0.38       1.58       ----

> <Gold.Chemscore.Fitness>
15.0512

> <Gold.Chemscore.DG>
-17.0026

> <Gold.Chemscore.ZeroCoef>
-5.4800

> <Gold.Chemscore.Hbond>
3.7747

> <Gold.Chemscore.Metal>
0.0000

> <Gold.Chemscore.Lipo>
60.9968

> <Gold.Chemscore.Internal_Hbond>
0.0000

> <Gold.Chemscore.DEClash>
0.3754

> <Gold.Chemscore.DEInternal>
1.5760

> <Gold.Chemscore.Rot>
3.2115

> <Gold.Chemscore.Internal.Correction>
   9.000000E+99

> <Gold.Chemscore.Hbonds>
donor molecule, donor type, donor heavy atom, donor atom, acceptor molecule, acceptor atom, score
      L1  H    23    47       P1 10747  1.00
      P1  H  7989  7998       L1     7  0.33
      P1  H  7997  8010       L1     8  0.98
      P1  H 10785 10796       L1    25  0.81

> <Gold.Chemscore.Hbond.Weighted>
-12.6075

> <Gold.Chemscore.Metal.Weighted>
-0.0000

> <Gold.Chemscore.Lipo.Weighted>
-7.1366

> <Gold.Chemscore.Internal_Hbond.Weighted>
0.0000

> <Gold.Chemscore.DEClash.Weighted>
0.3754

> <Gold.Chemscore.DEInternal.Weighted>
1.5760

> <Gold.Chemscore.Rot.Weighted>
8.2215

> <Gold.Chemscore.Internal.Correction.Weighted>
   9.000000E+99

> <Gold.Protein.RotatedTorsions>
[ 6907 6896 6895 6894 ] final   68.99 input  -60.11 | X-H torsion
[ 7974 7965 7964 7962 ] final   79.89 input  175.53 | X-H torsion
[ 8008 7997 7996 7995 ] final   68.49 input   59.86 | X-H torsion
[ 10167 10162 10161 10158 ] final -150.96 input  -65.29 | X-H torsion
[ 10718 10713 10712 10709 ] final  -76.03 input   66.30 | X-H torsion
[ 10763 10752 10751 10750 ] final   42.70 input  -60.55 | X-H torsion
[ 11005 11000 10999 10996 ] final -119.01 input  -57.11 | X-H torsion

> <Gold.Protein.ActiveResidues>
 VAL166  LYS551  ARG553  GLY616  TRP617  ASP618  TYR619  PRO620  LYS621  CYS622 
 ASP623  PHE694  ASN695  SER759  ASP760  ASP761  ALA762  ILE779  LEU786  VAL792 
 PHE793  MET794  SER795  GLU796  ALA797  LYS798  CYS799  TRP800  GLU811  SER814 

> <Gold.Protein.RotatedAtoms>
  152.4656  134.5082  159.9745 H   0  0  0  0  0  0  0  0  0  0  0  0  # atno 6907 bound_to 6896
  151.5120  133.3477  159.2894 H   0  0  0  0  0  0  0  0  0  0  0  0  # atno 6908 bound_to 6896
  150.8640  134.8027  159.7166 H   0  0  0  0  0  0  0  0  0  0  0  0  # atno 6909 bound_to 6896
  145.6583  139.2465  143.1937 H   0  0  0  0  0  0  0  0  0  0  0  0  # atno 7974 bound_to 7965
  155.7091  140.3494  155.4966 H   0  0  0  0  0  0  0  0  0  0  0  0  # atno 8008 bound_to 7997
  155.9372  140.1095  157.1107 H   0  0  0  0  0  0  0  0  0  0  0  0  # atno 8009 bound_to 7997
  154.4096  140.1220  156.4866 H   0  0  0  0  0  0  0  0  0  0  0  0  # atno 8010 bound_to 7997
  139.7308  143.8811  152.2534 H   0  0  0  0  0  0  0  0  0  0  0  0  # atno 10167 bound_to 10162
  156.0188  130.4455  150.3133 H   0  0  0  0  0  0  0  0  0  0  0  0  # atno 10718 bound_to 10713
  152.9877  135.6124  154.2992 H   0  0  0  0  0  0  0  0  0  0  0  0  # atno 10763 bound_to 10752
  154.2714  135.2779  155.2738 H   0  0  0  0  0  0  0  0  0  0  0  0  # atno 10764 bound_to 10752
  154.5119  135.5838  153.6668 H   0  0  0  0  0  0  0  0  0  0  0  0  # atno 10765 bound_to 10752
  141.0246  134.0073  157.3233 H   0  0  0  0  0  0  0  0  0  0  0  0  # atno 11005 bound_to 11000
  146.1147  140.7385  142.9486 LP  0  0  0  0  0  0  0  0  0  0  0  0  # atno 17320 bound_to 7965
  144.7098  140.3995  143.7089 LP  0  0  0  0  0  0  0  0  0  0  0  0  # atno 17321 bound_to 7965
  139.8733  144.7056  150.8962 LP  0  0  0  0  0  0  0  0  0  0  0  0  # atno 17342 bound_to 10162
  140.7771  143.3720  151.1632 LP  0  0  0  0  0  0  0  0  0  0  0  0  # atno 17343 bound_to 10162
  157.1234  131.0253  151.3000 LP  0  0  0  0  0  0  0  0  0  0  0  0  # atno 17370 bound_to 10713
  157.4609  130.7653  149.7235 LP  0  0  0  0  0  0  0  0  0  0  0  0  # atno 17371 bound_to 10713
  139.9167  135.0197  156.7910 LP  0  0  0  0  0  0  0  0  0  0  0  0  # atno 17394 bound_to 11000
  140.6514  133.9728  155.7757 LP  0  0  0  0  0  0  0  0  0  0  0  0  # atno 17395 bound_to 11000

$$$$
