AV-unprocessed.smi:2110|AV-procd|sdf|8608|dock1
  -GOLD-   2272011353D 1   1.00000     0.00000
 Structure written by MMmdl.
 46 47  0  0  0  0  0  0  0  0  1 V2000
  149.6362  132.1340  156.1460 C   0  0  0  0  0  0  0  0  0  0  0  0
  150.3045  133.0525  155.1103 C   0  0  0  0  0  0  0  0  0  0  0  0
  149.6024  134.3403  154.9416 N   0  0  0  0  0  0  0  0  0  0  0  0
  148.2243  134.2840  154.4161 C   0  0  0  0  0  0  0  0  0  0  0  0
  148.0019  133.1202  153.4390 C   0  0  0  0  0  0  0  0  0  0  0  0
  150.1719  135.7677  155.7548 S   0  0  0  0  0  0  0  0  0  0  0  0
  149.1520  136.2161  156.7153 O   0  0  0  0  0  0  0  0  0  0  0  0
  151.5665  135.5630  156.1754 O   0  0  0  0  0  0  0  0  0  0  0  0
  150.1752  136.8640  154.4301 N   0  0  0  0  0  0  0  0  0  0  0  0
  151.1538  137.9454  154.3435 C   0  0  0  0  0  0  0  0  0  0  0  0
  150.6835  139.2690  154.9290 C   0  0  0  0  0  0  0  0  0  0  0  0
  149.4695  139.8280  154.4852 C   0  0  0  0  0  0  0  0  0  0  0  0
  149.0535  141.0558  155.0325 C   0  0  0  0  0  0  0  0  0  0  0  0
  149.7578  141.7252  155.9686 N   0  0  0  0  0  0  0  0  0  0  0  0
  150.9247  141.1959  156.4114 C   0  0  0  0  0  0  0  0  0  0  0  0
  151.6489  141.8966  157.3994 N   0  0  0  0  0  0  0  0  0  0  0  0
  151.9148  141.1511  158.6274 C   0  0  0  0  0  0  0  0  0  0  0  0
  152.9538  141.8902  159.4878 C   0  0  0  0  0  0  0  0  0  0  0  0
  152.5167  143.2228  159.7328 O   0  0  0  0  0  0  0  0  0  0  0  0
  152.3708  143.9635  158.5257 C   0  0  0  0  0  0  0  0  0  0  0  0
  151.3080  143.2979  157.6352 C   0  0  0  0  0  0  0  0  0  0  0  0
  151.4243  139.9722  155.9068 C   0  0  0  0  0  0  0  0  0  0  0  0
  150.1373  131.1667  156.1764 H   0  0  0  0  0  0  0  0  0  0  0  0
  148.5867  131.9522  155.9180 H   0  0  0  0  0  0  0  0  0  0  0  0
  149.6917  132.5553  157.1495 H   0  0  0  0  0  0  0  0  0  0  0  0
  151.3318  133.2539  155.4143 H   0  0  0  0  0  0  0  0  0  0  0  0
  150.3679  132.5401  154.1497 H   0  0  0  0  0  0  0  0  0  0  0  0
  147.5223  134.2040  155.2458 H   0  0  0  0  0  0  0  0  0  0  0  0
  147.9954  135.2279  153.9205 H   0  0  0  0  0  0  0  0  0  0  0  0
  146.9609  133.0887  153.1173 H   0  0  0  0  0  0  0  0  0  0  0  0
  148.2287  132.1583  153.8964 H   0  0  0  0  0  0  0  0  0  0  0  0
  148.6117  133.2251  152.5421 H   0  0  0  0  0  0  0  0  0  0  0  0
  149.8458  136.4844  153.5434 H   0  0  0  0  0  0  0  0  0  0  0  0
  152.0696  137.6322  154.8456 H   0  0  0  0  0  0  0  0  0  0  0  0
  151.4046  138.1069  153.2946 H   0  0  0  0  0  0  0  0  0  0  0  0
  148.8692  139.3300  153.7379 H   0  0  0  0  0  0  0  0  0  0  0  0
  148.1294  141.5123  154.7108 H   0  0  0  0  0  0  0  0  0  0  0  0
  150.9816  141.0438  159.1816 H   0  0  0  0  0  0  0  0  0  0  0  0
  152.2766  140.1450  158.4203 H   0  0  0  0  0  0  0  0  0  0  0  0
  153.0824  141.3787  160.4416 H   0  0  0  0  0  0  0  0  0  0  0  0
  153.9286  141.8994  158.9973 H   0  0  0  0  0  0  0  0  0  0  0  0
  152.0716  144.9831  158.7680 H   0  0  0  0  0  0  0  0  0  0  0  0
  153.3291  144.0270  158.0076 H   0  0  0  0  0  0  0  0  0  0  0  0
  151.2412  143.8346  156.6879 H   0  0  0  0  0  0  0  0  0  0  0  0
  150.3298  143.3569  158.1147 H   0  0  0  0  0  0  0  0  0  0  0  0
  152.3705  139.5925  156.2597 H   0  0  0  0  0  0  0  0  0  0  0  0
  1  2  1  0  0  0  0
  1 23  1  0  0  0  0
  1 24  1  0  0  0  0
  1 25  1  0  0  0  0
  2  3  1  0  0  0  0
  2 26  1  0  0  0  0
  2 27  1  0  0  0  0
  3  4  1  0  0  0  0
  3  6  1  0  0  0  0
  4  5  1  0  0  0  0
  4 28  1  0  0  0  0
  4 29  1  0  0  0  0
  5 30  1  0  0  0  0
  5 31  1  0  0  0  0
  5 32  1  0  0  0  0
  6  7  2  0  0  0  0
  6  8  2  0  0  0  0
  6  9  1  0  0  0  0
  9 10  1  0  0  0  0
  9 33  1  0  0  0  0
 10 11  1  0  0  0  0
 10 34  1  0  0  0  0
 10 35  1  0  0  0  0
 11 22  1  0  0  0  0
 11 12  2  0  0  0  0
 12 13  1  0  0  0  0
 12 36  1  0  0  0  0
 13 14  2  0  0  0  0
 13 37  1  0  0  0  0
 14 15  1  0  0  0  0
 15 16  1  0  0  0  0
 15 22  2  0  0  0  0
 16 21  1  0  0  0  0
 16 17  1  0  0  0  0
 17 18  1  0  0  0  0
 17 38  1  0  0  0  0
 17 39  1  0  0  0  0
 18 19  1  0  0  0  0
 18 40  1  0  0  0  0
 18 41  1  0  0  0  0
 19 20  1  0  0  0  0
 20 21  1  0  0  0  0
 20 42  1  0  0  0  0
 20 43  1  0  0  0  0
 21 44  1  0  0  0  0
 21 45  1  0  0  0  0
 22 46  1  0  0  0  0
M  END
> <s_m_source_file>
AV-unprocessed.smi

> <i_m_source_file_index>
2110

> <i_lp_mmshare_version>
43012

> <i_f3d_flags>
0

> <s_epik_input>
W0NIM11bQ0gyXU4oW0NIMl1bQ0gzXSlTKD1PKSg9TylbTkhdW0NIMl1jMVtjSF1bY0hdbmMoW2NIXTEpTjJbQ0gyXVtDSDJdT1tDSDJdW0NIMl0y

> <s_epik_cmdline>
J2VwaWtfcHl0aG9uJywgJy1waCcsICc3LjAnLCAnLXRuJywgJzgnLCAnLW1hJywgJzIwMCcsICctbWV0YWxfYmluZGluZycsICctaW1hZScsICc8aW5maWxlLm1hZT4nLCAnLW9tYWUnLCAnPG91dGZpbGUubWFlPic=

> <r_lp_tautomer_probability>
1

> <r_epik_Ionization_Penalty>
0.0503757

> <r_epik_Ionization_Penalty_Charging>
0

> <r_epik_Ionization_Penalty_Neutral>
0.0503757

> <r_epik_State_Penalty>
0.0467666

> <r_epik_Charging_Adjusted_Penalty>
0.0467666

> <i_epik_Tot_Q>
0

> <i_epik_Tot_abs_Q>
0

> <r_epik_Metal_State_Penalty>
0.311919

> <b_epik_Metal_Only>
0

> <s_lp_Force_Field>
OPLS_2005

> <r_lp_Energy>
13.6867

> <b_lp_Chiralities_Consistent>
1

> <s_lp_Variant>
AV-unprocessed.smi:2110-1

> <Gold.Version>
5.8.1

> <Gold.Id.Protein>
6NUR|6NUR_protein|mol2

> <Gold.PLP.Fitness>
47.0698

> <Gold.PLP.PLP>
-42.7560

> <Gold.PLP.part.hbond>
-2.5763

> <Gold.PLP.part.metal>
0.0000

> <Gold.PLP.part.buried>
-4.3988

> <Gold.PLP.part.nonpolar>
-36.9608

> <Gold.PLP.part.repulsive>
0.2208

> <Gold.PLP.ligand.clash>
0.0000

> <Gold.PLP.ligand.torsion>
2.5216

> <Gold.PLP.Chemscore.Hbond>
1.9000

> <Gold.PLP.Chemscore.CHOScore>
0.0000

> <Gold.PLP.Chemscore.Metal>
0.0000

> <Gold.Chemscore.Hbonds>
donor molecule, donor type, donor heavy atom, donor atom, acceptor molecule, acceptor atom, score
      L1  H     9    33       P1  7948  1.00
      P1  H 10752 10763       L1     8  1.00

> <Gold.PLP.Chemscore.Internal.Correction>
3.6570

> <Gold.Rescore>
     Score         DG    S(hbond)    S(metal)    S(lipo)     H(rot)  DE(clash)    DE(int)     intcor
     15.95     -18.39       1.94        0.00      92.50       1.72       0.06       2.39       ----

> <Gold.Chemscore.Fitness>
15.9482

> <Gold.Chemscore.DG>
-18.3905

> <Gold.Chemscore.ZeroCoef>
-5.4800

> <Gold.Chemscore.Hbond>
1.9418

> <Gold.Chemscore.Metal>
0.0000

> <Gold.Chemscore.Lipo>
92.4979

> <Gold.Chemscore.Internal_Hbond>
0.0000

> <Gold.Chemscore.DEClash>
0.0558

> <Gold.Chemscore.DEInternal>
2.3865

> <Gold.Chemscore.Rot>
1.7177

> <Gold.Chemscore.Internal.Correction>
   9.000000E+99

> <Gold.Chemscore.Hbonds>
donor molecule, donor type, donor heavy atom, donor atom, acceptor molecule, acceptor atom, score
      L1  H     9    33       P1  7948  0.26
      P1  H 10752 10763       L1     8  0.99

> <Gold.Chemscore.Hbond.Weighted>
-6.4856

> <Gold.Chemscore.Metal.Weighted>
-0.0000

> <Gold.Chemscore.Lipo.Weighted>
-10.8223

> <Gold.Chemscore.Internal_Hbond.Weighted>
0.0000

> <Gold.Chemscore.DEClash.Weighted>
0.0558

> <Gold.Chemscore.DEInternal.Weighted>
2.3865

> <Gold.Chemscore.Rot.Weighted>
4.3974

> <Gold.Chemscore.Internal.Correction.Weighted>
   9.000000E+99

> <Gold.Protein.RotatedTorsions>
[ 6907 6896 6895 6894 ] final   20.48 input  -60.11 | X-H torsion
[ 7974 7965 7964 7962 ] final -178.45 input  175.53 | X-H torsion
[ 8008 7997 7996 7995 ] final   78.58 input   59.86 | X-H torsion
[ 10167 10162 10161 10158 ] final  -50.37 input  -65.29 | X-H torsion
[ 10718 10713 10712 10709 ] final  -31.39 input   66.30 | X-H torsion
[ 10763 10752 10751 10750 ] final   82.21 input  -60.55 | X-H torsion
[ 11005 11000 10999 10996 ] final -165.45 input  -57.11 | X-H torsion

> <Gold.Protein.ActiveResidues>
 VAL166  LYS551  ARG553  GLY616  TRP617  ASP618  TYR619  PRO620  LYS621  CYS622 
 ASP623  PHE694  ASN695  SER759  ASP760  ASP761  ALA762  ILE779  LEU786  VAL792 
 PHE793  MET794  SER795  GLU796  ALA797  LYS798  CYS799  TRP800  GLU811  SER814 

> <Gold.Protein.RotatedAtoms>
  151.8971  135.0393  160.0502 H   0  0  0  0  0  0  0  0  0  0  0  0  # atno 6907 bound_to 6896
  152.2389  133.5114  159.5267 H   0  0  0  0  0  0  0  0  0  0  0  0  # atno 6908 bound_to 6896
  150.7047  134.1033  159.4016 H   0  0  0  0  0  0  0  0  0  0  0  0  # atno 6909 bound_to 6896
  144.7131  140.0866  143.6423 H   0  0  0  0  0  0  0  0  0  0  0  0  # atno 7974 bound_to 7965
  155.8577  140.3455  155.5735 H   0  0  0  0  0  0  0  0  0  0  0  0  # atno 8008 bound_to 7997
  155.7968  140.0879  157.1999 H   0  0  0  0  0  0  0  0  0  0  0  0  # atno 8009 bound_to 7997
  154.4010  140.1473  156.3214 H   0  0  0  0  0  0  0  0  0  0  0  0  # atno 8010 bound_to 7997
  140.6641  143.2660  151.4349 H   0  0  0  0  0  0  0  0  0  0  0  0  # atno 10167 bound_to 10162
  156.3879  130.4367  149.7417 H   0  0  0  0  0  0  0  0  0  0  0  0  # atno 10718 bound_to 10713
  153.1183  135.4737  154.9152 H   0  0  0  0  0  0  0  0  0  0  0  0  # atno 10763 bound_to 10752
  154.7550  135.3116  154.8489 H   0  0  0  0  0  0  0  0  0  0  0  0  # atno 10764 bound_to 10752
  153.9060  135.6870  153.4806 H   0  0  0  0  0  0  0  0  0  0  0  0  # atno 10765 bound_to 10752
  140.5755  134.5194  157.5169 H   0  0  0  0  0  0  0  0  0  0  0  0  # atno 11005 bound_to 11000
  145.9656  139.2832  143.1129 LP  0  0  0  0  0  0  0  0  0  0  0  0  # atno 17320 bound_to 7965
  145.9173  140.9139  143.0423 LP  0  0  0  0  0  0  0  0  0  0  0  0  # atno 17321 bound_to 7965
  139.5884  144.1554  152.2057 LP  0  0  0  0  0  0  0  0  0  0  0  0  # atno 17342 bound_to 10162
  140.0901  144.5628  150.7061 LP  0  0  0  0  0  0  0  0  0  0  0  0  # atno 17343 bound_to 10162
  156.4482  130.7894  151.2915 LP  0  0  0  0  0  0  0  0  0  0  0  0  # atno 17370 bound_to 10713
  157.7497  131.0103  150.3303 LP  0  0  0  0  0  0  0  0  0  0  0  0  # atno 17371 bound_to 10713
  139.9341  134.7907  156.0849 LP  0  0  0  0  0  0  0  0  0  0  0  0  # atno 17394 bound_to 11000
  141.1029  133.6670  156.2796 LP  0  0  0  0  0  0  0  0  0  0  0  0  # atno 17395 bound_to 11000

$$$$
