AV-unprocessed.smi:698|AV-procd|sdf|3398|dock8
  -GOLD-   22720 0383D 1   1.00000     0.00000
 Structure written by MMmdl.
 33 34  0  0  0  0  0  0  0  0  1 V2000
  152.7602  144.8724  157.8291 C   0  0  0  0  0  0  0  0  0  0  0  0
  151.8428  144.9310  159.0528 C   0  0  0  0  0  0  0  0  0  0  0  0
  152.3727  144.0790  160.0642 O   0  0  0  0  0  0  0  0  0  0  0  0
  152.5762  142.7480  159.7619 C   0  0  0  0  0  0  0  0  0  0  0  0
  153.2048  141.9264  160.7164 C   0  0  0  0  0  0  0  0  0  0  0  0
  153.4095  140.5706  160.4040 C   0  0  0  0  0  0  0  0  0  0  0  0
  152.9812  140.0889  159.1524 C   0  0  0  0  0  0  0  0  0  0  0  0
  152.3595  140.9745  158.2445 C   0  0  0  0  0  0  0  0  0  0  0  0
  151.9656  140.3953  157.0093 N   0  0  0  0  0  0  0  0  0  0  0  0
  152.5181  139.3510  156.3637 C   0  0  0  0  0  0  0  0  0  0  0  0
  153.4811  138.7032  156.7769 O   0  0  0  0  0  0  0  0  0  0  0  0
  151.8508  138.9699  155.0368 C   0  0  1  0  0  0  0  0  0  0  0  0
  151.1547  137.5949  155.0415 C   0  0  0  0  0  0  0  0  0  0  0  0
  149.6801  137.9373  154.9500 C   0  0  0  0  0  0  0  0  0  0  0  0
  149.7111  139.2583  154.1951 C   0  0  0  0  0  0  0  0  0  0  0  0
  150.8258  139.9242  154.7660 O   0  0  0  0  0  0  0  0  0  0  0  0
  152.1648  142.2788  158.5583 N   0  0  0  0  0  0  0  0  0  0  0  0
  152.3921  145.5233  157.0357 H   0  0  0  0  0  0  0  0  0  0  0  0
  152.8175  143.8591  157.4312 H   0  0  0  0  0  0  0  0  0  0  0  0
  153.7713  145.1921  158.0821 H   0  0  0  0  0  0  0  0  0  0  0  0
  151.7821  145.9584  159.4158 H   0  0  0  0  0  0  0  0  0  0  0  0
  150.8376  144.6123  158.7720 H   0  0  0  0  0  0  0  0  0  0  0  0
  153.5225  142.3276  161.6675 H   0  0  0  0  0  0  0  0  0  0  0  0
  153.8877  139.9103  161.1122 H   0  0  0  0  0  0  0  0  0  0  0  0
  153.1321  139.0502  158.8962 H   0  0  0  0  0  0  0  0  0  0  0  0
  151.1662  140.8211  156.5639 H   0  0  0  0  0  0  0  0  0  0  0  0
  152.5840  139.0009  154.2287 H   0  0  0  0  0  0  0  0  0  0  0  0
  151.4604  137.0284  154.1611 H   0  0  0  0  0  0  0  0  0  0  0  0
  151.3777  136.9792  155.9138 H   0  0  0  0  0  0  0  0  0  0  0  0
  149.0911  137.1704  154.4465 H   0  0  0  0  0  0  0  0  0  0  0  0
  149.2673  138.0876  155.9485 H   0  0  0  0  0  0  0  0  0  0  0  0
  149.8862  139.0965  153.1304 H   0  0  0  0  0  0  0  0  0  0  0  0
  148.7938  139.8353  154.3127 H   0  0  0  0  0  0  0  0  0  0  0  0
  1  2  1  0  0  0  0
  1 18  1  0  0  0  0
  1 19  1  0  0  0  0
  1 20  1  0  0  0  0
  2  3  1  0  0  0  0
  2 21  1  0  0  0  0
  2 22  1  0  0  0  0
  3  4  1  0  0  0  0
  4 17  1  0  0  0  0
  4  5  2  0  0  0  0
  5  6  1  0  0  0  0
  5 23  1  0  0  0  0
  6  7  2  0  0  0  0
  6 24  1  0  0  0  0
  7  8  1  0  0  0  0
  7 25  1  0  0  0  0
  8  9  1  0  0  0  0
  8 17  2  0  0  0  0
  9 10  1  0  0  0  0
  9 26  1  0  0  0  0
 10 11  2  0  0  0  0
 10 12  1  0  0  0  0
 12 16  1  0  0  0  0
 12 13  1  0  0  0  0
 12 27  1  0  0  0  0
 13 14  1  0  0  0  0
 13 28  1  0  0  0  0
 13 29  1  0  0  0  0
 14 15  1  0  0  0  0
 14 30  1  0  0  0  0
 14 31  1  0  0  0  0
 15 16  1  0  0  0  0
 15 32  1  0  0  0  0
 15 33  1  0  0  0  0
M  END
> <s_m_source_file>
AV-unprocessed.smi

> <i_m_source_file_index>
698

> <i_lp_mmshare_version>
43012

> <i_f3d_flags>
0

> <s_epik_input>
W0NIM11bQ0gyXU9jMVtjSF1bY0hdW2NIXWMobjEpW05IXUMoPU8pW0NAQEhdMltDSDJdW0NIMl1bQ0gyXU8y

> <s_epik_cmdline>
J2VwaWtfcHl0aG9uJywgJy1waCcsICc3LjAnLCAnLXRuJywgJzgnLCAnLW1hJywgJzIwMCcsICctbWV0YWxfYmluZGluZycsICctaW1hZScsICc8aW5maWxlLm1hZT4nLCAnLW9tYWUnLCAnPG91dGZpbGUubWFlPic=

> <r_lp_tautomer_probability>
1

> <r_epik_Ionization_Penalty>
3.42089e-05

> <r_epik_Ionization_Penalty_Charging>
0

> <r_epik_Ionization_Penalty_Neutral>
3.42089e-05

> <r_epik_State_Penalty>
-0

> <r_epik_Charging_Adjusted_Penalty>
0

> <i_epik_Tot_Q>
0

> <i_epik_Tot_abs_Q>
0

> <r_epik_Metal_State_Penalty>
-0

> <b_epik_Metal_Only>
0

> <s_lp_Force_Field>
OPLS_2005

> <r_lp_Energy>
20.5333

> <b_lp_Chiralities_Consistent>
1

> <s_lp_Variant>
AV-unprocessed.smi:698-2

> <Gold.Version>
5.8.1

> <Gold.Id.Protein>
6NUR|6NUR_protein|mol2

> <Gold.PLP.Fitness>
41.5914

> <Gold.PLP.PLP>
-37.0131

> <Gold.PLP.part.hbond>
-2.0000

> <Gold.PLP.part.metal>
0.0000

> <Gold.PLP.part.buried>
-3.5973

> <Gold.PLP.part.nonpolar>
-31.4551

> <Gold.PLP.part.repulsive>
0.2219

> <Gold.PLP.ligand.clash>
0.0000

> <Gold.PLP.ligand.torsion>
0.2559

> <Gold.PLP.Chemscore.Hbond>
1.6936

> <Gold.PLP.Chemscore.CHOScore>
0.0000

> <Gold.PLP.Chemscore.Metal>
0.0000

> <Gold.Chemscore.Hbonds>
donor molecule, donor type, donor heavy atom, donor atom, acceptor molecule, acceptor atom, score
      P1  H  7989  7998       L1    16  0.95
      P1  H  7997  8010       L1    11  0.65

> <Gold.PLP.Chemscore.Internal.Correction>
0.0093

> <Gold.Rescore>
     Score         DG    S(hbond)    S(metal)    S(lipo)     H(rot)  DE(clash)    DE(int)     intcor
      9.55     -13.48       0.62        0.00      81.78       1.42       0.81       3.11       ----

> <Gold.Chemscore.Fitness>
9.5509

> <Gold.Chemscore.DG>
-13.4772

> <Gold.Chemscore.ZeroCoef>
-5.4800

> <Gold.Chemscore.Hbond>
0.6169

> <Gold.Chemscore.Metal>
0.0000

> <Gold.Chemscore.Lipo>
81.7771

> <Gold.Chemscore.Internal_Hbond>
0.0000

> <Gold.Chemscore.DEClash>
0.8148

> <Gold.Chemscore.DEInternal>
3.1115

> <Gold.Chemscore.Rot>
1.4185

> <Gold.Chemscore.Internal.Correction>
   9.000000E+99

> <Gold.Chemscore.Hbonds>
donor molecule, donor type, donor heavy atom, donor atom, acceptor molecule, acceptor atom, score
      P1  H  7989  7998       L1    16  0.15
      P1  H  7997  8010       L1    11  0.10

> <Gold.Chemscore.Hbond.Weighted>
-2.0606

> <Gold.Chemscore.Metal.Weighted>
-0.0000

> <Gold.Chemscore.Lipo.Weighted>
-9.5679

> <Gold.Chemscore.Internal_Hbond.Weighted>
0.0000

> <Gold.Chemscore.DEClash.Weighted>
0.8148

> <Gold.Chemscore.DEInternal.Weighted>
3.1115

> <Gold.Chemscore.Rot.Weighted>
3.6313

> <Gold.Chemscore.Internal.Correction.Weighted>
   9.000000E+99

> <Gold.Protein.RotatedTorsions>
[ 6907 6896 6895 6894 ] final  164.04 input  -60.11 | X-H torsion
[ 7974 7965 7964 7962 ] final  -66.65 input  175.53 | X-H torsion
[ 8008 7997 7996 7995 ] final   39.70 input   59.86 | X-H torsion
[ 10167 10162 10161 10158 ] final -129.06 input  -65.29 | X-H torsion
[ 10718 10713 10712 10709 ] final  -63.27 input   66.30 | X-H torsion
[ 10763 10752 10751 10750 ] final -127.93 input  -60.55 | X-H torsion
[ 11005 11000 10999 10996 ] final -164.47 input  -57.11 | X-H torsion

> <Gold.Protein.ActiveResidues>
 VAL166  LYS551  ARG553  GLY616  TRP617  ASP618  TYR619  PRO620  LYS621  CYS622 
 ASP623  PHE694  ASN695  SER759  ASP760  ASP761  ALA762  ILE779  LEU786  VAL792 
 PHE793  MET794  SER795  GLU796  ALA797  LYS798  CYS799  TRP800  GLU811  SER814 

> <Gold.Protein.RotatedAtoms>
  151.9159  133.3573  159.3879 H   0  0  0  0  0  0  0  0  0  0  0  0  # atno 6907 bound_to 6896
  150.7047  134.4685  159.5423 H   0  0  0  0  0  0  0  0  0  0  0  0  # atno 6908 bound_to 6896
  152.2299  134.8332  160.0526 H   0  0  0  0  0  0  0  0  0  0  0  0  # atno 6909 bound_to 6896
  145.7390  140.8962  143.0540 H   0  0  0  0  0  0  0  0  0  0  0  0  # atno 7974 bound_to 7965
  155.2410  140.3345  155.4292 H   0  0  0  0  0  0  0  0  0  0  0  0  # atno 8008 bound_to 7997
  156.2256  140.1828  156.7417 H   0  0  0  0  0  0  0  0  0  0  0  0  # atno 8009 bound_to 7997
  154.5893  140.0640  156.9201 H   0  0  0  0  0  0  0  0  0  0  0  0  # atno 8010 bound_to 7997
  139.9437  143.6134  152.2496 H   0  0  0  0  0  0  0  0  0  0  0  0  # atno 10167 bound_to 10162
  156.0802  130.4219  150.1253 H   0  0  0  0  0  0  0  0  0  0  0  0  # atno 10718 bound_to 10713
  154.8754  135.3945  154.3673 H   0  0  0  0  0  0  0  0  0  0  0  0  # atno 10763 bound_to 10752
  153.4438  135.7027  153.6157 H   0  0  0  0  0  0  0  0  0  0  0  0  # atno 10764 bound_to 10752
  153.4727  135.3787  155.2369 H   0  0  0  0  0  0  0  0  0  0  0  0  # atno 10765 bound_to 10752
  140.5865  134.5088  157.5186 H   0  0  0  0  0  0  0  0  0  0  0  0  # atno 11005 bound_to 11000
  144.6875  139.9435  143.7476 LP  0  0  0  0  0  0  0  0  0  0  0  0  # atno 17320 bound_to 7965
  146.0465  139.3471  143.0665 LP  0  0  0  0  0  0  0  0  0  0  0  0  # atno 17321 bound_to 7965
  139.6684  144.7661  151.1830 LP  0  0  0  0  0  0  0  0  0  0  0  0  # atno 17342 bound_to 10162
  140.7603  143.5903  150.8803 LP  0  0  0  0  0  0  0  0  0  0  0  0  # atno 17343 bound_to 10162
  156.9286  130.9706  151.3537 LP  0  0  0  0  0  0  0  0  0  0  0  0  # atno 17370 bound_to 10713
  157.5915  130.8447  149.8666 LP  0  0  0  0  0  0  0  0  0  0  0  0  # atno 17371 bound_to 10713
  139.9293  134.7994  156.0976 LP  0  0  0  0  0  0  0  0  0  0  0  0  # atno 17394 bound_to 11000
  141.0962  133.6694  156.2651 LP  0  0  0  0  0  0  0  0  0  0  0  0  # atno 17395 bound_to 11000

$$$$
