AV-unprocessed.smi:2424|AV-procd|sdf|9574|dock9
  -GOLD-   2272013203D 1   1.00000     0.00000
 Structure written by MMmdl.
 49 50  0  0  0  0  0  0  0  0  2 V2000
  142.6538  136.6498  153.9195 C   0  0  0  0  0  0  0  0  0  0  0  0
  143.1617  135.2571  153.5069 C   0  0  0  0  0  0  0  0  0  0  0  0
  144.6760  135.1639  153.1937 C   0  0  0  0  0  0  0  0  0  0  0  0
  144.9988  136.1533  152.0436 C   0  0  0  0  0  0  0  0  0  0  0  0
  144.3616  135.8053  150.6875 C   0  0  0  0  0  0  0  0  0  0  0  0
  145.5798  135.2338  154.4599 C   0  0  2  0  0  0  0  0  0  0  0  0
  146.9203  135.7606  154.1918 N   0  0  0  0  0  0  0  0  0  0  0  0
  147.7392  136.3005  155.1029 C   0  0  0  0  0  0  0  0  0  0  0  0
  147.4514  136.4031  156.2947 O   0  0  0  0  0  0  0  0  0  0  0  0
  148.8868  136.7009  154.5283 N   0  0  0  0  0  0  0  0  0  0  0  0
  149.9881  137.3353  155.1171 C   0  0  0  0  0  0  0  0  0  0  0  0
  149.9067  137.8104  156.4105 C   0  0  0  0  0  0  0  0  0  0  0  0
  150.8515  138.4370  157.1444 N   0  5  0  0  0  0  0  0  0  0  0  0
  152.0712  138.6508  156.5733 C   0  0  0  0  0  0  0  0  0  0  0  0
  152.9803  139.2149  157.1812 O   0  0  0  0  0  0  0  0  0  0  0  0
  152.3002  138.1905  155.1887 C   0  0  0  0  0  0  0  0  0  0  0  0
  153.6615  138.4277  154.5576 C   0  0  0  0  0  0  0  0  0  0  0  0
  151.3001  137.5694  154.5143 C   0  0  0  0  0  0  0  0  0  0  0  0
  145.5724  133.6972  154.5280 C   0  0  2  0  0  0  0  0  0  0  0  0
  146.7854  132.9070  155.0162 C   0  0  0  0  0  0  0  0  0  0  0  0
  145.1918  133.7026  153.0383 C   0  0  2  0  0  0  0  0  0  0  0  0
  146.3507  133.5774  152.2217 O   0  0  0  0  0  0  0  0  0  0  0  0
  146.7165  132.2290  151.9820 C   0  0  0  0  0  0  0  0  0  0  0  0
  141.5655  136.6544  153.9801 H   0  0  0  0  0  0  0  0  0  0  0  0
  142.9435  137.4163  153.2012 H   0  0  0  0  0  0  0  0  0  0  0  0
  143.0266  136.9465  154.8992 H   0  0  0  0  0  0  0  0  0  0  0  0
  142.8799  134.5334  154.2710 H   0  0  0  0  0  0  0  0  0  0  0  0
  142.5860  134.9552  152.6320 H   0  0  0  0  0  0  0  0  0  0  0  0
  144.6629  137.1565  152.3056 H   0  0  0  0  0  0  0  0  0  0  0  0
  146.0739  136.2627  151.9113 H   0  0  0  0  0  0  0  0  0  0  0  0
  144.5314  136.6075  149.9693 H   0  0  0  0  0  0  0  0  0  0  0  0
  143.2842  135.6658  150.7736 H   0  0  0  0  0  0  0  0  0  0  0  0
  144.7857  134.8978  150.2594 H   0  0  0  0  0  0  0  0  0  0  0  0
  145.0807  135.6997  155.3115 H   0  0  0  0  0  0  0  0  0  0  0  0
  147.2420  135.7107  153.2364 H   0  0  0  0  0  0  0  0  0  0  0  0
  148.9755  136.5336  153.5366 H   0  0  0  0  0  0  0  0  0  0  0  0
  148.9377  137.6634  156.9345 H   0  0  0  0  0  0  0  0  0  0  0  0
  153.6989  138.0476  153.5364 H   0  0  0  0  0  0  0  0  0  0  0  0
  154.4402  137.9256  155.1324 H   0  0  0  0  0  0  0  0  0  0  0  0
  153.8873  139.4940  154.5284 H   0  0  0  0  0  0  0  0  0  0  0  0
  151.5047  137.2451  153.5071 H   0  0  0  0  0  0  0  0  0  0  0  0
  144.6967  133.3914  155.1025 H   0  0  0  0  0  0  0  0  0  0  0  0
  147.6847  133.1390  154.4453 H   0  0  0  0  0  0  0  0  0  0  0  0
  146.6137  131.8341  154.9300 H   0  0  0  0  0  0  0  0  0  0  0  0
  146.9978  133.1234  156.0634 H   0  0  0  0  0  0  0  0  0  0  0  0
  144.4267  132.9573  152.8149 H   0  0  0  0  0  0  0  0  0  0  0  0
  147.5779  132.1972  151.3152 H   0  0  0  0  0  0  0  0  0  0  0  0
  145.9068  131.6684  151.5147 H   0  0  0  0  0  0  0  0  0  0  0  0
  146.9927  131.7288  152.9109 H   0  0  0  0  0  0  0  0  0  0  0  0
  1  2  1  0  0  0  0
  1 24  1  0  0  0  0
  1 25  1  0  0  0  0
  1 26  1  0  0  0  0
  2  3  1  0  0  0  0
  2 27  1  0  0  0  0
  2 28  1  0  0  0  0
  3 21  1  0  0  0  0
  3  4  1  0  0  0  0
  3  6  1  0  0  0  0
  4  5  1  0  0  0  0
  4 29  1  0  0  0  0
  4 30  1  0  0  0  0
  5 31  1  0  0  0  0
  5 32  1  0  0  0  0
  5 33  1  0  0  0  0
  6  7  1  0  0  0  0
  6 19  1  0  0  0  0
  6 34  1  0  0  0  0
  7  8  1  0  0  0  0
  7 35  1  0  0  0  0
  8  9  2  0  0  0  0
  8 10  1  0  0  0  0
 10 11  1  0  0  0  0
 10 36  1  0  0  0  0
 11 18  1  0  0  0  0
 11 12  2  0  0  0  0
 12 13  1  0  0  0  0
 12 37  1  0  0  0  0
 13 14  1  0  0  0  0
 14 15  2  0  0  0  0
 14 16  1  0  0  0  0
 16 17  1  0  0  0  0
 16 18  2  0  0  0  0
 17 38  1  0  0  0  0
 17 39  1  0  0  0  0
 17 40  1  0  0  0  0
 18 41  1  0  0  0  0
 19 20  1  0  0  0  0
 19 21  1  0  0  0  0
 19 42  1  0  0  0  0
 20 43  1  0  0  0  0
 20 44  1  0  0  0  0
 20 45  1  0  0  0  0
 21 22  1  0  0  0  0
 21 46  1  0  0  0  0
 22 23  1  0  0  0  0
 23 47  1  0  0  0  0
 23 48  1  0  0  0  0
 23 49  1  0  0  0  0
M  CHG  1  13  -1
M  END
> <s_m_source_file>
AV-unprocessed.smi

> <i_m_source_file_index>
2424

> <i_lp_mmshare_version>
43012

> <i_f3d_flags>
0

> <s_epik_input>
W0NIM11PW0NAQEhdMVtDQEhdKFtDSDNdKVtDQEBIXShDMShbQ0gyXVtDSDNdKVtDSDJdW0NIM10pW05IXUMoPU8pW05IXWMyW2NIXVtuSF1jKD1PKWMoW0NIM10pW2NIXTI=

> <s_epik_cmdline>
J2VwaWtfcHl0aG9uJywgJy1waCcsICc3LjAnLCAnLXRuJywgJzgnLCAnLW1hJywgJzIwMCcsICctbWV0YWxfYmluZGluZycsICctaW1hZScsICc8aW5maWxlLm1hZT4nLCAnLW9tYWUnLCAnPG91dGZpbGUubWFlPic=

> <r_lp_tautomer_probability>
1

> <r_epik_Ionization_Penalty>
7.6122

> <r_epik_Ionization_Penalty_Charging>
1.53843

> <r_epik_Ionization_Penalty_Neutral>
6.07377

> <r_epik_State_Penalty>
6.07371

> <r_epik_Charging_Adjusted_Penalty>
7.61214

> <i_epik_Tot_Q>
-1

> <i_epik_Tot_abs_Q>
1

> <r_epik_Metal_State_Penalty>
2.02136

> <b_epik_Metal_Only>
1

> <s_lp_Force_Field>
OPLS_2005

> <r_lp_Energy>
42.0535

> <b_lp_Chiralities_Consistent>
1

> <s_lp_Variant>
AV-unprocessed.smi:2424-16

> <Gold.Version>
5.8.1

> <Gold.Id.Protein>
6NUR|6NUR_protein|mol2

> <Gold.PLP.Fitness>
36.0276

> <Gold.PLP.PLP>
-28.6285

> <Gold.PLP.part.hbond>
-2.9649

> <Gold.PLP.part.metal>
0.0000

> <Gold.PLP.part.buried>
-1.9541

> <Gold.PLP.part.nonpolar>
-23.0759

> <Gold.PLP.part.repulsive>
0.1449

> <Gold.PLP.ligand.clash>
0.0000

> <Gold.PLP.ligand.torsion>
0.6148

> <Gold.PLP.Chemscore.Hbond>
2.6510

> <Gold.PLP.Chemscore.CHOScore>
0.0000

> <Gold.PLP.Chemscore.Metal>
0.0000

> <Gold.Chemscore.Hbonds>
donor molecule, donor type, donor heavy atom, donor atom, acceptor molecule, acceptor atom, score
      L1  H     7    35       P1  7948  0.41
      L1  H    10    36       P1  7948  1.00
      P1  H  7997  8008       L1    15  1.00

> <Gold.PLP.Chemscore.Internal.Correction>
0.6756

> <Gold.Rescore>
     Score         DG    S(hbond)    S(metal)    S(lipo)     H(rot)  DE(clash)    DE(int)     intcor
     15.96     -18.56       2.54        0.00      72.58       1.52       0.49       2.10       ----

> <Gold.Chemscore.Fitness>
15.9645

> <Gold.Chemscore.DG>
-18.5601

> <Gold.Chemscore.ZeroCoef>
-5.4800

> <Gold.Chemscore.Hbond>
2.5392

> <Gold.Chemscore.Metal>
0.0000

> <Gold.Chemscore.Lipo>
72.5756

> <Gold.Chemscore.Internal_Hbond>
0.0000

> <Gold.Chemscore.DEClash>
0.4915

> <Gold.Chemscore.DEInternal>
2.1042

> <Gold.Chemscore.Rot>
1.5204

> <Gold.Chemscore.Internal.Correction>
   9.000000E+99

> <Gold.Chemscore.Hbonds>
donor molecule, donor type, donor heavy atom, donor atom, acceptor molecule, acceptor atom, score
      L1  H     7    35       P1  7948  0.39
      L1  H    10    36       P1  7948  1.00
      P1  H  7997  8008       L1    15  1.00

> <Gold.Chemscore.Hbond.Weighted>
-8.4810

> <Gold.Chemscore.Metal.Weighted>
-0.0000

> <Gold.Chemscore.Lipo.Weighted>
-8.4913

> <Gold.Chemscore.Internal_Hbond.Weighted>
0.0000

> <Gold.Chemscore.DEClash.Weighted>
0.4915

> <Gold.Chemscore.DEInternal.Weighted>
2.1042

> <Gold.Chemscore.Rot.Weighted>
3.8922

> <Gold.Chemscore.Internal.Correction.Weighted>
   9.000000E+99

> <Gold.Protein.RotatedTorsions>
[ 6907 6896 6895 6894 ] final -101.97 input  -60.11 | X-H torsion
[ 7974 7965 7964 7962 ] final   82.90 input  175.53 | X-H torsion
[ 8008 7997 7996 7995 ] final  -63.44 input   59.86 | X-H torsion
[ 10167 10162 10161 10158 ] final -172.90 input  -65.29 | X-H torsion
[ 10718 10713 10712 10709 ] final -156.98 input   66.30 | X-H torsion
[ 10763 10752 10751 10750 ] final  -20.75 input  -60.55 | X-H torsion
[ 11005 11000 10999 10996 ] final  -21.84 input  -57.11 | X-H torsion

> <Gold.Protein.ActiveResidues>
 VAL166  LYS551  ARG553  GLY616  TRP617  ASP618  TYR619  PRO620  LYS621  CYS622 
 ASP623  PHE694  ASN695  SER759  ASP760  ASP761  ALA762  ILE779  LEU786  VAL792 
 PHE793  MET794  SER795  GLU796  ALA797  LYS798  CYS799  TRP800  GLU811  SER814 

> <Gold.Protein.RotatedAtoms>
  150.7176  134.0653  159.3845 H   0  0  0  0  0  0  0  0  0  0  0  0  # atno 6907 bound_to 6896
  151.8634  135.0513  160.0481 H   0  0  0  0  0  0  0  0  0  0  0  0  # atno 6908 bound_to 6896
  152.2699  133.5338  159.5469 H   0  0  0  0  0  0  0  0  0  0  0  0  # atno 6909 bound_to 6896
  145.6190  139.2382  143.2149 H   0  0  0  0  0  0  0  0  0  0  0  0  # atno 7974 bound_to 7965
  154.4554  140.0975  156.6742 H   0  0  0  0  0  0  0  0  0  0  0  0  # atno 8008 bound_to 7997
  155.5154  140.3477  155.4378 H   0  0  0  0  0  0  0  0  0  0  0  0  # atno 8009 bound_to 7997
  156.0767  140.1363  156.9751 H   0  0  0  0  0  0  0  0  0  0  0  0  # atno 8010 bound_to 7997
  139.5718  144.1624  152.1395 H   0  0  0  0  0  0  0  0  0  0  0  0  # atno 10167 bound_to 10162
  156.5339  130.8533  151.2726 H   0  0  0  0  0  0  0  0  0  0  0  0  # atno 10718 bound_to 10713
  153.6253  135.6991  153.5295 H   0  0  0  0  0  0  0  0  0  0  0  0  # atno 10763 bound_to 10752
  153.2904  135.4159  155.1161 H   0  0  0  0  0  0  0  0  0  0  0  0  # atno 10764 bound_to 10752
  154.8534  135.3624  154.5794 H   0  0  0  0  0  0  0  0  0  0  0  0  # atno 10765 bound_to 10752
  140.8600  133.7795  156.0063 H   0  0  0  0  0  0  0  0  0  0  0  0  # atno 11005 bound_to 11000
  146.1445  140.7011  142.9351 LP  0  0  0  0  0  0  0  0  0  0  0  0  # atno 17320 bound_to 7965
  144.7239  140.4461  143.6988 LP  0  0  0  0  0  0  0  0  0  0  0  0  # atno 17321 bound_to 7965
  140.1158  144.5417  150.6895 LP  0  0  0  0  0  0  0  0  0  0  0  0  # atno 17342 bound_to 10162
  140.7002  143.2430  151.4885 LP  0  0  0  0  0  0  0  0  0  0  0  0  # atno 17343 bound_to 10162
  157.7417  130.9875  150.2463 LP  0  0  0  0  0  0  0  0  0  0  0  0  # atno 17370 bound_to 10713
  156.3034  130.3761  149.7729 LP  0  0  0  0  0  0  0  0  0  0  0  0  # atno 17371 bound_to 10713
  140.8694  134.2745  157.5198 LP  0  0  0  0  0  0  0  0  0  0  0  0  # atno 17394 bound_to 11000
  139.8706  134.9559  156.4221 LP  0  0  0  0  0  0  0  0  0  0  0  0  # atno 17395 bound_to 11000

$$$$
