AV-unprocessed.smi:3244|AV-procd|sdf|12400|dock7
  -GOLD-   2272018273D 1   1.00000     0.00000
 Structure written by MMmdl.
 40 41  0  0  0  0  0  0  0  0  1 V2000
  153.5930  137.3388  162.5562 C   0  0  0  0  0  0  0  0  0  0  0  0
  153.3606  136.9060  161.0992 C   0  0  0  0  0  0  0  0  0  0  0  0
  154.5222  137.2019  160.2437 N   0  0  0  0  0  0  0  0  0  0  0  0
  154.7583  138.4751  159.8321 C   0  0  0  0  0  0  0  0  0  0  0  0
  155.6103  138.7472  158.9852 O   0  0  0  0  0  0  0  0  0  0  0  0
  153.9563  139.6383  160.4328 C   0  0  0  0  0  0  0  0  0  0  0  0
  154.6856  140.9092  160.3359 N   0  0  0  0  0  0  0  0  0  0  0  0
  153.8491  142.0762  160.5989 C   0  0  2  0  0  0  0  0  0  0  0  0
  153.1079  141.9050  161.9360 C   0  0  0  0  0  0  0  0  0  0  0  0
  152.8560  142.2458  159.4309 C   0  0  0  0  0  0  0  0  0  0  0  0
  152.4023  143.6189  159.2805 N   0  0  0  0  0  0  0  0  0  0  0  0
  151.8401  144.4440  160.2320 C   0  0  0  0  0  0  0  0  0  0  0  0
  151.5779  145.6407  159.6292 C   0  0  0  0  0  0  0  0  0  0  0  0
  152.0142  145.4466  158.2889 C   0  0  0  0  0  0  0  0  0  0  0  0
  152.5040  144.2348  158.0825 N   0  0  0  0  0  0  0  0  0  0  0  0
  155.2004  136.0463  159.7137 C   0  0  0  0  0  0  0  0  0  0  0  0
  154.8189  134.6501  160.1730 C   0  0  0  0  0  0  0  0  0  0  0  0
  156.1343  135.2414  160.5982 C   0  0  0  0  0  0  0  0  0  0  0  0
  152.7093  137.1397  163.1625 H   0  0  0  0  0  0  0  0  0  0  0  0
  153.8038  138.4069  162.6190 H   0  0  0  0  0  0  0  0  0  0  0  0
  154.4285  136.8056  163.0102 H   0  0  0  0  0  0  0  0  0  0  0  0
  153.1310  135.8399  161.0606 H   0  0  0  0  0  0  0  0  0  0  0  0
  152.4628  137.4027  160.7345 H   0  0  0  0  0  0  0  0  0  0  0  0
  153.0096  139.7224  159.8986 H   0  0  0  0  0  0  0  0  0  0  0  0
  153.7015  139.4173  161.4681 H   0  0  0  0  0  0  0  0  0  0  0  0
  155.1552  141.0110  159.4474 H   0  0  0  0  0  0  0  0  0  0  0  0
  154.4702  142.9723  160.6482 H   0  0  0  0  0  0  0  0  0  0  0  0
  152.4405  142.7473  162.1198 H   0  0  0  0  0  0  0  0  0  0  0  0
  153.7964  141.8546  162.7793 H   0  0  0  0  0  0  0  0  0  0  0  0
  152.5027  140.9976  161.9427 H   0  0  0  0  0  0  0  0  0  0  0  0
  153.2990  141.9054  158.4930 H   0  0  0  0  0  0  0  0  0  0  0  0
  151.9748  141.6254  159.5985 H   0  0  0  0  0  0  0  0  0  0  0  0
  151.6810  144.1157  161.2486 H   0  0  0  0  0  0  0  0  0  0  0  0
  151.1411  146.5208  160.0773 H   0  0  0  0  0  0  0  0  0  0  0  0
  151.9900  146.1455  157.4661 H   0  0  0  0  0  0  0  0  0  0  0  0
  155.4856  136.1242  158.6669 H   0  0  0  0  0  0  0  0  0  0  0  0
  154.0664  134.5357  160.9508 H   0  0  0  0  0  0  0  0  0  0  0  0
  154.8431  133.8558  159.4298 H   0  0  0  0  0  0  0  0  0  0  0  0
  157.0380  134.8443  160.1412 H   0  0  0  0  0  0  0  0  0  0  0  0
  156.2285  135.5251  161.6446 H   0  0  0  0  0  0  0  0  0  0  0  0
  1  2  1  0  0  0  0
  1 19  1  0  0  0  0
  1 20  1  0  0  0  0
  1 21  1  0  0  0  0
  2  3  1  0  0  0  0
  2 22  1  0  0  0  0
  2 23  1  0  0  0  0
  3  4  1  0  0  0  0
  3 16  1  0  0  0  0
  4  5  2  0  0  0  0
  4  6  1  0  0  0  0
  6  7  1  0  0  0  0
  6 24  1  0  0  0  0
  6 25  1  0  0  0  0
  7  8  1  0  0  0  0
  7 26  1  0  0  0  0
  8  9  1  0  0  0  0
  8 10  1  0  0  0  0
  8 27  1  0  0  0  0
  9 28  1  0  0  0  0
  9 29  1  0  0  0  0
  9 30  1  0  0  0  0
 10 11  1  0  0  0  0
 10 31  1  0  0  0  0
 10 32  1  0  0  0  0
 11 15  1  0  0  0  0
 11 12  1  0  0  0  0
 12 13  2  0  0  0  0
 12 33  1  0  0  0  0
 13 14  1  0  0  0  0
 13 34  1  0  0  0  0
 14 15  2  0  0  0  0
 14 35  1  0  0  0  0
 16 18  1  0  0  0  0
 16 17  1  0  0  0  0
 16 36  1  0  0  0  0
 17 18  1  0  0  0  0
 17 37  1  0  0  0  0
 17 38  1  0  0  0  0
 18 39  1  0  0  0  0
 18 40  1  0  0  0  0
M  END
> <s_m_source_file>
AV-unprocessed.smi

> <i_m_source_file_index>
3244

> <i_lp_mmshare_version>
43012

> <i_f3d_flags>
0

> <s_epik_input>
W0NIMl0xW0NIMl1bQ0hdMU4oW0NIMl1bQ0gzXSlDKD1PKVtDSDJdW05IXVtDQEhdKFtDSDNdKVtDSDJdbjJbY0hdW2NIXVtjSF1uMg==

> <s_epik_cmdline>
J2VwaWtfcHl0aG9uJywgJy1waCcsICc3LjAnLCAnLXRuJywgJzgnLCAnLW1hJywgJzIwMCcsICctbWV0YWxfYmluZGluZycsICctaW1hZScsICc8aW5maWxlLm1hZT4nLCAnLW9tYWUnLCAnPG91dGZpbGUubWFlPic=

> <r_lp_tautomer_probability>
1

> <r_epik_Ionization_Penalty>
1.02506

> <r_epik_Ionization_Penalty_Charging>
0

> <r_epik_Ionization_Penalty_Neutral>
1.02506

> <r_epik_State_Penalty>
1.07563

> <r_epik_Charging_Adjusted_Penalty>
1.07563

> <i_epik_Tot_Q>
0

> <i_epik_Tot_abs_Q>
0

> <r_epik_Metal_State_Penalty>
1.07558

> <b_epik_Metal_Only>
0

> <s_lp_Force_Field>
OPLS_2005

> <r_lp_Energy>
34.7243

> <b_lp_Chiralities_Consistent>
1

> <s_lp_Variant>
AV-unprocessed.smi:3244-3

> <Gold.Version>
5.8.1

> <Gold.Id.Protein>
6NUR|6NUR_protein|mol2

> <Gold.PLP.Fitness>
40.3554

> <Gold.PLP.PLP>
-39.0856

> <Gold.PLP.part.hbond>
-1.0000

> <Gold.PLP.part.metal>
0.0000

> <Gold.PLP.part.buried>
-5.0322

> <Gold.PLP.part.nonpolar>
-32.4756

> <Gold.PLP.part.repulsive>
0.0578

> <Gold.PLP.ligand.clash>
0.0000

> <Gold.PLP.ligand.torsion>
1.0529

> <Gold.PLP.Chemscore.Hbond>
0.9913

> <Gold.PLP.Chemscore.CHOScore>
0.0000

> <Gold.PLP.Chemscore.Metal>
0.0000

> <Gold.Chemscore.Hbonds>
donor molecule, donor type, donor heavy atom, donor atom, acceptor molecule, acceptor atom, score
      P1  H  7997  8008       L1     5  0.91

> <Gold.PLP.Chemscore.Internal.Correction>
0.4020

> <Gold.Rescore>
     Score         DG    S(hbond)    S(metal)    S(lipo)     H(rot)  DE(clash)    DE(int)     intcor
     14.17     -15.20       1.00        0.00      97.44       1.95       0.04       0.99       ----

> <Gold.Chemscore.Fitness>
14.1686

> <Gold.Chemscore.DG>
-15.2006

> <Gold.Chemscore.ZeroCoef>
-5.4800

> <Gold.Chemscore.Hbond>
0.9953

> <Gold.Chemscore.Metal>
0.0000

> <Gold.Chemscore.Lipo>
97.4438

> <Gold.Chemscore.Internal_Hbond>
0.0000

> <Gold.Chemscore.DEClash>
0.0402

> <Gold.Chemscore.DEInternal>
0.9918

> <Gold.Chemscore.Rot>
1.9550

> <Gold.Chemscore.Internal.Correction>
   9.000000E+99

> <Gold.Chemscore.Hbonds>
donor molecule, donor type, donor heavy atom, donor atom, acceptor molecule, acceptor atom, score
      P1  H  7997  8008       L1     5  0.87

> <Gold.Chemscore.Hbond.Weighted>
-3.3244

> <Gold.Chemscore.Metal.Weighted>
-0.0000

> <Gold.Chemscore.Lipo.Weighted>
-11.4009

> <Gold.Chemscore.Internal_Hbond.Weighted>
0.0000

> <Gold.Chemscore.DEClash.Weighted>
0.0402

> <Gold.Chemscore.DEInternal.Weighted>
0.9918

> <Gold.Chemscore.Rot.Weighted>
5.0047

> <Gold.Chemscore.Internal.Correction.Weighted>
   9.000000E+99

> <Gold.Protein.RotatedTorsions>
[ 6907 6896 6895 6894 ] final   23.36 input  -60.11 | X-H torsion
[ 7974 7965 7964 7962 ] final  175.44 input  175.53 | X-H torsion
[ 8008 7997 7996 7995 ] final -138.83 input   59.86 | X-H torsion
[ 10167 10162 10161 10158 ] final  -30.47 input  -65.29 | X-H torsion
[ 10718 10713 10712 10709 ] final -150.82 input   66.30 | X-H torsion
[ 10763 10752 10751 10750 ] final  -89.75 input  -60.55 | X-H torsion
[ 11005 11000 10999 10996 ] final   85.20 input  -57.11 | X-H torsion

> <Gold.Protein.ActiveResidues>
 VAL166  LYS551  ARG553  GLY616  TRP617  ASP618  TYR619  PRO620  LYS621  CYS622 
 ASP623  PHE694  ASN695  SER759  ASP760  ASP761  ALA762  ILE779  LEU786  VAL792 
 PHE793  MET794  SER795  GLU796  ALA797  LYS798  CYS799  TRP800  GLU811  SER814 

> <Gold.Protein.RotatedAtoms>
  151.9411  135.0213  160.0535 H   0  0  0  0  0  0  0  0  0  0  0  0  # atno 6907 bound_to 6896
  152.2035  133.4854  159.5080 H   0  0  0  0  0  0  0  0  0  0  0  0  # atno 6908 bound_to 6896
  150.6960  134.1476  159.4171 H   0  0  0  0  0  0  0  0  0  0  0  0  # atno 6909 bound_to 6896
  144.7202  139.9947  143.6440 H   0  0  0  0  0  0  0  0  0  0  0  0  # atno 7974 bound_to 7965
  155.4349  140.0527  157.3015 H   0  0  0  0  0  0  0  0  0  0  0  0  # atno 8008 bound_to 7997
  154.4843  140.2094  155.9648 H   0  0  0  0  0  0  0  0  0  0  0  0  # atno 8009 bound_to 7997
  156.1252  140.3181  155.8272 H   0  0  0  0  0  0  0  0  0  0  0  0  # atno 8010 bound_to 7997
  140.7249  143.3847  151.1538 H   0  0  0  0  0  0  0  0  0  0  0  0  # atno 10167 bound_to 10162
  156.4511  130.8168  151.2399 H   0  0  0  0  0  0  0  0  0  0  0  0  # atno 10718 bound_to 10713
  154.6586  135.5329  153.7990 H   0  0  0  0  0  0  0  0  0  0  0  0  # atno 10763 bound_to 10752
  153.0428  135.6500  154.0906 H   0  0  0  0  0  0  0  0  0  0  0  0  # atno 10764 bound_to 10752
  154.0817  135.2946  155.3269 H   0  0  0  0  0  0  0  0  0  0  0  0  # atno 10765 bound_to 10752
  139.8978  134.8270  156.2549 H   0  0  0  0  0  0  0  0  0  0  0  0  # atno 11005 bound_to 11000
  146.0384  139.3398  143.0712 LP  0  0  0  0  0  0  0  0  0  0  0  0  # atno 17320 bound_to 7965
  145.8366  140.9603  143.0821 LP  0  0  0  0  0  0  0  0  0  0  0  0  # atno 17321 bound_to 7965
  139.7441  143.8878  152.3058 LP  0  0  0  0  0  0  0  0  0  0  0  0  # atno 17342 bound_to 10162
  139.8710  144.7068  150.8988 LP  0  0  0  0  0  0  0  0  0  0  0  0  # atno 17343 bound_to 10162
  157.7503  131.0137  150.3436 LP  0  0  0  0  0  0  0  0  0  0  0  0  # atno 17370 bound_to 10713
  156.3815  130.3881  149.7098 LP  0  0  0  0  0  0  0  0  0  0  0  0  # atno 17371 bound_to 10713
  141.0200  133.7047  156.1252 LP  0  0  0  0  0  0  0  0  0  0  0  0  # atno 17394 bound_to 11000
  140.7247  134.4319  157.5571 LP  0  0  0  0  0  0  0  0  0  0  0  0  # atno 17395 bound_to 11000

$$$$
