AV-unprocessed.smi:949|AV-procd|sdf|4249|dock7
  -GOLD-   22720 2153D 1   1.00000     0.00000
 Structure written by MMmdl.
 32 33  0  0  0  0  0  0  0  0  1 V2000
  152.2042  137.8575  154.1510 C   0  0  0  0  0  0  0  0  0  0  0  0
  150.8401  137.9889  154.8540 C   0  0  1  0  0  0  0  0  0  0  0  0
  149.7996  138.3034  153.8818 N   0  0  0  0  0  0  0  0  0  0  0  0
  149.0299  139.4791  153.9372 C   0  0  0  0  0  0  0  0  0  0  0  0
  149.3710  140.5811  154.7571 C   0  0  0  0  0  0  0  0  0  0  0  0
  148.5396  141.7182  154.7511 C   0  0  0  0  0  0  0  0  0  0  0  0
  147.4235  141.8195  154.0013 N   0  0  0  0  0  0  0  0  0  0  0  0
  147.0969  140.7701  153.2195 C   0  0  0  0  0  0  0  0  0  0  0  0
  147.8576  139.5840  153.1480 C   0  0  0  0  0  0  0  0  0  0  0  0
  147.4400  138.5490  152.3073 N   0  0  0  0  0  0  0  0  0  0  0  0
  150.4654  136.6992  155.6097 C   0  0  1  0  0  0  0  0  0  0  0  0
  149.9071  135.5778  154.7315 C   0  0  0  0  0  0  0  0  0  0  0  0
  150.2275  134.3136  155.5135 C   0  0  0  0  0  0  0  0  0  0  0  0
  151.2791  134.7628  156.5311 C   0  0  0  0  0  0  0  0  0  0  0  0
  151.6282  136.0845  156.1448 O   0  0  0  0  0  0  0  0  0  0  0  0
  153.0059  137.6814  154.8679 H   0  0  0  0  0  0  0  0  0  0  0  0
  152.4629  138.7608  153.5989 H   0  0  0  0  0  0  0  0  0  0  0  0
  152.2043  137.0285  153.4424 H   0  0  0  0  0  0  0  0  0  0  0  0
  150.8940  138.7936  155.5875 H   0  0  0  0  0  0  0  0  0  0  0  0
  149.5484  137.5910  153.2119 H   0  0  0  0  0  0  0  0  0  0  0  0
  150.2481  140.5795  155.3853 H   0  0  0  0  0  0  0  0  0  0  0  0
  148.7795  142.5717  155.3678 H   0  0  0  0  0  0  0  0  0  0  0  0
  146.1976  140.8822  152.6311 H   0  0  0  0  0  0  0  0  0  0  0  0
  147.9619  137.6873  152.2334 H   0  0  0  0  0  0  0  0  0  0  0  0
  146.6402  138.6533  151.7001 H   0  0  0  0  0  0  0  0  0  0  0  0
  149.7694  136.9158  156.4230 H   0  0  0  0  0  0  0  0  0  0  0  0
  148.8412  135.6895  154.5306 H   0  0  0  0  0  0  0  0  0  0  0  0
  150.4293  135.5549  153.7740 H   0  0  0  0  0  0  0  0  0  0  0  0
  149.3444  133.9250  156.0219 H   0  0  0  0  0  0  0  0  0  0  0  0
  150.6076  133.5321  154.8549 H   0  0  0  0  0  0  0  0  0  0  0  0
  150.8564  134.7820  157.5366 H   0  0  0  0  0  0  0  0  0  0  0  0
  152.1554  134.1147  156.5427 H   0  0  0  0  0  0  0  0  0  0  0  0
  1  2  1  0  0  0  0
  1 16  1  0  0  0  0
  1 17  1  0  0  0  0
  1 18  1  0  0  0  0
  2  3  1  0  0  0  0
  2 11  1  0  0  0  0
  2 19  1  0  0  0  0
  3  4  1  0  0  0  0
  3 20  1  0  0  0  0
  4  9  1  0  0  0  0
  4  5  2  0  0  0  0
  5  6  1  0  0  0  0
  5 21  1  0  0  0  0
  6  7  2  0  0  0  0
  6 22  1  0  0  0  0
  7  8  1  0  0  0  0
  8  9  2  0  0  0  0
  8 23  1  0  0  0  0
  9 10  1  0  0  0  0
 10 24  1  0  0  0  0
 10 25  1  0  0  0  0
 11 15  1  0  0  0  0
 11 12  1  0  0  0  0
 11 26  1  0  0  0  0
 12 13  1  0  0  0  0
 12 27  1  0  0  0  0
 12 28  1  0  0  0  0
 13 14  1  0  0  0  0
 13 29  1  0  0  0  0
 13 30  1  0  0  0  0
 14 15  1  0  0  0  0
 14 31  1  0  0  0  0
 14 32  1  0  0  0  0
M  END
> <s_m_source_file>
AV-unprocessed.smi

> <i_m_source_file_index>
949

> <i_lp_mmshare_version>
43012

> <i_f3d_flags>
0

> <s_epik_input>
TzFbQ0gyXVtDSDJdW0NIMl1bQ0BIXTFbQ0BIXShbQ0gzXSlbTkhdYzJbY0hdW2NIXW5bY0hdYzJbTkgyXQ==

> <s_epik_cmdline>
J2VwaWtfcHl0aG9uJywgJy1waCcsICc3LjAnLCAnLXRuJywgJzgnLCAnLW1hJywgJzIwMCcsICctbWV0YWxfYmluZGluZycsICctaW1hZScsICc8aW5maWxlLm1hZT4nLCAnLW9tYWUnLCAnPG91dGZpbGUubWFlPic=

> <r_epik_Ionization_Penalty>
3.88091

> <r_epik_Ionization_Penalty_Charging>
0

> <r_epik_Ionization_Penalty_Neutral>
3.88091

> <r_epik_State_Penalty>
3.88049

> <r_epik_Charging_Adjusted_Penalty>
3.88049

> <i_epik_Tot_Q>
0

> <i_epik_Tot_abs_Q>
0

> <r_epik_Metal_State_Penalty>
0.313783

> <b_epik_Metal_Only>
1

> <s_lp_Force_Field>
OPLS_2005

> <r_lp_Energy>
24.4145

> <b_lp_Chiralities_Consistent>
1

> <s_lp_Variant>
AV-unprocessed.smi:949-8

> <Gold.Version>
5.8.1

> <Gold.Id.Protein>
6NUR|6NUR_protein|mol2

> <Gold.PLP.Fitness>
37.9377

> <Gold.PLP.PLP>
-24.4485

> <Gold.PLP.part.hbond>
-4.3621

> <Gold.PLP.part.metal>
0.0000

> <Gold.PLP.part.buried>
3.4746

> <Gold.PLP.part.nonpolar>
-23.4717

> <Gold.PLP.part.repulsive>
0.3073

> <Gold.PLP.ligand.clash>
0.0000

> <Gold.PLP.ligand.torsion>
0.4690

> <Gold.PLP.Chemscore.Hbond>
2.8000

> <Gold.PLP.Chemscore.CHOScore>
2.0000

> <Gold.PLP.Chemscore.Metal>
0.0000

> <Gold.Chemscore.Hbonds>
donor molecule, donor type, donor heavy atom, donor atom, acceptor molecule, acceptor atom, score
      L1  H     3    20       P1  7948  1.00
      L1  H    10    24       P1  7948  1.00
      P1  H 10752 10764       L1    15  0.80
      L1  C     6    22       P1  8028  1.00
      L1  C     8    23       P1 10175  0.96

> <Gold.PLP.Chemscore.Internal.Correction>
0.0271

> <Gold.Rescore>
     Score         DG    S(hbond)    S(metal)    S(lipo)     H(rot)  DE(clash)    DE(int)     intcor
     15.99     -16.62       1.94        0.00      66.58       1.22       0.37       0.26       ----

> <Gold.Chemscore.Fitness>
15.9918

> <Gold.Chemscore.DG>
-16.6239

> <Gold.Chemscore.ZeroCoef>
-5.4800

> <Gold.Chemscore.Hbond>
1.9370

> <Gold.Chemscore.Metal>
0.0000

> <Gold.Chemscore.Lipo>
66.5750

> <Gold.Chemscore.Internal_Hbond>
0.0000

> <Gold.Chemscore.DEClash>
0.3716

> <Gold.Chemscore.DEInternal>
0.2604

> <Gold.Chemscore.Rot>
1.2169

> <Gold.Chemscore.Internal.Correction>
   9.000000E+99

> <Gold.Chemscore.Hbonds>
donor molecule, donor type, donor heavy atom, donor atom, acceptor molecule, acceptor atom, score
      L1  H     3    20       P1  7948  0.84
      L1  H    10    24       P1  7948  1.00
      P1  H 10752 10764       L1    15  0.09

> <Gold.Chemscore.Hbond.Weighted>
-6.4697

> <Gold.Chemscore.Metal.Weighted>
-0.0000

> <Gold.Chemscore.Lipo.Weighted>
-7.7893

> <Gold.Chemscore.Internal_Hbond.Weighted>
0.0000

> <Gold.Chemscore.DEClash.Weighted>
0.3716

> <Gold.Chemscore.DEInternal.Weighted>
0.2604

> <Gold.Chemscore.Rot.Weighted>
3.1152

> <Gold.Chemscore.Internal.Correction.Weighted>
   9.000000E+99

> <Gold.Protein.RotatedTorsions>
[ 6907 6896 6895 6894 ] final  108.42 input  -60.11 | X-H torsion
[ 7974 7965 7964 7962 ] final  -96.82 input  175.53 | X-H torsion
[ 8008 7997 7996 7995 ] final -150.22 input   59.86 | X-H torsion
[ 10167 10162 10161 10158 ] final  -98.60 input  -65.29 | X-H torsion
[ 10718 10713 10712 10709 ] final -159.43 input   66.30 | X-H torsion
[ 10763 10752 10751 10750 ] final  -53.70 input  -60.55 | X-H torsion
[ 11005 11000 10999 10996 ] final -162.53 input  -57.11 | X-H torsion

> <Gold.Protein.ActiveResidues>
 VAL166  LYS551  ARG553  GLY616  TRP617  ASP618  TYR619  PRO620  LYS621  CYS622 
 ASP623  PHE694  ASN695  SER759  ASP760  ASP761  ALA762  ILE779  LEU786  VAL792 
 PHE793  MET794  SER795  GLU796  ALA797  LYS798  CYS799  TRP800  GLU811  SER814 

> <Gold.Protein.RotatedAtoms>
  152.5113  133.9091  159.7478 H   0  0  0  0  0  0  0  0  0  0  0  0  # atno 6907 bound_to 6896
  150.9489  133.6563  159.2783 H   0  0  0  0  0  0  0  0  0  0  0  0  # atno 6908 bound_to 6896
  151.3849  135.0951  159.9560 H   0  0  0  0  0  0  0  0  0  0  0  0  # atno 6909 bound_to 6896
  145.3418  140.9461  143.2603 H   0  0  0  0  0  0  0  0  0  0  0  0  # atno 7974 bound_to 7965
  155.6202  140.0680  157.2680 H   0  0  0  0  0  0  0  0  0  0  0  0  # atno 8008 bound_to 7997
  154.4231  140.1786  156.1412 H   0  0  0  0  0  0  0  0  0  0  0  0  # atno 8009 bound_to 7997
  156.0016  140.3335  155.6854 H   0  0  0  0  0  0  0  0  0  0  0  0  # atno 8010 bound_to 7997
  140.2713  143.3342  152.0532 H   0  0  0  0  0  0  0  0  0  0  0  0  # atno 10167 bound_to 10162
  156.5680  130.8676  151.2829 H   0  0  0  0  0  0  0  0  0  0  0  0  # atno 10718 bound_to 10713
  154.1630  135.6471  153.4990 H   0  0  0  0  0  0  0  0  0  0  0  0  # atno 10763 bound_to 10752
  153.0105  135.5365  154.6691 H   0  0  0  0  0  0  0  0  0  0  0  0  # atno 10764 bound_to 10752
  154.6009  135.2943  155.0508 H   0  0  0  0  0  0  0  0  0  0  0  0  # atno 10765 bound_to 10752
  140.6083  134.4876  157.5213 H   0  0  0  0  0  0  0  0  0  0  0  0  # atno 11005 bound_to 11000
  144.8784  139.4938  143.6734 LP  0  0  0  0  0  0  0  0  0  0  0  0  # atno 17320 bound_to 7965
  146.3004  139.7409  142.9095 LP  0  0  0  0  0  0  0  0  0  0  0  0  # atno 17321 bound_to 7965
  139.4988  144.6655  151.6367 LP  0  0  0  0  0  0  0  0  0  0  0  0  # atno 17342 bound_to 10162
  140.5888  143.9817  150.6311 LP  0  0  0  0  0  0  0  0  0  0  0  0  # atno 17343 bound_to 10162
  157.7354  130.9762  150.2081 LP  0  0  0  0  0  0  0  0  0  0  0  0  # atno 17370 bound_to 10713
  156.2740  130.3725  149.8003 LP  0  0  0  0  0  0  0  0  0  0  0  0  # atno 17371 bound_to 10713
  139.9203  134.8162  156.1233 LP  0  0  0  0  0  0  0  0  0  0  0  0  # atno 17394 bound_to 11000
  141.0826  133.6748  156.2367 LP  0  0  0  0  0  0  0  0  0  0  0  0  # atno 17395 bound_to 11000

$$$$
