AV-unprocessed.smi:2083|AV-procd|sdf|8502|dock1
  -GOLD-   2272011213D 1   1.00000     0.00000
 Structure written by MMmdl.
 44 45  0  0  0  0  0  0  0  0  3 V2000
  149.2175  140.2310  154.3535 C   0  0  0  0  0  0  0  0  0  0  0  0
  149.9867  138.9614  154.4906 C   0  0  0  0  0  0  0  0  0  0  0  0
  149.6229  137.6889  154.8295 C   0  0  0  0  0  0  0  0  0  0  0  0
  150.8484  136.9716  154.7613 C   0  0  0  0  0  0  0  0  0  0  0  0
  151.0164  135.6674  155.0287 N   0  5  0  0  0  0  0  0  0  0  0  0
  149.9444  134.8673  155.2284 C   0  0  0  0  0  0  0  0  0  0  0  0
  149.6730  134.2447  156.2576 O   0  0  0  0  0  0  0  0  0  0  0  0
  149.1344  134.7826  154.1655 N   0  0  0  0  0  0  0  0  0  0  0  0
  147.9076  133.9979  154.0994 C   0  0  0  0  0  0  0  0  0  0  0  0
  146.7393  134.8056  153.4859 C   0  0  2  0  0  0  0  0  0  0  0  0
  145.9632  135.5533  154.5982 C   0  0  0  0  0  0  0  0  0  0  0  0
  145.8867  133.9017  152.6456 N   0  3  1  0  0  0  0  0  0  0  0  0
  144.6872  134.5281  152.0165 C   0  0  0  0  0  0  0  0  0  0  0  0
  143.8118  133.4852  151.3016 C   0  0  0  0  0  0  0  0  0  0  0  0
  144.6174  132.6913  150.2672 C   0  0  0  0  0  0  0  0  0  0  0  0
  145.8753  132.0782  150.9041 C   0  0  2  0  0  0  0  0  0  0  0  0
  145.5650  130.8784  151.8162 C   0  0  0  0  0  0  0  0  0  0  0  0
  146.6928  133.1667  151.6274 C   0  0  0  0  0  0  0  0  0  0  0  0
  151.8683  137.7438  154.4262 N   0  0  0  0  0  0  0  0  0  0  0  0
  151.3231  139.0205  154.2448 O   0  0  0  0  0  0  0  0  0  0  0  0
  148.7277  140.4878  155.2928 H   0  0  0  0  0  0  0  0  0  0  0  0
  148.4492  140.1344  153.5863 H   0  0  0  0  0  0  0  0  0  0  0  0
  149.8701  141.0592  154.0756 H   0  0  0  0  0  0  0  0  0  0  0  0
  148.6376  137.3275  155.0832 H   0  0  0  0  0  0  0  0  0  0  0  0
  149.3919  135.3086  153.3433 H   0  0  0  0  0  0  0  0  0  0  0  0
  148.1237  133.1002  153.5216 H   0  0  0  0  0  0  0  0  0  0  0  0
  147.6351  133.6658  155.1029 H   0  0  0  0  0  0  0  0  0  0  0  0
  147.1549  135.5733  152.8308 H   0  0  0  0  0  0  0  0  0  0  0  0
  146.6203  136.1906  155.1901 H   0  0  0  0  0  0  0  0  0  0  0  0
  145.4827  134.8578  155.2871 H   0  0  0  0  0  0  0  0  0  0  0  0
  145.2007  136.2168  154.1902 H   0  0  0  0  0  0  0  0  0  0  0  0
  144.0566  135.0047  152.7659 H   0  0  0  0  0  0  0  0  0  0  0  0
  145.0031  135.3027  151.3158 H   0  0  0  0  0  0  0  0  0  0  0  0
  143.3767  132.8060  152.0355 H   0  0  0  0  0  0  0  0  0  0  0  0
  142.9722  133.9807  150.8130 H   0  0  0  0  0  0  0  0  0  0  0  0
  143.9977  131.9166  149.8143 H   0  0  0  0  0  0  0  0  0  0  0  0
  144.9130  133.3595  149.4572 H   0  0  0  0  0  0  0  0  0  0  0  0
  146.4926  131.6930  150.0914 H   0  0  0  0  0  0  0  0  0  0  0  0
  144.9796  131.1685  152.6889 H   0  0  0  0  0  0  0  0  0  0  0  0
  146.4842  130.4165  152.1775 H   0  0  0  0  0  0  0  0  0  0  0  0
  145.0039  130.1129  151.2793 H   0  0  0  0  0  0  0  0  0  0  0  0
  147.0707  133.8831  150.8959 H   0  0  0  0  0  0  0  0  0  0  0  0
  147.5707  132.7059  152.0775 H   0  0  0  0  0  0  0  0  0  0  0  0
  145.5223  133.2074  153.2822 H   0  0  0  0  0  0  0  0  0  0  0  0
  1  2  1  0  0  0  0
  1 21  1  0  0  0  0
  1 22  1  0  0  0  0
  1 23  1  0  0  0  0
  2 20  1  0  0  0  0
  2  3  2  0  0  0  0
  3  4  1  0  0  0  0
  3 24  1  0  0  0  0
  4  5  1  0  0  0  0
  4 19  2  0  0  0  0
  5  6  1  0  0  0  0
  6  7  2  0  0  0  0
  6  8  1  0  0  0  0
  8  9  1  0  0  0  0
  8 25  1  0  0  0  0
  9 10  1  0  0  0  0
  9 26  1  0  0  0  0
  9 27  1  0  0  0  0
 10 11  1  0  0  0  0
 10 12  1  0  0  0  0
 10 28  1  0  0  0  0
 11 29  1  0  0  0  0
 11 30  1  0  0  0  0
 11 31  1  0  0  0  0
 12 18  1  0  0  0  0
 12 13  1  0  0  0  0
 12 44  1  0  0  0  0
 13 14  1  0  0  0  0
 13 32  1  0  0  0  0
 13 33  1  0  0  0  0
 14 15  1  0  0  0  0
 14 34  1  0  0  0  0
 14 35  1  0  0  0  0
 15 16  1  0  0  0  0
 15 36  1  0  0  0  0
 15 37  1  0  0  0  0
 16 17  1  0  0  0  0
 16 18  1  0  0  0  0
 16 38  1  0  0  0  0
 17 39  1  0  0  0  0
 17 40  1  0  0  0  0
 17 41  1  0  0  0  0
 18 42  1  0  0  0  0
 18 43  1  0  0  0  0
 19 20  1  0  0  0  0
M  CHG  1   5  -1
M  CHG  1  12   1
M  END
> <s_m_source_file>
AV-unprocessed.smi

> <i_m_source_file_index>
2083

> <i_lp_mmshare_version>
43012

> <i_f3d_flags>
0

> <s_epik_input>
W0NIM11jMVtjSF1jKG5vMSlbTkhdQyg9TylbTkhdW0NIMl1bQ0BIXShbQ0gzXSlOMltDSDJdW0NIMl1bQ0gyXVtDQEBIXShbQ0gzXSlbQ0gyXTI=

> <s_epik_cmdline>
J2VwaWtfcHl0aG9uJywgJy1waCcsICc3LjAnLCAnLXRuJywgJzgnLCAnLW1hJywgJzIwMCcsICctbWV0YWxfYmluZGluZycsICctaW1hZScsICc8aW5maWxlLm1hZT4nLCAnLW9tYWUnLCAnPG91dGZpbGUubWFlPic=

> <r_epik_Ionization_Penalty>
6.22434

> <r_epik_Ionization_Penalty_Charging>
6.22425

> <r_epik_Ionization_Penalty_Neutral>
9.62407e-05

> <r_epik_State_Penalty>
6.22423

> <r_epik_Charging_Adjusted_Penalty>
12.4485

> <i_epik_Tot_Q>
0

> <i_epik_Tot_abs_Q>
2

> <r_epik_Metal_State_Penalty>
2.16764

> <b_epik_Metal_Only>
1

> <s_lp_Force_Field>
OPLS_2005

> <r_lp_Energy>
14.8953

> <b_lp_Chiralities_Consistent>
1

> <s_lp_Variant>
AV-unprocessed.smi:2083-13

> <Gold.Version>
5.8.1

> <Gold.Id.Protein>
6NUR|6NUR_protein|mol2

> <Gold.PLP.Fitness>
39.6655

> <Gold.PLP.PLP>
-30.4613

> <Gold.PLP.part.hbond>
-3.3491

> <Gold.PLP.part.metal>
0.0000

> <Gold.PLP.part.buried>
-3.5733

> <Gold.PLP.part.nonpolar>
-23.6968

> <Gold.PLP.part.repulsive>
0.4586

> <Gold.PLP.ligand.clash>
0.0000

> <Gold.PLP.ligand.torsion>
1.1393

> <Gold.PLP.Chemscore.Hbond>
3.8000

> <Gold.PLP.Chemscore.CHOScore>
0.0000

> <Gold.PLP.Chemscore.Metal>
0.0000

> <Gold.Chemscore.Hbonds>
donor molecule, donor type, donor heavy atom, donor atom, acceptor molecule, acceptor atom, score
      L1  H     8    25       P1  7948  0.75
      P1  H  7989  7998       L1    20  1.00
      P1  H 10752 10765       L1     5  2.00

> <Gold.PLP.Chemscore.Internal.Correction>
0.0828

> <Gold.Rescore>
     Score         DG    S(hbond)    S(metal)    S(lipo)     H(rot)  DE(clash)    DE(int)     intcor
     14.95     -16.16       2.17        0.00      62.68       1.52       0.01       1.20       ----

> <Gold.Chemscore.Fitness>
14.9541

> <Gold.Chemscore.DG>
-16.1600

> <Gold.Chemscore.ZeroCoef>
-5.4800

> <Gold.Chemscore.Hbond>
2.1663

> <Gold.Chemscore.Metal>
0.0000

> <Gold.Chemscore.Lipo>
62.6762

> <Gold.Chemscore.Internal_Hbond>
0.0000

> <Gold.Chemscore.DEClash>
0.0088

> <Gold.Chemscore.DEInternal>
1.1970

> <Gold.Chemscore.Rot>
1.5190

> <Gold.Chemscore.Internal.Correction>
   9.000000E+99

> <Gold.Chemscore.Hbonds>
donor molecule, donor type, donor heavy atom, donor atom, acceptor molecule, acceptor atom, score
      L1  H     8    25       P1  7948  0.09
      P1  H  7989  7998       L1    20  0.52
      P1  H 10752 10765       L1     5  0.24

> <Gold.Chemscore.Hbond.Weighted>
-7.2355

> <Gold.Chemscore.Metal.Weighted>
-0.0000

> <Gold.Chemscore.Lipo.Weighted>
-7.3331

> <Gold.Chemscore.Internal_Hbond.Weighted>
0.0000

> <Gold.Chemscore.DEClash.Weighted>
0.0088

> <Gold.Chemscore.DEInternal.Weighted>
1.1970

> <Gold.Chemscore.Rot.Weighted>
3.8886

> <Gold.Chemscore.Internal.Correction.Weighted>
   9.000000E+99

> <Gold.Protein.RotatedTorsions>
[ 6907 6896 6895 6894 ] final  -54.15 input  -60.11 | X-H torsion
[ 7974 7965 7964 7962 ] final  -56.53 input  175.53 | X-H torsion
[ 8008 7997 7996 7995 ] final -109.65 input   59.86 | X-H torsion
[ 10167 10162 10161 10158 ] final  -89.47 input  -65.29 | X-H torsion
[ 10718 10713 10712 10709 ] final   -8.77 input   66.30 | X-H torsion
[ 10763 10752 10751 10750 ] final -165.93 input  -60.55 | X-H torsion
[ 11005 11000 10999 10996 ] final  -46.74 input  -57.11 | X-H torsion

> <Gold.Protein.ActiveResidues>
 VAL166  LYS551  ARG553  GLY616  TRP617  ASP618  TYR619  PRO620  LYS621  CYS622 
 ASP623  PHE694  ASN695  SER759  ASP760  ASP761  ALA762  ILE779  LEU786  VAL792 
 PHE793  MET794  SER795  GLU796  ALA797  LYS798  CYS799  TRP800  GLU811  SER814 

> <Gold.Protein.RotatedAtoms>
  150.8363  134.7638  159.6895 H   0  0  0  0  0  0  0  0  0  0  0  0  # atno 6907 bound_to 6896
  152.4459  134.5492  159.9871 H   0  0  0  0  0  0  0  0  0  0  0  0  # atno 6908 bound_to 6896
  151.5641  133.3361  159.3012 H   0  0  0  0  0  0  0  0  0  0  0  0  # atno 6909 bound_to 6896
  145.8616  140.8281  142.9934 H   0  0  0  0  0  0  0  0  0  0  0  0  # atno 7974 bound_to 7965
  154.9625  140.0399  157.2197 H   0  0  0  0  0  0  0  0  0  0  0  0  # atno 8008 bound_to 7997
  154.7875  140.2829  155.5994 H   0  0  0  0  0  0  0  0  0  0  0  0  # atno 8009 bound_to 7997
  156.2945  140.2579  156.2715 H   0  0  0  0  0  0  0  0  0  0  0  0  # atno 8010 bound_to 7997
  140.3645  143.2825  151.9575 H   0  0  0  0  0  0  0  0  0  0  0  0  # atno 10167 bound_to 10162
  156.6977  130.5084  149.5926 H   0  0  0  0  0  0  0  0  0  0  0  0  # atno 10718 bound_to 10713
  154.6883  135.2966  154.9516 H   0  0  0  0  0  0  0  0  0  0  0  0  # atno 10763 bound_to 10752
  154.0487  135.6647  153.4802 H   0  0  0  0  0  0  0  0  0  0  0  0  # atno 10764 bound_to 10752
  153.0594  135.5124  154.7962 H   0  0  0  0  0  0  0  0  0  0  0  0  # atno 10765 bound_to 10752
  141.0598  133.6713  156.3198 H   0  0  0  0  0  0  0  0  0  0  0  0  # atno 11005 bound_to 11000
  144.6726  140.1104  143.7455 LP  0  0  0  0  0  0  0  0  0  0  0  0  # atno 17320 bound_to 7965
  145.9242  139.2564  143.1363 LP  0  0  0  0  0  0  0  0  0  0  0  0  # atno 17321 bound_to 7965
  139.4810  144.5963  151.7684 LP  0  0  0  0  0  0  0  0  0  0  0  0  # atno 17342 bound_to 10162
  140.5095  144.1047  150.5991 LP  0  0  0  0  0  0  0  0  0  0  0  0  # atno 17343 bound_to 10162
  156.1751  130.6462  151.0885 LP  0  0  0  0  0  0  0  0  0  0  0  0  # atno 17370 bound_to 10713
  157.6985  131.0785  150.6895 LP  0  0  0  0  0  0  0  0  0  0  0  0  # atno 17371 bound_to 10713
  140.5892  134.5668  157.5496 LP  0  0  0  0  0  0  0  0  0  0  0  0  # atno 17394 bound_to 11000
  139.9422  134.7766  156.0650 LP  0  0  0  0  0  0  0  0  0  0  0  0  # atno 17395 bound_to 11000

$$$$
