AV-unprocessed.smi:2192|AV-procd|sdf|8897|dock1
  -GOLD-   2272012103D 1   1.00000     0.00000
 Structure written by MMmdl.
 42 44  0  0  0  0  0  0  0  0  1 V2000
  154.7894  140.0207  159.5115 C   0  0  0  0  0  0  0  0  0  0  0  0
  153.6301  140.8956  159.2531 N   0  0  0  0  0  0  0  0  0  0  0  0
  152.8516  140.6330  158.1563 C   0  0  0  0  0  0  0  0  0  0  0  0
  153.0523  139.7216  157.3523 O   0  0  0  0  0  0  0  0  0  0  0  0
  151.7184  141.5503  157.9994 C   0  0  0  0  0  0  0  0  0  0  0  0
  151.4770  142.5748  158.8526 C   0  0  0  0  0  0  0  0  0  0  0  0
  150.3491  143.2945  158.4753 N   0  0  0  0  0  0  0  0  0  0  0  0
  149.9588  142.6431  157.3790 C   0  0  0  0  0  0  0  0  0  0  0  0
  150.7208  141.5881  157.0254 N   0  0  0  0  0  0  0  0  0  0  0  0
  150.5047  140.7224  155.8756 C   0  0  0  0  0  0  0  0  0  0  0  0
  149.5636  141.3541  154.8296 C   0  0  1  0  0  0  0  0  0  0  0  0
  149.8757  140.9385  153.5150 O   0  0  0  0  0  0  0  0  0  0  0  0
  148.0740  141.0865  155.0970 C   0  0  0  0  0  0  0  0  0  0  0  0
  147.2819  141.7644  154.1295 O   0  0  0  0  0  0  0  0  0  0  0  0
  146.2474  142.5596  154.5729 C   0  0  0  0  0  0  0  0  0  0  0  0
  145.5717  143.3284  153.6027 C   0  0  0  0  0  0  0  0  0  0  0  0
  144.5046  144.1721  153.9661 C   0  0  0  0  0  0  0  0  0  0  0  0
  144.0993  144.2530  155.3110 C   0  0  0  0  0  0  0  0  0  0  0  0
  143.0741  145.0642  155.6632 F   0  0  0  0  0  0  0  0  0  0  0  0
  144.7620  143.4887  156.2892 C   0  0  0  0  0  0  0  0  0  0  0  0
  145.8305  142.6457  155.9257 C   0  0  0  0  0  0  0  0  0  0  0  0
  152.3525  142.7672  159.9499 N   0  0  0  0  0  0  0  0  0  0  0  0
  152.0637  143.8901  160.8472 C   0  0  0  0  0  0  0  0  0  0  0  0
  153.4223  141.9288  160.1516 C   0  0  0  0  0  0  0  0  0  0  0  0
  154.1800  142.0948  161.1115 O   0  0  0  0  0  0  0  0  0  0  0  0
  154.9144  139.2019  158.8025 H   0  0  0  0  0  0  0  0  0  0  0  0
  154.7079  139.5617  160.4984 H   0  0  0  0  0  0  0  0  0  0  0  0
  155.7148  140.5985  159.4856 H   0  0  0  0  0  0  0  0  0  0  0  0
  149.0889  142.9438  156.8134 H   0  0  0  0  0  0  0  0  0  0  0  0
  151.4665  140.4571  155.4389 H   0  0  0  0  0  0  0  0  0  0  0  0
  150.0739  139.7866  156.2340 H   0  0  0  0  0  0  0  0  0  0  0  0
  149.7129  142.4343  154.8447 H   0  0  0  0  0  0  0  0  0  0  0  0
  149.2539  140.2745  153.2571 H   0  0  0  0  0  0  0  0  0  0  0  0
  147.8889  140.0139  155.0214 H   0  0  0  0  0  0  0  0  0  0  0  0
  147.8111  141.3986  156.1094 H   0  0  0  0  0  0  0  0  0  0  0  0
  145.8775  143.2729  152.5681 H   0  0  0  0  0  0  0  0  0  0  0  0
  143.9979  144.7569  153.2125 H   0  0  0  0  0  0  0  0  0  0  0  0
  144.4504  143.5490  157.3216 H   0  0  0  0  0  0  0  0  0  0  0  0
  146.3128  142.0746  156.7041 H   0  0  0  0  0  0  0  0  0  0  0  0
  152.7516  143.9858  161.6876 H   0  0  0  0  0  0  0  0  0  0  0  0
  151.0605  143.7868  161.2619 H   0  0  0  0  0  0  0  0  0  0  0  0
  152.0993  144.8273  160.2909 H   0  0  0  0  0  0  0  0  0  0  0  0
  1  2  1  0  0  0  0
  1 26  1  0  0  0  0
  1 27  1  0  0  0  0
  1 28  1  0  0  0  0
  2 24  1  0  0  0  0
  2  3  1  0  0  0  0
  3  4  2  0  0  0  0
  3  5  1  0  0  0  0
  5  9  1  0  0  0  0
  5  6  2  0  0  0  0
  6  7  1  0  0  0  0
  6 22  1  0  0  0  0
  7  8  2  0  0  0  0
  8  9  1  0  0  0  0
  8 29  1  0  0  0  0
  9 10  1  0  0  0  0
 10 11  1  0  0  0  0
 10 30  1  0  0  0  0
 10 31  1  0  0  0  0
 11 12  1  0  0  0  0
 11 13  1  0  0  0  0
 11 32  1  0  0  0  0
 12 33  1  0  0  0  0
 13 14  1  0  0  0  0
 13 34  1  0  0  0  0
 13 35  1  0  0  0  0
 14 15  1  0  0  0  0
 15 21  1  0  0  0  0
 15 16  2  0  0  0  0
 16 17  1  0  0  0  0
 16 36  1  0  0  0  0
 17 18  2  0  0  0  0
 17 37  1  0  0  0  0
 18 19  1  0  0  0  0
 18 20  1  0  0  0  0
 20 21  2  0  0  0  0
 20 38  1  0  0  0  0
 21 39  1  0  0  0  0
 22 23  1  0  0  0  0
 22 24  1  0  0  0  0
 23 40  1  0  0  0  0
 23 41  1  0  0  0  0
 23 42  1  0  0  0  0
 24 25  2  0  0  0  0
M  END
> <s_m_source_file>
AV-unprocessed.smi

> <i_m_source_file_index>
2192

> <i_lp_mmshare_version>
43012

> <i_f3d_flags>
0

> <s_epik_input>
Tz1jMW4oW0NIM10pYyg9TyluKFtDSDNdKWMoYzEyKW5bY0hdbjJbQ0gyXVtDQEhdKFtPSF0pW0NIMl1PYzNbY0hdW2NIXWMoRilbY0hdW2NIXTM=

> <s_epik_cmdline>
J2VwaWtfcHl0aG9uJywgJy1waCcsICc3LjAnLCAnLXRuJywgJzgnLCAnLW1hJywgJzIwMCcsICctbWV0YWxfYmluZGluZycsICctaW1hZScsICc8aW5maWxlLm1hZT4nLCAnLW9tYWUnLCAnPG91dGZpbGUubWFlPic=

> <r_lp_tautomer_probability>
1

> <r_epik_Ionization_Penalty>
1.0344e-06

> <r_epik_Ionization_Penalty_Charging>
3.2247e-09

> <r_epik_Ionization_Penalty_Neutral>
1.03118e-06

> <r_epik_State_Penalty>
-0

> <r_epik_Charging_Adjusted_Penalty>
3.2247e-09

> <i_epik_Tot_Q>
0

> <i_epik_Tot_abs_Q>
0

> <r_epik_Metal_State_Penalty>
-0

> <b_epik_Metal_Only>
0

> <s_lp_Force_Field>
OPLS_2005

> <r_lp_Energy>
39.8918

> <b_lp_Chiralities_Consistent>
1

> <s_lp_Variant>
AV-unprocessed.smi:2192-2

> <Gold.Version>
5.8.1

> <Gold.Id.Protein>
6NUR|6NUR_protein|mol2

> <Gold.PLP.Fitness>
58.1321

> <Gold.PLP.PLP>
-49.8831

> <Gold.PLP.part.hbond>
-4.5033

> <Gold.PLP.part.metal>
0.0000

> <Gold.PLP.part.buried>
-3.9876

> <Gold.PLP.part.nonpolar>
-41.3788

> <Gold.PLP.part.repulsive>
0.3049

> <Gold.PLP.ligand.clash>
0.0000

> <Gold.PLP.ligand.torsion>
0.9960

> <Gold.PLP.Chemscore.Hbond>
2.3840

> <Gold.PLP.Chemscore.CHOScore>
1.0000

> <Gold.PLP.Chemscore.Metal>
0.0000

> <Gold.Chemscore.Hbonds>
donor molecule, donor type, donor heavy atom, donor atom, acceptor molecule, acceptor atom, score
      L1  H    12    33       P1  7957  0.05
      P1  H  7989  7998       L1    12  0.29
      P1  H  7997  8009       L1     4  1.00
      P1  H  8011  8017       L1    12  1.00
      L1  C     8    29       P1  8028  0.93

> <Gold.PLP.Chemscore.Internal.Correction>
0.0890

> <Gold.Rescore>
     Score         DG    S(hbond)    S(metal)    S(lipo)     H(rot)  DE(clash)    DE(int)     intcor
      7.26      -9.67       0.81        0.00      75.61       2.88       1.36       1.05       ----

> <Gold.Chemscore.Fitness>
7.2564

> <Gold.Chemscore.DG>
-9.6724

> <Gold.Chemscore.ZeroCoef>
-5.4800

> <Gold.Chemscore.Hbond>
0.8112

> <Gold.Chemscore.Metal>
0.0000

> <Gold.Chemscore.Lipo>
75.6066

> <Gold.Chemscore.Internal_Hbond>
0.0000

> <Gold.Chemscore.DEClash>
1.3640

> <Gold.Chemscore.DEInternal>
1.0520

> <Gold.Chemscore.Rot>
2.8762

> <Gold.Chemscore.Internal.Correction>
   9.000000E+99

> <Gold.Chemscore.Hbonds>
donor molecule, donor type, donor heavy atom, donor atom, acceptor molecule, acceptor atom, score
      L1  H    12    33       P1  7957  0.07
      P1  H  7989  7998       L1    12  0.15
      P1  H  7997  8009       L1     4  0.56
      P1  H  8011  8017       L1    12  0.56

> <Gold.Chemscore.Hbond.Weighted>
-2.7095

> <Gold.Chemscore.Metal.Weighted>
-0.0000

> <Gold.Chemscore.Lipo.Weighted>
-8.8460

> <Gold.Chemscore.Internal_Hbond.Weighted>
0.0000

> <Gold.Chemscore.DEClash.Weighted>
1.3640

> <Gold.Chemscore.DEInternal.Weighted>
1.0520

> <Gold.Chemscore.Rot.Weighted>
7.3631

> <Gold.Chemscore.Internal.Correction.Weighted>
   9.000000E+99

> <Gold.Protein.RotatedTorsions>
[ 6907 6896 6895 6894 ] final  144.91 input  -60.11 | X-H torsion
[ 7974 7965 7964 7962 ] final  -33.29 input  175.53 | X-H torsion
[ 8008 7997 7996 7995 ] final -170.20 input   59.86 | X-H torsion
[ 10167 10162 10161 10158 ] final  -44.11 input  -65.29 | X-H torsion
[ 10718 10713 10712 10709 ] final   52.16 input   66.30 | X-H torsion
[ 10763 10752 10751 10750 ] final -105.95 input  -60.55 | X-H torsion
[ 11005 11000 10999 10996 ] final   12.87 input  -57.11 | X-H torsion

> <Gold.Protein.ActiveResidues>
 VAL166  LYS551  ARG553  GLY616  TRP617  ASP618  TYR619  PRO620  LYS621  CYS622 
 ASP623  PHE694  ASN695  SER759  ASP760  ASP761  ALA762  ILE779  LEU786  VAL792 
 PHE793  MET794  SER795  GLU796  ALA797  LYS798  CYS799  TRP800  GLU811  SER814 

> <Gold.Protein.RotatedAtoms>
  152.1876  133.4751  159.4990 H   0  0  0  0  0  0  0  0  0  0  0  0  # atno 6907 bound_to 6896
  150.6945  134.1753  159.4237 H   0  0  0  0  0  0  0  0  0  0  0  0  # atno 6908 bound_to 6896
  151.9667  135.0097  160.0601 H   0  0  0  0  0  0  0  0  0  0  0  0  # atno 6909 bound_to 6896
  146.0922  140.5899  142.8859 H   0  0  0  0  0  0  0  0  0  0  0  0  # atno 7974 bound_to 7965
  155.9152  140.1064  157.1249 H   0  0  0  0  0  0  0  0  0  0  0  0  # atno 8008 bound_to 7997
  154.4045  140.1266  156.4673 H   0  0  0  0  0  0  0  0  0  0  0  0  # atno 8009 bound_to 7997
  155.7262  140.3469  155.5041 H   0  0  0  0  0  0  0  0  0  0  0  0  # atno 8010 bound_to 7997
  140.6909  143.2947  151.3448 H   0  0  0  0  0  0  0  0  0  0  0  0  # atno 10167 bound_to 10162
  157.5049  130.8462  149.8362 H   0  0  0  0  0  0  0  0  0  0  0  0  # atno 10718 bound_to 10713
  154.7981  135.4730  154.0208 H   0  0  0  0  0  0  0  0  0  0  0  0  # atno 10763 bound_to 10752
  153.1735  135.6829  153.8581 H   0  0  0  0  0  0  0  0  0  0  0  0  # atno 10764 bound_to 10752
  153.8156  135.3211  155.3383 H   0  0  0  0  0  0  0  0  0  0  0  0  # atno 10765 bound_to 10752
  140.4872  134.0877  155.7763 H   0  0  0  0  0  0  0  0  0  0  0  0  # atno 11005 bound_to 11000
  144.7368  140.4832  143.6897 LP  0  0  0  0  0  0  0  0  0  0  0  0  # atno 17320 bound_to 7965
  145.6017  139.1504  143.3125 LP  0  0  0  0  0  0  0  0  0  0  0  0  # atno 17321 bound_to 7965
  139.6311  144.0718  152.2477 LP  0  0  0  0  0  0  0  0  0  0  0  0  # atno 17342 bound_to 10162
  140.0194  144.6165  150.7580 LP  0  0  0  0  0  0  0  0  0  0  0  0  # atno 17343 bound_to 10162
  156.0252  130.3782  150.1844 LP  0  0  0  0  0  0  0  0  0  0  0  0  # atno 17370 bound_to 10713
  157.0034  130.9929  151.3385 LP  0  0  0  0  0  0  0  0  0  0  0  0  # atno 17371 bound_to 10713
  141.1502  133.8982  157.2116 LP  0  0  0  0  0  0  0  0  0  0  0  0  # atno 17394 bound_to 11000
  139.9791  135.0104  156.9705 LP  0  0  0  0  0  0  0  0  0  0  0  0  # atno 17395 bound_to 11000

$$$$
