AV-unprocessed.smi:882|AV-procd|sdf|4037|dock1
  -GOLD-   22720 1533D 1   1.00000     0.00000
 Structure written by MMmdl.
 33 34  0  0  0  0  0  0  0  0  1 V2000
  138.7450  140.6214  154.5095 C   0  0  0  0  0  0  0  0  0  0  0  0
  139.9436  140.4899  154.7016 C   0  0  0  0  0  0  0  0  0  0  0  0
  141.3894  140.3178  154.9237 C   0  0  0  0  0  0  0  0  0  0  0  0
  141.9212  139.1269  154.2710 N   0  0  0  0  0  0  0  0  0  0  0  0
  141.5511  137.8627  154.5371 C   0  0  0  0  0  0  0  0  0  0  0  0
  140.7243  137.5623  155.3984 O   0  0  0  0  0  0  0  0  0  0  0  0
  142.2630  136.7997  153.7511 C   0  0  0  0  0  0  0  0  0  0  0  0
  141.8584  135.4475  153.7923 C   0  0  0  0  0  0  0  0  0  0  0  0
  142.5811  134.4924  153.0520 C   0  0  0  0  0  0  0  0  0  0  0  0
  143.7012  134.9078  152.2937 C   0  0  0  0  0  0  0  0  0  0  0  0
  144.4424  133.9671  151.5457 N   0  0  0  0  0  0  0  0  0  0  0  0
  143.7661  132.7014  151.2720 C   0  0  0  0  0  0  0  0  0  0  0  0
  144.5381  131.8991  150.2103 C   0  0  0  0  0  0  0  0  0  0  0  0
  145.8892  131.7261  150.6241 O   0  0  0  0  0  0  0  0  0  0  0  0
  146.5604  132.9724  150.7734 C   0  0  0  0  0  0  0  0  0  0  0  0
  145.8618  133.8094  151.8580 C   0  0  0  0  0  0  0  0  0  0  0  0
  144.0903  136.2063  152.2598 N   0  0  0  0  0  0  0  0  0  0  0  0
  143.3957  137.1184  152.9722 C   0  0  0  0  0  0  0  0  0  0  0  0
  137.6982  140.7361  154.3386 H   0  0  0  0  0  0  0  0  0  0  0  0
  141.8970  141.1951  154.5231 H   0  0  0  0  0  0  0  0  0  0  0  0
  141.5790  140.2999  155.9980 H   0  0  0  0  0  0  0  0  0  0  0  0
  142.6256  139.2743  153.5629 H   0  0  0  0  0  0  0  0  0  0  0  0
  141.0075  135.1341  154.3797 H   0  0  0  0  0  0  0  0  0  0  0  0
  142.2620  133.4611  153.0661 H   0  0  0  0  0  0  0  0  0  0  0  0
  143.7042  132.1295  152.1988 H   0  0  0  0  0  0  0  0  0  0  0  0
  142.7451  132.8538  150.9257 H   0  0  0  0  0  0  0  0  0  0  0  0
  144.0809  130.9189  150.0752 H   0  0  0  0  0  0  0  0  0  0  0  0
  144.5042  132.4021  149.2425 H   0  0  0  0  0  0  0  0  0  0  0  0
  147.5972  132.7860  151.0534 H   0  0  0  0  0  0  0  0  0  0  0  0
  146.5781  133.5054  149.8214 H   0  0  0  0  0  0  0  0  0  0  0  0
  146.3446  134.7850  151.9271 H   0  0  0  0  0  0  0  0  0  0  0  0
  145.9664  133.3233  152.8291 H   0  0  0  0  0  0  0  0  0  0  0  0
  143.7585  138.1341  152.9090 H   0  0  0  0  0  0  0  0  0  0  0  0
  1  2  3  0  0  0  0
  1 19  1  0  0  0  0
  2  3  1  0  0  0  0
  3  4  1  0  0  0  0
  3 20  1  0  0  0  0
  3 21  1  0  0  0  0
  4  5  1  0  0  0  0
  4 22  1  0  0  0  0
  5  6  2  0  0  0  0
  5  7  1  0  0  0  0
  7 18  1  0  0  0  0
  7  8  2  0  0  0  0
  8  9  1  0  0  0  0
  8 23  1  0  0  0  0
  9 10  2  0  0  0  0
  9 24  1  0  0  0  0
 10 11  1  0  0  0  0
 10 17  1  0  0  0  0
 11 16  1  0  0  0  0
 11 12  1  0  0  0  0
 12 13  1  0  0  0  0
 12 25  1  0  0  0  0
 12 26  1  0  0  0  0
 13 14  1  0  0  0  0
 13 27  1  0  0  0  0
 13 28  1  0  0  0  0
 14 15  1  0  0  0  0
 15 16  1  0  0  0  0
 15 29  1  0  0  0  0
 15 30  1  0  0  0  0
 16 31  1  0  0  0  0
 16 32  1  0  0  0  0
 17 18  2  0  0  0  0
 18 33  1  0  0  0  0
M  END
> <s_m_source_file>
AV-unprocessed.smi

> <i_m_source_file_index>
882

> <i_lp_mmshare_version>
43012

> <i_f3d_flags>
0

> <s_epik_input>
W0NIXSNDW0NIMl1bTkhdQyg9TyljMVtjSF1bY0hdYyhuW2NIXTEpTjJbQ0gyXVtDSDJdT1tDSDJdW0NIMl0y

> <s_epik_cmdline>
J2VwaWtfcHl0aG9uJywgJy1waCcsICc3LjAnLCAnLXRuJywgJzgnLCAnLW1hJywgJzIwMCcsICctbWV0YWxfYmluZGluZycsICctaW1hZScsICc8aW5maWxlLm1hZT4nLCAnLW9tYWUnLCAnPG91dGZpbGUubWFlPic=

> <r_lp_tautomer_probability>
1

> <r_epik_Ionization_Penalty>
1.53095e-05

> <r_epik_Ionization_Penalty_Charging>
0

> <r_epik_Ionization_Penalty_Neutral>
1.53095e-05

> <r_epik_State_Penalty>
-0

> <r_epik_Charging_Adjusted_Penalty>
0

> <i_epik_Tot_Q>
0

> <i_epik_Tot_abs_Q>
0

> <r_epik_Metal_State_Penalty>
-0

> <b_epik_Metal_Only>
0

> <s_lp_Force_Field>
OPLS_2005

> <r_lp_Energy>
17.8132

> <b_lp_Chiralities_Consistent>
1

> <s_lp_Variant>
AV-unprocessed.smi:882-1

> <Gold.Version>
5.8.1

> <Gold.Id.Protein>
6NUR|6NUR_protein|mol2

> <Gold.PLP.Fitness>
38.6315

> <Gold.PLP.PLP>
-32.3327

> <Gold.PLP.part.hbond>
-1.5199

> <Gold.PLP.part.metal>
0.0000

> <Gold.PLP.part.buried>
-5.0540

> <Gold.PLP.part.nonpolar>
-25.5760

> <Gold.PLP.part.repulsive>
0.4679

> <Gold.PLP.ligand.clash>
0.0000

> <Gold.PLP.ligand.torsion>
0.3094

> <Gold.PLP.Chemscore.Hbond>
0.9120

> <Gold.PLP.Chemscore.CHOScore>
1.2811

> <Gold.PLP.Chemscore.Metal>
0.0000

> <Gold.Chemscore.Hbonds>
donor molecule, donor type, donor heavy atom, donor atom, acceptor molecule, acceptor atom, score
      L1  H     4    22       P1 10175  0.98
      L1  C    18    33       P1 10175  1.00

> <Gold.PLP.Chemscore.Internal.Correction>
0.3384

> <Gold.Rescore>
     Score         DG    S(hbond)    S(metal)    S(lipo)     H(rot)  DE(clash)    DE(int)     intcor
     13.48     -13.72       0.96        0.00      69.13       1.19       0.01       0.23       ----

> <Gold.Chemscore.Fitness>
13.4768

> <Gold.Chemscore.DG>
-13.7196

> <Gold.Chemscore.ZeroCoef>
-5.4800

> <Gold.Chemscore.Hbond>
0.9565

> <Gold.Chemscore.Metal>
0.0000

> <Gold.Chemscore.Lipo>
69.1273

> <Gold.Chemscore.Internal_Hbond>
0.0000

> <Gold.Chemscore.DEClash>
0.0110

> <Gold.Chemscore.DEInternal>
0.2318

> <Gold.Chemscore.Rot>
1.1887

> <Gold.Chemscore.Internal.Correction>
   9.000000E+99

> <Gold.Chemscore.Hbonds>
donor molecule, donor type, donor heavy atom, donor atom, acceptor molecule, acceptor atom, score
      L1  H     4    22       P1 10175  0.93

> <Gold.Chemscore.Hbond.Weighted>
-3.1948

> <Gold.Chemscore.Metal.Weighted>
-0.0000

> <Gold.Chemscore.Lipo.Weighted>
-8.0879

> <Gold.Chemscore.Internal_Hbond.Weighted>
0.0000

> <Gold.Chemscore.DEClash.Weighted>
0.0110

> <Gold.Chemscore.DEInternal.Weighted>
0.2318

> <Gold.Chemscore.Rot.Weighted>
3.0432

> <Gold.Chemscore.Internal.Correction.Weighted>
   9.000000E+99

> <Gold.Protein.RotatedTorsions>
[ 6907 6896 6895 6894 ] final  107.75 input  -60.11 | X-H torsion
[ 7974 7965 7964 7962 ] final   31.00 input  175.53 | X-H torsion
[ 8008 7997 7996 7995 ] final  -29.29 input   59.86 | X-H torsion
[ 10167 10162 10161 10158 ] final   -1.48 input  -65.29 | X-H torsion
[ 10718 10713 10712 10709 ] final -115.28 input   66.30 | X-H torsion
[ 10763 10752 10751 10750 ] final  -85.25 input  -60.55 | X-H torsion
[ 11005 11000 10999 10996 ] final   92.52 input  -57.11 | X-H torsion

> <Gold.Protein.ActiveResidues>
 VAL166  LYS551  ARG553  GLY616  TRP617  ASP618  TYR619  PRO620  LYS621  CYS622 
 ASP623  PHE694  ASN695  SER759  ASP760  ASP761  ALA762  ILE779  LEU786  VAL792 
 PHE793  MET794  SER795  GLU796  ALA797  LYS798  CYS799  TRP800  GLU811  SER814 

> <Gold.Protein.RotatedAtoms>
  152.5141  133.9189  159.7524 H   0  0  0  0  0  0  0  0  0  0  0  0  # atno 6907 bound_to 6896
  150.9565  133.6483  159.2769 H   0  0  0  0  0  0  0  0  0  0  0  0  # atno 6908 bound_to 6896
  151.3743  135.0933  159.9528 H   0  0  0  0  0  0  0  0  0  0  0  0  # atno 6909 bound_to 6896
  146.1577  139.6715  142.9055 H   0  0  0  0  0  0  0  0  0  0  0  0  # atno 7974 bound_to 7965
  154.4296  140.1822  156.1224 H   0  0  0  0  0  0  0  0  0  0  0  0  # atno 8008 bound_to 7997
  156.0132  140.3348  155.6937 H   0  0  0  0  0  0  0  0  0  0  0  0  # atno 8009 bound_to 7997
  155.6081  140.0647  157.2704 H   0  0  0  0  0  0  0  0  0  0  0  0  # atno 8010 bound_to 7997
  140.6812  143.6770  150.8137 H   0  0  0  0  0  0  0  0  0  0  0  0  # atno 10167 bound_to 10162
  156.0885  130.6072  150.8886 H   0  0  0  0  0  0  0  0  0  0  0  0  # atno 10718 bound_to 10713
  154.6089  135.5491  153.7453 H   0  0  0  0  0  0  0  0  0  0  0  0  # atno 10763 bound_to 10752
  153.0186  135.6385  154.1606 H   0  0  0  0  0  0  0  0  0  0  0  0  # atno 10764 bound_to 10752
  154.1544  135.2901  155.3106 H   0  0  0  0  0  0  0  0  0  0  0  0  # atno 10765 bound_to 10752
  139.8822  134.8737  156.3584 H   0  0  0  0  0  0  0  0  0  0  0  0  # atno 11005 bound_to 11000
  145.4666  141.0435  143.2722 LP  0  0  0  0  0  0  0  0  0  0  0  0  # atno 17320 bound_to 7965
  144.7985  139.6186  143.7082 LP  0  0  0  0  0  0  0  0  0  0  0  0  # atno 17321 bound_to 7965
  140.0471  143.5287  152.2691 LP  0  0  0  0  0  0  0  0  0  0  0  0  # atno 17342 bound_to 10162
  139.6136  144.7614  151.2897 LP  0  0  0  0  0  0  0  0  0  0  0  0  # atno 17343 bound_to 10162
  157.6027  131.0940  150.8932 LP  0  0  0  0  0  0  0  0  0  0  0  0  # atno 17370 bound_to 10713
  156.9086  130.5272  149.5281 LP  0  0  0  0  0  0  0  0  0  0  0  0  # atno 17371 bound_to 10713
  140.9546  133.7428  156.0318 LP  0  0  0  0  0  0  0  0  0  0  0  0  # atno 17394 bound_to 11000
  140.8064  134.3450  157.5425 LP  0  0  0  0  0  0  0  0  0  0  0  0  # atno 17395 bound_to 11000

$$$$
