#       Name:                AV-unprocessed.smi:2783
#       Creating user name   scv26
#       Creation time:       Fri Mar 27 15:16:21 2020


#       File generated by GOLD software.
#

@<TRIPOS>MOLECULE
AV-unprocessed.smi:2783
    36    36     1
SMALL
NO_CHARGES


@<TRIPOS>ATOM
      1 ****        -2.0060   1.6615   1.2246 C.3            1 S1                 0.0000
      2 ****        -2.2859   0.6113   0.3007 O.3            1 S1                 0.0000
      3 ****        -1.8272  -0.7110   0.6197 C.3            1 S1                 0.0000
      4 ****        -2.3210  -1.1369   2.0226 C.3            1 S1                 0.0000
      5 ****        -2.4546  -1.6329  -0.4409 C.3            1 S1                 0.0000
      6 ****        -0.2874  -0.8001   0.5079 C.2            1 S1                 0.0000
      7 ****         0.3205  -1.6578   1.1491 O.2            1 S1                 0.0000
      8 ****         0.3010   0.0682  -0.3374 N.am           1 S1                 0.0000
      9 ****         1.6811   0.2331  -0.6405 C.ar           1 S1                 0.0000
     10 ****         2.7287  -0.1698   0.2229 C.ar           1 S1                 0.0000
     11 ****         4.0602   0.0631  -0.1746 C.ar           1 S1                 0.0000
     12 ****         4.3962   0.6607  -1.3367 N.ar           1 S1                 0.0000
     13 ****         3.3964   1.0579  -2.1509 C.ar           1 S1                 0.0000
     14 ****         2.0307   0.8751  -1.8508 C.ar           1 S1                 0.0000
     15 ****         1.0762   1.3126  -2.7258 O.3            1 S1                 0.0000
     16 ****        -2.3070   2.6112   0.7830 H              1 S1                 0.0000
     17 ****        -0.9473   1.7363   1.4723 H              1 S1                 0.0000
     18 ****        -2.5722   1.5429   2.1484 H              1 S1                 0.0000
     19 ****        -2.1461  -2.1986   2.2013 H              1 S1                 0.0000
     20 ****        -3.3921  -0.9635   2.1293 H              1 S1                 0.0000
     21 ****        -1.8150  -0.5907   2.8196 H              1 S1                 0.0000
     22 ****        -2.1699  -2.6747  -0.2868 H              1 S1                 0.0000
     23 ****        -2.1461  -1.3511  -1.4486 H              1 S1                 0.0000
     24 ****        -3.5433  -1.5822  -0.4085 H              1 S1                 0.0000
     25 ****        -0.3276   0.6494  -0.8733 H              1 S1                 0.0000
     26 ****         2.5417  -0.6348   1.1783 H              1 S1                 0.0000
     27 ****         4.8792  -0.2334   0.4642 H              1 S1                 0.0000
     28 ****         3.6956   1.5390  -3.0704 H              1 S1                 0.0000
     29 ****         1.4403   1.7163  -3.4992 H              1 S1                 0.0000
     30 ****        -1.8716   0.8664  -0.5730 LP             1 S1                 0.0000
     31 ****        -3.2794   0.5639   0.1974 LP             1 S1                 0.0000
     32 ****        -0.1815  -2.2915   1.7377 LP             1 S1                 0.0000
     33 ****         1.3162  -1.7207   1.0812 LP             1 S1                 0.0000
     34 ****         5.3539   0.8043  -1.5861 LP             1 S1                 0.0000
     35 ****         0.4990   1.9823  -2.2587 LP             1 S1                 0.0000
     36 ****         0.5194   0.5309  -3.0067 LP             1 S1                 0.0000
@<TRIPOS>BOND
    1    1    2 1     
    2    1   16 1     
    3    1   17 1     
    4    1   18 1     
    5    2    3 1     
    6    3    4 1     
    7    3    5 1     
    8    3    6 1     
    9    4   19 1     
   10    4   20 1     
   11    4   21 1     
   12    5   22 1     
   13    5   23 1     
   14    5   24 1     
   15    6    7 2     
   16    6    8 am    
   17    8    9 1     
   18    8   25 1     
   19    9   14 ar    
   20    9   10 ar    
   21   10   11 ar    
   22   10   26 1     
   23   11   12 ar    
   24   11   27 1     
   25   12   13 ar    
   26   13   14 ar    
   27   13   28 1     
   28   14   15 1     
   29   15   29 1     
   30    2   30 1     
   31    2   31 1     
   32    7   32 1     
   33    7   33 1     
   34   12   34 1     
   35   15   35 1     
   36   15   36 1     
@<TRIPOS>SUBSTRUCTURE
      1 S1             1
@<TRIPOS>SET
LONE_PAIRS      STATIC     ATOMS    <user>   **** ""
7 30 31 32 33 34 35 36
DONOR_HYDROGENS      STATIC     ATOMS    <user>   **** ""
2 25 29
ATOM$BLUE        STATIC     ATOMS    COLORGROUP SYSTEM
7 30 31 32 33 34 35 36
ATOM$RED        STATIC     ATOMS    COLORGROUP SYSTEM
2 25 29
