AV-unprocessed.smi:824|AV-procd|sdf|3848|dock8
  -GOLD-   22720 1293D 1   1.00000     0.00000
 Structure written by MMmdl.
 52 53  0  0  0  0  0  0  0  0  1 V2000
  153.6190  137.7365  157.0463 C   0  0  0  0  0  0  0  0  0  0  0  0
  152.2862  137.6095  156.3296 C   0  0  0  0  0  0  0  0  0  0  0  0
  151.8568  136.3010  156.0758 N   0  0  0  0  0  0  0  0  0  0  0  0
  150.7340  136.0878  155.4643 C   0  0  0  0  0  0  0  0  0  0  0  0
  150.1937  134.8365  155.1578 N   0  0  0  0  0  0  0  0  0  0  0  0
  150.6343  133.6184  155.8430 C   0  0  0  0  0  0  0  0  0  0  0  0
  150.3370  132.3646  155.0036 C   0  0  0  0  0  0  0  0  0  0  0  0
  148.9540  132.3203  154.6807 O   0  0  0  0  0  0  0  0  0  0  0  0
  148.5686  133.4450  153.9030 C   0  0  0  0  0  0  0  0  0  0  0  0
  148.8064  134.7355  154.7047 C   0  0  0  0  0  0  0  0  0  0  0  0
  149.9370  137.1664  155.0650 N   0  0  0  0  0  0  0  0  0  0  0  0
  150.2588  138.4629  155.2676 C   0  0  0  0  0  0  0  0  0  0  0  0
  149.5035  139.3585  154.8925 O   0  0  0  0  0  0  0  0  0  0  0  0
  151.5406  138.6865  155.9557 C   0  0  0  0  0  0  0  0  0  0  0  0
  151.9757  140.1293  156.1972 C   0  0  0  0  0  0  0  0  0  0  0  0
  151.5330  140.6421  157.5819 C   0  0  0  0  0  0  0  0  0  0  0  0
  151.3015  142.1632  157.6402 C   0  0  0  0  0  0  0  0  0  0  0  0
  150.3513  142.6518  157.0258 O   0  0  0  0  0  0  0  0  0  0  0  0
  152.1533  142.9214  158.3723 N   0  0  0  0  0  0  0  0  0  0  0  0
  151.9947  144.3721  158.5188 C   0  0  0  0  0  0  0  0  0  0  0  0
  153.2746  142.3214  159.1128 C   0  0  0  0  0  0  0  0  0  0  0  0
  152.9239  141.9923  160.5827 C   0  0  0  0  0  0  0  0  0  0  0  0
  152.5010  143.2623  161.3352 C   0  0  0  0  0  0  0  0  0  0  0  0
  154.0724  141.2844  161.3218 C   0  0  0  0  0  0  0  0  0  0  0  0
  149.0627  136.9719  154.5995 H   0  0  0  0  0  0  0  0  0  0  0  0
  153.5256  138.3774  157.9232 H   0  0  0  0  0  0  0  0  0  0  0  0
  154.3689  138.1642  156.3806 H   0  0  0  0  0  0  0  0  0  0  0  0
  153.9828  136.7643  157.3817 H   0  0  0  0  0  0  0  0  0  0  0  0
  151.7009  133.6421  156.0663 H   0  0  0  0  0  0  0  0  0  0  0  0
  150.1166  133.5527  156.8009 H   0  0  0  0  0  0  0  0  0  0  0  0
  150.9377  132.3552  154.0926 H   0  0  0  0  0  0  0  0  0  0  0  0
  150.5980  131.4671  155.5648 H   0  0  0  0  0  0  0  0  0  0  0  0
  149.1248  133.4626  152.9641 H   0  0  0  0  0  0  0  0  0  0  0  0
  147.5136  133.3530  153.6452 H   0  0  0  0  0  0  0  0  0  0  0  0
  148.1489  134.7618  155.5746 H   0  0  0  0  0  0  0  0  0  0  0  0
  148.5441  135.5916  154.0816 H   0  0  0  0  0  0  0  0  0  0  0  0
  153.0583  140.2120  156.1010 H   0  0  0  0  0  0  0  0  0  0  0  0
  151.5697  140.7648  155.4083 H   0  0  0  0  0  0  0  0  0  0  0  0
  150.6089  140.1409  157.8719 H   0  0  0  0  0  0  0  0  0  0  0  0
  152.2901  140.3694  158.3178 H   0  0  0  0  0  0  0  0  0  0  0  0
  151.0982  144.6033  159.0950 H   0  0  0  0  0  0  0  0  0  0  0  0
  151.9183  144.8612  157.5473 H   0  0  0  0  0  0  0  0  0  0  0  0
  152.8401  144.8328  159.0304 H   0  0  0  0  0  0  0  0  0  0  0  0
  153.6257  141.4194  158.6099 H   0  0  0  0  0  0  0  0  0  0  0  0
  154.1276  143.0021  159.0832 H   0  0  0  0  0  0  0  0  0  0  0  0
  152.0669  141.3180  160.5881 H   0  0  0  0  0  0  0  0  0  0  0  0
  153.3157  143.9861  161.3803 H   0  0  0  0  0  0  0  0  0  0  0  0
  152.2031  143.0323  162.3584 H   0  0  0  0  0  0  0  0  0  0  0  0
  151.6533  143.7452  160.8480 H   0  0  0  0  0  0  0  0  0  0  0  0
  154.9761  141.8947  161.3260 H   0  0  0  0  0  0  0  0  0  0  0  0
  154.3168  140.3277  160.8599 H   0  0  0  0  0  0  0  0  0  0  0  0
  153.8046  141.0809  162.3588 H   0  0  0  0  0  0  0  0  0  0  0  0
  1  2  1  0  0  0  0
  1 26  1  0  0  0  0
  1 27  1  0  0  0  0
  1 28  1  0  0  0  0
  2 14  2  0  0  0  0
  2  3  1  0  0  0  0
  3  4  2  0  0  0  0
  4  5  1  0  0  0  0
  4 11  1  0  0  0  0
  5 10  1  0  0  0  0
  5  6  1  0  0  0  0
  6  7  1  0  0  0  0
  6 29  1  0  0  0  0
  6 30  1  0  0  0  0
  7  8  1  0  0  0  0
  7 31  1  0  0  0  0
  7 32  1  0  0  0  0
  8  9  1  0  0  0  0
  9 10  1  0  0  0  0
  9 33  1  0  0  0  0
  9 34  1  0  0  0  0
 10 35  1  0  0  0  0
 10 36  1  0  0  0  0
 11 25  1  0  0  0  0
 11 12  1  0  0  0  0
 12 13  2  0  0  0  0
 12 14  1  0  0  0  0
 14 15  1  0  0  0  0
 15 16  1  0  0  0  0
 15 37  1  0  0  0  0
 15 38  1  0  0  0  0
 16 17  1  0  0  0  0
 16 39  1  0  0  0  0
 16 40  1  0  0  0  0
 17 18  2  0  0  0  0
 17 19  1  0  0  0  0
 19 20  1  0  0  0  0
 19 21  1  0  0  0  0
 20 41  1  0  0  0  0
 20 42  1  0  0  0  0
 20 43  1  0  0  0  0
 21 22  1  0  0  0  0
 21 44  1  0  0  0  0
 21 45  1  0  0  0  0
 22 23  1  0  0  0  0
 22 24  1  0  0  0  0
 22 46  1  0  0  0  0
 23 47  1  0  0  0  0
 23 48  1  0  0  0  0
 23 49  1  0  0  0  0
 24 50  1  0  0  0  0
 24 51  1  0  0  0  0
 24 52  1  0  0  0  0
M  END
> <s_m_source_file>
AV-unprocessed.smi

> <i_m_source_file_index>
824

> <i_lp_mmshare_version>
43012

> <i_f3d_flags>
0

> <s_epik_input>
W0NIMl0xW0NIMl1PW0NIMl1bQ0gyXU4xYyhuYzJbQ0gzXSlbbkhdYyg9TyljMltDSDJdW0NIMl1DKD1PKU4oW0NIM10pW0NIMl1bQ0hdKFtDSDNdKVtDSDNd

> <s_epik_cmdline>
J2VwaWtfcHl0aG9uJywgJy1waCcsICc3LjAnLCAnLXRuJywgJzgnLCAnLW1hJywgJzIwMCcsICctbWV0YWxfYmluZGluZycsICctaW1hZScsICc8aW5maWxlLm1hZT4nLCAnLW9tYWUnLCAnPG91dGZpbGUubWFlPic=

> <r_lp_tautomer_probability>
0.878553

> <r_epik_Ionization_Penalty>
0.00115806

> <r_epik_Ionization_Penalty_Charging>
0.00113132

> <r_epik_Ionization_Penalty_Neutral>
2.67354e-05

> <r_epik_State_Penalty>
0.0423856

> <r_epik_Charging_Adjusted_Penalty>
0.0435169

> <i_epik_Tot_Q>
0

> <i_epik_Tot_abs_Q>
0

> <r_epik_Metal_State_Penalty>
1.05917

> <b_epik_Metal_Only>
0

> <s_lp_Force_Field>
OPLS_2005

> <r_lp_Energy>
33.2944

> <b_lp_Chiralities_Consistent>
1

> <s_lp_Variant>
AV-unprocessed.smi:824-1

> <Gold.Version>
5.8.1

> <Gold.Id.Protein>
6NUR|6NUR_protein|mol2

> <Gold.PLP.Fitness>
43.9859

> <Gold.PLP.PLP>
-44.4297

> <Gold.PLP.part.hbond>
-1.0000

> <Gold.PLP.part.metal>
0.0000

> <Gold.PLP.part.buried>
-5.5837

> <Gold.PLP.part.nonpolar>
-38.5986

> <Gold.PLP.part.repulsive>
1.7060

> <Gold.PLP.ligand.clash>
1.6219

> <Gold.PLP.ligand.torsion>
1.0754

> <Gold.PLP.Chemscore.Hbond>
1.0000

> <Gold.PLP.Chemscore.CHOScore>
0.0000

> <Gold.PLP.Chemscore.Metal>
0.0000

> <Gold.Chemscore.Hbonds>
donor molecule, donor type, donor heavy atom, donor atom, acceptor molecule, acceptor atom, score
      P1  H 10752 10765       L1     3  1.00

> <Gold.PLP.Chemscore.Internal.Correction>
0.3290

> <Gold.Rescore>
     Score         DG    S(hbond)    S(metal)    S(lipo)     H(rot)  DE(clash)    DE(int)     intcor
     14.29     -15.64       0.72        0.00     103.64       1.71       0.17       1.17       ----

> <Gold.Chemscore.Fitness>
14.2938

> <Gold.Chemscore.DG>
-15.6427

> <Gold.Chemscore.ZeroCoef>
-5.4800

> <Gold.Chemscore.Hbond>
0.7223

> <Gold.Chemscore.Metal>
0.0000

> <Gold.Chemscore.Lipo>
103.6418

> <Gold.Chemscore.Internal_Hbond>
0.0000

> <Gold.Chemscore.DEClash>
0.1748

> <Gold.Chemscore.DEInternal>
1.1741

> <Gold.Chemscore.Rot>
1.7093

> <Gold.Chemscore.Internal.Correction>
   9.000000E+99

> <Gold.Chemscore.Hbonds>
donor molecule, donor type, donor heavy atom, donor atom, acceptor molecule, acceptor atom, score
      P1  H 10752 10765       L1     3  0.33

> <Gold.Chemscore.Hbond.Weighted>
-2.4125

> <Gold.Chemscore.Metal.Weighted>
-0.0000

> <Gold.Chemscore.Lipo.Weighted>
-12.1261

> <Gold.Chemscore.Internal_Hbond.Weighted>
0.0000

> <Gold.Chemscore.DEClash.Weighted>
0.1748

> <Gold.Chemscore.DEInternal.Weighted>
1.1741

> <Gold.Chemscore.Rot.Weighted>
4.3759

> <Gold.Chemscore.Internal.Correction.Weighted>
   9.000000E+99

> <Gold.Protein.RotatedTorsions>
[ 6907 6896 6895 6894 ] final    9.99 input  -60.11 | X-H torsion
[ 7974 7965 7964 7962 ] final  171.40 input  175.53 | X-H torsion
[ 8008 7997 7996 7995 ] final   63.98 input   59.86 | X-H torsion
[ 10167 10162 10161 10158 ] final -146.10 input  -65.29 | X-H torsion
[ 10718 10713 10712 10709 ] final  -53.85 input   66.30 | X-H torsion
[ 10763 10752 10751 10750 ] final -151.04 input  -60.55 | X-H torsion
[ 11005 11000 10999 10996 ] final -160.94 input  -57.11 | X-H torsion

> <Gold.Protein.ActiveResidues>
 VAL166  LYS551  ARG553  GLY616  TRP617  ASP618  TYR619  PRO620  LYS621  CYS622 
 ASP623  PHE694  ASN695  SER759  ASP760  ASP761  ALA762  ILE779  LEU786  VAL792 
 PHE793  MET794  SER795  GLU796  ALA797  LYS798  CYS799  TRP800  GLU811  SER814 

> <Gold.Protein.RotatedAtoms>
  151.7310  135.0875  160.0299 H   0  0  0  0  0  0  0  0  0  0  0  0  # atno 6907 bound_to 6896
  152.3541  133.6211  159.5975 H   0  0  0  0  0  0  0  0  0  0  0  0  # atno 6908 bound_to 6896
  150.7559  133.9444  159.3507 H   0  0  0  0  0  0  0  0  0  0  0  0  # atno 6909 bound_to 6896
  144.7296  139.9345  143.6426 H   0  0  0  0  0  0  0  0  0  0  0  0  # atno 7974 bound_to 7965
  155.6387  140.3496  155.4707 H   0  0  0  0  0  0  0  0  0  0  0  0  # atno 8008 bound_to 7997
  155.9944  140.1200  157.0631 H   0  0  0  0  0  0  0  0  0  0  0  0  # atno 8009 bound_to 7997
  154.4229  140.1113  156.5595 H   0  0  0  0  0  0  0  0  0  0  0  0  # atno 8010 bound_to 7997
  139.7744  143.8191  152.2629 H   0  0  0  0  0  0  0  0  0  0  0  0  # atno 10167 bound_to 10162
  156.1500  130.4151  149.9961 H   0  0  0  0  0  0  0  0  0  0  0  0  # atno 10718 bound_to 10713
  154.8082  135.3269  154.7375 H   0  0  0  0  0  0  0  0  0  0  0  0  # atno 10763 bound_to 10752
  153.8030  135.6902  153.4857 H   0  0  0  0  0  0  0  0  0  0  0  0  # atno 10764 bound_to 10752
  153.1842  135.4575  155.0012 H   0  0  0  0  0  0  0  0  0  0  0  0  # atno 10765 bound_to 10752
  140.6259  134.4702  157.5226 H   0  0  0  0  0  0  0  0  0  0  0  0  # atno 11005 bound_to 11000
  146.0832  139.3820  143.0451 LP  0  0  0  0  0  0  0  0  0  0  0  0  # atno 17320 bound_to 7965
  145.7812  140.9855  143.1098 LP  0  0  0  0  0  0  0  0  0  0  0  0  # atno 17321 bound_to 7965
  139.8235  144.7285  150.9542 LP  0  0  0  0  0  0  0  0  0  0  0  0  # atno 17342 bound_to 10162
  140.7815  143.4137  151.0952 LP  0  0  0  0  0  0  0  0  0  0  0  0  # atno 17343 bound_to 10162
  156.7821  130.9225  151.3646 LP  0  0  0  0  0  0  0  0  0  0  0  0  # atno 17370 bound_to 10713
  157.6649  130.8998  149.9910 LP  0  0  0  0  0  0  0  0  0  0  0  0  # atno 17371 bound_to 10713
  139.9135  134.8295  156.1446 LP  0  0  0  0  0  0  0  0  0  0  0  0  # atno 17394 bound_to 11000
  141.0709  133.6797  156.2139 LP  0  0  0  0  0  0  0  0  0  0  0  0  # atno 17395 bound_to 11000

$$$$
