#       Name:                AV-unprocessed.smi:2775
#       Creating user name   scv26
#       Creation time:       Fri Mar 27 15:13:26 2020


#       File generated by GOLD software.
#

@<TRIPOS>MOLECULE
AV-unprocessed.smi:2775
    47    50     1
SMALL
NO_CHARGES


@<TRIPOS>ATOM
      1 ****        -5.2536   2.0175  -0.0973 C.3            1 S1                 0.0000
      2 ****        -4.4923   0.8201  -0.6351 C.ar           1 S1                 0.0000
      3 ****        -5.2487  -0.1576  -1.1800 N.ar           1 S1                 0.0000
      4 ****        -4.6216  -1.2469  -1.6691 C.ar           1 S1                 0.0000
      5 ****        -3.2238  -1.4128  -1.6462 C.ar           1 S1                 0.0000
      6 ****        -2.4269  -0.3841  -1.0885 C.ar           1 S1                 0.0000
      7 ****        -1.0089  -0.4415  -0.9958 N.am           1 S1                 0.0000
      8 ****        -0.1317  -1.2297  -1.6471 C.2            1 S1                 0.0000
      9 ****        -0.4305  -2.0834  -2.4788 O.2            1 S1                 0.0000
     10 ****         1.1510  -0.9994  -1.3157 N.am           1 S1                 0.0000
     11 ****         2.3371  -1.6796  -1.8385 C.3            1 S1                 0.0000
     12 ****         3.6119  -1.3295  -1.0480 C.3            1 S1                 0.0000
     13 ****         4.3410  -2.4063  -0.2906 C.3            1 S1                 0.0000
     14 ****         5.4562  -2.8100  -1.2588 C.3            1 S1                 0.0000
     15 ****         4.9813  -2.4101  -2.5422 O.3            1 S1                 0.0000
     16 ****         4.3253  -1.1556  -2.3841 C.3            1 S1                 0.0000
     17 ****         2.9678  -1.0221  -3.0845 C.3            1 S1                 0.0000
     18 ****         2.5169   0.3467  -3.6298 C.3            1 S1                 0.0000
     19 ****         1.8570  -0.3820  -4.8035 C.3            1 S1                 0.0000
     20 ****         2.7398  -1.5937  -4.4908 C.3            1 S1                 0.0000
     21 ****        -3.0812   0.7538  -0.5605 C.ar           1 S1                 0.0000
     22 ****        -2.1735   2.0418   0.1602 Cl             1 S1                 0.0000
     23 ****        -4.9401   2.9270  -0.6102 H              1 S1                 0.0000
     24 ****        -5.0643   2.1395   0.9694 H              1 S1                 0.0000
     25 ****        -6.3296   1.9056  -0.2375 H              1 S1                 0.0000
     26 ****        -5.2548  -2.0147  -2.0888 H              1 S1                 0.0000
     27 ****        -2.8018  -2.3224  -2.0432 H              1 S1                 0.0000
     28 ****        -0.5971   0.2492  -0.3852 H              1 S1                 0.0000
     29 ****         1.3207  -0.2824  -0.6251 H              1 S1                 0.0000
     30 ****         2.2278  -2.7602  -1.9543 H              1 S1                 0.0000
     31 ****         3.5289  -0.3782  -0.5188 H              1 S1                 0.0000
     32 ****         4.7424  -2.0538   0.6597 H              1 S1                 0.0000
     33 ****         3.6831  -3.2511  -0.0841 H              1 S1                 0.0000
     34 ****         6.3736  -2.2640  -1.0342 H              1 S1                 0.0000
     35 ****         5.6767  -3.8771  -1.2262 H              1 S1                 0.0000
     36 ****         4.9882  -0.2907  -2.4323 H              1 S1                 0.0000
     37 ****         1.8286   0.9126  -3.0023 H              1 S1                 0.0000
     38 ****         3.3563   0.9660  -3.9493 H              1 S1                 0.0000
     39 ****         0.7963  -0.5752  -4.6394 H              1 S1                 0.0000
     40 ****         2.0373   0.0718  -5.7783 H              1 S1                 0.0000
     41 ****         3.6521  -1.6149  -5.0888 H              1 S1                 0.0000
     42 ****         2.2195  -2.5514  -4.5162 H              1 S1                 0.0000
     43 ****        -6.2445  -0.0760  -1.2196 LP             1 S1                 0.0000
     44 ****        -1.3897  -2.2345  -2.7178 LP             1 S1                 0.0000
     45 ****         0.2856  -2.6270  -2.9168 LP             1 S1                 0.0000
     46 ****         4.3381  -3.0896  -2.8953 LP             1 S1                 0.0000
     47 ****         5.7488  -2.3166  -3.1764 LP             1 S1                 0.0000
@<TRIPOS>BOND
    1    1    2 1     
    2    1   23 1     
    3    1   24 1     
    4    1   25 1     
    5    2   21 ar    
    6    2    3 ar    
    7    3    4 ar    
    8    4    5 ar    
    9    4   26 1     
   10    5    6 ar    
   11    5   27 1     
   12    6    7 1     
   13    6   21 ar    
   14    7    8 am    
   15    7   28 1     
   16    8    9 2     
   17    8   10 am    
   18   10   11 1     
   19   10   29 1     
   20   11   17 1     
   21   11   12 1     
   22   11   30 1     
   23   12   16 1     
   24   12   13 1     
   25   12   31 1     
   26   13   14 1     
   27   13   32 1     
   28   13   33 1     
   29   14   15 1     
   30   14   34 1     
   31   14   35 1     
   32   15   16 1     
   33   16   17 1     
   34   16   36 1     
   35   17   20 1     
   36   17   18 1     
   37   18   19 1     
   38   18   37 1     
   39   18   38 1     
   40   19   20 1     
   41   19   39 1     
   42   19   40 1     
   43   20   41 1     
   44   20   42 1     
   45   21   22 1     
   46    3   43 1     
   47    9   44 1     
   48    9   45 1     
   49   15   46 1     
   50   15   47 1     
@<TRIPOS>SUBSTRUCTURE
      1 S1             1
@<TRIPOS>SET
LONE_PAIRS      STATIC     ATOMS    <user>   **** ""
5 43 44 45 46 47
DONOR_HYDROGENS      STATIC     ATOMS    <user>   **** ""
2 28 29
ATOM$BLUE        STATIC     ATOMS    COLORGROUP SYSTEM
5 43 44 45 46 47
ATOM$RED        STATIC     ATOMS    COLORGROUP SYSTEM
2 28 29
