AV-unprocessed.smi:1550|AV-procd|sdf|6224|dock7
  -GOLD-   22720 6403D 1   1.00000     0.00000
 Structure written by MMmdl.
 43 44  0  0  0  0  0  0  0  0  1 V2000
  152.8240  138.1172  157.6059 C   0  0  0  0  0  0  0  0  0  0  0  0
  152.7555  138.9485  158.8957 C   0  0  2  0  0  0  0  0  0  0  0  0
  153.7439  139.9703  158.7987 O   0  0  0  0  0  0  0  0  0  0  0  0
  153.5733  141.0729  159.6826 C   0  0  0  0  0  0  0  0  0  0  0  0
  152.9396  142.2363  158.9100 C   0  0  2  0  0  0  0  0  0  0  0  0
  152.9801  143.5570  159.7044 C   0  0  0  0  0  0  0  0  0  0  0  0
  152.2568  144.6694  158.9376 C   0  0  0  0  0  0  0  0  0  0  0  0
  150.8471  144.2030  158.5586 C   0  0  0  0  0  0  0  0  0  0  0  0
  150.9097  142.8542  157.8245 C   0  0  0  0  0  0  0  0  0  0  0  0
  151.5842  141.8923  158.6302 O   0  0  0  0  0  0  0  0  0  0  0  0
  153.0085  138.0798  160.1392 C   0  0  0  0  0  0  0  0  0  0  0  0
  152.2034  137.1963  160.4313 O   0  0  0  0  0  0  0  0  0  0  0  0
  154.1467  138.3516  160.8084 N   0  0  0  0  0  0  0  0  0  0  0  0
  154.6886  137.7472  161.9562 C   0  0  0  0  0  0  0  0  0  0  0  0
  154.7517  136.4088  162.1851 C   0  0  0  0  0  0  0  0  0  0  0  0
  155.3298  135.8599  163.4007 C   0  0  0  0  0  0  0  0  0  0  0  0
  155.3428  134.3629  163.6706 C   0  0  0  0  0  0  0  0  0  0  0  0
  154.6417  134.0610  164.7643 F   0  0  0  0  0  0  0  0  0  0  0  0
  154.8273  133.6871  162.6435 F   0  0  0  0  0  0  0  0  0  0  0  0
  156.5954  133.9474  163.8530 F   0  0  0  0  0  0  0  0  0  0  0  0
  155.7782  136.7482  164.3068 C   0  0  0  0  0  0  0  0  0  0  0  0
  155.7205  138.1244  164.0784 N   0  0  0  0  0  0  0  0  0  0  0  0
  155.2052  138.6889  162.9636 C   0  0  0  0  0  0  0  0  0  0  0  0
  155.1882  139.9131  162.8396 O   0  0  0  0  0  0  0  0  0  0  0  0
  156.0878  138.7256  164.8016 H   0  0  0  0  0  0  0  0  0  0  0  0
  152.0942  137.3069  157.6168 H   0  0  0  0  0  0  0  0  0  0  0  0
  153.8119  137.6778  157.4620 H   0  0  0  0  0  0  0  0  0  0  0  0
  152.6120  138.7383  156.7353 H   0  0  0  0  0  0  0  0  0  0  0  0
  151.7662  139.4070  158.9546 H   0  0  0  0  0  0  0  0  0  0  0  0
  152.9173  140.7756  160.5019 H   0  0  0  0  0  0  0  0  0  0  0  0
  154.5187  141.3918  160.1231 H   0  0  0  0  0  0  0  0  0  0  0  0
  153.4701  142.3561  157.9636 H   0  0  0  0  0  0  0  0  0  0  0  0
  152.5055  143.4169  160.6766 H   0  0  0  0  0  0  0  0  0  0  0  0
  154.0116  143.8511  159.9008 H   0  0  0  0  0  0  0  0  0  0  0  0
  152.2089  145.5775  159.5391 H   0  0  0  0  0  0  0  0  0  0  0  0
  152.8173  144.9178  158.0354 H   0  0  0  0  0  0  0  0  0  0  0  0
  150.2409  144.0989  159.4595 H   0  0  0  0  0  0  0  0  0  0  0  0
  150.3563  144.9508  157.9354 H   0  0  0  0  0  0  0  0  0  0  0  0
  149.9019  142.4946  157.6167 H   0  0  0  0  0  0  0  0  0  0  0  0
  151.4144  142.9573  156.8627 H   0  0  0  0  0  0  0  0  0  0  0  0
  154.7221  139.0830  160.4158 H   0  0  0  0  0  0  0  0  0  0  0  0
  154.3689  135.6995  161.4710 H   0  0  0  0  0  0  0  0  0  0  0  0
  156.2051  136.4806  165.2621 H   0  0  0  0  0  0  0  0  0  0  0  0
  1  2  1  0  0  0  0
  1 26  1  0  0  0  0
  1 27  1  0  0  0  0
  1 28  1  0  0  0  0
  2  3  1  0  0  0  0
  2 11  1  0  0  0  0
  2 29  1  0  0  0  0
  3  4  1  0  0  0  0
  4  5  1  0  0  0  0
  4 30  1  0  0  0  0
  4 31  1  0  0  0  0
  5 10  1  0  0  0  0
  5  6  1  0  0  0  0
  5 32  1  0  0  0  0
  6  7  1  0  0  0  0
  6 33  1  0  0  0  0
  6 34  1  0  0  0  0
  7  8  1  0  0  0  0
  7 35  1  0  0  0  0
  7 36  1  0  0  0  0
  8  9  1  0  0  0  0
  8 37  1  0  0  0  0
  8 38  1  0  0  0  0
  9 10  1  0  0  0  0
  9 39  1  0  0  0  0
  9 40  1  0  0  0  0
 11 12  2  0  0  0  0
 11 13  1  0  0  0  0
 13 14  1  0  0  0  0
 13 41  1  0  0  0  0
 14 23  1  0  0  0  0
 14 15  2  0  0  0  0
 15 16  1  0  0  0  0
 15 42  1  0  0  0  0
 16 17  1  0  0  0  0
 16 21  2  0  0  0  0
 17 18  1  0  0  0  0
 17 19  1  0  0  0  0
 17 20  1  0  0  0  0
 21 22  1  0  0  0  0
 21 43  1  0  0  0  0
 22 25  1  0  0  0  0
 22 23  1  0  0  0  0
 23 24  2  0  0  0  0
M  END
> <s_m_source_file>
AV-unprocessed.smi

> <i_m_source_file_index>
1550

> <i_lp_mmshare_version>
43012

> <i_f3d_flags>
0

> <s_epik_input>
TzFbQ0gyXVtDSDJdW0NIMl1bQ0gyXVtDQEhdMVtDSDJdT1tDQEBIXShbQ0gzXSlDKD1PKVtOSF1jMltjSF1jKEMoRikoRilGKVtjSF1bbkhdYzI9Tw==

> <s_epik_cmdline>
J2VwaWtfcHl0aG9uJywgJy1waCcsICc3LjAnLCAnLXRuJywgJzgnLCAnLW1hJywgJzIwMCcsICctbWV0YWxfYmluZGluZycsICctaW1hZScsICc8aW5maWxlLm1hZT4nLCAnLW9tYWUnLCAnPG91dGZpbGUubWFlPic=

> <r_lp_tautomer_probability>
0.999

> <r_epik_Ionization_Penalty>
0.00891333

> <r_epik_Ionization_Penalty_Charging>
0.00891323

> <r_epik_Ionization_Penalty_Neutral>
1.00146e-07

> <r_epik_State_Penalty>
0.00674197

> <r_epik_Charging_Adjusted_Penalty>
0.0156552

> <i_epik_Tot_Q>
0

> <i_epik_Tot_abs_Q>
0

> <r_epik_Metal_State_Penalty>
0.321024

> <b_epik_Metal_Only>
0

> <s_lp_Force_Field>
OPLS_2005

> <r_lp_Energy>
25.3727

> <b_lp_Chiralities_Consistent>
1

> <s_lp_Variant>
AV-unprocessed.smi:1550-1

> <Gold.Version>
5.8.1

> <Gold.Id.Protein>
6NUR|6NUR_protein|mol2

> <Gold.PLP.Fitness>
43.4420

> <Gold.PLP.PLP>
-39.2468

> <Gold.PLP.part.hbond>
-2.0000

> <Gold.PLP.part.metal>
0.0000

> <Gold.PLP.part.buried>
-4.6848

> <Gold.PLP.part.nonpolar>
-33.1360

> <Gold.PLP.part.repulsive>
0.0429

> <Gold.PLP.ligand.clash>
0.0000

> <Gold.PLP.ligand.torsion>
0.9400

> <Gold.PLP.Chemscore.Hbond>
1.9750

> <Gold.PLP.Chemscore.CHOScore>
0.0000

> <Gold.PLP.Chemscore.Metal>
0.0000

> <Gold.Chemscore.Hbonds>
donor molecule, donor type, donor heavy atom, donor atom, acceptor molecule, acceptor atom, score
      P1  H  6896  6908       L1    12  0.55
      P1  H  7997  8009       L1     3  1.00

> <Gold.PLP.Chemscore.Internal.Correction>
0.1502

> <Gold.Rescore>
     Score         DG    S(hbond)    S(metal)    S(lipo)     H(rot)  DE(clash)    DE(int)     intcor
     18.35     -19.72       1.94        0.00     106.95       1.86       0.03       1.33       ----

> <Gold.Chemscore.Fitness>
18.3484

> <Gold.Chemscore.DG>
-19.7157

> <Gold.Chemscore.ZeroCoef>
-5.4800

> <Gold.Chemscore.Hbond>
1.9389

> <Gold.Chemscore.Metal>
0.0000

> <Gold.Chemscore.Lipo>
106.9544

> <Gold.Chemscore.Internal_Hbond>
0.0000

> <Gold.Chemscore.DEClash>
0.0338

> <Gold.Chemscore.DEInternal>
1.3334

> <Gold.Chemscore.Rot>
1.8571

> <Gold.Chemscore.Internal.Correction>
   9.000000E+99

> <Gold.Chemscore.Hbonds>
donor molecule, donor type, donor heavy atom, donor atom, acceptor molecule, acceptor atom, score
      P1  H  6896  6908       L1    12  0.52
      P1  H  7997  8009       L1     3  0.86

> <Gold.Chemscore.Hbond.Weighted>
-6.4761

> <Gold.Chemscore.Metal.Weighted>
-0.0000

> <Gold.Chemscore.Lipo.Weighted>
-12.5137

> <Gold.Chemscore.Internal_Hbond.Weighted>
0.0000

> <Gold.Chemscore.DEClash.Weighted>
0.0338

> <Gold.Chemscore.DEInternal.Weighted>
1.3334

> <Gold.Chemscore.Rot.Weighted>
4.7541

> <Gold.Chemscore.Internal.Correction.Weighted>
   9.000000E+99

> <Gold.Protein.RotatedTorsions>
[ 6907 6896 6895 6894 ] final -128.61 input  -60.11 | X-H torsion
[ 7974 7965 7964 7962 ] final   -7.83 input  175.53 | X-H torsion
[ 8008 7997 7996 7995 ] final  148.65 input   59.86 | X-H torsion
[ 10167 10162 10161 10158 ] final -178.22 input  -65.29 | X-H torsion
[ 10718 10713 10712 10709 ] final -133.84 input   66.30 | X-H torsion
[ 10763 10752 10751 10750 ] final   89.97 input  -60.55 | X-H torsion
[ 11005 11000 10999 10996 ] final  -19.44 input  -57.11 | X-H torsion

> <Gold.Protein.ActiveResidues>
 VAL166  LYS551  ARG553  GLY616  TRP617  ASP618  TYR619  PRO620  LYS621  CYS622 
 ASP623  PHE694  ASN695  SER759  ASP760  ASP761  ALA762  ILE779  LEU786  VAL792 
 PHE793  MET794  SER795  GLU796  ALA797  LYS798  CYS799  TRP800  GLU811  SER814 

> <Gold.Protein.RotatedAtoms>
  150.9197  133.6895  159.2834 H   0  0  0  0  0  0  0  0  0  0  0  0  # atno 6907 bound_to 6896
  151.4354  135.1013  159.9664 H   0  0  0  0  0  0  0  0  0  0  0  0  # atno 6908 bound_to 6896
  152.4973  133.8618  159.7309 H   0  0  0  0  0  0  0  0  0  0  0  0  # atno 6909 bound_to 6896
  146.2296  140.2378  142.8342 H   0  0  0  0  0  0  0  0  0  0  0  0  # atno 7974 bound_to 7965
  156.2783  140.2123  156.5733 H   0  0  0  0  0  0  0  0  0  0  0  0  # atno 8008 bound_to 7997
  154.7118  140.0511  157.0580 H   0  0  0  0  0  0  0  0  0  0  0  0  # atno 8009 bound_to 7997
  155.0595  140.3165  155.4668 H   0  0  0  0  0  0  0  0  0  0  0  0  # atno 8010 bound_to 7997
  139.5443  144.2279  152.0956 H   0  0  0  0  0  0  0  0  0  0  0  0  # atno 10167 bound_to 10162
  156.2492  130.7143  151.1035 H   0  0  0  0  0  0  0  0  0  0  0  0  # atno 10718 bound_to 10713
  153.1926  135.4451  155.0168 H   0  0  0  0  0  0  0  0  0  0  0  0  # atno 10763 bound_to 10752
  154.8099  135.3290  154.7334 H   0  0  0  0  0  0  0  0  0  0  0  0  # atno 10764 bound_to 10752
  153.7787  135.6979  153.4948 H   0  0  0  0  0  0  0  0  0  0  0  0  # atno 10765 bound_to 10752
  140.8367  133.7956  155.9816 H   0  0  0  0  0  0  0  0  0  0  0  0  # atno 11005 bound_to 11000
  144.9508  140.8176  143.5573 LP  0  0  0  0  0  0  0  0  0  0  0  0  # atno 17320 bound_to 7965
  145.2338  139.2103  143.5029 LP  0  0  0  0  0  0  0  0  0  0  0  0  # atno 17321 bound_to 7965
  140.1763  144.4888  150.6552 LP  0  0  0  0  0  0  0  0  0  0  0  0  # atno 17342 bound_to 10162
  140.6685  143.2276  151.5684 LP  0  0  0  0  0  0  0  0  0  0  0  0  # atno 17343 bound_to 10162
  157.7207  131.0683  150.6145 LP  0  0  0  0  0  0  0  0  0  0  0  0  # atno 17370 bound_to 10713
  156.6224  130.4409  149.5817 LP  0  0  0  0  0  0  0  0  0  0  0  0  # atno 17371 bound_to 10713
  140.8940  134.2461  157.5079 LP  0  0  0  0  0  0  0  0  0  0  0  0  # atno 17394 bound_to 11000
  139.8704  134.9675  156.4598 LP  0  0  0  0  0  0  0  0  0  0  0  0  # atno 17395 bound_to 11000

$$$$
