AV-unprocessed.smi:2822|AV-procd|sdf|10875|dock5
  -GOLD-   2272015313D 1   1.00000     0.00000
 Structure written by MMmdl.
 40 42  0  0  0  0  0  0  0  0  2 V2000
  146.6998  142.3313  154.2962 Cl  0  0  0  0  0  0  0  0  0  0  0  0
  147.5384  140.8189  154.2711 C   0  0  0  0  0  0  0  0  0  0  0  0
  146.9778  139.7198  153.5890 C   0  0  0  0  0  0  0  0  0  0  0  0
  147.5673  138.5078  153.5205 N   0  0  0  0  0  0  0  0  0  0  0  0
  148.7548  138.3510  154.1410 C   0  0  0  0  0  0  0  0  0  0  0  0
  149.4025  139.3825  154.8500 C   0  0  0  0  0  0  0  0  0  0  0  0
  148.7832  140.6526  154.9210 C   0  0  0  0  0  0  0  0  0  0  0  0
  149.3540  141.7354  155.6071 N   0  0  0  0  0  0  0  0  0  0  0  0
  150.6847  141.6392  156.1873 C   0  0  0  0  0  0  0  0  0  0  0  0
  150.6864  142.0668  157.6616 C   0  0  1  0  0  0  0  0  0  0  0  0
  151.9870  141.6541  158.3749 C   0  0  0  0  0  0  0  0  0  0  0  0
  151.9897  142.1384  159.7749 N   0  3  1  0  0  0  0  0  0  0  0  0
  153.2097  141.7275  160.5150 C   0  0  0  0  0  0  0  0  0  0  0  0
  153.1369  142.1636  161.9873 C   0  0  0  0  0  0  0  0  0  0  0  0
  152.9070  143.6764  162.0984 C   0  0  0  0  0  0  0  0  0  0  0  0
  151.6581  144.0781  161.3023 C   0  0  0  0  0  0  0  0  0  0  0  0
  151.7525  143.6064  159.8376 C   0  0  2  0  0  0  0  0  0  0  0  0
  150.4786  143.9680  159.0493 C   0  0  0  0  0  0  0  0  0  0  0  0
  150.5810  143.4856  157.7158 O   0  0  0  0  0  0  0  0  0  0  0  0
  146.0283  139.8166  153.0832 H   0  0  0  0  0  0  0  0  0  0  0  0
  149.2040  137.3713  154.0713 H   0  0  0  0  0  0  0  0  0  0  0  0
  150.3520  139.1810  155.3223 H   0  0  0  0  0  0  0  0  0  0  0  0
  148.9340  142.6492  155.5101 H   0  0  0  0  0  0  0  0  0  0  0  0
  151.0199  140.6043  156.1109 H   0  0  0  0  0  0  0  0  0  0  0  0
  151.3832  142.2514  155.6154 H   0  0  0  0  0  0  0  0  0  0  0  0
  149.8332  141.6110  158.1685 H   0  0  0  0  0  0  0  0  0  0  0  0
  152.0865  140.5678  158.3663 H   0  0  0  0  0  0  0  0  0  0  0  0
  152.8517  142.0592  157.8462 H   0  0  0  0  0  0  0  0  0  0  0  0
  153.3224  140.6439  160.4611 H   0  0  0  0  0  0  0  0  0  0  0  0
  154.0900  142.1625  160.0392 H   0  0  0  0  0  0  0  0  0  0  0  0
  152.3277  141.6313  162.4889 H   0  0  0  0  0  0  0  0  0  0  0  0
  154.0566  141.8878  162.5043 H   0  0  0  0  0  0  0  0  0  0  0  0
  152.7970  143.9660  163.1440 H   0  0  0  0  0  0  0  0  0  0  0  0
  153.7772  144.2114  161.7157 H   0  0  0  0  0  0  0  0  0  0  0  0
  150.7732  143.6476  161.7737 H   0  0  0  0  0  0  0  0  0  0  0  0
  151.5315  145.1608  161.3397 H   0  0  0  0  0  0  0  0  0  0  0  0
  152.6003  144.1054  159.3645 H   0  0  0  0  0  0  0  0  0  0  0  0
  149.5878  143.5565  159.5273 H   0  0  0  0  0  0  0  0  0  0  0  0
  150.3500  145.0503  159.0184 H   0  0  0  0  0  0  0  0  0  0  0  0
  151.2070  141.6978  160.2371 H   0  0  0  0  0  0  0  0  0  0  0  0
  1  2  1  0  0  0  0
  2  7  1  0  0  0  0
  2  3  2  0  0  0  0
  3  4  1  0  0  0  0
  3 20  1  0  0  0  0
  4  5  2  0  0  0  0
  5  6  1  0  0  0  0
  5 21  1  0  0  0  0
  6  7  2  0  0  0  0
  6 22  1  0  0  0  0
  7  8  1  0  0  0  0
  8  9  1  0  0  0  0
  8 23  1  0  0  0  0
  9 10  1  0  0  0  0
  9 24  1  0  0  0  0
  9 25  1  0  0  0  0
 10 19  1  0  0  0  0
 10 11  1  0  0  0  0
 10 26  1  0  0  0  0
 11 12  1  0  0  0  0
 11 27  1  0  0  0  0
 11 28  1  0  0  0  0
 12 17  1  0  0  0  0
 12 13  1  0  0  0  0
 12 40  1  0  0  0  0
 13 14  1  0  0  0  0
 13 29  1  0  0  0  0
 13 30  1  0  0  0  0
 14 15  1  0  0  0  0
 14 31  1  0  0  0  0
 14 32  1  0  0  0  0
 15 16  1  0  0  0  0
 15 33  1  0  0  0  0
 15 34  1  0  0  0  0
 16 17  1  0  0  0  0
 16 35  1  0  0  0  0
 16 36  1  0  0  0  0
 17 18  1  0  0  0  0
 17 37  1  0  0  0  0
 18 19  1  0  0  0  0
 18 38  1  0  0  0  0
 18 39  1  0  0  0  0
M  CHG  1  12   1
M  END
> <s_m_source_file>
AV-unprocessed.smi

> <i_m_source_file_index>
2822

> <i_lp_mmshare_version>
43012

> <i_f3d_flags>
0

> <s_epik_input>
Q2xjMVtjSF1uW2NIXVtjSF1jMVtOSF1bQ0gyXVtDQEhdKFtDSDJdMilPW0NIMl1bQ0BASF0oTjIzKVtDSDJdW0NIMl1bQ0gyXVtDSDJdMw==

> <s_epik_cmdline>
J2VwaWtfcHl0aG9uJywgJy1waCcsICc3LjAnLCAnLXRuJywgJzgnLCAnLW1hJywgJzIwMCcsICctbWV0YWxfYmluZGluZycsICctaW1hZScsICc8aW5maWxlLm1hZT4nLCAnLW9tYWUnLCAnPG91dGZpbGUubWFlPic=

> <r_lp_tautomer_probability>
0.999999

> <r_epik_Ionization_Penalty>
0.88937

> <r_epik_Ionization_Penalty_Charging>
0.0803403

> <r_epik_Ionization_Penalty_Neutral>
0.80903

> <r_epik_State_Penalty>
0.931884

> <r_epik_Charging_Adjusted_Penalty>
1.01222

> <i_epik_Tot_Q>
1

> <i_epik_Tot_abs_Q>
1

> <r_epik_Metal_State_Penalty>
0.0782275

> <b_epik_Metal_Only>
0

> <s_lp_Force_Field>
OPLS_2005

> <r_lp_Energy>
28.742

> <b_lp_Chiralities_Consistent>
1

> <s_lp_Variant>
AV-unprocessed.smi:2822-16

> <Gold.Version>
5.8.1

> <Gold.Id.Protein>
6NUR|6NUR_protein|mol2

> <Gold.PLP.Fitness>
49.7038

> <Gold.PLP.PLP>
-40.9934

> <Gold.PLP.part.hbond>
-1.0000

> <Gold.PLP.part.metal>
0.0000

> <Gold.PLP.part.buried>
-4.6469

> <Gold.PLP.part.nonpolar>
-37.5490

> <Gold.PLP.part.repulsive>
3.2352

> <Gold.PLP.ligand.clash>
0.0000

> <Gold.PLP.ligand.torsion>
0.1407

> <Gold.PLP.Chemscore.Hbond>
1.0000

> <Gold.PLP.Chemscore.CHOScore>
1.9972

> <Gold.PLP.Chemscore.Metal>
0.0000

> <Gold.Chemscore.Hbonds>
donor molecule, donor type, donor heavy atom, donor atom, acceptor molecule, acceptor atom, score
      L1  H     8    23       P1  8028  0.89
      L1  C     3    20       P1 10175  1.00
      L1  C     5    21       P1  7948  0.72

> <Gold.PLP.Chemscore.Internal.Correction>
0.0003

> <Gold.Rescore>
     Score         DG    S(hbond)    S(metal)    S(lipo)     H(rot)  DE(clash)    DE(int)     intcor
     19.95     -20.48       0.99        0.00     125.42       1.17       0.34       0.19       ----

> <Gold.Chemscore.Fitness>
19.9470

> <Gold.Chemscore.DG>
-20.4793

> <Gold.Chemscore.ZeroCoef>
-5.4800

> <Gold.Chemscore.Hbond>
0.9934

> <Gold.Chemscore.Metal>
0.0000

> <Gold.Chemscore.Lipo>
125.4234

> <Gold.Chemscore.Internal_Hbond>
0.0000

> <Gold.Chemscore.DEClash>
0.3436

> <Gold.Chemscore.DEInternal>
0.1886

> <Gold.Chemscore.Rot>
1.1693

> <Gold.Chemscore.Internal.Correction>
   9.000000E+99

> <Gold.Chemscore.Hbonds>
donor molecule, donor type, donor heavy atom, donor atom, acceptor molecule, acceptor atom, score
      L1  H     8    23       P1  8028  0.86

> <Gold.Chemscore.Hbond.Weighted>
-3.3181

> <Gold.Chemscore.Metal.Weighted>
-0.0000

> <Gold.Chemscore.Lipo.Weighted>
-14.6745

> <Gold.Chemscore.Internal_Hbond.Weighted>
0.0000

> <Gold.Chemscore.DEClash.Weighted>
0.3436

> <Gold.Chemscore.DEInternal.Weighted>
0.1886

> <Gold.Chemscore.Rot.Weighted>
2.9934

> <Gold.Chemscore.Internal.Correction.Weighted>
   9.000000E+99

> <Gold.Protein.RotatedTorsions>
[ 6907 6896 6895 6894 ] final -103.75 input  -60.11 | X-H torsion
[ 7974 7965 7964 7962 ] final   27.01 input  175.53 | X-H torsion
[ 8008 7997 7996 7995 ] final   84.79 input   59.86 | X-H torsion
[ 10167 10162 10161 10158 ] final   72.37 input  -65.29 | X-H torsion
[ 10718 10713 10712 10709 ] final   89.68 input   66.30 | X-H torsion
[ 10763 10752 10751 10750 ] final   31.81 input  -60.55 | X-H torsion
[ 11005 11000 10999 10996 ] final  -51.88 input  -57.11 | X-H torsion

> <Gold.Protein.ActiveResidues>
 VAL166  LYS551  ARG553  GLY616  TRP617  ASP618  TYR619  PRO620  LYS621  CYS622 
 ASP623  PHE694  ASN695  SER759  ASP760  ASP761  ALA762  ILE779  LEU786  VAL792 
 PHE793  MET794  SER795  GLU796  ALA797  LYS798  CYS799  TRP800  GLU811  SER814 

> <Gold.Protein.RotatedAtoms>
  150.7255  134.0382  159.3756 H   0  0  0  0  0  0  0  0  0  0  0  0  # atno 6907 bound_to 6896
  151.8354  135.0606  160.0451 H   0  0  0  0  0  0  0  0  0  0  0  0  # atno 6908 bound_to 6896
  152.2902  133.5518  159.5589 H   0  0  0  0  0  0  0  0  0  0  0  0  # atno 6909 bound_to 6896
  146.1807  139.7250  142.8902 H   0  0  0  0  0  0  0  0  0  0  0  0  # atno 7974 bound_to 7965
  155.9417  140.3407  155.6333 H   0  0  0  0  0  0  0  0  0  0  0  0  # atno 8008 bound_to 7997
  155.7031  140.0762  157.2420 H   0  0  0  0  0  0  0  0  0  0  0  0  # atno 8009 bound_to 7997
  154.4104  140.1636  156.2201 H   0  0  0  0  0  0  0  0  0  0  0  0  # atno 8010 bound_to 7997
  140.0360  144.5428  150.7470 H   0  0  0  0  0  0  0  0  0  0  0  0  # atno 10167 bound_to 10162
  157.6956  131.0342  150.3462 H   0  0  0  0  0  0  0  0  0  0  0  0  # atno 10718 bound_to 10713
  153.0295  135.6429  154.1257 H   0  0  0  0  0  0  0  0  0  0  0  0  # atno 10763 bound_to 10752
  154.0981  135.2861  155.3259 H   0  0  0  0  0  0  0  0  0  0  0  0  # atno 10764 bound_to 10752
  154.6417  135.5457  153.7861 H   0  0  0  0  0  0  0  0  0  0  0  0  # atno 10765 bound_to 10752
  141.0895  133.6635  156.3943 H   0  0  0  0  0  0  0  0  0  0  0  0  # atno 11005 bound_to 11000
  145.4084  141.0393  143.3031 LP  0  0  0  0  0  0  0  0  0  0  0  0  # atno 17320 bound_to 7965
  144.8310  139.5628  143.6943 LP  0  0  0  0  0  0  0  0  0  0  0  0  # atno 17321 bound_to 7965
  140.7281  143.2658  151.4049 LP  0  0  0  0  0  0  0  0  0  0  0  0  # atno 17342 bound_to 10162
  139.6045  144.1226  152.2234 LP  0  0  0  0  0  0  0  0  0  0  0  0  # atno 17343 bound_to 10162
  156.3917  130.3899  149.7025 LP  0  0  0  0  0  0  0  0  0  0  0  0  # atno 17370 bound_to 10713
  156.4373  130.7844  151.2865 LP  0  0  0  0  0  0  0  0  0  0  0  0  # atno 17371 bound_to 10713
  140.5285  134.6235  157.5342 LP  0  0  0  0  0  0  0  0  0  0  0  0  # atno 17394 bound_to 11000
  139.9718  134.7280  156.0026 LP  0  0  0  0  0  0  0  0  0  0  0  0  # atno 17395 bound_to 11000

$$$$
