AV-unprocessed.smi:2881|AV-procd|sdf|11059|dock4
  -GOLD-   2272015533D 1   1.00000     0.00000
 Structure written by MMmdl.
 40 42  0  0  0  0  0  0  0  0  1 V2000
  146.3681  138.5829  152.2951 C   0  0  0  0  0  0  0  0  0  0  0  0
  147.4406  139.3273  153.0154 C   0  0  0  0  0  0  0  0  0  0  0  0
  147.5183  140.6278  153.4267 C   0  0  0  0  0  0  0  0  0  0  0  0
  148.7977  140.7263  154.0501 C   0  0  0  0  0  0  0  0  0  0  0  0
  149.4275  141.9378  154.6826 C   0  0  0  0  0  0  0  0  0  0  0  0
  149.7262  141.6585  156.1555 C   0  0  0  0  0  0  0  0  0  0  0  0
  149.4993  140.5459  156.6308 O   0  0  0  0  0  0  0  0  0  0  0  0
  150.2335  142.6783  156.8655 N   0  0  0  0  0  0  0  0  0  0  0  0
  150.5268  142.6528  158.2987 C   0  0  2  0  0  0  0  0  0  0  0  0
  151.1606  143.9925  158.7316 C   0  0  1  0  0  0  0  0  0  0  0  0
  151.0985  144.1078  160.2656 C   0  0  0  0  0  0  0  0  0  0  0  0
  152.1491  143.0770  160.7207 C   0  0  0  0  0  0  0  0  0  0  0  0
  152.6751  142.5106  159.3866 C   0  0  2  0  0  0  0  0  0  0  0  0
  152.6470  143.7488  158.4996 C   0  0  0  0  0  0  0  0  0  0  0  0
  151.5916  141.6059  158.7490 C   0  0  2  0  0  0  0  0  0  0  0  0
  152.1454  140.6730  157.6481 C   0  0  0  0  0  0  0  0  0  0  0  0
  153.1671  139.8481  158.1684 O   0  0  0  0  0  0  0  0  0  0  0  0
  149.4569  139.5754  154.0327 N   0  0  0  0  0  0  0  0  0  0  0  0
  148.6209  138.7325  153.3983 N   0  0  0  0  0  0  0  0  0  0  0  0
  148.8659  137.7662  153.2350 H   0  0  0  0  0  0  0  0  0  0  0  0
  145.4792  139.2022  152.1727 H   0  0  0  0  0  0  0  0  0  0  0  0
  146.0803  137.6865  152.8448 H   0  0  0  0  0  0  0  0  0  0  0  0
  146.7062  138.2799  151.3038 H   0  0  0  0  0  0  0  0  0  0  0  0
  146.7743  141.3999  153.2973 H   0  0  0  0  0  0  0  0  0  0  0  0
  150.3557  142.1934  154.1703 H   0  0  0  0  0  0  0  0  0  0  0  0
  148.7772  142.8098  154.5958 H   0  0  0  0  0  0  0  0  0  0  0  0
  150.3867  143.5546  156.3874 H   0  0  0  0  0  0  0  0  0  0  0  0
  149.5918  142.5001  158.8417 H   0  0  0  0  0  0  0  0  0  0  0  0
  150.7509  144.8643  158.2196 H   0  0  0  0  0  0  0  0  0  0  0  0
  151.3803  145.1098  160.5911 H   0  0  0  0  0  0  0  0  0  0  0  0
  150.1050  143.8947  160.6613 H   0  0  0  0  0  0  0  0  0  0  0  0
  152.9494  143.5674  161.2762 H   0  0  0  0  0  0  0  0  0  0  0  0
  151.7247  142.3043  161.3626 H   0  0  0  0  0  0  0  0  0  0  0  0
  153.6536  142.0388  159.4810 H   0  0  0  0  0  0  0  0  0  0  0  0
  152.8977  143.5466  157.4573 H   0  0  0  0  0  0  0  0  0  0  0  0
  153.2805  144.5585  158.8658 H   0  0  0  0  0  0  0  0  0  0  0  0
  151.1509  140.9692  159.5180 H   0  0  0  0  0  0  0  0  0  0  0  0
  151.3594  140.0206  157.2684 H   0  0  0  0  0  0  0  0  0  0  0  0
  152.5382  141.2382  156.8029 H   0  0  0  0  0  0  0  0  0  0  0  0
  152.8397  139.4168  158.9431 H   0  0  0  0  0  0  0  0  0  0  0  0
  1  2  1  0  0  0  0
  1 21  1  0  0  0  0
  1 22  1  0  0  0  0
  1 23  1  0  0  0  0
  2 19  1  0  0  0  0
  2  3  2  0  0  0  0
  3  4  1  0  0  0  0
  3 24  1  0  0  0  0
  4  5  1  0  0  0  0
  4 18  2  0  0  0  0
  5  6  1  0  0  0  0
  5 25  1  0  0  0  0
  5 26  1  0  0  0  0
  6  7  2  0  0  0  0
  6  8  1  0  0  0  0
  8  9  1  0  0  0  0
  8 27  1  0  0  0  0
  9 15  1  0  0  0  0
  9 10  1  0  0  0  0
  9 28  1  0  0  0  0
 10 14  1  0  0  0  0
 10 11  1  0  0  0  0
 10 29  1  0  0  0  0
 11 12  1  0  0  0  0
 11 30  1  0  0  0  0
 11 31  1  0  0  0  0
 12 13  1  0  0  0  0
 12 32  1  0  0  0  0
 12 33  1  0  0  0  0
 13 14  1  0  0  0  0
 13 15  1  0  0  0  0
 13 34  1  0  0  0  0
 14 35  1  0  0  0  0
 14 36  1  0  0  0  0
 15 16  1  0  0  0  0
 15 37  1  0  0  0  0
 16 17  1  0  0  0  0
 16 38  1  0  0  0  0
 16 39  1  0  0  0  0
 17 40  1  0  0  0  0
 18 19  1  0  0  0  0
 19 20  1  0  0  0  0
M  END
> <s_m_source_file>
AV-unprocessed.smi

> <i_m_source_file_index>
2881

> <i_lp_mmshare_version>
43012

> <i_f3d_flags>
0

> <s_epik_input>
W0NIM11jMVtjSF1jKG5bbkhdMSlbQ0gyXUMoPU8pW05IXVtDQEhdKFtDQEBIXTIzKVtDQEhdKFtDSDJdW09IXSlbQ0BASF0oW0NIMl0zKVtDSDJdW0NIMl0y

> <s_epik_cmdline>
J2VwaWtfcHl0aG9uJywgJy1waCcsICc3LjAnLCAnLXRuJywgJzgnLCAnLW1hJywgJzIwMCcsICctbWV0YWxfYmluZGluZycsICctaW1hZScsICc8aW5maWxlLm1hZT4nLCAnLW9tYWUnLCAnPG91dGZpbGUubWFlPic=

> <r_lp_tautomer_probability>
0.5

> <r_epik_Ionization_Penalty>
9.4349e-05

> <r_epik_Ionization_Penalty_Charging>
0

> <r_epik_Ionization_Penalty_Neutral>
9.4349e-05

> <r_epik_State_Penalty>
0.41068

> <r_epik_Charging_Adjusted_Penalty>
0.41068

> <i_epik_Tot_Q>
0

> <i_epik_Tot_abs_Q>
0

> <r_epik_Metal_State_Penalty>
0.4107

> <b_epik_Metal_Only>
0

> <s_lp_Force_Field>
OPLS_2005

> <r_lp_Energy>
48.9716

> <b_lp_Chiralities_Consistent>
1

> <s_lp_Variant>
AV-unprocessed.smi:2881-5

> <Gold.Version>
5.8.1

> <Gold.Id.Protein>
6NUR|6NUR_protein|mol2

> <Gold.PLP.Fitness>
45.9902

> <Gold.PLP.PLP>
-38.9491

> <Gold.PLP.part.hbond>
-4.0000

> <Gold.PLP.part.metal>
0.0000

> <Gold.PLP.part.buried>
0.9627

> <Gold.PLP.part.nonpolar>
-34.9548

> <Gold.PLP.part.repulsive>
1.0359

> <Gold.PLP.ligand.clash>
0.0000

> <Gold.PLP.ligand.torsion>
0.0207

> <Gold.PLP.Chemscore.Hbond>
2.3560

> <Gold.PLP.Chemscore.CHOScore>
0.0000

> <Gold.PLP.Chemscore.Metal>
0.0000

> <Gold.Chemscore.Hbonds>
donor molecule, donor type, donor heavy atom, donor atom, acceptor molecule, acceptor atom, score
      L1  H     8    27       P1  8028  0.50
      L1  H    19    20       P1  7948  0.89
      P1  H  7997  8009       L1    17  0.99

> <Gold.PLP.Chemscore.Internal.Correction>
0.0146

> <Gold.Rescore>
     Score         DG    S(hbond)    S(metal)    S(lipo)     H(rot)  DE(clash)    DE(int)     intcor
     13.21     -16.81       1.06        0.00     116.36       2.28       0.03       3.56       ----

> <Gold.Chemscore.Fitness>
13.2139

> <Gold.Chemscore.DG>
-16.8098

> <Gold.Chemscore.ZeroCoef>
-5.4800

> <Gold.Chemscore.Hbond>
1.0601

> <Gold.Chemscore.Metal>
0.0000

> <Gold.Chemscore.Lipo>
116.3625

> <Gold.Chemscore.Internal_Hbond>
0.0000

> <Gold.Chemscore.DEClash>
0.0319

> <Gold.Chemscore.DEInternal>
3.5640

> <Gold.Chemscore.Rot>
2.2755

> <Gold.Chemscore.Internal.Correction>
   9.000000E+99

> <Gold.Chemscore.Hbonds>
donor molecule, donor type, donor heavy atom, donor atom, acceptor molecule, acceptor atom, score
      L1  H     8    27       P1  8028  0.47
      L1  H    19    20       P1  7948  0.82
      P1  H  7997  8009       L1    17  0.74

> <Gold.Chemscore.Hbond.Weighted>
-3.5406

> <Gold.Chemscore.Metal.Weighted>
-0.0000

> <Gold.Chemscore.Lipo.Weighted>
-13.6144

> <Gold.Chemscore.Internal_Hbond.Weighted>
0.0000

> <Gold.Chemscore.DEClash.Weighted>
0.0319

> <Gold.Chemscore.DEInternal.Weighted>
3.5640

> <Gold.Chemscore.Rot.Weighted>
5.8252

> <Gold.Chemscore.Internal.Correction.Weighted>
   9.000000E+99

> <Gold.Protein.RotatedTorsions>
[ 6907 6896 6895 6894 ] final    1.62 input  -60.11 | X-H torsion
[ 7974 7965 7964 7962 ] final  147.46 input  175.53 | X-H torsion
[ 8008 7997 7996 7995 ] final  141.52 input   59.86 | X-H torsion
[ 10167 10162 10161 10158 ] final  -98.04 input  -65.29 | X-H torsion
[ 10718 10713 10712 10709 ] final  -95.73 input   66.30 | X-H torsion
[ 10763 10752 10751 10750 ] final   87.05 input  -60.55 | X-H torsion
[ 11005 11000 10999 10996 ] final  145.44 input  -57.11 | X-H torsion

> <Gold.Protein.ActiveResidues>
 VAL166  LYS551  ARG553  GLY616  TRP617  ASP618  TYR619  PRO620  LYS621  CYS622 
 ASP623  PHE694  ASN695  SER759  ASP760  ASP761  ALA762  ILE779  LEU786  VAL792 
 PHE793  MET794  SER795  GLU796  ALA797  LYS798  CYS799  TRP800  GLU811  SER814 

> <Gold.Protein.RotatedAtoms>
  151.5956  135.1050  160.0048 H   0  0  0  0  0  0  0  0  0  0  0  0  # atno 6907 bound_to 6896
  152.4284  133.7231  159.6555 H   0  0  0  0  0  0  0  0  0  0  0  0  # atno 6908 bound_to 6896
  150.8174  133.8241  159.3176 H   0  0  0  0  0  0  0  0  0  0  0  0  # atno 6909 bound_to 6896
  144.8590  139.6031  143.5939 H   0  0  0  0  0  0  0  0  0  0  0  0  # atno 7974 bound_to 7965
  156.2964  140.2313  156.4578 H   0  0  0  0  0  0  0  0  0  0  0  0  # atno 8008 bound_to 7997
  154.8045  140.0446  157.1318 H   0  0  0  0  0  0  0  0  0  0  0  0  # atno 8009 bound_to 7997
  154.9495  140.3040  155.5085 H   0  0  0  0  0  0  0  0  0  0  0  0  # atno 8010 bound_to 7997
  140.2771  143.3306  152.0478 H   0  0  0  0  0  0  0  0  0  0  0  0  # atno 10167 bound_to 10162
  156.0048  130.5121  150.6120 H   0  0  0  0  0  0  0  0  0  0  0  0  # atno 10718 bound_to 10713
  153.1630  135.4557  154.9799 H   0  0  0  0  0  0  0  0  0  0  0  0  # atno 10763 bound_to 10752
  154.7912  135.3221  154.7776 H   0  0  0  0  0  0  0  0  0  0  0  0  # atno 10764 bound_to 10752
  153.8263  135.6942  153.4875 H   0  0  0  0  0  0  0  0  0  0  0  0  # atno 10765 bound_to 10752
  140.0712  134.9151  157.1348 H   0  0  0  0  0  0  0  0  0  0  0  0  # atno 11005 bound_to 11000
  146.2845  139.6968  142.9205 LP  0  0  0  0  0  0  0  0  0  0  0  0  # atno 17320 bound_to 7965
  145.4350  141.0418  143.2889 LP  0  0  0  0  0  0  0  0  0  0  0  0  # atno 17321 bound_to 7965
  139.4973  144.6617  151.6449 LP  0  0  0  0  0  0  0  0  0  0  0  0  # atno 17342 bound_to 10162
  140.5842  143.9893  150.6286 LP  0  0  0  0  0  0  0  0  0  0  0  0  # atno 17343 bound_to 10162
  157.3951  131.0801  151.1359 LP  0  0  0  0  0  0  0  0  0  0  0  0  # atno 17370 bound_to 10713
  157.2039  130.6407  149.5748 LP  0  0  0  0  0  0  0  0  0  0  0  0  # atno 17371 bound_to 10713
  140.3624  134.2479  155.7185 LP  0  0  0  0  0  0  0  0  0  0  0  0  # atno 17394 bound_to 11000
  141.2012  133.7968  157.0450 LP  0  0  0  0  0  0  0  0  0  0  0  0  # atno 17395 bound_to 11000

$$$$
