AV-unprocessed.smi:3143|AV-procd|sdf|11974|dock3
  -GOLD-   2272017373D 1   1.00000     0.00000
 Structure written by MMmdl.
 38 39  0  0  0  0  0  0  0  0  2 V2000
  149.7823  143.0952  158.4628 C   0  0  0  0  0  0  0  0  0  0  0  0
  151.0664  142.8911  157.6433 C   0  0  2  0  0  0  0  0  0  0  0  0
  150.7115  142.4866  156.2631 N   0  3  0  0  0  0  0  0  0  0  0  0
  149.8570  141.2843  156.1644 C   0  0  0  0  0  0  0  0  0  0  0  0
  149.9333  140.6702  154.7588 C   0  0  0  0  0  0  0  0  0  0  0  0
  148.6386  140.2046  154.2988 N   0  0  0  0  0  0  0  0  0  0  0  0
  148.3308  139.0262  153.6514 C   0  0  0  0  0  0  0  0  0  0  0  0
  146.9872  139.0358  153.4075 C   0  0  0  0  0  0  0  0  0  0  0  0
  146.5550  140.2814  153.9426 C   0  0  0  0  0  0  0  0  0  0  0  0
  147.5465  140.9801  154.4722 N   0  0  0  0  0  0  0  0  0  0  0  0
  151.9662  141.8418  158.3271 C   0  0  0  0  0  0  0  0  0  0  0  0
  152.2114  140.7921  157.7304 O   0  0  0  0  0  0  0  0  0  0  0  0
  152.4508  142.0893  159.5632 N   0  0  0  0  0  0  0  0  0  0  0  0
  152.1604  143.3154  160.3053 C   0  0  0  0  0  0  0  0  0  0  0  0
  152.6674  143.0719  161.7266 C   0  0  0  0  0  0  0  0  0  0  0  0
  153.7651  142.0322  161.5543 C   0  0  0  0  0  0  0  0  0  0  0  0
  153.3104  141.2056  160.3513 C   0  0  0  0  0  0  0  0  0  0  0  0
  150.0033  143.4102  159.4832 H   0  0  0  0  0  0  0  0  0  0  0  0
  149.1935  142.1786  158.5204 H   0  0  0  0  0  0  0  0  0  0  0  0
  149.1522  143.8645  158.0159 H   0  0  0  0  0  0  0  0  0  0  0  0
  151.5806  143.8497  157.5740 H   0  0  0  0  0  0  0  0  0  0  0  0
  150.2447  143.2623  155.8142 H   0  0  0  0  0  0  0  0  0  0  0  0
  150.1796  140.5533  156.9070 H   0  0  0  0  0  0  0  0  0  0  0  0
  148.8257  141.5493  156.4007 H   0  0  0  0  0  0  0  0  0  0  0  0
  150.3116  141.4001  154.0417 H   0  0  0  0  0  0  0  0  0  0  0  0
  150.6265  139.8280  154.7509 H   0  0  0  0  0  0  0  0  0  0  0  0
  149.0833  138.2863  153.4209 H   0  0  0  0  0  0  0  0  0  0  0  0
  146.4024  138.2708  152.9184 H   0  0  0  0  0  0  0  0  0  0  0  0
  145.5579  140.6960  153.9606 H   0  0  0  0  0  0  0  0  0  0  0  0
  152.6986  144.1450  159.8447 H   0  0  0  0  0  0  0  0  0  0  0  0
  151.0966  143.5578  160.3016 H   0  0  0  0  0  0  0  0  0  0  0  0
  153.0182  143.9827  162.2130 H   0  0  0  0  0  0  0  0  0  0  0  0
  151.8633  142.6560  162.3354 H   0  0  0  0  0  0  0  0  0  0  0  0
  154.7066  142.5313  161.3211 H   0  0  0  0  0  0  0  0  0  0  0  0
  153.9204  141.4278  162.4486 H   0  0  0  0  0  0  0  0  0  0  0  0
  152.7271  140.3454  160.6835 H   0  0  0  0  0  0  0  0  0  0  0  0
  154.1674  140.8406  159.7843 H   0  0  0  0  0  0  0  0  0  0  0  0
  151.5680  142.2931  155.7645 H   0  0  0  0  0  0  0  0  0  0  0  0
  1  2  1  0  0  0  0
  1 18  1  0  0  0  0
  1 19  1  0  0  0  0
  1 20  1  0  0  0  0
  2  3  1  0  0  0  0
  2 11  1  0  0  0  0
  2 21  1  0  0  0  0
  3  4  1  0  0  0  0
  3 22  1  0  0  0  0
  3 38  1  0  0  0  0
  4  5  1  0  0  0  0
  4 23  1  0  0  0  0
  4 24  1  0  0  0  0
  5  6  1  0  0  0  0
  5 25  1  0  0  0  0
  5 26  1  0  0  0  0
  6 10  1  0  0  0  0
  6  7  1  0  0  0  0
  7  8  2  0  0  0  0
  7 27  1  0  0  0  0
  8  9  1  0  0  0  0
  8 28  1  0  0  0  0
  9 10  2  0  0  0  0
  9 29  1  0  0  0  0
 11 12  2  0  0  0  0
 11 13  1  0  0  0  0
 13 17  1  0  0  0  0
 13 14  1  0  0  0  0
 14 15  1  0  0  0  0
 14 30  1  0  0  0  0
 14 31  1  0  0  0  0
 15 16  1  0  0  0  0
 15 32  1  0  0  0  0
 15 33  1  0  0  0  0
 16 17  1  0  0  0  0
 16 34  1  0  0  0  0
 16 35  1  0  0  0  0
 17 36  1  0  0  0  0
 17 37  1  0  0  0  0
M  CHG  1   3   1
M  END
> <s_m_source_file>
AV-unprocessed.smi

> <i_m_source_file_index>
3143

> <i_lp_mmshare_version>
43012

> <i_f3d_flags>
0

> <s_epik_input>
W0NIMl0xW0NIMl1bQ0gyXVtDSDJdTjFDKD1PKVtDQEhdKFtDSDNdKVtOSF1bQ0gyXVtDSDJdbjJbY0hdW2NIXVtjSF1uMg==

> <s_epik_cmdline>
J2VwaWtfcHl0aG9uJywgJy1waCcsICc3LjAnLCAnLXRuJywgJzgnLCAnLW1hJywgJzIwMCcsICctbWV0YWxfYmluZGluZycsICctaW1hZScsICc8aW5maWxlLm1hZT4nLCAnLW9tYWUnLCAnPG91dGZpbGUubWFlPic=

> <r_lp_tautomer_probability>
1

> <r_epik_Ionization_Penalty>
0.203171

> <r_epik_Ionization_Penalty_Charging>
0.203168

> <r_epik_Ionization_Penalty_Neutral>
2.46932e-06

> <r_epik_State_Penalty>
0.193072

> <r_epik_Charging_Adjusted_Penalty>
0.39624

> <i_epik_Tot_Q>
1

> <i_epik_Tot_abs_Q>
1

> <r_epik_Metal_State_Penalty>
0.193323

> <b_epik_Metal_Only>
0

> <s_lp_Force_Field>
OPLS_2005

> <r_lp_Energy>
30.2015

> <b_lp_Chiralities_Consistent>
1

> <s_lp_Variant>
AV-unprocessed.smi:3143-1

> <Gold.Version>
5.8.1

> <Gold.Id.Protein>
6NUR|6NUR_protein|mol2

> <Gold.PLP.Fitness>
45.0990

> <Gold.PLP.PLP>
-34.4380

> <Gold.PLP.part.hbond>
-1.0000

> <Gold.PLP.part.metal>
0.0000

> <Gold.PLP.part.buried>
-1.3083

> <Gold.PLP.part.nonpolar>
-32.9092

> <Gold.PLP.part.repulsive>
0.2254

> <Gold.PLP.ligand.clash>
0.0000

> <Gold.PLP.ligand.torsion>
0.6159

> <Gold.PLP.Chemscore.Hbond>
2.0000

> <Gold.PLP.Chemscore.CHOScore>
1.9431

> <Gold.PLP.Chemscore.Metal>
0.0000

> <Gold.Chemscore.Hbonds>
donor molecule, donor type, donor heavy atom, donor atom, acceptor molecule, acceptor atom, score
      L1  H     3    22       P1  8028  2.00
      L1  C     7    27       P1  7948  0.94
      L1  C     7    27       P1  7957  0.01
      L1  C     9    29       P1 10175  1.00

> <Gold.PLP.Chemscore.Internal.Correction>
0.0636

> <Gold.Rescore>
     Score         DG    S(hbond)    S(metal)    S(lipo)     H(rot)  DE(clash)    DE(int)     intcor
     11.60     -14.25       0.99        0.00      87.05       1.84       0.09       2.56       ----

> <Gold.Chemscore.Fitness>
11.5974

> <Gold.Chemscore.DG>
-14.2529

> <Gold.Chemscore.ZeroCoef>
-5.4800

> <Gold.Chemscore.Hbond>
0.9880

> <Gold.Chemscore.Metal>
0.0000

> <Gold.Chemscore.Lipo>
87.0471

> <Gold.Chemscore.Internal_Hbond>
0.0000

> <Gold.Chemscore.DEClash>
0.0915

> <Gold.Chemscore.DEInternal>
2.5640

> <Gold.Chemscore.Rot>
1.8405

> <Gold.Chemscore.Internal.Correction>
   9.000000E+99

> <Gold.Chemscore.Hbonds>
donor molecule, donor type, donor heavy atom, donor atom, acceptor molecule, acceptor atom, score
      L1  H     3    22       P1  8028  0.95

> <Gold.Chemscore.Hbond.Weighted>
-3.3001

> <Gold.Chemscore.Metal.Weighted>
-0.0000

> <Gold.Chemscore.Lipo.Weighted>
-10.1845

> <Gold.Chemscore.Internal_Hbond.Weighted>
0.0000

> <Gold.Chemscore.DEClash.Weighted>
0.0915

> <Gold.Chemscore.DEInternal.Weighted>
2.5640

> <Gold.Chemscore.Rot.Weighted>
4.7117

> <Gold.Chemscore.Internal.Correction.Weighted>
   9.000000E+99

> <Gold.Protein.RotatedTorsions>
[ 6907 6896 6895 6894 ] final   33.40 input  -60.11 | X-H torsion
[ 7974 7965 7964 7962 ] final  -48.70 input  175.53 | X-H torsion
[ 8008 7997 7996 7995 ] final   88.75 input   59.86 | X-H torsion
[ 10167 10162 10161 10158 ] final  -19.12 input  -65.29 | X-H torsion
[ 10718 10713 10712 10709 ] final -166.77 input   66.30 | X-H torsion
[ 10763 10752 10751 10750 ] final   64.53 input  -60.55 | X-H torsion
[ 11005 11000 10999 10996 ] final -109.31 input  -57.11 | X-H torsion

> <Gold.Protein.ActiveResidues>
 VAL166  LYS551  ARG553  GLY616  TRP617  ASP618  TYR619  PRO620  LYS621  CYS622 
 ASP623  PHE694  ASN695  SER759  ASP760  ASP761  ALA762  ILE779  LEU786  VAL792 
 PHE793  MET794  SER795  GLU796  ALA797  LYS798  CYS799  TRP800  GLU811  SER814 

> <Gold.Protein.RotatedAtoms>
  152.0879  134.9427  160.0572 H   0  0  0  0  0  0  0  0  0  0  0  0  # atno 6907 bound_to 6896
  152.0690  133.4093  159.4459 H   0  0  0  0  0  0  0  0  0  0  0  0  # atno 6908 bound_to 6896
  150.6836  134.3033  159.4759 H   0  0  0  0  0  0  0  0  0  0  0  0  # atno 6909 bound_to 6896
  145.9484  140.7595  142.9517 H   0  0  0  0  0  0  0  0  0  0  0  0  # atno 7974 bound_to 7965
  155.9916  140.3368  155.6758 H   0  0  0  0  0  0  0  0  0  0  0  0  # atno 8008 bound_to 7997
  155.6413  140.0695  157.2635 H   0  0  0  0  0  0  0  0  0  0  0  0  # atno 8009 bound_to 7997
  154.4221  140.1742  156.1564 H   0  0  0  0  0  0  0  0  0  0  0  0  # atno 8010 bound_to 7997
  140.7265  143.4849  151.0068 H   0  0  0  0  0  0  0  0  0  0  0  0  # atno 10167 bound_to 10162
  156.6728  130.9090  151.3046 H   0  0  0  0  0  0  0  0  0  0  0  0  # atno 10718 bound_to 10713
  153.0059  135.5389  154.6525 H   0  0  0  0  0  0  0  0  0  0  0  0  # atno 10763 bound_to 10752
  154.5754  135.2845  155.0788 H   0  0  0  0  0  0  0  0  0  0  0  0  # atno 10764 bound_to 10752
  154.1938  135.6495  153.5120 H   0  0  0  0  0  0  0  0  0  0  0  0  # atno 10765 bound_to 10752
  141.0855  133.9147  157.2195 H   0  0  0  0  0  0  0  0  0  0  0  0  # atno 11005 bound_to 11000
  144.6791  140.2395  143.7345 LP  0  0  0  0  0  0  0  0  0  0  0  0  # atno 17320 bound_to 7965
  145.8204  139.2041  143.1941 LP  0  0  0  0  0  0  0  0  0  0  0  0  # atno 17321 bound_to 7965
  139.8550  143.7388  152.3176 LP  0  0  0  0  0  0  0  0  0  0  0  0  # atno 17342 bound_to 10162
  139.7584  144.7514  151.0401 LP  0  0  0  0  0  0  0  0  0  0  0  0  # atno 17343 bound_to 10162
  157.7071  130.9398  150.0967 LP  0  0  0  0  0  0  0  0  0  0  0  0  # atno 17370 bound_to 10713
  156.1926  130.3655  149.8890 LP  0  0  0  0  0  0  0  0  0  0  0  0  # atno 17371 bound_to 10713
  139.9672  135.0138  156.9419 LP  0  0  0  0  0  0  0  0  0  0  0  0  # atno 17394 bound_to 11000
  140.5373  134.0754  155.7332 LP  0  0  0  0  0  0  0  0  0  0  0  0  # atno 17395 bound_to 11000

$$$$
