AV-unprocessed.smi:249|AV-procd|sdf|1914|dock1
  -GOLD-   2262021 03D 1   1.00000     0.00000
 Structure written by MMmdl.
 64 67  0  0  0  0  0  0  0  0  2 V2000
  145.3563  135.4507  151.2246 C   0  0  0  0  0  0  0  0  0  0  0  0
  145.9733  134.0756  151.5147 C   0  0  0  0  0  0  0  0  0  0  0  0
  147.1148  134.1552  152.4630 N   0  3  2  0  0  0  0  0  0  0  0  0
  147.9207  132.9057  152.5306 C   0  0  0  0  0  0  0  0  0  0  0  0
  149.1924  133.1136  153.3673 C   0  0  0  0  0  0  0  0  0  0  0  0
  148.8468  133.6030  154.7873 C   0  0  1  0  0  0  0  0  0  0  0  0
  150.0140  133.7476  155.6669 N   0  0  0  0  0  0  0  0  0  0  0  0
  150.6844  132.5268  156.0992 C   0  0  0  0  0  0  0  0  0  0  0  0
  149.9797  134.7228  156.6063 C   0  0  0  0  0  0  0  0  0  0  0  0
  149.1467  134.5452  157.6621 N   0  0  0  0  0  0  0  0  0  0  0  0
  149.0621  135.4789  158.6143 C   0  0  0  0  0  0  0  0  0  0  0  0
  149.7093  136.6426  158.7015 N   0  0  0  0  0  0  0  0  0  0  0  0
  150.5451  136.8272  157.6399 C   0  0  0  0  0  0  0  0  0  0  0  0
  150.7398  135.9264  156.5548 C   0  0  0  0  0  0  0  0  0  0  0  0
  151.6712  136.4512  155.6662 N   0  0  0  0  0  0  0  0  0  0  0  0
  152.0037  137.5982  156.1926 C   0  0  0  0  0  0  0  0  0  0  0  0
  151.3800  137.9002  157.3813 N   0  0  0  0  0  0  0  0  0  0  0  0
  151.5673  139.1033  158.1738 C   0  0  0  0  0  0  0  0  0  0  0  0
  151.0108  140.3769  157.4898 C   0  0  2  0  0  0  0  0  0  0  0  0
  151.5408  140.5587  156.0465 C   0  0  0  0  0  0  0  0  0  0  0  0
  150.5006  140.4499  155.0966 O   0  0  0  0  0  0  0  0  0  0  0  0
  151.2361  141.6391  158.3611 C   0  0  2  0  0  0  0  0  0  0  0  0
  150.9804  142.9576  157.6519 C   0  0  0  0  0  0  0  0  0  0  0  0
  151.7080  143.9523  158.5491 C   0  0  0  0  0  0  0  0  0  0  0  0
  152.8216  143.2449  159.0818 O   0  0  0  0  0  0  0  0  0  0  0  0
  152.6815  141.8510  158.8243 C   0  0  0  0  0  0  0  0  0  0  0  0
  147.9963  134.8873  154.6810 C   0  0  0  0  0  0  0  0  0  0  0  0
  146.7391  134.6801  153.8100 C   0  0  2  0  0  0  0  0  0  0  0  0
  145.6642  133.8302  154.5223 C   0  0  0  0  0  0  0  0  0  0  0  0
  144.4774  135.3480  150.5878 H   0  0  0  0  0  0  0  0  0  0  0  0
  146.0516  136.1130  150.7098 H   0  0  0  0  0  0  0  0  0  0  0  0
  145.0407  135.9426  152.1449 H   0  0  0  0  0  0  0  0  0  0  0  0
  145.1916  133.4462  151.9424 H   0  0  0  0  0  0  0  0  0  0  0  0
  146.2866  133.5948  150.5873 H   0  0  0  0  0  0  0  0  0  0  0  0
  147.3228  132.0926  152.9432 H   0  0  0  0  0  0  0  0  0  0  0  0
  148.2131  132.5939  151.5288 H   0  0  0  0  0  0  0  0  0  0  0  0
  149.7542  132.1803  153.4197 H   0  0  0  0  0  0  0  0  0  0  0  0
  149.8305  133.8356  152.8565 H   0  0  0  0  0  0  0  0  0  0  0  0
  148.2315  132.8311  155.2508 H   0  0  0  0  0  0  0  0  0  0  0  0
  151.5682  132.7551  156.6967 H   0  0  0  0  0  0  0  0  0  0  0  0
  151.0110  131.9527  155.2319 H   0  0  0  0  0  0  0  0  0  0  0  0
  150.0241  131.8949  156.6928 H   0  0  0  0  0  0  0  0  0  0  0  0
  148.3770  135.2638  159.4212 H   0  0  0  0  0  0  0  0  0  0  0  0
  152.7208  138.2590  155.7274 H   0  0  0  0  0  0  0  0  0  0  0  0
  151.0787  138.9392  159.1341 H   0  0  0  0  0  0  0  0  0  0  0  0
  152.6301  139.2206  158.3881 H   0  0  0  0  0  0  0  0  0  0  0  0
  149.9321  140.2392  157.4020 H   0  0  0  0  0  0  0  0  0  0  0  0
  152.0258  141.5273  155.9248 H   0  0  0  0  0  0  0  0  0  0  0  0
  152.3016  139.8132  155.8162 H   0  0  0  0  0  0  0  0  0  0  0  0
  149.8653  141.1290  155.2643 H   0  0  0  0  0  0  0  0  0  0  0  0
  150.5930  141.5953  159.2419 H   0  0  0  0  0  0  0  0  0  0  0  0
  151.4311  142.9511  156.6584 H   0  0  0  0  0  0  0  0  0  0  0  0
  149.9212  143.1936  157.5459 H   0  0  0  0  0  0  0  0  0  0  0  0
  152.0223  144.8478  158.0123 H   0  0  0  0  0  0  0  0  0  0  0  0
  151.0653  144.2598  159.3749 H   0  0  0  0  0  0  0  0  0  0  0  0
  152.9254  141.2646  159.7105 H   0  0  0  0  0  0  0  0  0  0  0  0
  153.3849  141.5792  158.0358 H   0  0  0  0  0  0  0  0  0  0  0  0
  147.7013  135.2386  155.6701 H   0  0  0  0  0  0  0  0  0  0  0  0
  148.5949  135.6864  154.2422 H   0  0  0  0  0  0  0  0  0  0  0  0
  146.3052  135.6688  153.6536 H   0  0  0  0  0  0  0  0  0  0  0  0
  145.4143  134.2616  155.4921 H   0  0  0  0  0  0  0  0  0  0  0  0
  145.9915  132.8062  154.6987 H   0  0  0  0  0  0  0  0  0  0  0  0
  144.7384  133.7863  153.9491 H   0  0  0  0  0  0  0  0  0  0  0  0
  147.7317  134.8560  152.0776 H   0  0  0  0  0  0  0  0  0  0  0  0
  1  2  1  0  0  0  0
  1 30  1  0  0  0  0
  1 31  1  0  0  0  0
  1 32  1  0  0  0  0
  2  3  1  0  0  0  0
  2 33  1  0  0  0  0
  2 34  1  0  0  0  0
  3 28  1  0  0  0  0
  3  4  1  0  0  0  0
  3 64  1  0  0  0  0
  4  5  1  0  0  0  0
  4 35  1  0  0  0  0
  4 36  1  0  0  0  0
  5  6  1  0  0  0  0
  5 37  1  0  0  0  0
  5 38  1  0  0  0  0
  6  7  1  0  0  0  0
  6 27  1  0  0  0  0
  6 39  1  0  0  0  0
  7  8  1  0  0  0  0
  7  9  1  0  0  0  0
  8 40  1  0  0  0  0
  8 41  1  0  0  0  0
  8 42  1  0  0  0  0
  9 14  1  0  0  0  0
  9 10  2  0  0  0  0
 10 11  1  0  0  0  0
 11 12  2  0  0  0  0
 11 43  1  0  0  0  0
 12 13  1  0  0  0  0
 13 17  1  0  0  0  0
 13 14  2  0  0  0  0
 14 15  1  0  0  0  0
 15 16  2  0  0  0  0
 16 17  1  0  0  0  0
 16 44  1  0  0  0  0
 17 18  1  0  0  0  0
 18 19  1  0  0  0  0
 18 45  1  0  0  0  0
 18 46  1  0  0  0  0
 19 20  1  0  0  0  0
 19 22  1  0  0  0  0
 19 47  1  0  0  0  0
 20 21  1  0  0  0  0
 20 48  1  0  0  0  0
 20 49  1  0  0  0  0
 21 50  1  0  0  0  0
 22 26  1  0  0  0  0
 22 23  1  0  0  0  0
 22 51  1  0  0  0  0
 23 24  1  0  0  0  0
 23 52  1  0  0  0  0
 23 53  1  0  0  0  0
 24 25  1  0  0  0  0
 24 54  1  0  0  0  0
 24 55  1  0  0  0  0
 25 26  1  0  0  0  0
 26 56  1  0  0  0  0
 26 57  1  0  0  0  0
 27 28  1  0  0  0  0
 27 58  1  0  0  0  0
 27 59  1  0  0  0  0
 28 29  1  0  0  0  0
 28 60  1  0  0  0  0
 29 61  1  0  0  0  0
 29 62  1  0  0  0  0
 29 63  1  0  0  0  0
M  CHG  1   3   1
M  END
> <s_m_source_file>
AV-unprocessed.smi

> <i_m_source_file_index>
249

> <i_lp_mmshare_version>
43012

> <i_f3d_flags>
0

> <s_epik_input>
W0NIM11bQ0gyXU4xW0NIMl1bQ0gyXVtDQEhdKFtDSDJdW0NASF0xW0NIM10pTihbQ0gzXSljKG5bY0hdbjIpYyhjMjMpbltjSF1uM1tDSDJdW0NASF0oW0NIMl1bT0hdKVtDQEBIXTRbQ0gyXVtDSDJdT1tDSDJdNA==

> <s_epik_cmdline>
J2VwaWtfcHl0aG9uJywgJy1waCcsICc3LjAnLCAnLXRuJywgJzgnLCAnLW1hJywgJzIwMCcsICctbWV0YWxfYmluZGluZycsICctaW1hZScsICc8aW5maWxlLm1hZT4nLCAnLW9tYWUnLCAnPG91dGZpbGUubWFlPic=

> <r_lp_tautomer_probability>
1

> <r_epik_Ionization_Penalty>
0.00294688

> <r_epik_Ionization_Penalty_Charging>
0.00169971

> <r_epik_Ionization_Penalty_Neutral>
0.00124717

> <r_epik_State_Penalty>
-0

> <r_epik_Charging_Adjusted_Penalty>
0.00169971

> <i_epik_Tot_Q>
1

> <i_epik_Tot_abs_Q>
1

> <r_epik_Metal_State_Penalty>
-0

> <b_epik_Metal_Only>
0

> <s_lp_Force_Field>
OPLS_2005

> <r_lp_Energy>
54.2474

> <b_lp_Chiralities_Consistent>
1

> <s_lp_Variant>
AV-unprocessed.smi:249-17

> <Gold.Version>
5.8.1

> <Gold.Id.Protein>
6NUR|6NUR_protein|mol2

> <Gold.PLP.Fitness>
52.8060

> <Gold.PLP.PLP>
-43.3633

> <Gold.PLP.part.hbond>
-3.0000

> <Gold.PLP.part.metal>
0.0000

> <Gold.PLP.part.buried>
-6.6624

> <Gold.PLP.part.nonpolar>
-32.6516

> <Gold.PLP.part.repulsive>
0.0606

> <Gold.PLP.ligand.clash>
0.0000

> <Gold.PLP.ligand.torsion>
1.8647

> <Gold.PLP.Chemscore.Hbond>
4.0000

> <Gold.PLP.Chemscore.CHOScore>
0.0000

> <Gold.PLP.Chemscore.Metal>
0.0000

> <Gold.Chemscore.Hbonds>
donor molecule, donor type, donor heavy atom, donor atom, acceptor molecule, acceptor atom, score
      L1  H     3    64       P1  7948  2.00
      P1  H  7989  7998       L1    21  0.80
      P1  H 10752 10763       L1    15  1.00

> <Gold.PLP.Chemscore.Internal.Correction>
1.1720

> <Gold.Rescore>
     Score         DG    S(hbond)    S(metal)    S(lipo)     H(rot)  DE(clash)    DE(int)     intcor
     15.28     -17.99       2.68        0.00      93.99       2.90       0.07       2.64       ----

> <Gold.Chemscore.Fitness>
15.2770

> <Gold.Chemscore.DG>
-17.9871

> <Gold.Chemscore.ZeroCoef>
-5.4800

> <Gold.Chemscore.Hbond>
2.6753

> <Gold.Chemscore.Metal>
0.0000

> <Gold.Chemscore.Lipo>
93.9933

> <Gold.Chemscore.Internal_Hbond>
0.0000

> <Gold.Chemscore.DEClash>
0.0750

> <Gold.Chemscore.DEInternal>
2.6352

> <Gold.Chemscore.Rot>
2.9006

> <Gold.Chemscore.Internal.Correction>
   9.000000E+99

> <Gold.Chemscore.Hbonds>
donor molecule, donor type, donor heavy atom, donor atom, acceptor molecule, acceptor atom, score
      L1  H     3    64       P1  7948  0.70
      P1  H  7989  7998       L1    21  0.08
      P1  H 10752 10763       L1    15  0.93

> <Gold.Chemscore.Hbond.Weighted>
-8.9355

> <Gold.Chemscore.Metal.Weighted>
-0.0000

> <Gold.Chemscore.Lipo.Weighted>
-10.9972

> <Gold.Chemscore.Internal_Hbond.Weighted>
0.0000

> <Gold.Chemscore.DEClash.Weighted>
0.0750

> <Gold.Chemscore.DEInternal.Weighted>
2.6352

> <Gold.Chemscore.Rot.Weighted>
7.4256

> <Gold.Chemscore.Internal.Correction.Weighted>
   9.000000E+99

> <Gold.Protein.RotatedTorsions>
[ 6907 6896 6895 6894 ] final   34.93 input  -60.11 | X-H torsion
[ 7974 7965 7964 7962 ] final  -26.89 input  175.53 | X-H torsion
[ 8008 7997 7996 7995 ] final  -70.03 input   59.86 | X-H torsion
[ 10167 10162 10161 10158 ] final   92.10 input  -65.29 | X-H torsion
[ 10718 10713 10712 10709 ] final  -85.92 input   66.30 | X-H torsion
[ 10763 10752 10751 10750 ] final   73.09 input  -60.55 | X-H torsion
[ 11005 11000 10999 10996 ] final   77.01 input  -57.11 | X-H torsion

> <Gold.Protein.ActiveResidues>
 VAL166  LYS551  ARG553  GLY616  TRP617  ASP618  TYR619  PRO620  LYS621  CYS622 
 ASP623  PHE694  ASN695  SER759  ASP760  ASP761  ALA762  ILE779  LEU786  VAL792 
 PHE793  MET794  SER795  GLU796  ALA797  LYS798  CYS799  TRP800  GLU811  SER814 

> <Gold.Protein.RotatedAtoms>
  152.1092  134.9287  160.0566 H   0  0  0  0  0  0  0  0  0  0  0  0  # atno 6907 bound_to 6896
  152.0471  133.3998  159.4369 H   0  0  0  0  0  0  0  0  0  0  0  0  # atno 6908 bound_to 6896
  150.6842  134.3270  159.4854 H   0  0  0  0  0  0  0  0  0  0  0  0  # atno 6909 bound_to 6896
  146.1395  140.5079  142.8658 H   0  0  0  0  0  0  0  0  0  0  0  0  # atno 7974 bound_to 7965
  154.4982  140.0842  156.7741 H   0  0  0  0  0  0  0  0  0  0  0  0  # atno 8008 bound_to 7997
  155.4066  140.3439  155.4242 H   0  0  0  0  0  0  0  0  0  0  0  0  # atno 8009 bound_to 7997
  156.1422  140.1532  156.8891 H   0  0  0  0  0  0  0  0  0  0  0  0  # atno 8010 bound_to 7997
  139.8309  144.6687  150.9400 H   0  0  0  0  0  0  0  0  0  0  0  0  # atno 10167 bound_to 10162
  155.9993  130.4747  150.4636 H   0  0  0  0  0  0  0  0  0  0  0  0  # atno 10718 bound_to 10713
  153.0500  135.5075  154.7842 H   0  0  0  0  0  0  0  0  0  0  0  0  # atno 10763 bound_to 10752
  154.6712  135.2953  154.9741 H   0  0  0  0  0  0  0  0  0  0  0  0  # atno 10764 bound_to 10752
  154.0559  135.6697  153.4858 H   0  0  0  0  0  0  0  0  0  0  0  0  # atno 10765 bound_to 10752
  139.9273  134.7648  156.1468 H   0  0  0  0  0  0  0  0  0  0  0  0  # atno 11005 bound_to 11000
  144.7777  140.5774  143.6627 LP  0  0  0  0  0  0  0  0  0  0  0  0  # atno 17320 bound_to 7965
  145.5079  139.1480  143.3621 LP  0  0  0  0  0  0  0  0  0  0  0  0  # atno 17321 bound_to 7965
  140.7806  143.4001  151.1163 LP  0  0  0  0  0  0  0  0  0  0  0  0  # atno 17342 bound_to 10162
  139.7655  143.8571  152.3109 LP  0  0  0  0  0  0  0  0  0  0  0  0  # atno 17343 bound_to 10162
  157.2658  131.0576  151.2292 LP  0  0  0  0  0  0  0  0  0  0  0  0  # atno 17370 bound_to 10713
  157.3390  130.7023  149.6370 LP  0  0  0  0  0  0  0  0  0  0  0  0  # atno 17371 bound_to 10713
  141.0839  133.6742  156.2394 LP  0  0  0  0  0  0  0  0  0  0  0  0  # atno 17394 bound_to 11000
  140.6300  134.5273  157.5558 LP  0  0  0  0  0  0  0  0  0  0  0  0  # atno 17395 bound_to 11000

$$$$
