#       Name:                AV-unprocessed.smi:175
#       Creating user name   scv26
#       Creation time:       Thu Mar 26 19:21:04 2020


#       File generated by GOLD software.
#

@<TRIPOS>MOLECULE
AV-unprocessed.smi:175
    57    60     1
SMALL
NO_CHARGES


@<TRIPOS>ATOM
      1 ****        -2.7687   2.2756  -2.3152 C.3            1 S1                 0.0000
      2 ****        -3.7453   1.1030  -2.1276 C.3            1 S1                 0.0000
      3 ****        -5.0454   1.4653  -2.5719 O.3            1 S1                 0.0000
      4 ****        -5.9564   0.5491  -1.9926 C.3            1 S1                 0.0000
      5 ****        -5.4625   0.4562  -0.5548 C.3            1 S1                 0.0000
      6 ****        -3.9407   0.5725  -0.6813 C.3            1 S1                 0.0000
      7 ****        -3.4861   1.5012   0.2891 O.3            1 S1                 0.0000
      8 ****        -3.2345  -0.7833  -0.4299 C.3            1 S1                 0.0000
      9 ****        -1.7878  -0.7235  -0.5758 N.pl3          1 S1                 0.0000
     10 ****        -1.0597  -0.9769  -1.7176 C.2            1 S1                 0.0000
     11 ****         0.2337  -0.8492  -1.5950 N.2            1 S1                 0.0000
     12 ****         0.4098  -0.4923  -0.2648 C.ar           1 S1                 0.0000
     13 ****         1.5443  -0.2019   0.5355 C.ar           1 S1                 0.0000
     14 ****         2.7995  -0.2404   0.0363 N.3            1 S1                 0.0000
     15 ****         3.5373   1.0224   0.0794 C.3            1 S1                 0.0000
     16 ****         4.8790   0.6099   0.6512 C.2            1 S1                 0.0000
     17 ****         5.8063   1.3971   0.8328 O.2            1 S1                 0.0000
     18 ****         4.8849  -0.6994   0.9071 N.am           1 S1                 0.0000
     19 ****         5.9938  -1.4811   1.4497 C.3            1 S1                 0.0000
     20 ****         6.0902  -1.3768   2.9823 C.3            1 S1                 0.0000
     21 ****         7.0913  -2.1469   3.4066 F              1 S1                 0.0000
     22 ****         6.3294  -0.1234   3.3667 F              1 S1                 0.0000
     23 ****         4.9597  -1.8007   3.5474 F              1 S1                 0.0000
     24 ****         3.6300  -1.3342   0.5413 C.3            1 S1                 0.0000
     25 ****         1.3409   0.1107   1.8427 N.ar           1 S1                 0.0000
     26 ****         0.0981   0.1414   2.3337 C.ar           1 S1                 0.0000
     27 ****        -1.0548  -0.1028   1.7056 N.ar           1 S1                 0.0000
     28 ****        -0.8488  -0.4165   0.3936 C.ar           1 S1                 0.0000
     29 ****        -1.7690   2.0146  -1.9669 H              1 S1                 0.0000
     30 ****        -3.0967   3.1609  -1.7699 H              1 S1                 0.0000
     31 ****        -2.6917   2.5489  -3.3677 H              1 S1                 0.0000
     32 ****        -3.4288   0.2831  -2.7736 H              1 S1                 0.0000
     33 ****        -6.9854   0.9020  -2.0637 H              1 S1                 0.0000
     34 ****        -5.8842  -0.4158  -2.4970 H              1 S1                 0.0000
     35 ****        -5.8738   1.2957   0.0088 H              1 S1                 0.0000
     36 ****        -5.7915  -0.4588  -0.0609 H              1 S1                 0.0000
     37 ****        -3.6498   1.1436   1.1483 H              1 S1                 0.0000
     38 ****        -3.4614  -1.1482   0.5728 H              1 S1                 0.0000
     39 ****        -3.6145  -1.5381  -1.1198 H              1 S1                 0.0000
     40 ****        -1.5204  -1.2563  -2.6538 H              1 S1                 0.0000
     41 ****         3.6599   1.4223  -0.9274 H              1 S1                 0.0000
     42 ****         3.0735   1.7866   0.7053 H              1 S1                 0.0000
     43 ****         5.8657  -2.5252   1.1610 H              1 S1                 0.0000
     44 ****         6.9288  -1.1525   0.9929 H              1 S1                 0.0000
     45 ****         3.1966  -1.8446   1.4037 H              1 S1                 0.0000
     46 ****         3.7918  -2.0702  -0.2470 H              1 S1                 0.0000
     47 ****         0.0155   0.3984   3.3795 H              1 S1                 0.0000
     48 ****        -5.0938   1.4122  -3.5693 LP             1 S1                 0.0000
     49 ****        -5.2614   2.3960  -2.2768 LP             1 S1                 0.0000
     50 ****        -3.9780   2.3656   0.1846 LP             1 S1                 0.0000
     51 ****        -2.5058   1.6591   0.1711 LP             1 S1                 0.0000
     52 ****         0.9348  -0.9784  -2.2962 LP             1 S1                 0.0000
     53 ****         2.6140  -0.4272  -0.9284 LP             1 S1                 0.0000
     54 ****         5.6949   2.3631   0.5998 LP             1 S1                 0.0000
     55 ****         6.6716   1.0711   1.2135 LP             1 S1                 0.0000
     56 ****         2.1192   0.3172   2.4356 LP             1 S1                 0.0000
     57 ****        -1.9541  -0.0611   2.1410 LP             1 S1                 0.0000
@<TRIPOS>BOND
    1    1    2 1     
    2    1   29 1     
    3    1   30 1     
    4    1   31 1     
    5    2    6 1     
    6    2    3 1     
    7    2   32 1     
    8    3    4 1     
    9    4    5 1     
   10    4   33 1     
   11    4   34 1     
   12    5    6 1     
   13    5   35 1     
   14    5   36 1     
   15    6    7 1     
   16    6    8 1     
   17    7   37 1     
   18    8    9 1     
   19    8   38 1     
   20    8   39 1     
   21    9   28 1     
   22    9   10 1     
   23   10   11 2     
   24   10   40 1     
   25   11   12 1     
   26   12   28 ar    
   27   12   13 ar    
   28   13   14 1     
   29   13   25 ar    
   30   14   24 1     
   31   14   15 1     
   32   15   16 1     
   33   15   41 1     
   34   15   42 1     
   35   16   17 2     
   36   16   18 am    
   37   18   19 1     
   38   18   24 1     
   39   19   20 1     
   40   19   43 1     
   41   19   44 1     
   42   20   21 1     
   43   20   22 1     
   44   20   23 1     
   45   24   45 1     
   46   24   46 1     
   47   25   26 ar    
   48   26   27 ar    
   49   26   47 1     
   50   27   28 ar    
   51    3   48 1     
   52    3   49 1     
   53    7   50 1     
   54    7   51 1     
   55   11   52 1     
   56   14   53 1     
   57   17   54 1     
   58   17   55 1     
   59   25   56 1     
   60   27   57 1     
@<TRIPOS>SUBSTRUCTURE
      1 S1             1
@<TRIPOS>SET
LONE_PAIRS      STATIC     ATOMS    <user>   **** ""
10 48 49 50 51 52 53 54 55 56 57
DONOR_HYDROGENS      STATIC     ATOMS    <user>   **** ""
1 37
ATOM$BLUE        STATIC     ATOMS    COLORGROUP SYSTEM
10 48 49 50 51 52 53 54 55 56 57
ATOM$RED        STATIC     ATOMS    COLORGROUP SYSTEM
1 37
