AV-unprocessed.smi:2012|AV-procd|sdf|8155|dock3
  -GOLD-   2272010393D 1   1.00000     0.00000
 Structure written by MMmdl.
 50 51  0  0  0  0  0  0  0  0  1 V2000
  145.7349  134.5549  151.8908 C   0  0  0  0  0  0  0  0  0  0  0  0
  146.3128  134.4474  153.2972 C   0  0  0  0  0  0  0  0  0  0  0  0
  145.7918  133.6970  154.1219 O   0  0  0  0  0  0  0  0  0  0  0  0
  147.3894  135.2072  153.5575 N   0  0  0  0  0  0  0  0  0  0  0  0
  148.0770  135.2944  154.8480 C   0  0  2  0  0  0  0  0  0  0  0  0
  148.3457  136.7822  155.1394 C   0  0  0  0  0  0  0  0  0  0  0  0
  148.3191  137.2088  156.2951 O   0  0  0  0  0  0  0  0  0  0  0  0
  148.6190  137.5557  154.0774 N   0  0  0  0  0  0  0  0  0  0  0  0
  148.9982  138.9642  154.1445 C   0  0  0  0  0  0  0  0  0  0  0  0
  150.2700  139.2502  154.9373 C   0  0  0  0  0  0  0  0  0  0  0  0
  151.4356  138.5054  154.6726 C   0  0  0  0  0  0  0  0  0  0  0  0
  152.6009  138.7961  155.4067 C   0  0  0  0  0  0  0  0  0  0  0  0
  152.6598  139.7547  156.3547 N   0  0  0  0  0  0  0  0  0  0  0  0
  151.5431  140.4731  156.6294 C   0  0  0  0  0  0  0  0  0  0  0  0
  151.6190  141.4835  157.6128 N   0  0  0  0  0  0  0  0  0  0  0  0
  151.3681  142.8659  157.2108 C   0  0  0  0  0  0  0  0  0  0  0  0
  151.1496  143.7501  158.4508 C   0  0  0  0  0  0  0  0  0  0  0  0
  152.2557  143.6208  159.3381 O   0  0  0  0  0  0  0  0  0  0  0  0
  152.4116  142.2829  159.8004 C   0  0  0  0  0  0  0  0  0  0  0  0
  152.6805  141.3499  158.6079 C   0  0  0  0  0  0  0  0  0  0  0  0
  150.3286  140.2424  155.9423 C   0  0  0  0  0  0  0  0  0  0  0  0
  149.4196  134.5104  154.7630 C   0  0  0  0  0  0  0  0  0  0  0  0
  149.2052  133.0580  154.2942 C   0  0  0  0  0  0  0  0  0  0  0  0
  150.1944  134.5004  156.0973 C   0  0  0  0  0  0  0  0  0  0  0  0
  145.2915  135.5391  151.7388 H   0  0  0  0  0  0  0  0  0  0  0  0
  144.9608  133.8035  151.7312 H   0  0  0  0  0  0  0  0  0  0  0  0
  146.5143  134.4058  151.1430 H   0  0  0  0  0  0  0  0  0  0  0  0
  147.7435  135.7949  152.8168 H   0  0  0  0  0  0  0  0  0  0  0  0
  147.4530  134.8626  155.6336 H   0  0  0  0  0  0  0  0  0  0  0  0
  148.6190  137.1255  153.1639 H   0  0  0  0  0  0  0  0  0  0  0  0
  149.1444  139.3222  153.1254 H   0  0  0  0  0  0  0  0  0  0  0  0
  148.1740  139.5460  154.5608 H   0  0  0  0  0  0  0  0  0  0  0  0
  151.4417  137.7326  153.9182 H   0  0  0  0  0  0  0  0  0  0  0  0
  153.5126  138.2466  155.2240 H   0  0  0  0  0  0  0  0  0  0  0  0
  152.2173  143.2327  156.6325 H   0  0  0  0  0  0  0  0  0  0  0  0
  150.4869  142.9224  156.5705 H   0  0  0  0  0  0  0  0  0  0  0  0
  151.0522  144.7945  158.1541 H   0  0  0  0  0  0  0  0  0  0  0  0
  150.2258  143.4774  158.9639 H   0  0  0  0  0  0  0  0  0  0  0  0
  153.2450  142.2447  160.5018 H   0  0  0  0  0  0  0  0  0  0  0  0
  151.5211  141.9673  160.3471 H   0  0  0  0  0  0  0  0  0  0  0  0
  152.7762  140.3299  158.9748 H   0  0  0  0  0  0  0  0  0  0  0  0
  153.6323  141.6071  158.1413 H   0  0  0  0  0  0  0  0  0  0  0  0
  149.4590  140.8389  156.1657 H   0  0  0  0  0  0  0  0  0  0  0  0
  150.0590  134.9929  154.0213 H   0  0  0  0  0  0  0  0  0  0  0  0
  148.5459  132.5176  154.9741 H   0  0  0  0  0  0  0  0  0  0  0  0
  150.1504  132.5160  154.2503 H   0  0  0  0  0  0  0  0  0  0  0  0
  148.7665  133.0106  153.2974 H   0  0  0  0  0  0  0  0  0  0  0  0
  149.5935  134.0685  156.8984 H   0  0  0  0  0  0  0  0  0  0  0  0
  150.4939  135.5015  156.4078 H   0  0  0  0  0  0  0  0  0  0  0  0
  151.1080  133.9108  156.0151 H   0  0  0  0  0  0  0  0  0  0  0  0
  1  2  1  0  0  0  0
  1 25  1  0  0  0  0
  1 26  1  0  0  0  0
  1 27  1  0  0  0  0
  2  3  2  0  0  0  0
  2  4  1  0  0  0  0
  4  5  1  0  0  0  0
  4 28  1  0  0  0  0
  5  6  1  0  0  0  0
  5 22  1  0  0  0  0
  5 29  1  0  0  0  0
  6  7  2  0  0  0  0
  6  8  1  0  0  0  0
  8  9  1  0  0  0  0
  8 30  1  0  0  0  0
  9 10  1  0  0  0  0
  9 31  1  0  0  0  0
  9 32  1  0  0  0  0
 10 21  1  0  0  0  0
 10 11  2  0  0  0  0
 11 12  1  0  0  0  0
 11 33  1  0  0  0  0
 12 13  2  0  0  0  0
 12 34  1  0  0  0  0
 13 14  1  0  0  0  0
 14 15  1  0  0  0  0
 14 21  2  0  0  0  0
 15 20  1  0  0  0  0
 15 16  1  0  0  0  0
 16 17  1  0  0  0  0
 16 35  1  0  0  0  0
 16 36  1  0  0  0  0
 17 18  1  0  0  0  0
 17 37  1  0  0  0  0
 17 38  1  0  0  0  0
 18 19  1  0  0  0  0
 19 20  1  0  0  0  0
 19 39  1  0  0  0  0
 19 40  1  0  0  0  0
 20 41  1  0  0  0  0
 20 42  1  0  0  0  0
 21 43  1  0  0  0  0
 22 23  1  0  0  0  0
 22 24  1  0  0  0  0
 22 44  1  0  0  0  0
 23 45  1  0  0  0  0
 23 46  1  0  0  0  0
 23 47  1  0  0  0  0
 24 48  1  0  0  0  0
 24 49  1  0  0  0  0
 24 50  1  0  0  0  0
M  END
> <s_m_source_file>
AV-unprocessed.smi

> <i_m_source_file_index>
2012

> <i_lp_mmshare_version>
43012

> <i_f3d_flags>
0

> <s_epik_input>
W0NIM11DKD1PKVtOSF1bQ0BASF0oW0NIXShbQ0gzXSlbQ0gzXSlDKD1PKVtOSF1bQ0gyXWMxW2NIXVtjSF1uYyhbY0hdMSlOMltDSDJdW0NIMl1PW0NIMl1bQ0gyXTI=

> <s_epik_cmdline>
J2VwaWtfcHl0aG9uJywgJy1waCcsICc3LjAnLCAnLXRuJywgJzgnLCAnLW1hJywgJzIwMCcsICctbWV0YWxfYmluZGluZycsICctaW1hZScsICc8aW5maWxlLm1hZT4nLCAnLW9tYWUnLCAnPG91dGZpbGUubWFlPic=

> <r_lp_tautomer_probability>
1

> <r_epik_Ionization_Penalty>
0.00518786

> <r_epik_Ionization_Penalty_Charging>
0

> <r_epik_Ionization_Penalty_Neutral>
0.00518786

> <r_epik_State_Penalty>
0.00378052

> <r_epik_Charging_Adjusted_Penalty>
0.00378052

> <i_epik_Tot_Q>
0

> <i_epik_Tot_abs_Q>
0

> <r_epik_Metal_State_Penalty>
-0

> <b_epik_Metal_Only>
0

> <s_lp_Force_Field>
OPLS_2005

> <r_lp_Energy>
14.5368

> <b_lp_Chiralities_Consistent>
1

> <s_lp_Variant>
AV-unprocessed.smi:2012-1

> <Gold.Version>
5.8.1

> <Gold.Id.Protein>
6NUR|6NUR_protein|mol2

> <Gold.PLP.Fitness>
46.0181

> <Gold.PLP.PLP>
-39.2114

> <Gold.PLP.part.hbond>
-2.7548

> <Gold.PLP.part.metal>
0.0000

> <Gold.PLP.part.buried>
-4.9685

> <Gold.PLP.part.nonpolar>
-31.1573

> <Gold.PLP.part.repulsive>
0.1225

> <Gold.PLP.ligand.clash>
0.0000

> <Gold.PLP.ligand.torsion>
1.3404

> <Gold.PLP.Chemscore.Hbond>
2.9913

> <Gold.PLP.Chemscore.CHOScore>
0.0000

> <Gold.PLP.Chemscore.Metal>
0.0000

> <Gold.Chemscore.Hbonds>
donor molecule, donor type, donor heavy atom, donor atom, acceptor molecule, acceptor atom, score
      L1  H     4    28       P1  7948  0.98
      L1  H     8    30       P1  7948  1.00
      P1  H  7997  8008       L1    13  1.00

> <Gold.PLP.Chemscore.Internal.Correction>
0.5137

> <Gold.Rescore>
     Score         DG    S(hbond)    S(metal)    S(lipo)     H(rot)  DE(clash)    DE(int)     intcor
     19.22     -20.51       2.88        0.00      93.92       2.18       0.11       1.19       ----

> <Gold.Chemscore.Fitness>
19.2192

> <Gold.Chemscore.DG>
-20.5108

> <Gold.Chemscore.ZeroCoef>
-5.4800

> <Gold.Chemscore.Hbond>
2.8822

> <Gold.Chemscore.Metal>
0.0000

> <Gold.Chemscore.Lipo>
93.9171

> <Gold.Chemscore.Internal_Hbond>
0.0000

> <Gold.Chemscore.DEClash>
0.1058

> <Gold.Chemscore.DEInternal>
1.1858

> <Gold.Chemscore.Rot>
2.1813

> <Gold.Chemscore.Internal.Correction>
   9.000000E+99

> <Gold.Chemscore.Hbonds>
donor molecule, donor type, donor heavy atom, donor atom, acceptor molecule, acceptor atom, score
      L1  H     4    28       P1  7948  0.92
      L1  H     8    30       P1  7948  0.99
      P1  H  7997  8008       L1    13  0.50

> <Gold.Chemscore.Hbond.Weighted>
-9.6267

> <Gold.Chemscore.Metal.Weighted>
-0.0000

> <Gold.Chemscore.Lipo.Weighted>
-10.9883

> <Gold.Chemscore.Internal_Hbond.Weighted>
0.0000

> <Gold.Chemscore.DEClash.Weighted>
0.1058

> <Gold.Chemscore.DEInternal.Weighted>
1.1858

> <Gold.Chemscore.Rot.Weighted>
5.5842

> <Gold.Chemscore.Internal.Correction.Weighted>
   9.000000E+99

> <Gold.Protein.RotatedTorsions>
[ 6907 6896 6895 6894 ] final  -84.91 input  -60.11 | X-H torsion
[ 7974 7965 7964 7962 ] final  -78.62 input  175.53 | X-H torsion
[ 8008 7997 7996 7995 ] final  -54.05 input   59.86 | X-H torsion
[ 10167 10162 10161 10158 ] final  172.90 input  -65.29 | X-H torsion
[ 10718 10713 10712 10709 ] final  -76.95 input   66.30 | X-H torsion
[ 10763 10752 10751 10750 ] final   51.80 input  -60.55 | X-H torsion
[ 11005 11000 10999 10996 ] final  101.00 input  -57.11 | X-H torsion

> <Gold.Protein.ActiveResidues>
 VAL166  LYS551  ARG553  GLY616  TRP617  ASP618  TYR619  PRO620  LYS621  CYS622 
 ASP623  PHE694  ASN695  SER759  ASP760  ASP761  ALA762  ILE779  LEU786  VAL792 
 PHE793  MET794  SER795  GLU796  ALA797  LYS798  CYS799  TRP800  GLU811  SER814 

> <Gold.Protein.RotatedAtoms>
  150.6873  134.3286  159.4817 H   0  0  0  0  0  0  0  0  0  0  0  0  # atno 6907 bound_to 6896
  152.1153  134.9242  160.0574 H   0  0  0  0  0  0  0  0  0  0  0  0  # atno 6908 bound_to 6896
  152.0469  133.3967  159.4397 H   0  0  0  0  0  0  0  0  0  0  0  0  # atno 6909 bound_to 6896
  145.5840  140.9443  143.1328 H   0  0  0  0  0  0  0  0  0  0  0  0  # atno 7974 bound_to 7965
  154.4151  140.1185  156.5252 H   0  0  0  0  0  0  0  0  0  0  0  0  # atno 8008 bound_to 7997
  155.6661  140.3496  155.4781 H   0  0  0  0  0  0  0  0  0  0  0  0  # atno 8009 bound_to 7997
  155.9672  140.1134  157.0834 H   0  0  0  0  0  0  0  0  0  0  0  0  # atno 8010 bound_to 7997
  139.5091  144.3321  152.0101 H   0  0  0  0  0  0  0  0  0  0  0  0  # atno 10167 bound_to 10162
  156.0159  130.4478  150.3271 H   0  0  0  0  0  0  0  0  0  0  0  0  # atno 10718 bound_to 10713
  152.9786  135.5834  154.4474 H   0  0  0  0  0  0  0  0  0  0  0  0  # atno 10763 bound_to 10752
  154.4067  135.2769  155.2064 H   0  0  0  0  0  0  0  0  0  0  0  0  # atno 10764 bound_to 10752
  154.3872  135.6133  153.5877 H   0  0  0  0  0  0  0  0  0  0  0  0  # atno 10765 bound_to 10752
  139.8772  134.9164  156.4841 H   0  0  0  0  0  0  0  0  0  0  0  0  # atno 11005 bound_to 11000
  144.7381  139.7527  143.7321 LP  0  0  0  0  0  0  0  0  0  0  0  0  # atno 17320 bound_to 7965
  146.1695  139.4840  142.9936 LP  0  0  0  0  0  0  0  0  0  0  0  0  # atno 17321 bound_to 7965
  140.2761  144.3911  150.6135 LP  0  0  0  0  0  0  0  0  0  0  0  0  # atno 17342 bound_to 10162
  140.6053  143.2167  151.6993 LP  0  0  0  0  0  0  0  0  0  0  0  0  # atno 17343 bound_to 10162
  157.1370  131.0286  151.2944 LP  0  0  0  0  0  0  0  0  0  0  0  0  # atno 17370 bound_to 10713
  157.4504  130.7595  149.7146 LP  0  0  0  0  0  0  0  0  0  0  0  0  # atno 17371 bound_to 10713
  140.8706  133.7991  155.9360 LP  0  0  0  0  0  0  0  0  0  0  0  0  # atno 17394 bound_to 11000
  140.8957  134.2441  157.5070 LP  0  0  0  0  0  0  0  0  0  0  0  0  # atno 17395 bound_to 11000

$$$$
