AV-unprocessed.smi:1643|AV-procd|sdf|6581|dock3
  -GOLD-   22720 7273D 1   1.00000     0.00000
 Structure written by MMmdl.
 55 57  0  0  0  0  0  0  0  0  3 V2000
  147.6586  135.3996  158.9545 C   0  0  0  0  0  0  0  0  0  0  0  0
  148.4005  134.8195  157.7465 C   0  0  0  0  0  0  0  0  0  0  0  0
  148.1389  133.6656  157.4066 O   0  0  0  0  0  0  0  0  0  0  0  0
  149.3057  135.5906  157.0950 N   0  0  0  0  0  0  0  0  0  0  0  0
  149.6256  136.9460  157.5696 C   0  0  0  0  0  0  0  0  0  0  0  0
  148.8726  138.0164  156.7596 C   0  0  0  0  0  0  0  0  0  0  0  0
  148.6808  137.6742  155.2666 C   0  0  0  0  0  0  0  0  0  0  0  0
  149.9440  137.3698  154.5404 N   0  3  1  0  0  0  0  0  0  0  0  0
  150.7591  138.5875  154.2808 C   0  0  0  0  0  0  0  0  0  0  0  0
  152.0047  138.6844  155.1842 C   0  0  1  0  0  0  0  0  0  0  0  0
  152.9274  139.5853  154.6028 O   0  0  0  0  0  0  0  0  0  0  0  0
  151.6482  139.1692  156.6035 C   0  0  0  0  0  0  0  0  0  0  0  0
  151.1172  140.5385  156.6199 N   0  0  0  0  0  0  0  0  0  0  0  0
  150.2027  141.1350  155.8072 C   0  0  0  0  0  0  0  0  0  0  0  0
  150.0555  142.4212  156.2300 N   0  3  0  0  0  0  0  0  0  0  0  0
  150.8850  142.6482  157.3304 C   0  0  0  0  0  0  0  0  0  0  0  0
  151.0867  143.7876  158.1000 C   0  0  0  0  0  0  0  0  0  0  0  0
  152.0122  143.6920  159.1638 C   0  0  0  0  0  0  0  0  0  0  0  0
  152.2576  144.9203  160.0233 C   0  0  0  0  0  0  0  0  0  0  0  0
  152.6994  142.4786  159.4276 C   0  0  0  0  0  0  0  0  0  0  0  0
  153.6929  142.3877  160.5736 C   0  0  0  0  0  0  0  0  0  0  0  0
  152.4788  141.3299  158.6341 C   0  0  0  0  0  0  0  0  0  0  0  0
  151.5661  141.4431  157.5882 C   0  0  0  0  0  0  0  0  0  0  0  0
  150.7494  136.2189  155.0567 C   0  0  0  0  0  0  0  0  0  0  0  0
  149.9791  135.1367  155.8597 C   0  0  0  0  0  0  0  0  0  0  0  0
  147.2021  136.3600  158.7133 H   0  0  0  0  0  0  0  0  0  0  0  0
  148.3362  135.5308  159.7984 H   0  0  0  0  0  0  0  0  0  0  0  0
  146.8603  134.7270  159.2711 H   0  0  0  0  0  0  0  0  0  0  0  0
  149.3995  137.0743  158.6292 H   0  0  0  0  0  0  0  0  0  0  0  0
  150.7001  137.1143  157.5228 H   0  0  0  0  0  0  0  0  0  0  0  0
  147.8842  138.1536  157.1998 H   0  0  0  0  0  0  0  0  0  0  0  0
  149.3792  138.9758  156.8678 H   0  0  0  0  0  0  0  0  0  0  0  0
  147.9957  136.8331  155.1556 H   0  0  0  0  0  0  0  0  0  0  0  0
  148.1730  138.5025  154.7709 H   0  0  0  0  0  0  0  0  0  0  0  0
  151.0820  138.6021  153.2386 H   0  0  0  0  0  0  0  0  0  0  0  0
  150.1299  139.4688  154.4147 H   0  0  0  0  0  0  0  0  0  0  0  0
  152.4872  137.7109  155.2642 H   0  0  0  0  0  0  0  0  0  0  0  0
  153.3704  139.1494  153.8904 H   0  0  0  0  0  0  0  0  0  0  0  0
  150.8949  138.5191  157.0513 H   0  0  0  0  0  0  0  0  0  0  0  0
  152.5187  139.1324  157.2601 H   0  0  0  0  0  0  0  0  0  0  0  0
  149.6903  140.6749  154.9747 H   0  0  0  0  0  0  0  0  0  0  0  0
  150.5600  144.7081  157.8939 H   0  0  0  0  0  0  0  0  0  0  0  0
  153.3032  145.2241  159.9667 H   0  0  0  0  0  0  0  0  0  0  0  0
  152.0108  144.7151  161.0654 H   0  0  0  0  0  0  0  0  0  0  0  0
  151.6482  145.7636  159.6968 H   0  0  0  0  0  0  0  0  0  0  0  0
  154.1446  141.3970  160.6337 H   0  0  0  0  0  0  0  0  0  0  0  0
  153.1994  142.5871  161.5252 H   0  0  0  0  0  0  0  0  0  0  0  0
  154.4971  143.1120  160.4415 H   0  0  0  0  0  0  0  0  0  0  0  0
  153.0003  140.4060  158.8349 H   0  0  0  0  0  0  0  0  0  0  0  0
  151.2009  135.7319  154.1920 H   0  0  0  0  0  0  0  0  0  0  0  0
  151.5952  136.5808  155.6416 H   0  0  0  0  0  0  0  0  0  0  0  0
  150.6786  134.3436  156.1268 H   0  0  0  0  0  0  0  0  0  0  0  0
  149.2478  134.6869  155.1868 H   0  0  0  0  0  0  0  0  0  0  0  0
  149.6256  137.0732  153.6284 H   0  0  0  0  0  0  0  0  0  0  0  0
  149.4345  143.0930  155.7970 H   0  0  0  0  0  0  0  0  0  0  0  0
  1  2  1  0  0  0  0
  1 26  1  0  0  0  0
  1 27  1  0  0  0  0
  1 28  1  0  0  0  0
  2  3  2  0  0  0  0
  2  4  1  0  0  0  0
  4 25  1  0  0  0  0
  4  5  1  0  0  0  0
  5  6  1  0  0  0  0
  5 29  1  0  0  0  0
  5 30  1  0  0  0  0
  6  7  1  0  0  0  0
  6 31  1  0  0  0  0
  6 32  1  0  0  0  0
  7  8  1  0  0  0  0
  7 33  1  0  0  0  0
  7 34  1  0  0  0  0
  8  9  1  0  0  0  0
  8 24  1  0  0  0  0
  8 54  1  0  0  0  0
  9 10  1  0  0  0  0
  9 35  1  0  0  0  0
  9 36  1  0  0  0  0
 10 11  1  0  0  0  0
 10 12  1  0  0  0  0
 10 37  1  0  0  0  0
 11 38  1  0  0  0  0
 12 13  1  0  0  0  0
 12 39  1  0  0  0  0
 12 40  1  0  0  0  0
 13 23  1  0  0  0  0
 13 14  1  0  0  0  0
 14 15  2  0  0  0  0
 14 41  1  0  0  0  0
 15 16  1  0  0  0  0
 15 55  1  0  0  0  0
 16 23  2  0  0  0  0
 16 17  1  0  0  0  0
 17 18  2  0  0  0  0
 17 42  1  0  0  0  0
 18 19  1  0  0  0  0
 18 20  1  0  0  0  0
 19 43  1  0  0  0  0
 19 44  1  0  0  0  0
 19 45  1  0  0  0  0
 20 21  1  0  0  0  0
 20 22  2  0  0  0  0
 21 46  1  0  0  0  0
 21 47  1  0  0  0  0
 21 48  1  0  0  0  0
 22 23  1  0  0  0  0
 22 49  1  0  0  0  0
 24 25  1  0  0  0  0
 24 50  1  0  0  0  0
 24 51  1  0  0  0  0
 25 52  1  0  0  0  0
 25 53  1  0  0  0  0
M  CHG  1   8   1
M  CHG  1  15   1
M  END
> <s_m_source_file>
AV-unprocessed.smi

> <i_m_source_file_index>
1643

> <i_lp_mmshare_version>
43012

> <i_f3d_flags>
0

> <s_epik_input>
W0NIM11DKD1PKU4xW0NIMl1bQ0gyXVtDSDJdTihbQ0gyXVtDSDJdMSlbQ0gyXVtDQEhdKFtPSF0pW0NIMl1uKFtjSF1uMiljKGMyMylbY0hdYyhbQ0gzXSljKFtjSF0zKVtDSDNd

> <s_epik_cmdline>
J2VwaWtfcHl0aG9uJywgJy1waCcsICc3LjAnLCAnLXRuJywgJzgnLCAnLW1hJywgJzIwMCcsICctbWV0YWxfYmluZGluZycsICctaW1hZScsICc8aW5maWxlLm1hZT4nLCAnLW9tYWUnLCAnPG91dGZpbGUubWFlPic=

> <r_epik_Ionization_Penalty>
1.2865

> <r_epik_Ionization_Penalty_Charging>
1.2865

> <r_epik_Ionization_Penalty_Neutral>
2.89706e-06

> <r_epik_State_Penalty>
1.3566

> <r_epik_Charging_Adjusted_Penalty>
2.6431

> <i_epik_Tot_Q>
2

> <i_epik_Tot_abs_Q>
2

> <r_epik_Metal_State_Penalty>
5.37339

> <b_epik_Metal_Only>
0

> <s_lp_Force_Field>
OPLS_2005

> <r_lp_Energy>
56.7844

> <b_lp_Chiralities_Consistent>
1

> <s_lp_Variant>
AV-unprocessed.smi:1643-10

> <Gold.Version>
5.8.1

> <Gold.Id.Protein>
6NUR|6NUR_protein|mol2

> <Gold.PLP.Fitness>
60.0184

> <Gold.PLP.PLP>
-46.2444

> <Gold.PLP.part.hbond>
-4.0000

> <Gold.PLP.part.metal>
0.0000

> <Gold.PLP.part.buried>
-7.2879

> <Gold.PLP.part.nonpolar>
-35.9424

> <Gold.PLP.part.repulsive>
0.1396

> <Gold.PLP.ligand.clash>
0.0000

> <Gold.PLP.ligand.torsion>
0.9137

> <Gold.PLP.Chemscore.Hbond>
5.1594

> <Gold.PLP.Chemscore.CHOScore>
0.0000

> <Gold.PLP.Chemscore.Metal>
0.0000

> <Gold.Chemscore.Hbonds>
donor molecule, donor type, donor heavy atom, donor atom, acceptor molecule, acceptor atom, score
      L1  H     8    54       P1  7948  1.95
      L1  H    15    55       P1  8028  1.95
      P1  H  7989  7998       L1    11  0.32
      P1  H  7997  8008       L1    11  0.76

> <Gold.PLP.Chemscore.Internal.Correction>
0.1235

> <Gold.Rescore>
     Score         DG    S(hbond)    S(metal)    S(lipo)     H(rot)  DE(clash)    DE(int)     intcor
     19.93     -22.15       2.55        0.00     117.24       2.17       0.01       2.22       ----

> <Gold.Chemscore.Fitness>
19.9256

> <Gold.Chemscore.DG>
-22.1517

> <Gold.Chemscore.ZeroCoef>
-5.4800

> <Gold.Chemscore.Hbond>
2.5511

> <Gold.Chemscore.Metal>
0.0000

> <Gold.Chemscore.Lipo>
117.2447

> <Gold.Chemscore.Internal_Hbond>
0.0000

> <Gold.Chemscore.DEClash>
0.0089

> <Gold.Chemscore.DEInternal>
2.2171

> <Gold.Chemscore.Rot>
2.1744

> <Gold.Chemscore.Internal.Correction>
   9.000000E+99

> <Gold.Chemscore.Hbonds>
donor molecule, donor type, donor heavy atom, donor atom, acceptor molecule, acceptor atom, score
      L1  H     8    54       P1  7948  0.72
      L1  H    15    55       P1  8028  0.93
      P1  H  7989  7998       L1    11  0.03
      P1  H  7997  8008       L1    11  0.38

> <Gold.Chemscore.Hbond.Weighted>
-8.5206

> <Gold.Chemscore.Metal.Weighted>
-0.0000

> <Gold.Chemscore.Lipo.Weighted>
-13.7176

> <Gold.Chemscore.Internal_Hbond.Weighted>
0.0000

> <Gold.Chemscore.DEClash.Weighted>
0.0089

> <Gold.Chemscore.DEInternal.Weighted>
2.2171

> <Gold.Chemscore.Rot.Weighted>
5.5666

> <Gold.Chemscore.Internal.Correction.Weighted>
   9.000000E+99

> <Gold.Protein.RotatedTorsions>
[ 6907 6896 6895 6894 ] final  -50.77 input  -60.11 | X-H torsion
[ 7974 7965 7964 7962 ] final   82.63 input  175.53 | X-H torsion
[ 8008 7997 7996 7995 ] final  -25.85 input   59.86 | X-H torsion
[ 10167 10162 10161 10158 ] final  -60.96 input  -65.29 | X-H torsion
[ 10718 10713 10712 10709 ] final  162.26 input   66.30 | X-H torsion
[ 10763 10752 10751 10750 ] final -117.43 input  -60.55 | X-H torsion
[ 11005 11000 10999 10996 ] final   27.68 input  -57.11 | X-H torsion

> <Gold.Protein.ActiveResidues>
 VAL166  LYS551  ARG553  GLY616  TRP617  ASP618  TYR619  PRO620  LYS621  CYS622 
 ASP623  PHE694  ASN695  SER759  ASP760  ASP761  ALA762  ILE779  LEU786  VAL792 
 PHE793  MET794  SER795  GLU796  ALA797  LYS798  CYS799  TRP800  GLU811  SER814 

> <Gold.Protein.RotatedAtoms>
  150.8675  134.8042  159.7129 H   0  0  0  0  0  0  0  0  0  0  0  0  # atno 6907 bound_to 6896
  152.4691  134.5000  159.9731 H   0  0  0  0  0  0  0  0  0  0  0  0  # atno 6908 bound_to 6896
  151.5094  133.3449  159.2918 H   0  0  0  0  0  0  0  0  0  0  0  0  # atno 6909 bound_to 6896
  145.6226  139.2389  143.2130 H   0  0  0  0  0  0  0  0  0  0  0  0  # atno 7974 bound_to 7965
  154.4455  140.1915  156.0683 H   0  0  0  0  0  0  0  0  0  0  0  0  # atno 8008 bound_to 7997
  156.0530  140.3306  155.7346 H   0  0  0  0  0  0  0  0  0  0  0  0  # atno 8009 bound_to 7997
  155.5528  140.0596  157.2837 H   0  0  0  0  0  0  0  0  0  0  0  0  # atno 8010 bound_to 7997
  140.6037  143.2368  151.5870 H   0  0  0  0  0  0  0  0  0  0  0  0  # atno 10167 bound_to 10162
  157.1251  131.0502  151.2397 H   0  0  0  0  0  0  0  0  0  0  0  0  # atno 10718 bound_to 10713
  154.8554  135.4310  154.1978 H   0  0  0  0  0  0  0  0  0  0  0  0  # atno 10763 bound_to 10752
  153.3032  135.6970  153.7190 H   0  0  0  0  0  0  0  0  0  0  0  0  # atno 10764 bound_to 10752
  153.6312  135.3484  155.3016 H   0  0  0  0  0  0  0  0  0  0  0  0  # atno 10765 bound_to 10752
  140.3236  134.2515  155.7713 H   0  0  0  0  0  0  0  0  0  0  0  0  # atno 11005 bound_to 11000
  146.1419  140.7045  142.9363 LP  0  0  0  0  0  0  0  0  0  0  0  0  # atno 17320 bound_to 7965
  144.7225  140.4420  143.6997 LP  0  0  0  0  0  0  0  0  0  0  0  0  # atno 17321 bound_to 7965
  139.5309  144.2918  152.1146 LP  0  0  0  0  0  0  0  0  0  0  0  0  # atno 17342 bound_to 10162
  140.2104  144.4568  150.6388 LP  0  0  0  0  0  0  0  0  0  0  0  0  # atno 17343 bound_to 10162
  157.4442  130.7561  149.7095 LP  0  0  0  0  0  0  0  0  0  0  0  0  # atno 17370 bound_to 10713
  155.9820  130.4014  150.3441 LP  0  0  0  0  0  0  0  0  0  0  0  0  # atno 17371 bound_to 10713
  141.2080  133.7789  157.0082 LP  0  0  0  0  0  0  0  0  0  0  0  0  # atno 17394 bound_to 11000
  140.0920  134.9587  157.1791 LP  0  0  0  0  0  0  0  0  0  0  0  0  # atno 17395 bound_to 11000

$$$$
