AV-unprocessed.smi:1644|AV-procd|sdf|6598|dock4
  -GOLD-   22720 7303D 1   1.00000     0.00000
 Structure written by MMmdl.
 49 51  0  0  0  0  0  0  0  0  3 V2000
  150.2218  131.7067  155.3708 C   0  0  0  0  0  0  0  0  0  0  0  0
  149.8577  132.9576  156.1783 C   0  0  0  0  0  0  0  0  0  0  0  0
  149.3241  134.0954  155.2925 C   0  0  0  0  0  0  0  0  0  0  0  0
  149.3358  135.4708  155.9935 C   0  0  2  0  0  0  0  0  0  0  0  0
  148.2175  136.2906  155.5743 N   0  5  0  0  0  0  0  0  0  0  0  0
  148.6964  137.4284  155.0203 C   0  0  0  0  0  0  0  0  0  0  0  0
  148.0324  138.3609  154.5689 O   0  0  0  0  0  0  0  0  0  0  0  0
  150.0434  137.4377  155.0220 N   0  0  0  0  0  0  0  0  0  0  0  0
  150.8879  138.5184  154.4994 C   0  0  0  0  0  0  0  0  0  0  0  0
  152.0728  138.8471  155.4307 C   0  0  1  0  0  0  0  0  0  0  0  0
  152.8943  139.7889  154.7695 O   0  0  0  0  0  0  0  0  0  0  0  0
  151.6373  139.3897  156.8086 C   0  0  0  0  0  0  0  0  0  0  0  0
  151.2235  140.7985  156.7657 N   0  0  0  0  0  0  0  0  0  0  0  0
  150.4708  141.4536  155.8415 C   0  0  0  0  0  0  0  0  0  0  0  0
  150.3682  142.7515  156.2411 N   0  3  0  0  0  0  0  0  0  0  0  0
  151.0654  142.9267  157.4386 C   0  0  0  0  0  0  0  0  0  0  0  0
  151.2514  144.0562  158.2269 C   0  0  0  0  0  0  0  0  0  0  0  0
  152.0201  143.9029  159.4030 C   0  0  0  0  0  0  0  0  0  0  0  0
  152.2442  145.1181  160.2870 C   0  0  0  0  0  0  0  0  0  0  0  0
  152.5709  142.6438  159.7560 C   0  0  0  0  0  0  0  0  0  0  0  0
  153.3916  142.4885  161.0249 C   0  0  0  0  0  0  0  0  0  0  0  0
  152.3710  141.5076  158.9404 C   0  0  0  0  0  0  0  0  0  0  0  0
  151.6148  141.6766  157.7829 C   0  0  0  0  0  0  0  0  0  0  0  0
  150.5202  136.3175  155.5737 C   0  0  0  0  0  0  0  0  0  0  0  0
  151.6995  136.0021  155.7362 O   0  0  0  0  0  0  0  0  0  0  0  0
  150.5992  130.9194  156.0236 H   0  0  0  0  0  0  0  0  0  0  0  0
  150.9932  131.9255  154.6321 H   0  0  0  0  0  0  0  0  0  0  0  0
  149.3527  131.3131  154.8430 H   0  0  0  0  0  0  0  0  0  0  0  0
  149.1124  132.6924  156.9290 H   0  0  0  0  0  0  0  0  0  0  0  0
  150.7362  133.3018  156.7249 H   0  0  0  0  0  0  0  0  0  0  0  0
  149.9384  134.1452  154.3922 H   0  0  0  0  0  0  0  0  0  0  0  0
  148.3148  133.8544  154.9536 H   0  0  0  0  0  0  0  0  0  0  0  0
  149.3749  135.3398  157.0757 H   0  0  0  0  0  0  0  0  0  0  0  0
  151.2630  138.2227  153.5178 H   0  0  0  0  0  0  0  0  0  0  0  0
  150.2935  139.4162  154.3212 H   0  0  0  0  0  0  0  0  0  0  0  0
  152.6744  137.9494  155.5782 H   0  0  0  0  0  0  0  0  0  0  0  0
  153.3602  139.3438  154.0780 H   0  0  0  0  0  0  0  0  0  0  0  0
  150.8333  138.7890  157.2339 H   0  0  0  0  0  0  0  0  0  0  0  0
  152.4662  139.3291  157.5146 H   0  0  0  0  0  0  0  0  0  0  0  0
  150.0355  141.0214  154.9520 H   0  0  0  0  0  0  0  0  0  0  0  0
  150.8266  145.0108  157.9531 H   0  0  0  0  0  0  0  0  0  0  0  0
  153.3100  145.3185  160.4004 H   0  0  0  0  0  0  0  0  0  0  0  0
  151.8148  144.9563  161.2760 H   0  0  0  0  0  0  0  0  0  0  0  0
  151.7819  146.0106  159.8641 H   0  0  0  0  0  0  0  0  0  0  0  0
  153.7248  141.4589  161.1605 H   0  0  0  0  0  0  0  0  0  0  0  0
  152.8022  142.7652  161.8995 H   0  0  0  0  0  0  0  0  0  0  0  0
  154.2773  143.1231  160.9875 H   0  0  0  0  0  0  0  0  0  0  0  0
  152.7857  140.5480  159.2122 H   0  0  0  0  0  0  0  0  0  0  0  0
  149.8590  143.4623  155.7319 H   0  0  0  0  0  0  0  0  0  0  0  0
  1  2  1  0  0  0  0
  1 26  1  0  0  0  0
  1 27  1  0  0  0  0
  1 28  1  0  0  0  0
  2  3  1  0  0  0  0
  2 29  1  0  0  0  0
  2 30  1  0  0  0  0
  3  4  1  0  0  0  0
  3 31  1  0  0  0  0
  3 32  1  0  0  0  0
  4 24  1  0  0  0  0
  4  5  1  0  0  0  0
  4 33  1  0  0  0  0
  5  6  1  0  0  0  0
  6  7  2  0  0  0  0
  6  8  1  0  0  0  0
  8  9  1  0  0  0  0
  8 24  1  0  0  0  0
  9 10  1  0  0  0  0
  9 34  1  0  0  0  0
  9 35  1  0  0  0  0
 10 11  1  0  0  0  0
 10 12  1  0  0  0  0
 10 36  1  0  0  0  0
 11 37  1  0  0  0  0
 12 13  1  0  0  0  0
 12 38  1  0  0  0  0
 12 39  1  0  0  0  0
 13 23  1  0  0  0  0
 13 14  1  0  0  0  0
 14 15  2  0  0  0  0
 14 40  1  0  0  0  0
 15 16  1  0  0  0  0
 15 49  1  0  0  0  0
 16 23  2  0  0  0  0
 16 17  1  0  0  0  0
 17 18  2  0  0  0  0
 17 41  1  0  0  0  0
 18 19  1  0  0  0  0
 18 20  1  0  0  0  0
 19 42  1  0  0  0  0
 19 43  1  0  0  0  0
 19 44  1  0  0  0  0
 20 21  1  0  0  0  0
 20 22  2  0  0  0  0
 21 45  1  0  0  0  0
 21 46  1  0  0  0  0
 21 47  1  0  0  0  0
 22 23  1  0  0  0  0
 22 48  1  0  0  0  0
 24 25  2  0  0  0  0
M  CHG  1   5  -1
M  CHG  1  15   1
M  END
> <s_m_source_file>
AV-unprocessed.smi

> <i_m_source_file_index>
1644

> <i_lp_mmshare_version>
43012

> <i_f3d_flags>
0

> <s_epik_input>
W0NIM11bQ0gyXVtDSDJdW0NAQEhdMVtOSF1DKD1PKU4oQzE9TylbQ0gyXVtDQEhdKFtPSF0pW0NIMl1uKFtjSF1uMiljKGMyMylbY0hdYyhbQ0gzXSljKFtjSF0zKVtDSDNd

> <s_epik_cmdline>
J2VwaWtfcHl0aG9uJywgJy1waCcsICc3LjAnLCAnLXRuJywgJzgnLCAnLW1hJywgJzIwMCcsICctbWV0YWxfYmluZGluZycsICctaW1hZScsICc8aW5maWxlLm1hZT4nLCAnLW9tYWUnLCAnPG91dGZpbGUubWFlPic=

> <r_lp_tautomer_probability>
1

> <r_epik_Ionization_Penalty>
6.86868

> <r_epik_Ionization_Penalty_Charging>
6.86868

> <r_epik_Ionization_Penalty_Neutral>
5.84798e-07

> <r_epik_State_Penalty>
6.92818

> <r_epik_Charging_Adjusted_Penalty>
13.7969

> <i_epik_Tot_Q>
0

> <i_epik_Tot_abs_Q>
2

> <r_epik_Metal_State_Penalty>
2.98017

> <b_epik_Metal_Only>
1

> <s_lp_Force_Field>
OPLS_2005

> <r_lp_Energy>
19.1239

> <b_lp_Chiralities_Consistent>
1

> <s_lp_Variant>
AV-unprocessed.smi:1644-15

> <Gold.Version>
5.8.1

> <Gold.Id.Protein>
6NUR|6NUR_protein|mol2

> <Gold.PLP.Fitness>
61.3355

> <Gold.PLP.PLP>
-50.7730

> <Gold.PLP.part.hbond>
-3.9426

> <Gold.PLP.part.metal>
0.0000

> <Gold.PLP.part.buried>
-4.8459

> <Gold.PLP.part.nonpolar>
-42.1994

> <Gold.PLP.part.repulsive>
0.3934

> <Gold.PLP.ligand.clash>
0.0000

> <Gold.PLP.ligand.torsion>
1.2051

> <Gold.PLP.Chemscore.Hbond>
4.2944

> <Gold.PLP.Chemscore.CHOScore>
0.0000

> <Gold.PLP.Chemscore.Metal>
0.0000

> <Gold.Chemscore.Hbonds>
donor molecule, donor type, donor heavy atom, donor atom, acceptor molecule, acceptor atom, score
      L1  H    15    49       P1  8028  2.00
      P1  H  7989  7998       L1    11  0.26
      P1  H  7997  8009       L1    11  1.00
      P1  H 10752 10764       L1    25  1.00

> <Gold.PLP.Chemscore.Internal.Correction>
0.0895

> <Gold.Rescore>
     Score         DG    S(hbond)    S(metal)    S(lipo)     H(rot)  DE(clash)    DE(int)     intcor
     19.68     -22.14       2.78        0.00     122.62       2.72       0.27       2.20       ----

> <Gold.Chemscore.Fitness>
19.6773

> <Gold.Chemscore.DG>
-22.1400

> <Gold.Chemscore.ZeroCoef>
-5.4800

> <Gold.Chemscore.Hbond>
2.7808

> <Gold.Chemscore.Metal>
0.0000

> <Gold.Chemscore.Lipo>
122.6227

> <Gold.Chemscore.Internal_Hbond>
0.0000

> <Gold.Chemscore.DEClash>
0.2654

> <Gold.Chemscore.DEInternal>
2.1973

> <Gold.Chemscore.Rot>
2.7245

> <Gold.Chemscore.Internal.Correction>
   9.000000E+99

> <Gold.Chemscore.Hbonds>
donor molecule, donor type, donor heavy atom, donor atom, acceptor molecule, acceptor atom, score
      L1  H    15    49       P1  8028  0.95
      P1  H  7989  7998       L1    11  0.02
      P1  H  7997  8009       L1    11  0.14
      P1  H 10752 10764       L1    25  1.00

> <Gold.Chemscore.Hbond.Weighted>
-9.2880

> <Gold.Chemscore.Metal.Weighted>
-0.0000

> <Gold.Chemscore.Lipo.Weighted>
-14.3469

> <Gold.Chemscore.Internal_Hbond.Weighted>
0.0000

> <Gold.Chemscore.DEClash.Weighted>
0.2654

> <Gold.Chemscore.DEInternal.Weighted>
2.1973

> <Gold.Chemscore.Rot.Weighted>
6.9748

> <Gold.Chemscore.Internal.Correction.Weighted>
   9.000000E+99

> <Gold.Protein.RotatedTorsions>
[ 6907 6896 6895 6894 ] final   58.01 input  -60.11 | X-H torsion
[ 7974 7965 7964 7962 ] final -139.75 input  175.53 | X-H torsion
[ 8008 7997 7996 7995 ] final -148.26 input   59.86 | X-H torsion
[ 10167 10162 10161 10158 ] final  -35.56 input  -65.29 | X-H torsion
[ 10718 10713 10712 10709 ] final -127.09 input   66.30 | X-H torsion
[ 10763 10752 10751 10750 ] final  -32.65 input  -60.55 | X-H torsion
[ 11005 11000 10999 10996 ] final  162.49 input  -57.11 | X-H torsion

> <Gold.Protein.ActiveResidues>
 VAL166  LYS551  ARG553  GLY616  TRP617  ASP618  TYR619  PRO620  LYS621  CYS622 
 ASP623  PHE694  ASN695  SER759  ASP760  ASP761  ALA762  ILE779  LEU786  VAL792 
 PHE793  MET794  SER795  GLU796  ALA797  LYS798  CYS799  TRP800  GLU811  SER814 

> <Gold.Protein.RotatedAtoms>
  152.3785  134.6627  160.0151 H   0  0  0  0  0  0  0  0  0  0  0  0  # atno 6907 bound_to 6896
  151.6897  133.3305  159.3248 H   0  0  0  0  0  0  0  0  0  0  0  0  # atno 6908 bound_to 6896
  150.7728  134.6644  159.6402 H   0  0  0  0  0  0  0  0  0  0  0  0  # atno 6909 bound_to 6896
  144.8652  140.6282  143.5302 H   0  0  0  0  0  0  0  0  0  0  0  0  # atno 7974 bound_to 7965
  155.5888  140.0650  157.2764 H   0  0  0  0  0  0  0  0  0  0  0  0  # atno 8008 bound_to 7997
  154.4311  140.1839  156.1100 H   0  0  0  0  0  0  0  0  0  0  0  0  # atno 8009 bound_to 7997
  156.0248  140.3313  155.7081 H   0  0  0  0  0  0  0  0  0  0  0  0  # atno 8010 bound_to 7997
  140.7162  143.3468  151.2238 H   0  0  0  0  0  0  0  0  0  0  0  0  # atno 10167 bound_to 10162
  156.1825  130.6741  151.0322 H   0  0  0  0  0  0  0  0  0  0  0  0  # atno 10718 bound_to 10713
  153.8173  135.6877  153.4832 H   0  0  0  0  0  0  0  0  0  0  0  0  # atno 10763 bound_to 10752
  153.1591  135.4587  154.9744 H   0  0  0  0  0  0  0  0  0  0  0  0  # atno 10764 bound_to 10752
  154.7942  135.3313  154.7648 H   0  0  0  0  0  0  0  0  0  0  0  0  # atno 10765 bound_to 10752
  140.2263  134.8158  157.3271 H   0  0  0  0  0  0  0  0  0  0  0  0  # atno 11005 bound_to 11000
  145.4235  139.1560  143.4061 LP  0  0  0  0  0  0  0  0  0  0  0  0  # atno 17320 bound_to 7965
  146.2890  140.4347  142.8746 LP  0  0  0  0  0  0  0  0  0  0  0  0  # atno 17321 bound_to 7965
  139.6990  143.9565  152.2896 LP  0  0  0  0  0  0  0  0  0  0  0  0  # atno 17342 bound_to 10162
  139.9252  144.6775  150.8420 LP  0  0  0  0  0  0  0  0  0  0  0  0  # atno 17343 bound_to 10162
  157.6877  131.0820  150.7196 LP  0  0  0  0  0  0  0  0  0  0  0  0  # atno 17370 bound_to 10713
  156.7253  130.4693  149.5513 LP  0  0  0  0  0  0  0  0  0  0  0  0  # atno 17371 bound_to 10713
  140.1797  134.4505  155.7779 LP  0  0  0  0  0  0  0  0  0  0  0  0  # atno 17394 bound_to 11000
  141.2220  133.6978  156.7848 LP  0  0  0  0  0  0  0  0  0  0  0  0  # atno 17395 bound_to 11000

$$$$
