AV-unprocessed.smi:2054|AV-procd|sdf|8332|dock8
  -GOLD-   2272011 03D 1   1.00000     0.00000
 Structure written by MMmdl.
 42 43  0  0  0  0  0  0  0  0  1 V2000
  153.6420  132.4869  165.4613 C   0  0  0  0  0  0  0  0  0  0  0  0
  155.2278  132.9555  164.6529 S   0  0  0  0  0  0  0  0  0  0  0  0
  156.0691  133.6063  165.6691 O   0  0  0  0  0  0  0  0  0  0  0  0
  155.7448  131.8026  163.9001 O   0  0  0  0  0  0  0  0  0  0  0  0
  154.7452  134.1638  163.5051 N   0  0  0  0  0  0  0  0  0  0  0  0
  155.0152  133.8928  162.0788 C   0  0  0  0  0  0  0  0  0  0  0  0
  154.1910  134.8121  161.1631 C   0  0  0  0  0  0  0  0  0  0  0  0
  154.4305  136.2924  161.5007 C   0  0  0  0  0  0  0  0  0  0  0  0
  153.6038  137.2130  160.5933 C   0  0  0  0  0  0  0  0  0  0  0  0
  152.7451  136.7429  159.8465 O   0  0  0  0  0  0  0  0  0  0  0  0
  153.8742  138.5253  160.6674 N   0  0  0  0  0  0  0  0  0  0  0  0
  153.2028  139.5654  159.8964 C   0  0  0  0  0  0  0  0  0  0  0  0
  153.7477  140.9634  160.2325 C   0  0  0  0  0  0  0  0  0  0  0  0
  152.9791  142.0627  159.5236 C   0  0  0  0  0  0  0  0  0  0  0  0
  153.2947  143.4204  159.7454 C   0  0  0  0  0  0  0  0  0  0  0  0
  152.5441  144.4026  159.0704 C   0  0  0  0  0  0  0  0  0  0  0  0
  151.5120  143.9918  158.2050 C   0  0  0  0  0  0  0  0  0  0  0  0
  151.2752  142.6111  158.0526 C   0  0  0  0  0  0  0  0  0  0  0  0
  151.9885  141.6613  158.6955 N   0  0  0  0  0  0  0  0  0  0  0  0
  154.0822  136.5096  162.9818 C   0  0  0  0  0  0  0  0  0  0  0  0
  154.9013  135.5804  163.8933 C   0  0  0  0  0  0  0  0  0  0  0  0
  153.8445  131.7773  166.2631 H   0  0  0  0  0  0  0  0  0  0  0  0
  152.9731  132.0233  164.7378 H   0  0  0  0  0  0  0  0  0  0  0  0
  153.1694  133.3759  165.8780 H   0  0  0  0  0  0  0  0  0  0  0  0
  156.0809  134.0273  161.8892 H   0  0  0  0  0  0  0  0  0  0  0  0
  154.7854  132.8535  161.8490 H   0  0  0  0  0  0  0  0  0  0  0  0
  154.4522  134.6162  160.1224 H   0  0  0  0  0  0  0  0  0  0  0  0
  153.1329  134.5652  161.2667 H   0  0  0  0  0  0  0  0  0  0  0  0
  155.4889  136.5163  161.3549 H   0  0  0  0  0  0  0  0  0  0  0  0
  154.5955  138.8258  161.3072 H   0  0  0  0  0  0  0  0  0  0  0  0
  153.2984  139.3621  158.8283 H   0  0  0  0  0  0  0  0  0  0  0  0
  152.1380  139.5189  160.1264 H   0  0  0  0  0  0  0  0  0  0  0  0
  153.7021  141.1320  161.3094 H   0  0  0  0  0  0  0  0  0  0  0  0
  154.8006  141.0362  159.9557 H   0  0  0  0  0  0  0  0  0  0  0  0
  154.0904  143.7047  160.4182 H   0  0  0  0  0  0  0  0  0  0  0  0
  152.7557  145.4517  159.2149 H   0  0  0  0  0  0  0  0  0  0  0  0
  150.9158  144.7172  157.6715 H   0  0  0  0  0  0  0  0  0  0  0  0
  150.4912  142.2605  157.3978 H   0  0  0  0  0  0  0  0  0  0  0  0
  154.2658  137.5474  163.2633 H   0  0  0  0  0  0  0  0  0  0  0  0
  153.0193  136.3288  163.1504 H   0  0  0  0  0  0  0  0  0  0  0  0
  154.5776  135.7208  164.9243 H   0  0  0  0  0  0  0  0  0  0  0  0
  155.9592  135.8433  163.8547 H   0  0  0  0  0  0  0  0  0  0  0  0
  1  2  1  0  0  0  0
  1 22  1  0  0  0  0
  1 23  1  0  0  0  0
  1 24  1  0  0  0  0
  2  3  2  0  0  0  0
  2  4  2  0  0  0  0
  2  5  1  0  0  0  0
  5 21  1  0  0  0  0
  5  6  1  0  0  0  0
  6  7  1  0  0  0  0
  6 25  1  0  0  0  0
  6 26  1  0  0  0  0
  7  8  1  0  0  0  0
  7 27  1  0  0  0  0
  7 28  1  0  0  0  0
  8  9  1  0  0  0  0
  8 20  1  0  0  0  0
  8 29  1  0  0  0  0
  9 10  2  0  0  0  0
  9 11  1  0  0  0  0
 11 12  1  0  0  0  0
 11 30  1  0  0  0  0
 12 13  1  0  0  0  0
 12 31  1  0  0  0  0
 12 32  1  0  0  0  0
 13 14  1  0  0  0  0
 13 33  1  0  0  0  0
 13 34  1  0  0  0  0
 14 19  1  0  0  0  0
 14 15  2  0  0  0  0
 15 16  1  0  0  0  0
 15 35  1  0  0  0  0
 16 17  2  0  0  0  0
 16 36  1  0  0  0  0
 17 18  1  0  0  0  0
 17 37  1  0  0  0  0
 18 19  2  0  0  0  0
 18 38  1  0  0  0  0
 20 21  1  0  0  0  0
 20 39  1  0  0  0  0
 20 40  1  0  0  0  0
 21 41  1  0  0  0  0
 21 42  1  0  0  0  0
M  END
> <s_m_source_file>
AV-unprocessed.smi

> <i_m_source_file_index>
2054

> <i_lp_mmshare_version>
43012

> <i_f3d_flags>
0

> <s_epik_input>
W0NIM11TKD1PKSg9TylOMVtDSDJdW0NIMl1bQ0hdKFtDSDJdW0NIMl0xKUMoPU8pW05IXVtDSDJdW0NIMl1jMltjSF1bY0hdW2NIXVtjSF1uMg==

> <s_epik_cmdline>
J2VwaWtfcHl0aG9uJywgJy1waCcsICc3LjAnLCAnLXRuJywgJzgnLCAnLW1hJywgJzIwMCcsICctbWV0YWxfYmluZGluZycsICctaW1hZScsICc8aW5maWxlLm1hZT4nLCAnLW9tYWUnLCAnPG91dGZpbGUubWFlPic=

> <r_epik_Ionization_Penalty>
0.0277532

> <r_epik_Ionization_Penalty_Charging>
0

> <r_epik_Ionization_Penalty_Neutral>
0.0277532

> <r_epik_State_Penalty>
0.022734

> <r_epik_Charging_Adjusted_Penalty>
0.022734

> <i_epik_Tot_Q>
0

> <i_epik_Tot_abs_Q>
0

> <r_epik_Metal_State_Penalty>
0.021713

> <b_epik_Metal_Only>
0

> <s_lp_Force_Field>
OPLS_2005

> <r_lp_Energy>
2.16831

> <b_lp_Chiralities_Consistent>
1

> <s_lp_Variant>
AV-unprocessed.smi:2054-1

> <Gold.Version>
5.8.1

> <Gold.Id.Protein>
6NUR|6NUR_protein|mol2

> <Gold.PLP.Fitness>
41.5444

> <Gold.PLP.PLP>
-39.0620

> <Gold.PLP.part.hbond>
-1.0000

> <Gold.PLP.part.metal>
0.0000

> <Gold.PLP.part.buried>
-5.1377

> <Gold.PLP.part.nonpolar>
-34.9913

> <Gold.PLP.part.repulsive>
0.9223

> <Gold.PLP.ligand.clash>
0.0000

> <Gold.PLP.ligand.torsion>
0.6323

> <Gold.PLP.Chemscore.Hbond>
0.9913

> <Gold.PLP.Chemscore.CHOScore>
0.0000

> <Gold.PLP.Chemscore.Metal>
0.0000

> <Gold.Chemscore.Hbonds>
donor molecule, donor type, donor heavy atom, donor atom, acceptor molecule, acceptor atom, score
      P1  H  6896  6907       L1    10  1.00

> <Gold.PLP.Chemscore.Internal.Correction>
0.7732

> <Gold.Rescore>
     Score         DG    S(hbond)    S(metal)    S(lipo)     H(rot)  DE(clash)    DE(int)     intcor
     16.73     -17.34       1.00        0.00     113.23       1.84       0.05       0.56       ----

> <Gold.Chemscore.Fitness>
16.7282

> <Gold.Chemscore.DG>
-17.3370

> <Gold.Chemscore.ZeroCoef>
-5.4800

> <Gold.Chemscore.Hbond>
0.9954

> <Gold.Chemscore.Metal>
0.0000

> <Gold.Chemscore.Lipo>
113.2282

> <Gold.Chemscore.Internal_Hbond>
0.0000

> <Gold.Chemscore.DEClash>
0.0469

> <Gold.Chemscore.DEInternal>
0.5619

> <Gold.Chemscore.Rot>
1.8419

> <Gold.Chemscore.Internal.Correction>
   9.000000E+99

> <Gold.Chemscore.Hbonds>
donor molecule, donor type, donor heavy atom, donor atom, acceptor molecule, acceptor atom, score
      P1  H  6896  6907       L1    10  0.99

> <Gold.Chemscore.Hbond.Weighted>
-3.3246

> <Gold.Chemscore.Metal.Weighted>
-0.0000

> <Gold.Chemscore.Lipo.Weighted>
-13.2477

> <Gold.Chemscore.Internal_Hbond.Weighted>
0.0000

> <Gold.Chemscore.DEClash.Weighted>
0.0469

> <Gold.Chemscore.DEInternal.Weighted>
0.5619

> <Gold.Chemscore.Rot.Weighted>
4.7153

> <Gold.Chemscore.Internal.Correction.Weighted>
   9.000000E+99

> <Gold.Protein.RotatedTorsions>
[ 6907 6896 6895 6894 ] final   33.89 input  -60.11 | X-H torsion
[ 7974 7965 7964 7962 ] final  -61.80 input  175.53 | X-H torsion
[ 8008 7997 7996 7995 ] final -149.36 input   59.86 | X-H torsion
[ 10167 10162 10161 10158 ] final   70.57 input  -65.29 | X-H torsion
[ 10718 10713 10712 10709 ] final  -53.82 input   66.30 | X-H torsion
[ 10763 10752 10751 10750 ] final -145.54 input  -60.55 | X-H torsion
[ 11005 11000 10999 10996 ] final -111.81 input  -57.11 | X-H torsion

> <Gold.Protein.ActiveResidues>
 VAL166  LYS551  ARG553  GLY616  TRP617  ASP618  TYR619  PRO620  LYS621  CYS622 
 ASP623  PHE694  ASN695  SER759  ASP760  ASP761  ALA762  ILE779  LEU786  VAL792 
 PHE793  MET794  SER795  GLU796  ALA797  LYS798  CYS799  TRP800  GLU811  SER814 

> <Gold.Protein.RotatedAtoms>
  152.0948  134.9382  160.0570 H   0  0  0  0  0  0  0  0  0  0  0  0  # atno 6907 bound_to 6896
  152.0619  133.4061  159.4430 H   0  0  0  0  0  0  0  0  0  0  0  0  # atno 6908 bound_to 6896
  150.6837  134.3110  159.4790 H   0  0  0  0  0  0  0  0  0  0  0  0  # atno 6909 bound_to 6896
  145.7991  140.8666  143.0241 H   0  0  0  0  0  0  0  0  0  0  0  0  # atno 7974 bound_to 7965
  155.6063  140.0667  157.2719 H   0  0  0  0  0  0  0  0  0  0  0  0  # atno 8008 bound_to 7997
  154.4265  140.1809  156.1273 H   0  0  0  0  0  0  0  0  0  0  0  0  # atno 8009 bound_to 7997
  156.0120  140.3325  155.6953 H   0  0  0  0  0  0  0  0  0  0  0  0  # atno 8010 bound_to 7997
  140.0555  144.5276  150.7332 H   0  0  0  0  0  0  0  0  0  0  0  0  # atno 10167 bound_to 10162
  156.1502  130.4151  149.9957 H   0  0  0  0  0  0  0  0  0  0  0  0  # atno 10718 bound_to 10713
  154.8379  135.3410  154.6520 H   0  0  0  0  0  0  0  0  0  0  0  0  # atno 10763 bound_to 10752
  153.7133  135.6962  153.5036 H   0  0  0  0  0  0  0  0  0  0  0  0  # atno 10764 bound_to 10752
  153.2435  135.4376  155.0677 H   0  0  0  0  0  0  0  0  0  0  0  0  # atno 10765 bound_to 10752
  141.0712  133.9376  157.2480 H   0  0  0  0  0  0  0  0  0  0  0  0  # atno 11005 bound_to 11000
  144.6771  140.0233  143.7483 LP  0  0  0  0  0  0  0  0  0  0  0  0  # atno 17320 bound_to 7965
  145.9897  139.3005  143.0992 LP  0  0  0  0  0  0  0  0  0  0  0  0  # atno 17321 bound_to 7965
  140.7197  143.2577  151.4320 LP  0  0  0  0  0  0  0  0  0  0  0  0  # atno 17342 bound_to 10162
  139.5926  144.1466  152.2106 LP  0  0  0  0  0  0  0  0  0  0  0  0  # atno 17343 bound_to 10162
  156.7817  130.9223  151.3646 LP  0  0  0  0  0  0  0  0  0  0  0  0  # atno 17370 bound_to 10713
  157.6651  130.9000  149.9914 LP  0  0  0  0  0  0  0  0  0  0  0  0  # atno 17371 bound_to 10713
  139.9526  135.0172  156.9037 LP  0  0  0  0  0  0  0  0  0  0  0  0  # atno 17394 bound_to 11000
  140.5668  134.0481  155.7417 LP  0  0  0  0  0  0  0  0  0  0  0  0  # atno 17395 bound_to 11000

$$$$
