AV-unprocessed.smi:2709|AV-procd|sdf|10460|dock3
  -GOLD-   2272014503D 1   1.00000     0.00000
 Structure written by MMmdl.
 40 42  0  0  0  0  0  0  0  0  1 V2000
  146.7807  133.1179  151.9189 C   0  0  0  0  0  0  0  0  0  0  0  0
  147.3965  132.0696  152.6491 O   0  0  0  0  0  0  0  0  0  0  0  0
  148.6477  132.4287  153.2190 C   0  0  2  0  0  0  0  0  0  0  0  0
  149.3914  131.2083  153.7791 C   0  0  0  0  0  0  0  0  0  0  0  0
  150.1715  131.7504  154.9712 C   0  0  0  0  0  0  0  0  0  0  0  0
  149.2211  132.7710  155.5945 C   0  0  0  0  0  0  0  0  0  0  0  0
  148.4287  133.3760  154.4219 C   0  0  1  0  0  0  0  0  0  0  0  0
  148.9025  134.7285  154.1388 N   0  0  0  0  0  0  0  0  0  0  0  0
  149.2051  135.6453  155.0683 C   0  0  0  0  0  0  0  0  0  0  0  0
  149.1062  135.4416  156.2773 O   0  0  0  0  0  0  0  0  0  0  0  0
  149.6104  136.7932  154.4991 N   0  0  0  0  0  0  0  0  0  0  0  0
  150.0315  138.0009  155.1199 C   0  0  0  0  0  0  0  0  0  0  0  0
  150.2846  139.1254  154.3064 C   0  0  0  0  0  0  0  0  0  0  0  0
  150.6967  140.3044  154.8188 N   0  0  0  0  0  0  0  0  0  0  0  0
  150.8691  140.3585  156.1419 C   0  0  0  0  0  0  0  0  0  0  0  0
  151.2898  141.6774  156.7122 C   0  0  0  0  0  0  0  0  0  0  0  0
  151.6862  141.8008  158.1693 C   0  0  0  0  0  0  0  0  0  0  0  0
  150.4016  142.4180  157.6913 C   0  0  0  0  0  0  0  0  0  0  0  0
  150.6552  139.3691  157.0129 N   0  0  0  0  0  0  0  0  0  0  0  0
  150.2431  138.1853  156.5091 C   0  0  0  0  0  0  0  0  0  0  0  0
  145.8271  132.7717  151.5208 H   0  0  0  0  0  0  0  0  0  0  0  0
  147.3963  133.4391  151.0782 H   0  0  0  0  0  0  0  0  0  0  0  0
  146.5829  133.9792  152.5581 H   0  0  0  0  0  0  0  0  0  0  0  0
  149.2764  132.9199  152.4730 H   0  0  0  0  0  0  0  0  0  0  0  0
  148.6743  130.4639  154.1284 H   0  0  0  0  0  0  0  0  0  0  0  0
  150.0333  130.7300  153.0389 H   0  0  0  0  0  0  0  0  0  0  0  0
  150.4672  130.9687  155.6716 H   0  0  0  0  0  0  0  0  0  0  0  0
  151.0763  132.2511  154.6238 H   0  0  0  0  0  0  0  0  0  0  0  0
  148.5314  132.2532  156.2624 H   0  0  0  0  0  0  0  0  0  0  0  0
  149.7485  133.5143  156.1939 H   0  0  0  0  0  0  0  0  0  0  0  0
  147.3729  133.4184  154.6976 H   0  0  0  0  0  0  0  0  0  0  0  0
  149.0070  134.9802  153.1670 H   0  0  0  0  0  0  0  0  0  0  0  0
  149.5996  136.8114  153.4899 H   0  0  0  0  0  0  0  0  0  0  0  0
  150.1541  139.0818  153.2351 H   0  0  0  0  0  0  0  0  0  0  0  0
  151.8434  142.2657  155.9827 H   0  0  0  0  0  0  0  0  0  0  0  0
  151.6117  140.9126  158.7939 H   0  0  0  0  0  0  0  0  0  0  0  0
  152.5081  142.4719  158.4097 H   0  0  0  0  0  0  0  0  0  0  0  0
  150.3636  143.5025  157.6120 H   0  0  0  0  0  0  0  0  0  0  0  0
  149.4729  141.9401  157.9972 H   0  0  0  0  0  0  0  0  0  0  0  0
  150.1001  137.4033  157.2371 H   0  0  0  0  0  0  0  0  0  0  0  0
  1  2  1  0  0  0  0
  1 21  1  0  0  0  0
  1 22  1  0  0  0  0
  1 23  1  0  0  0  0
  2  3  1  0  0  0  0
  3  7  1  0  0  0  0
  3  4  1  0  0  0  0
  3 24  1  0  0  0  0
  4  5  1  0  0  0  0
  4 25  1  0  0  0  0
  4 26  1  0  0  0  0
  5  6  1  0  0  0  0
  5 27  1  0  0  0  0
  5 28  1  0  0  0  0
  6  7  1  0  0  0  0
  6 29  1  0  0  0  0
  6 30  1  0  0  0  0
  7  8  1  0  0  0  0
  7 31  1  0  0  0  0
  8  9  1  0  0  0  0
  8 32  1  0  0  0  0
  9 10  2  0  0  0  0
  9 11  1  0  0  0  0
 11 12  1  0  0  0  0
 11 33  1  0  0  0  0
 12 20  1  0  0  0  0
 12 13  2  0  0  0  0
 13 14  1  0  0  0  0
 13 34  1  0  0  0  0
 14 15  2  0  0  0  0
 15 16  1  0  0  0  0
 15 19  1  0  0  0  0
 16 18  1  0  0  0  0
 16 17  1  0  0  0  0
 16 35  1  0  0  0  0
 17 18  1  0  0  0  0
 17 36  1  0  0  0  0
 17 37  1  0  0  0  0
 18 38  1  0  0  0  0
 18 39  1  0  0  0  0
 19 20  2  0  0  0  0
 20 40  1  0  0  0  0
M  END
> <s_m_source_file>
AV-unprocessed.smi

> <i_m_source_file_index>
2709

> <i_lp_mmshare_version>
43012

> <i_f3d_flags>
0

> <s_epik_input>
W0NIM11PW0NAQEhdMVtDSDJdW0NIMl1bQ0gyXVtDQEhdMVtOSF1DKD1PKVtOSF1jMltjSF1uYyhuW2NIXTIpW0NIXTNbQ0gyXVtDSDJdMw==

> <s_epik_cmdline>
J2VwaWtfcHl0aG9uJywgJy1waCcsICc3LjAnLCAnLXRuJywgJzgnLCAnLW1hJywgJzIwMCcsICctbWV0YWxfYmluZGluZycsICctaW1hZScsICc8aW5maWxlLm1hZT4nLCAnLW9tYWUnLCAnPG91dGZpbGUubWFlPic=

> <r_lp_tautomer_probability>
1

> <r_epik_Ionization_Penalty>
2.49969e-05

> <r_epik_Ionization_Penalty_Charging>
0

> <r_epik_Ionization_Penalty_Neutral>
2.49969e-05

> <r_epik_State_Penalty>
-0

> <r_epik_Charging_Adjusted_Penalty>
0

> <i_epik_Tot_Q>
0

> <i_epik_Tot_abs_Q>
0

> <r_epik_Metal_State_Penalty>
-0

> <b_epik_Metal_Only>
0

> <s_lp_Force_Field>
OPLS_2005

> <r_lp_Energy>
17.9033

> <b_lp_Chiralities_Consistent>
1

> <s_lp_Variant>
AV-unprocessed.smi:2709-1

> <Gold.Version>
5.8.1

> <Gold.Id.Protein>
6NUR|6NUR_protein|mol2

> <Gold.PLP.Fitness>
41.1234

> <Gold.PLP.PLP>
-30.0171

> <Gold.PLP.part.hbond>
-3.0000

> <Gold.PLP.part.metal>
0.0000

> <Gold.PLP.part.buried>
-5.0333

> <Gold.PLP.part.nonpolar>
-22.4607

> <Gold.PLP.part.repulsive>
0.2436

> <Gold.PLP.ligand.clash>
0.0000

> <Gold.PLP.ligand.torsion>
0.4325

> <Gold.PLP.Chemscore.Hbond>
2.9500

> <Gold.PLP.Chemscore.CHOScore>
1.0000

> <Gold.PLP.Chemscore.Metal>
0.0000

> <Gold.Chemscore.Hbonds>
donor molecule, donor type, donor heavy atom, donor atom, acceptor molecule, acceptor atom, score
      L1  H     8    32       P1  7948  0.90
      L1  H    11    33       P1  7948  1.00
      P1  H  7989  7998       L1    14  1.00
      L1  C    13    34       P1  7957  1.00

> <Gold.PLP.Chemscore.Internal.Correction>
0.1212

> <Gold.Rescore>
     Score         DG    S(hbond)    S(metal)    S(lipo)     H(rot)  DE(clash)    DE(int)     intcor
     15.27     -17.88       2.50        0.00      65.49       1.41       0.17       2.43       ----

> <Gold.Chemscore.Fitness>
15.2735

> <Gold.Chemscore.DG>
-17.8763

> <Gold.Chemscore.ZeroCoef>
-5.4800

> <Gold.Chemscore.Hbond>
2.4991

> <Gold.Chemscore.Metal>
0.0000

> <Gold.Chemscore.Lipo>
65.4920

> <Gold.Chemscore.Internal_Hbond>
0.0000

> <Gold.Chemscore.DEClash>
0.1741

> <Gold.Chemscore.DEInternal>
2.4287

> <Gold.Chemscore.Rot>
1.4114

> <Gold.Chemscore.Internal.Correction>
   9.000000E+99

> <Gold.Chemscore.Hbonds>
donor molecule, donor type, donor heavy atom, donor atom, acceptor molecule, acceptor atom, score
      L1  H     8    32       P1  7948  0.17
      L1  H    11    33       P1  7948  0.68
      P1  H  7989  7998       L1    14  0.25

> <Gold.Chemscore.Hbond.Weighted>
-8.3470

> <Gold.Chemscore.Metal.Weighted>
-0.0000

> <Gold.Chemscore.Lipo.Weighted>
-7.6626

> <Gold.Chemscore.Internal_Hbond.Weighted>
0.0000

> <Gold.Chemscore.DEClash.Weighted>
0.1741

> <Gold.Chemscore.DEInternal.Weighted>
2.4287

> <Gold.Chemscore.Rot.Weighted>
3.6133

> <Gold.Chemscore.Internal.Correction.Weighted>
   9.000000E+99

> <Gold.Protein.RotatedTorsions>
[ 6907 6896 6895 6894 ] final  128.53 input  -60.11 | X-H torsion
[ 7974 7965 7964 7962 ] final   82.71 input  175.53 | X-H torsion
[ 8008 7997 7996 7995 ] final  156.73 input   59.86 | X-H torsion
[ 10167 10162 10161 10158 ] final  -18.79 input  -65.29 | X-H torsion
[ 10718 10713 10712 10709 ] final   42.37 input   66.30 | X-H torsion
[ 10763 10752 10751 10750 ] final  112.74 input  -60.55 | X-H torsion
[ 11005 11000 10999 10996 ] final   -6.89 input  -57.11 | X-H torsion

> <Gold.Protein.ActiveResidues>
 VAL166  LYS551  ARG553  GLY616  TRP617  ASP618  TYR619  PRO620  LYS621  CYS622 
 ASP623  PHE694  ASN695  SER759  ASP760  ASP761  ALA762  ILE779  LEU786  VAL792 
 PHE793  MET794  SER795  GLU796  ALA797  LYS798  CYS799  TRP800  GLU811  SER814 

> <Gold.Protein.RotatedAtoms>
  152.3710  133.6419  159.6087 H   0  0  0  0  0  0  0  0  0  0  0  0  # atno 6907 bound_to 6896
  150.7669  133.9269  159.3424 H   0  0  0  0  0  0  0  0  0  0  0  0  # atno 6908 bound_to 6896
  151.7092  135.0917  160.0316 H   0  0  0  0  0  0  0  0  0  0  0  0  # atno 6909 bound_to 6896
  145.6215  139.2387  143.2136 H   0  0  0  0  0  0  0  0  0  0  0  0  # atno 7974 bound_to 7965
  156.2405  140.1904  156.7000 H   0  0  0  0  0  0  0  0  0  0  0  0  # atno 8008 bound_to 7997
  154.6189  140.0611  156.9616 H   0  0  0  0  0  0  0  0  0  0  0  0  # atno 8009 bound_to 7997
  155.1894  140.3283  155.4364 H   0  0  0  0  0  0  0  0  0  0  0  0  # atno 8010 bound_to 7997
  140.7262  143.4882  151.0027 H   0  0  0  0  0  0  0  0  0  0  0  0  # atno 10167 bound_to 10162
  157.4041  130.7876  149.7373 H   0  0  0  0  0  0  0  0  0  0  0  0  # atno 10718 bound_to 10713
  153.4823  135.3677  155.2449 H   0  0  0  0  0  0  0  0  0  0  0  0  # atno 10763 bound_to 10752
  154.8755  135.3957  154.3685 H   0  0  0  0  0  0  0  0  0  0  0  0  # atno 10764 bound_to 10752
  153.4291  135.7082  153.6308 H   0  0  0  0  0  0  0  0  0  0  0  0  # atno 10765 bound_to 10752
  140.7069  133.8942  155.8722 H   0  0  0  0  0  0  0  0  0  0  0  0  # atno 11005 bound_to 11000
  146.1427  140.7035  142.9359 LP  0  0  0  0  0  0  0  0  0  0  0  0  # atno 17320 bound_to 7965
  144.7229  140.4432  143.6994 LP  0  0  0  0  0  0  0  0  0  0  0  0  # atno 17321 bound_to 7965
  139.8584  143.7346  152.3175 LP  0  0  0  0  0  0  0  0  0  0  0  0  # atno 17342 bound_to 10162
  139.7553  144.7522  151.0445 LP  0  0  0  0  0  0  0  0  0  0  0  0  # atno 17343 bound_to 10162
  155.9831  130.4003  150.3380 LP  0  0  0  0  0  0  0  0  0  0  0  0  # atno 17370 bound_to 10713
  157.1510  131.0321  151.2885 LP  0  0  0  0  0  0  0  0  0  0  0  0  # atno 17371 bound_to 10713
  141.0117  134.1011  157.4214 LP  0  0  0  0  0  0  0  0  0  0  0  0  # atno 17394 bound_to 11000
  139.8882  135.0096  156.6605 LP  0  0  0  0  0  0  0  0  0  0  0  0  # atno 17395 bound_to 11000

$$$$
