#       Name:                AV-unprocessed.smi:1033
#       Creating user name   scv26
#       Creation time:       Fri Mar 27 02:52:20 2020


#       File generated by GOLD software.
#

@<TRIPOS>MOLECULE
AV-unprocessed.smi:1033
    62    64     1
SMALL
NO_CHARGES


@<TRIPOS>ATOM
      1 ****        -6.4718   3.2859  -3.7663 C.3            1 S1                 0.0000
      2 ****        -5.4130   2.9575  -2.7283 C.ar           1 S1                 0.0000
      3 ****        -5.8167   2.4546  -1.4710 C.ar           1 S1                 0.0000
      4 ****        -4.8642   2.1379  -0.4780 C.ar           1 S1                 0.0000
      5 ****        -5.0324   1.6389   0.8023 N.2            1 S1                 0.0000
      6 ****        -3.7750   1.5599   1.2269 C.2            1 S1                 0.0000
      7 ****        -2.8092   1.9439   0.3702 N.pl3          1 S1                 0.0000
      8 ****        -1.3771   1.9425   0.6110 C.3            1 S1                 0.0000
      9 ****        -0.7421   0.5577   0.3808 C.3            1 S1                 0.0000
     10 ****        -0.9638   0.1556  -0.9576 O.3            1 S1                 0.0000
     11 ****         0.7774   0.5764   0.6397 C.3            1 S1                 0.0000
     12 ****         1.3951  -0.7688   0.5100 N.4            1 S1                 1.0000
     13 ****         1.1698  -1.6420   1.6905 C.3            1 S1                 0.0000
     14 ****         1.7471  -3.0505   1.4527 C.3            1 S1                 0.0000
     15 ****         3.1898  -3.0061   1.1044 N.4            1 S1                 1.0000
     16 ****         4.0770  -2.7644   2.2746 C.3            1 S1                 0.0000
     17 ****         5.4986  -3.3274   2.0730 C.3            1 S1                 0.0000
     18 ****         6.4389  -2.9181   3.2140 C.3            1 S1                 0.0000
     19 ****         5.4453  -4.7395   2.0433 O.3            1 S1                 0.0000
     20 ****         3.4315  -2.1067  -0.0550 C.3            1 S1                 0.0000
     21 ****         2.8357  -0.6997   0.1598 C.3            1 S1                 0.0000
     22 ****        -3.4853   2.3396  -0.7793 C.ar           1 S1                 0.0000
     23 ****        -3.0712   2.8381  -2.0272 C.ar           1 S1                 0.0000
     24 ****        -4.0362   3.1503  -3.0076 C.ar           1 S1                 0.0000
     25 ****        -3.5790   3.6888  -4.3518 C.3            1 S1                 0.0000
     26 ****        -7.4702   3.0283  -3.4120 H              1 S1                 0.0000
     27 ****        -6.2913   2.7309  -4.6870 H              1 S1                 0.0000
     28 ****        -6.4622   4.3516  -3.9960 H              1 S1                 0.0000
     29 ****        -6.8655   2.3076  -1.2581 H              1 S1                 0.0000
     30 ****        -3.5417   1.1992   2.2182 H              1 S1                 0.0000
     31 ****        -0.9137   2.6904  -0.0339 H              1 S1                 0.0000
     32 ****        -1.2055   2.2693   1.6375 H              1 S1                 0.0000
     33 ****        -1.2331  -0.1600   1.0376 H              1 S1                 0.0000
     34 ****        -1.8927   0.1941  -1.1336 H              1 S1                 0.0000
     35 ****         1.2377   1.2625  -0.0735 H              1 S1                 0.0000
     36 ****         0.9943   0.9802   1.6298 H              1 S1                 0.0000
     37 ****         1.6248  -1.1904   2.5735 H              1 S1                 0.0000
     38 ****         0.1040  -1.7289   1.8987 H              1 S1                 0.0000
     39 ****         1.5839  -3.6865   2.3236 H              1 S1                 0.0000
     40 ****         1.2111  -3.5253   0.6298 H              1 S1                 0.0000
     41 ****         4.1216  -1.6968   2.4897 H              1 S1                 0.0000
     42 ****         3.6488  -3.2284   3.1648 H              1 S1                 0.0000
     43 ****         5.9300  -2.9795   1.1352 H              1 S1                 0.0000
     44 ****         6.5361  -1.8336   3.2707 H              1 S1                 0.0000
     45 ****         7.4383  -3.3293   3.0668 H              1 S1                 0.0000
     46 ****         6.0733  -3.2702   4.1795 H              1 S1                 0.0000
     47 ****         5.0546  -5.0187   1.2297 H              1 S1                 0.0000
     48 ****         4.4945  -2.0363  -0.2827 H              1 S1                 0.0000
     49 ****         2.9674  -2.5593  -0.9325 H              1 S1                 0.0000
     50 ****         2.9605  -0.1187  -0.7549 H              1 S1                 0.0000
     51 ****         3.3765  -0.1662   0.9427 H              1 S1                 0.0000
     52 ****        -2.0197   2.9789  -2.2288 H              1 S1                 0.0000
     53 ****        -2.4981   3.8307  -4.3767 H              1 S1                 0.0000
     54 ****        -4.0462   4.6517  -4.5591 H              1 S1                 0.0000
     55 ****        -3.8447   2.9955  -5.1499 H              1 S1                 0.0000
     56 ****         3.4207  -3.9403   0.7965 H              1 S1                 0.0000
     57 ****         0.9362  -1.2076  -0.2763 H              1 S1                 0.0000
     58 ****        -5.8771   1.4006   1.2815 LP             1 S1                 0.0000
     59 ****        -0.6345  -0.7796  -1.0875 LP             1 S1                 0.0000
     60 ****        -0.4772   0.7696  -1.5791 LP             1 S1                 0.0000
     61 ****         4.8941  -5.0695   2.8096 LP             1 S1                 0.0000
     62 ****         6.3711  -5.1107   2.1144 LP             1 S1                 0.0000
@<TRIPOS>BOND
    1    1    2 1     
    2    1   26 1     
    3    1   27 1     
    4    1   28 1     
    5    2   24 ar    
    6    2    3 ar    
    7    3    4 ar    
    8    3   29 1     
    9    4   22 ar    
   10    4    5 1     
   11    5    6 2     
   12    6    7 1     
   13    6   30 1     
   14    7    8 1     
   15    7   22 1     
   16    8    9 1     
   17    8   31 1     
   18    8   32 1     
   19    9   10 1     
   20    9   11 1     
   21    9   33 1     
   22   10   34 1     
   23   11   12 1     
   24   11   35 1     
   25   11   36 1     
   26   12   21 1     
   27   12   13 1     
   28   12   57 1     
   29   13   14 1     
   30   13   37 1     
   31   13   38 1     
   32   14   15 1     
   33   14   39 1     
   34   14   40 1     
   35   15   16 1     
   36   15   20 1     
   37   15   56 1     
   38   16   17 1     
   39   16   41 1     
   40   16   42 1     
   41   17   18 1     
   42   17   19 1     
   43   17   43 1     
   44   18   44 1     
   45   18   45 1     
   46   18   46 1     
   47   19   47 1     
   48   20   21 1     
   49   20   48 1     
   50   20   49 1     
   51   21   50 1     
   52   21   51 1     
   53   22   23 ar    
   54   23   24 ar    
   55   23   52 1     
   56   24   25 1     
   57   25   53 1     
   58   25   54 1     
   59   25   55 1     
   60    5   58 1     
   61   10   59 1     
   62   10   60 1     
   63   19   61 1     
   64   19   62 1     
@<TRIPOS>SUBSTRUCTURE
      1 S1             1
@<TRIPOS>SET
LONE_PAIRS      STATIC     ATOMS    <user>   **** ""
5 58 59 60 61 62
DONOR_HYDROGENS      STATIC     ATOMS    <user>   **** ""
4 34 57 56 47
ATOM$BLUE        STATIC     ATOMS    COLORGROUP SYSTEM
5 58 59 60 61 62
ATOM$RED        STATIC     ATOMS    COLORGROUP SYSTEM
4 34 57 56 47
