AV-unprocessed.smi:686|AV-procd|sdf|3347|dock10
  -GOLD-   22720 0323D 1   1.00000     0.00000
 Structure written by MMmdl.
 40 41  0  0  0  0  0  0  0  0  3 V2000
  152.6682  138.7568  155.0447 C   0  0  0  0  0  0  0  0  0  0  0  0
  151.3554  139.3772  155.5609 C   0  0  2  0  0  0  0  0  0  0  0  0
  150.2157  139.3201  154.5417 C   0  0  0  0  0  0  0  0  0  0  0  0
  149.2244  140.3073  155.0223 N   0  3  2  0  0  0  0  0  0  0  0  0
  148.2386  140.7801  154.0089 C   0  0  0  0  0  0  0  0  0  0  0  0
  147.3844  141.9367  154.5618 C   0  0  0  0  0  0  0  0  0  0  0  0
  147.3171  139.6399  153.5360 C   0  0  0  0  0  0  0  0  0  0  0  0
  149.9808  141.3779  155.7196 C   0  0  0  0  0  0  0  0  0  0  0  0
  151.4234  140.8727  155.9120 C   0  0  1  0  0  0  0  0  0  0  0  0
  151.8958  141.0747  157.2763 N   0  5  0  0  0  0  0  0  0  0  0  0
  152.0996  139.8240  158.2981 S   0  0  0  0  0  0  0  0  0  0  0  0
  150.8352  139.2641  158.8063 O   0  0  0  0  0  0  0  0  0  0  0  0
  153.0748  138.8618  157.7634 O   0  0  0  0  0  0  0  0  0  0  0  0
  152.9371  140.6267  159.7405 C   0  0  0  0  0  0  0  0  0  0  0  0
  152.5794  142.0859  159.7994 C   0  0  0  0  0  0  0  0  0  0  0  0
  153.4052  143.2131  159.5311 C   0  0  0  0  0  0  0  0  0  0  0  0
  152.5746  144.2754  159.7419 C   0  0  0  0  0  0  0  0  0  0  0  0
  151.3432  143.8483  160.1187 O   0  0  0  0  0  0  0  0  0  0  0  0
  151.3570  142.4493  160.1559 N   0  0  0  0  0  0  0  0  0  0  0  0
  153.0343  139.2510  154.1428 H   0  0  0  0  0  0  0  0  0  0  0  0
  152.5207  137.7052  154.7981 H   0  0  0  0  0  0  0  0  0  0  0  0
  153.4596  138.8015  155.7952 H   0  0  0  0  0  0  0  0  0  0  0  0
  151.0330  138.8186  156.4425 H   0  0  0  0  0  0  0  0  0  0  0  0
  150.5636  139.5908  153.5408 H   0  0  0  0  0  0  0  0  0  0  0  0
  149.7827  138.3209  154.4815 H   0  0  0  0  0  0  0  0  0  0  0  0
  148.7933  141.1470  153.1438 H   0  0  0  0  0  0  0  0  0  0  0  0
  146.6498  142.2657  153.8261 H   0  0  0  0  0  0  0  0  0  0  0  0
  147.9872  142.8081  154.8171 H   0  0  0  0  0  0  0  0  0  0  0  0
  146.8409  141.6339  155.4575 H   0  0  0  0  0  0  0  0  0  0  0  0
  146.5713  140.0087  152.8313 H   0  0  0  0  0  0  0  0  0  0  0  0
  146.7841  139.1875  154.3729 H   0  0  0  0  0  0  0  0  0  0  0  0
  147.8700  138.8524  153.0240 H   0  0  0  0  0  0  0  0  0  0  0  0
  149.9979  142.3010  155.1380 H   0  0  0  0  0  0  0  0  0  0  0  0
  149.4802  141.5967  156.6642 H   0  0  0  0  0  0  0  0  0  0  0  0
  152.0604  141.3663  155.1768 H   0  0  0  0  0  0  0  0  0  0  0  0
  152.6235  140.1065  160.6462 H   0  0  0  0  0  0  0  0  0  0  0  0
  154.0140  140.4989  159.6397 H   0  0  0  0  0  0  0  0  0  0  0  0
  154.4404  143.2362  159.2243 H   0  0  0  0  0  0  0  0  0  0  0  0
  152.7052  145.3450  159.6706 H   0  0  0  0  0  0  0  0  0  0  0  0
  148.7019  139.8339  155.7453 H   0  0  0  0  0  0  0  0  0  0  0  0
  1  2  1  0  0  0  0
  1 20  1  0  0  0  0
  1 21  1  0  0  0  0
  1 22  1  0  0  0  0
  2  9  1  0  0  0  0
  2  3  1  0  0  0  0
  2 23  1  0  0  0  0
  3  4  1  0  0  0  0
  3 24  1  0  0  0  0
  3 25  1  0  0  0  0
  4  5  1  0  0  0  0
  4  8  1  0  0  0  0
  4 40  1  0  0  0  0
  5  6  1  0  0  0  0
  5  7  1  0  0  0  0
  5 26  1  0  0  0  0
  6 27  1  0  0  0  0
  6 28  1  0  0  0  0
  6 29  1  0  0  0  0
  7 30  1  0  0  0  0
  7 31  1  0  0  0  0
  7 32  1  0  0  0  0
  8  9  1  0  0  0  0
  8 33  1  0  0  0  0
  8 34  1  0  0  0  0
  9 10  1  0  0  0  0
  9 35  1  0  0  0  0
 10 11  1  0  0  0  0
 11 12  2  0  0  0  0
 11 13  2  0  0  0  0
 11 14  1  0  0  0  0
 14 15  1  0  0  0  0
 14 36  1  0  0  0  0
 14 37  1  0  0  0  0
 15 19  2  0  0  0  0
 15 16  1  0  0  0  0
 16 17  2  0  0  0  0
 16 38  1  0  0  0  0
 17 18  1  0  0  0  0
 17 39  1  0  0  0  0
 18 19  1  0  0  0  0
M  CHG  1   4   1
M  CHG  1  10  -1
M  END
> <s_m_source_file>
AV-unprocessed.smi

> <i_m_source_file_index>
686

> <i_lp_mmshare_version>
43012

> <i_f3d_flags>
0

> <s_epik_input>
W0NIM11bQ0BASF0xW0NIMl1OKFtDSF0oW0NIM10pW0NIM10pW0NIMl1bQ0BIXTFbTkhdUyg9TykoPU8pW0NIMl1jMltjSF1bY0hdb24y

> <s_epik_cmdline>
J2VwaWtfcHl0aG9uJywgJy1waCcsICc3LjAnLCAnLXRuJywgJzgnLCAnLW1hJywgJzIwMCcsICctbWV0YWxfYmluZGluZycsICctaW1hZScsICc8aW5maWxlLm1hZT4nLCAnLW9tYWUnLCAnPG91dGZpbGUubWFlPic=

> <r_epik_Ionization_Penalty>
3.62478

> <r_epik_Ionization_Penalty_Charging>
3.62478

> <r_epik_Ionization_Penalty_Neutral>
2.03645e-10

> <r_epik_State_Penalty>
3.6247

> <r_epik_Charging_Adjusted_Penalty>
7.24949

> <i_epik_Tot_Q>
0

> <i_epik_Tot_abs_Q>
2

> <r_epik_Metal_State_Penalty>
0.530836

> <b_epik_Metal_Only>
1

> <s_lp_Force_Field>
OPLS_2005

> <r_lp_Energy>
16.7108

> <b_lp_Chiralities_Consistent>
1

> <s_lp_Variant>
AV-unprocessed.smi:686-11

> <Gold.Version>
5.8.1

> <Gold.Id.Protein>
6NUR|6NUR_protein|mol2

> <Gold.PLP.Fitness>
40.5998

> <Gold.PLP.PLP>
-39.4432

> <Gold.PLP.part.hbond>
-2.0000

> <Gold.PLP.part.metal>
0.0000

> <Gold.PLP.part.buried>
-3.1590

> <Gold.PLP.part.nonpolar>
-34.0356

> <Gold.PLP.part.repulsive>
0.1987

> <Gold.PLP.ligand.clash>
0.0000

> <Gold.PLP.ligand.torsion>
1.4466

> <Gold.PLP.Chemscore.Hbond>
1.0000

> <Gold.PLP.Chemscore.CHOScore>
0.0000

> <Gold.PLP.Chemscore.Metal>
0.0000

> <Gold.Chemscore.Hbonds>
donor molecule, donor type, donor heavy atom, donor atom, acceptor molecule, acceptor atom, score
      P1  H  7997  8010       L1    13  0.98

> <Gold.PLP.Chemscore.Internal.Correction>
1.0499

> <Gold.Rescore>
     Score         DG    S(hbond)    S(metal)    S(lipo)     H(rot)  DE(clash)    DE(int)     intcor
     12.27     -16.46       0.99        0.00     100.85       1.61       0.26       3.93       ----

> <Gold.Chemscore.Fitness>
12.2734

> <Gold.Chemscore.DG>
-16.4642

> <Gold.Chemscore.ZeroCoef>
-5.4800

> <Gold.Chemscore.Hbond>
0.9937

> <Gold.Chemscore.Metal>
0.0000

> <Gold.Chemscore.Lipo>
100.8485

> <Gold.Chemscore.Internal_Hbond>
0.0000

> <Gold.Chemscore.DEClash>
0.2598

> <Gold.Chemscore.DEInternal>
3.9310

> <Gold.Chemscore.Rot>
1.6149

> <Gold.Chemscore.Internal.Correction>
   9.000000E+99

> <Gold.Chemscore.Hbonds>
donor molecule, donor type, donor heavy atom, donor atom, acceptor molecule, acceptor atom, score
      P1  H  7997  8010       L1    13  0.41

> <Gold.Chemscore.Hbond.Weighted>
-3.3190

> <Gold.Chemscore.Metal.Weighted>
-0.0000

> <Gold.Chemscore.Lipo.Weighted>
-11.7993

> <Gold.Chemscore.Internal_Hbond.Weighted>
0.0000

> <Gold.Chemscore.DEClash.Weighted>
0.2598

> <Gold.Chemscore.DEInternal.Weighted>
3.9310

> <Gold.Chemscore.Rot.Weighted>
4.1341

> <Gold.Chemscore.Internal.Correction.Weighted>
   9.000000E+99

> <Gold.Protein.RotatedTorsions>
[ 6907 6896 6895 6894 ] final  136.21 input  -60.11 | X-H torsion
[ 7974 7965 7964 7962 ] final  111.58 input  175.53 | X-H torsion
[ 8008 7997 7996 7995 ] final   42.50 input   59.86 | X-H torsion
[ 10167 10162 10161 10158 ] final   57.67 input  -65.29 | X-H torsion
[ 10718 10713 10712 10709 ] final -143.70 input   66.30 | X-H torsion
[ 10763 10752 10751 10750 ] final  -13.85 input  -60.55 | X-H torsion
[ 11005 11000 10999 10996 ] final  -13.13 input  -57.11 | X-H torsion

> <Gold.Protein.ActiveResidues>
 VAL166  LYS551  ARG553  GLY616  TRP617  ASP618  TYR619  PRO620  LYS621  CYS622 
 ASP623  PHE694  ASN695  SER759  ASP760  ASP761  ALA762  ILE779  LEU786  VAL792 
 PHE793  MET794  SER795  GLU796  ALA797  LYS798  CYS799  TRP800  GLU811  SER814 

> <Gold.Protein.RotatedAtoms>
  152.2919  133.5569  159.5562 H   0  0  0  0  0  0  0  0  0  0  0  0  # atno 6907 bound_to 6896
  150.7239  134.0416  159.3776 H   0  0  0  0  0  0  0  0  0  0  0  0  # atno 6908 bound_to 6896
  151.8322  135.0618  160.0489 H   0  0  0  0  0  0  0  0  0  0  0  0  # atno 6909 bound_to 6896
  145.2404  139.2781  143.4120 H   0  0  0  0  0  0  0  0  0  0  0  0  # atno 7974 bound_to 7965
  155.2872  140.3376  155.4254 H   0  0  0  0  0  0  0  0  0  0  0  0  # atno 8008 bound_to 7997
  156.2063  140.1752  156.7833 H   0  0  0  0  0  0  0  0  0  0  0  0  # atno 8009 bound_to 7997
  154.5625  140.0685  156.8825 H   0  0  0  0  0  0  0  0  0  0  0  0  # atno 8010 bound_to 7997
  140.1955  144.4042  150.6552 H   0  0  0  0  0  0  0  0  0  0  0  0  # atno 10167 bound_to 10162
  156.3611  130.7739  151.1906 H   0  0  0  0  0  0  0  0  0  0  0  0  # atno 10718 bound_to 10713
  153.5195  135.7016  153.5739 H   0  0  0  0  0  0  0  0  0  0  0  0  # atno 10763 bound_to 10752
  153.3794  135.3924  155.1846 H   0  0  0  0  0  0  0  0  0  0  0  0  # atno 10764 bound_to 10752
  154.8696  135.3831  154.4683 H   0  0  0  0  0  0  0  0  0  0  0  0  # atno 10765 bound_to 10752
  140.7729  133.8424  155.9223 H   0  0  0  0  0  0  0  0  0  0  0  0  # atno 11005 bound_to 11000
  146.3330  140.2766  142.8608 LP  0  0  0  0  0  0  0  0  0  0  0  0  # atno 17320 bound_to 7965
  144.9594  140.8259  143.5523 LP  0  0  0  0  0  0  0  0  0  0  0  0  # atno 17321 bound_to 7965
  140.6426  143.2207  151.6256 LP  0  0  0  0  0  0  0  0  0  0  0  0  # atno 17342 bound_to 10162
  139.5238  144.3122  152.0983 LP  0  0  0  0  0  0  0  0  0  0  0  0  # atno 17343 bound_to 10162
  157.7473  131.0399  150.4575 LP  0  0  0  0  0  0  0  0  0  0  0  0  # atno 17370 bound_to 10713
  156.4786  130.4068  149.6475 LP  0  0  0  0  0  0  0  0  0  0  0  0  # atno 17371 bound_to 10713
  140.9557  134.1721  157.4694 LP  0  0  0  0  0  0  0  0  0  0  0  0  # atno 17394 bound_to 11000
  139.8753  134.9926  156.5603 LP  0  0  0  0  0  0  0  0  0  0  0  0  # atno 17395 bound_to 11000

$$$$
