AV-unprocessed.smi:1158|AV-procd|sdf|4911|dock10
  -GOLD-   22720 3493D 1   1.00000     0.00000
 Structure written by MMmdl.
 42 43  0  0  0  0  0  0  0  0  1 V2000
  147.2971  132.5719  152.5608 C   0  0  0  0  0  0  0  0  0  0  0  0
  148.3740  133.4043  152.9778 O   0  0  0  0  0  0  0  0  0  0  0  0
  149.1365  133.0050  154.0590 C   0  0  0  0  0  0  0  0  0  0  0  0
  149.1448  131.6894  154.3904 N   0  0  0  0  0  0  0  0  0  0  0  0
  149.8917  131.2959  155.4420 C   0  0  0  0  0  0  0  0  0  0  0  0
  150.6697  132.1823  156.2083 C   0  0  0  0  0  0  0  0  0  0  0  0
  150.6642  133.5472  155.8663 C   0  0  0  0  0  0  0  0  0  0  0  0
  149.8722  133.9794  154.7742 C   0  0  0  0  0  0  0  0  0  0  0  0
  149.7990  135.3297  154.3308 N   0  0  0  0  0  0  0  0  0  0  0  0
  150.1606  136.4533  154.9738 C   0  0  0  0  0  0  0  0  0  0  0  0
  150.6380  136.5074  156.1068 O   0  0  0  0  0  0  0  0  0  0  0  0
  149.9204  137.5363  154.2211 N   0  0  0  0  0  0  0  0  0  0  0  0
  150.1922  138.9150  154.6171 C   0  0  0  0  0  0  0  0  0  0  0  0
  151.5396  138.9938  155.3485 C   0  0  0  0  0  0  0  0  0  0  0  0
  151.7885  140.4104  155.8946 C   0  0  0  0  0  0  0  0  0  0  0  0
  150.7170  140.8037  156.8132 N   0  0  0  0  0  0  0  0  0  0  0  0
  151.0373  142.1162  157.3739 C   0  0  0  0  0  0  0  0  0  0  0  0
  151.6689  142.0210  158.7735 C   0  0  0  0  0  0  0  0  0  0  0  0
  152.7482  141.2390  158.7510 F   0  0  0  0  0  0  0  0  0  0  0  0
  152.0254  143.2379  159.1821 F   0  0  0  0  0  0  0  0  0  0  0  0
  149.4417  140.8413  156.0898 C   0  0  0  0  0  0  0  0  0  0  0  0
  149.0877  139.4455  155.5462 C   0  0  0  0  0  0  0  0  0  0  0  0
  146.8048  133.0236  151.6998 H   0  0  0  0  0  0  0  0  0  0  0  0
  146.5499  132.4609  153.3479 H   0  0  0  0  0  0  0  0  0  0  0  0
  147.6502  131.5848  152.2591 H   0  0  0  0  0  0  0  0  0  0  0  0
  149.8730  130.2418  155.6760 H   0  0  0  0  0  0  0  0  0  0  0  0
  151.2610  131.8229  157.0375 H   0  0  0  0  0  0  0  0  0  0  0  0
  151.2760  134.2252  156.4399 H   0  0  0  0  0  0  0  0  0  0  0  0
  149.3594  135.4595  153.4313 H   0  0  0  0  0  0  0  0  0  0  0  0
  149.5227  137.3982  153.3036 H   0  0  0  0  0  0  0  0  0  0  0  0
  150.2470  139.5468  153.7284 H   0  0  0  0  0  0  0  0  0  0  0  0
  151.5615  138.2795  156.1732 H   0  0  0  0  0  0  0  0  0  0  0  0
  152.3482  138.7124  154.6730 H   0  0  0  0  0  0  0  0  0  0  0  0
  152.7448  140.4250  156.4189 H   0  0  0  0  0  0  0  0  0  0  0  0
  151.8627  141.1260  155.0740 H   0  0  0  0  0  0  0  0  0  0  0  0
  151.7517  142.6174  156.7191 H   0  0  0  0  0  0  0  0  0  0  0  0
  150.1444  142.7432  157.3984 H   0  0  0  0  0  0  0  0  0  0  0  0
  150.9878  141.6285  159.5273 H   0  0  0  0  0  0  0  0  0  0  0  0
  148.6398  141.1651  156.7515 H   0  0  0  0  0  0  0  0  0  0  0  0
  149.4925  141.5630  155.2729 H   0  0  0  0  0  0  0  0  0  0  0  0
  148.1374  139.4906  155.0131 H   0  0  0  0  0  0  0  0  0  0  0  0
  148.9411  138.7595  156.3821 H   0  0  0  0  0  0  0  0  0  0  0  0
  1  2  1  0  0  0  0
  1 23  1  0  0  0  0
  1 24  1  0  0  0  0
  1 25  1  0  0  0  0
  2  3  1  0  0  0  0
  3  8  1  0  0  0  0
  3  4  2  0  0  0  0
  4  5  1  0  0  0  0
  5  6  2  0  0  0  0
  5 26  1  0  0  0  0
  6  7  1  0  0  0  0
  6 27  1  0  0  0  0
  7  8  2  0  0  0  0
  7 28  1  0  0  0  0
  8  9  1  0  0  0  0
  9 10  1  0  0  0  0
  9 29  1  0  0  0  0
 10 11  2  0  0  0  0
 10 12  1  0  0  0  0
 12 13  1  0  0  0  0
 12 30  1  0  0  0  0
 13 22  1  0  0  0  0
 13 14  1  0  0  0  0
 13 31  1  0  0  0  0
 14 15  1  0  0  0  0
 14 32  1  0  0  0  0
 14 33  1  0  0  0  0
 15 16  1  0  0  0  0
 15 34  1  0  0  0  0
 15 35  1  0  0  0  0
 16 17  1  0  0  0  0
 16 21  1  0  0  0  0
 17 18  1  0  0  0  0
 17 36  1  0  0  0  0
 17 37  1  0  0  0  0
 18 19  1  0  0  0  0
 18 20  1  0  0  0  0
 18 38  1  0  0  0  0
 21 22  1  0  0  0  0
 21 39  1  0  0  0  0
 21 40  1  0  0  0  0
 22 41  1  0  0  0  0
 22 42  1  0  0  0  0
M  END
> <s_m_source_file>
AV-unprocessed.smi

> <i_m_source_file_index>
1158

> <i_lp_mmshare_version>
43012

> <i_f3d_flags>
0

> <s_epik_input>
W0NIM11PYzFuW2NIXVtjSF1bY0hdYzFbTkhdQyg9TylbTkhdW0NIXTJbQ0gyXVtDSDJdTihbQ0gyXVtDSF0oRilGKVtDSDJdW0NIMl0y

> <s_epik_cmdline>
J2VwaWtfcHl0aG9uJywgJy1waCcsICc3LjAnLCAnLXRuJywgJzgnLCAnLW1hJywgJzIwMCcsICctbWV0YWxfYmluZGluZycsICctaW1hZScsICc8aW5maWxlLm1hZT4nLCAnLW9tYWUnLCAnPG91dGZpbGUubWFlPic=

> <r_lp_tautomer_probability>
1

> <r_epik_Ionization_Penalty>
0.177131

> <r_epik_Ionization_Penalty_Charging>
0

> <r_epik_Ionization_Penalty_Neutral>
0.177131

> <r_epik_State_Penalty>
0.166485

> <r_epik_Charging_Adjusted_Penalty>
0.166485

> <i_epik_Tot_Q>
0

> <i_epik_Tot_abs_Q>
0

> <r_epik_Metal_State_Penalty>
0.166483

> <b_epik_Metal_Only>
0

> <s_lp_Force_Field>
OPLS_2005

> <r_lp_Energy>
18.3974

> <b_lp_Chiralities_Consistent>
1

> <s_lp_Variant>
AV-unprocessed.smi:1158-1

> <Gold.Version>
5.8.1

> <Gold.Id.Protein>
6NUR|6NUR_protein|mol2

> <Gold.PLP.Fitness>
39.8884

> <Gold.PLP.PLP>
-36.2545

> <Gold.PLP.part.hbond>
-2.3330

> <Gold.PLP.part.metal>
0.0000

> <Gold.PLP.part.buried>
-5.5399

> <Gold.PLP.part.nonpolar>
-29.5501

> <Gold.PLP.part.repulsive>
0.8743

> <Gold.PLP.ligand.clash>
0.0000

> <Gold.PLP.ligand.torsion>
1.1931

> <Gold.PLP.Chemscore.Hbond>
2.0000

> <Gold.PLP.Chemscore.CHOScore>
0.0000

> <Gold.PLP.Chemscore.Metal>
0.0000

> <Gold.Chemscore.Hbonds>
donor molecule, donor type, donor heavy atom, donor atom, acceptor molecule, acceptor atom, score
      L1  H     9    29       P1  7948  0.95
      L1  H    12    30       P1  7948  1.00

> <Gold.PLP.Chemscore.Internal.Correction>
0.0200

> <Gold.Rescore>
     Score         DG    S(hbond)    S(metal)    S(lipo)     H(rot)  DE(clash)    DE(int)     intcor
     11.31     -15.20       1.59        0.00      71.59       1.55       0.05       3.84       ----

> <Gold.Chemscore.Fitness>
11.3122

> <Gold.Chemscore.DG>
-15.2041

> <Gold.Chemscore.ZeroCoef>
-5.4800

> <Gold.Chemscore.Hbond>
1.5930

> <Gold.Chemscore.Metal>
0.0000

> <Gold.Chemscore.Lipo>
71.5885

> <Gold.Chemscore.Internal_Hbond>
0.0000

> <Gold.Chemscore.DEClash>
0.0522

> <Gold.Chemscore.DEInternal>
3.8397

> <Gold.Chemscore.Rot>
1.5517

> <Gold.Chemscore.Internal.Correction>
   9.000000E+99

> <Gold.Chemscore.Hbonds>
donor molecule, donor type, donor heavy atom, donor atom, acceptor molecule, acceptor atom, score
      L1  H     9    29       P1  7948  0.21
      L1  H    12    30       P1  7948  0.84

> <Gold.Chemscore.Hbond.Weighted>
-5.3206

> <Gold.Chemscore.Metal.Weighted>
-0.0000

> <Gold.Chemscore.Lipo.Weighted>
-8.3759

> <Gold.Chemscore.Internal_Hbond.Weighted>
0.0000

> <Gold.Chemscore.DEClash.Weighted>
0.0522

> <Gold.Chemscore.DEInternal.Weighted>
3.8397

> <Gold.Chemscore.Rot.Weighted>
3.9723

> <Gold.Chemscore.Internal.Correction.Weighted>
   9.000000E+99

> <Gold.Protein.RotatedTorsions>
[ 6907 6896 6895 6894 ] final  145.39 input  -60.11 | X-H torsion
[ 7974 7965 7964 7962 ] final  -36.08 input  175.53 | X-H torsion
[ 8008 7997 7996 7995 ] final   51.63 input   59.86 | X-H torsion
[ 10167 10162 10161 10158 ] final  113.61 input  -65.29 | X-H torsion
[ 10718 10713 10712 10709 ] final   91.89 input   66.30 | X-H torsion
[ 10763 10752 10751 10750 ] final  -32.58 input  -60.55 | X-H torsion
[ 11005 11000 10999 10996 ] final  123.18 input  -57.11 | X-H torsion

> <Gold.Protein.ActiveResidues>
 VAL166  LYS551  ARG553  GLY616  TRP617  ASP618  TYR619  PRO620  LYS621  CYS622 
 ASP623  PHE694  ASN695  SER759  ASP760  ASP761  ALA762  ILE779  LEU786  VAL792 
 PHE793  MET794  SER795  GLU796  ALA797  LYS798  CYS799  TRP800  GLU811  SER814 

> <Gold.Protein.RotatedAtoms>
  152.1815  133.4711  159.4960 H   0  0  0  0  0  0  0  0  0  0  0  0  # atno 6907 bound_to 6896
  150.6935  134.1827  159.4264 H   0  0  0  0  0  0  0  0  0  0  0  0  # atno 6908 bound_to 6896
  151.9738  135.0063  160.0605 H   0  0  0  0  0  0  0  0  0  0  0  0  # atno 6909 bound_to 6896
  146.0692  140.6235  142.8960 H   0  0  0  0  0  0  0  0  0  0  0  0  # atno 7974 bound_to 7965
  155.4384  140.3453  155.4287 H   0  0  0  0  0  0  0  0  0  0  0  0  # atno 8008 bound_to 7997
  156.1294  140.1509  156.9119 H   0  0  0  0  0  0  0  0  0  0  0  0  # atno 8009 bound_to 7997
  154.4883  140.0849  156.7516 H   0  0  0  0  0  0  0  0  0  0  0  0  # atno 8010 bound_to 7997
  139.6449  144.7126  151.2163 H   0  0  0  0  0  0  0  0  0  0  0  0  # atno 10167 bound_to 10162
  157.6959  131.0424  150.3799 H   0  0  0  0  0  0  0  0  0  0  0  0  # atno 10718 bound_to 10713
  153.8161  135.6878  153.4834 H   0  0  0  0  0  0  0  0  0  0  0  0  # atno 10763 bound_to 10752
  153.1598  135.4584  154.9754 H   0  0  0  0  0  0  0  0  0  0  0  0  # atno 10764 bound_to 10752
  154.7947  135.3314  154.7638 H   0  0  0  0  0  0  0  0  0  0  0  0  # atno 10765 bound_to 10752
  139.9301  134.9641  156.8221 H   0  0  0  0  0  0  0  0  0  0  0  0  # atno 11005 bound_to 11000
  144.7221  140.4408  143.7000 LP  0  0  0  0  0  0  0  0  0  0  0  0  # atno 17320 bound_to 7965
  145.6421  139.1551  143.2909 LP  0  0  0  0  0  0  0  0  0  0  0  0  # atno 17321 bound_to 7965
  140.7509  143.6248  150.8478 LP  0  0  0  0  0  0  0  0  0  0  0  0  # atno 17342 bound_to 10162
  139.9890  143.5868  152.2917 LP  0  0  0  0  0  0  0  0  0  0  0  0  # atno 17343 bound_to 10162
  156.4214  130.3953  149.6822 LP  0  0  0  0  0  0  0  0  0  0  0  0  # atno 17370 bound_to 10713
  156.4072  130.7704  151.2715 LP  0  0  0  0  0  0  0  0  0  0  0  0  # atno 17371 bound_to 10713
  140.6226  133.9980  155.7625 LP  0  0  0  0  0  0  0  0  0  0  0  0  # atno 17394 bound_to 11000
  141.0884  133.9954  157.3276 LP  0  0  0  0  0  0  0  0  0  0  0  0  # atno 17395 bound_to 11000

$$$$
