AV-unprocessed.smi:527|AV-procd|sdf|2829|dock1
  -GOLD-   2262023313D 1   1.00000     0.00000
 Structure written by MMmdl.
 43 44  0  0  0  0  0  0  0  0  2 V2000
  152.9637  143.5183  162.5180 C   0  0  0  0  0  0  0  0  0  0  0  0
  152.7819  142.2777  161.6281 C   0  0  2  0  0  0  0  0  0  0  0  0
  154.0941  141.4816  161.4796 C   0  0  0  0  0  0  0  0  0  0  0  0
  153.8787  140.1883  160.6777 C   0  0  0  0  0  0  0  0  0  0  0  0
  153.2334  140.4710  159.3126 C   0  0  0  0  0  0  0  0  0  0  0  0
  151.9220  141.2658  159.4662 C   0  0  2  0  0  0  0  0  0  0  0  0
  151.3199  141.4841  158.1519 N   0  0  0  0  0  0  0  0  0  0  0  0
  150.3305  142.3495  157.8854 C   0  0  0  0  0  0  0  0  0  0  0  0
  149.8571  143.1167  158.7262 O   0  0  0  0  0  0  0  0  0  0  0  0
  149.9453  142.2624  156.5974 N   0  0  0  0  0  0  0  0  0  0  0  0
  150.1575  141.2377  155.7460 C   0  0  0  0  0  0  0  0  0  0  0  0
  150.7504  140.1933  156.0227 O   0  0  0  0  0  0  0  0  0  0  0  0
  149.5915  141.4156  154.3361 C   0  0  0  0  0  0  0  0  0  0  0  0
  148.1257  141.3775  154.3435 N   0  0  0  0  0  0  0  0  0  0  0  0
  147.2791  142.0914  155.1531 C   0  0  0  0  0  0  0  0  0  0  0  0
  146.0041  141.7277  154.8029 C   0  0  0  0  0  0  0  0  0  0  0  0
  146.1254  140.8073  153.7963 N   0  3  0  0  0  0  0  0  0  0  0  0
  147.4159  140.5965  153.5174 C   0  0  0  0  0  0  0  0  0  0  0  0
  152.1439  142.5907  160.2483 C   0  0  2  0  0  0  0  0  0  0  0  0
  152.9176  143.6551  159.4359 C   0  0  0  0  0  0  0  0  0  0  0  0
  153.7321  144.1873  162.1306 H   0  0  0  0  0  0  0  0  0  0  0  0
  153.2629  143.2316  163.5267 H   0  0  0  0  0  0  0  0  0  0  0  0
  152.0350  144.0834  162.6006 H   0  0  0  0  0  0  0  0  0  0  0  0
  152.0793  141.6312  162.1566 H   0  0  0  0  0  0  0  0  0  0  0  0
  154.8542  142.0943  160.9941 H   0  0  0  0  0  0  0  0  0  0  0  0
  154.4901  141.2321  162.4646 H   0  0  0  0  0  0  0  0  0  0  0  0
  154.8297  139.6726  160.5404 H   0  0  0  0  0  0  0  0  0  0  0  0
  153.2408  139.5112  161.2472 H   0  0  0  0  0  0  0  0  0  0  0  0
  153.9357  141.0176  158.6823 H   0  0  0  0  0  0  0  0  0  0  0  0
  153.0382  139.5265  158.8031 H   0  0  0  0  0  0  0  0  0  0  0  0
  151.2351  140.6425  160.0428 H   0  0  0  0  0  0  0  0  0  0  0  0
  151.6869  140.9307  157.3916 H   0  0  0  0  0  0  0  0  0  0  0  0
  149.4395  143.0542  156.2286 H   0  0  0  0  0  0  0  0  0  0  0  0
  149.9115  142.3654  153.9042 H   0  0  0  0  0  0  0  0  0  0  0  0
  149.9543  140.6217  153.6812 H   0  0  0  0  0  0  0  0  0  0  0  0
  147.6365  142.7873  155.8987 H   0  0  0  0  0  0  0  0  0  0  0  0
  145.0448  142.0460  155.1847 H   0  0  0  0  0  0  0  0  0  0  0  0
  147.8080  139.9241  152.7745 H   0  0  0  0  0  0  0  0  0  0  0  0
  151.1597  143.0171  160.4472 H   0  0  0  0  0  0  0  0  0  0  0  0
  153.9328  143.3362  159.2034 H   0  0  0  0  0  0  0  0  0  0  0  0
  152.9841  144.5986  159.9763 H   0  0  0  0  0  0  0  0  0  0  0  0
  152.4200  143.8784  158.4925 H   0  0  0  0  0  0  0  0  0  0  0  0
  145.3522  140.3493  153.3298 H   0  0  0  0  0  0  0  0  0  0  0  0
  1  2  1  0  0  0  0
  1 21  1  0  0  0  0
  1 22  1  0  0  0  0
  1 23  1  0  0  0  0
  2 19  1  0  0  0  0
  2  3  1  0  0  0  0
  2 24  1  0  0  0  0
  3  4  1  0  0  0  0
  3 25  1  0  0  0  0
  3 26  1  0  0  0  0
  4  5  1  0  0  0  0
  4 27  1  0  0  0  0
  4 28  1  0  0  0  0
  5  6  1  0  0  0  0
  5 29  1  0  0  0  0
  5 30  1  0  0  0  0
  6  7  1  0  0  0  0
  6 19  1  0  0  0  0
  6 31  1  0  0  0  0
  7  8  1  0  0  0  0
  7 32  1  0  0  0  0
  8  9  2  0  0  0  0
  8 10  1  0  0  0  0
 10 11  1  0  0  0  0
 10 33  1  0  0  0  0
 11 12  2  0  0  0  0
 11 13  1  0  0  0  0
 13 14  1  0  0  0  0
 13 34  1  0  0  0  0
 13 35  1  0  0  0  0
 14 18  1  0  0  0  0
 14 15  1  0  0  0  0
 15 16  2  0  0  0  0
 15 36  1  0  0  0  0
 16 17  1  0  0  0  0
 16 37  1  0  0  0  0
 17 18  2  0  0  0  0
 17 43  1  0  0  0  0
 18 38  1  0  0  0  0
 19 20  1  0  0  0  0
 19 39  1  0  0  0  0
 20 40  1  0  0  0  0
 20 41  1  0  0  0  0
 20 42  1  0  0  0  0
M  CHG  1  17   1
M  END
> <s_m_source_file>
AV-unprocessed.smi

> <i_m_source_file_index>
527

> <i_lp_mmshare_version>
43012

> <i_f3d_flags>
0

> <s_epik_input>
W0NIM11bQ0BASF0xW0NIMl1bQ0gyXVtDSDJdW0NASF0oW0NASF0xW0NIM10pW05IXUMoPU8pW05IXUMoPU8pW0NIMl1uMltjSF1bY0hdbltjSF0y

> <s_epik_cmdline>
J2VwaWtfcHl0aG9uJywgJy1waCcsICc3LjAnLCAnLXRuJywgJzgnLCAnLW1hJywgJzIwMCcsICctbWV0YWxfYmluZGluZycsICctaW1hZScsICc8aW5maWxlLm1hZT4nLCAnLW9tYWUnLCAnPG91dGZpbGUubWFlPic=

> <r_lp_tautomer_probability>
1

> <r_epik_Ionization_Penalty>
0.816441

> <r_epik_Ionization_Penalty_Charging>
0

> <r_epik_Ionization_Penalty_Neutral>
0.816441

> <r_epik_State_Penalty>
0.849034

> <r_epik_Charging_Adjusted_Penalty>
0.849034

> <i_epik_Tot_Q>
1

> <i_epik_Tot_abs_Q>
1

> <r_epik_Metal_State_Penalty>
0.984327

> <b_epik_Metal_Only>
0

> <s_lp_Force_Field>
OPLS_2005

> <r_lp_Energy>
18.4408

> <b_lp_Chiralities_Consistent>
1

> <s_lp_Variant>
AV-unprocessed.smi:527-15

> <Gold.Version>
5.8.1

> <Gold.Id.Protein>
6NUR|6NUR_protein|mol2

> <Gold.PLP.Fitness>
52.5104

> <Gold.PLP.PLP>
-40.7772

> <Gold.PLP.part.hbond>
-2.0000

> <Gold.PLP.part.metal>
0.0000

> <Gold.PLP.part.buried>
-1.0801

> <Gold.PLP.part.nonpolar>
-36.7666

> <Gold.PLP.part.repulsive>
0.2751

> <Gold.PLP.ligand.clash>
2.3955

> <Gold.PLP.ligand.torsion>
0.4737

> <Gold.PLP.Chemscore.Hbond>
3.0000

> <Gold.PLP.Chemscore.CHOScore>
2.0000

> <Gold.PLP.Chemscore.Metal>
0.0000

> <Gold.Chemscore.Hbonds>
donor molecule, donor type, donor heavy atom, donor atom, acceptor molecule, acceptor atom, score
      L1  H    10    33       P1  8028  1.00
      L1  H    17    43       P1 10175  1.95
      L1  C    15    36       P1  8028  1.00
      L1  C    18    38       P1  7957  1.00

> <Gold.PLP.Chemscore.Internal.Correction>
0.0760

> <Gold.Rescore>
     Score         DG    S(hbond)    S(metal)    S(lipo)     H(rot)  DE(clash)    DE(int)     intcor
     14.55     -18.92       1.91        0.00      97.77       1.71       0.85       3.51       ----

> <Gold.Chemscore.Fitness>
14.5530

> <Gold.Chemscore.DG>
-18.9169

> <Gold.Chemscore.ZeroCoef>
-5.4800

> <Gold.Chemscore.Hbond>
1.9050

> <Gold.Chemscore.Metal>
0.0000

> <Gold.Chemscore.Lipo>
97.7727

> <Gold.Chemscore.Internal_Hbond>
0.0000

> <Gold.Chemscore.DEClash>
0.8541

> <Gold.Chemscore.DEInternal>
3.5098

> <Gold.Chemscore.Rot>
1.7052

> <Gold.Chemscore.Internal.Correction>
   9.000000E+99

> <Gold.Chemscore.Hbonds>
donor molecule, donor type, donor heavy atom, donor atom, acceptor molecule, acceptor atom, score
      L1  H    10    33       P1  8028  1.00
      L1  H    17    43       P1 10175  0.91

> <Gold.Chemscore.Hbond.Weighted>
-6.3628

> <Gold.Chemscore.Metal.Weighted>
-0.0000

> <Gold.Chemscore.Lipo.Weighted>
-11.4394

> <Gold.Chemscore.Internal_Hbond.Weighted>
0.0000

> <Gold.Chemscore.DEClash.Weighted>
0.8541

> <Gold.Chemscore.DEInternal.Weighted>
3.5098

> <Gold.Chemscore.Rot.Weighted>
4.3653

> <Gold.Chemscore.Internal.Correction.Weighted>
   9.000000E+99

> <Gold.Protein.RotatedTorsions>
[ 6907 6896 6895 6894 ] final  176.00 input  -60.11 | X-H torsion
[ 7974 7965 7964 7962 ] final   83.92 input  175.53 | X-H torsion
[ 8008 7997 7996 7995 ] final  -89.58 input   59.86 | X-H torsion
[ 10167 10162 10161 10158 ] final -171.94 input  -65.29 | X-H torsion
[ 10718 10713 10712 10709 ] final -158.49 input   66.30 | X-H torsion
[ 10763 10752 10751 10750 ] final  -38.20 input  -60.55 | X-H torsion
[ 11005 11000 10999 10996 ] final   83.57 input  -57.11 | X-H torsion

> <Gold.Protein.ActiveResidues>
 VAL166  LYS551  ARG553  GLY616  TRP617  ASP618  TYR619  PRO620  LYS621  CYS622 
 ASP623  PHE694  ASN695  SER759  ASP760  ASP761  ALA762  ILE779  LEU786  VAL792 
 PHE793  MET794  SER795  GLU796  ALA797  LYS798  CYS799  TRP800  GLU811  SER814 

> <Gold.Protein.RotatedAtoms>
  151.7271  133.3316  159.3330 H   0  0  0  0  0  0  0  0  0  0  0  0  # atno 6907 bound_to 6896
  150.7628  134.6396  159.6239 H   0  0  0  0  0  0  0  0  0  0  0  0  # atno 6908 bound_to 6896
  152.3615  134.6867  160.0257 H   0  0  0  0  0  0  0  0  0  0  0  0  # atno 6909 bound_to 6896
  145.6055  139.2359  143.2221 H   0  0  0  0  0  0  0  0  0  0  0  0  # atno 7974 bound_to 7965
  154.6883  140.0540  157.0337 H   0  0  0  0  0  0  0  0  0  0  0  0  # atno 8008 bound_to 7997
  155.0853  140.3213  155.4571 H   0  0  0  0  0  0  0  0  0  0  0  0  # atno 8009 bound_to 7997
  156.2719  140.2057  156.5980 H   0  0  0  0  0  0  0  0  0  0  0  0  # atno 8010 bound_to 7997
  139.5773  144.1503  152.1468 H   0  0  0  0  0  0  0  0  0  0  0  0  # atno 10167 bound_to 10162
  156.5549  130.8622  151.2791 H   0  0  0  0  0  0  0  0  0  0  0  0  # atno 10718 bound_to 10713
  153.9088  135.6794  153.4752 H   0  0  0  0  0  0  0  0  0  0  0  0  # atno 10763 bound_to 10752
  153.1089  135.4792  154.8998 H   0  0  0  0  0  0  0  0  0  0  0  0  # atno 10764 bound_to 10752
  154.7537  135.3192  154.8464 H   0  0  0  0  0  0  0  0  0  0  0  0  # atno 10765 bound_to 10752
  139.9027  134.8154  156.2327 H   0  0  0  0  0  0  0  0  0  0  0  0  # atno 11005 bound_to 11000
  146.1544  140.6879  142.9307 LP  0  0  0  0  0  0  0  0  0  0  0  0  # atno 17320 bound_to 7965
  144.7292  140.4618  143.6951 LP  0  0  0  0  0  0  0  0  0  0  0  0  # atno 17321 bound_to 7965
  140.1048  144.5508  150.6964 LP  0  0  0  0  0  0  0  0  0  0  0  0  # atno 17342 bound_to 10162
  140.7055  143.2465  151.4739 LP  0  0  0  0  0  0  0  0  0  0  0  0  # atno 17343 bound_to 10162
  157.7380  130.9806  150.2227 LP  0  0  0  0  0  0  0  0  0  0  0  0  # atno 17370 bound_to 10713
  156.2851  130.3738  149.7897 LP  0  0  0  0  0  0  0  0  0  0  0  0  # atno 17371 bound_to 10713
  141.0335  133.6976  156.1471 LP  0  0  0  0  0  0  0  0  0  0  0  0  # atno 17394 bound_to 11000
  140.7061  134.4511  157.5584 LP  0  0  0  0  0  0  0  0  0  0  0  0  # atno 17395 bound_to 11000

$$$$
