AV-unprocessed.smi:2104|AV-procd|sdf|8585|dock1
  -GOLD-   2272011313D 1   1.00000     0.00000
 Structure written by MMmdl.
 43 44  0  0  0  0  0  0  0  0  1 V2000
  143.8786  132.2541  149.6121 C   0  0  0  0  0  0  0  0  0  0  0  0
  144.9206  132.6045  150.6182 C   0  0  0  0  0  0  0  0  0  0  0  0
  145.5493  133.7750  150.9351 C   0  0  0  0  0  0  0  0  0  0  0  0
  146.4293  133.3897  151.9881 C   0  0  0  0  0  0  0  0  0  0  0  0
  147.3052  134.2492  152.6994 N   0  0  0  0  0  0  0  0  0  0  0  0
  147.7448  134.1143  153.9613 C   0  0  0  0  0  0  0  0  0  0  0  0
  147.3182  133.2956  154.7758 O   0  0  0  0  0  0  0  0  0  0  0  0
  148.7263  134.9872  154.2333 N   0  0  0  0  0  0  0  0  0  0  0  0
  149.5095  135.0039  155.4654 C   0  0  0  0  0  0  0  0  0  0  0  0
  150.6913  135.9802  155.3563 C   0  0  0  0  0  0  0  0  0  0  0  0
  150.1857  137.3064  155.3666 O   0  0  0  0  0  0  0  0  0  0  0  0
  150.6795  138.1659  154.3475 C   0  0  2  0  0  0  0  0  0  0  0  0
  152.1034  138.6590  154.6891 C   0  0  0  0  0  0  0  0  0  0  0  0
  152.1205  139.5098  155.9702 C   0  0  0  0  0  0  0  0  0  0  0  0
  151.1414  140.6890  155.8705 C   0  0  0  0  0  0  0  0  0  0  0  0
  149.7226  140.2136  155.5190 C   0  0  0  0  0  0  0  0  0  0  0  0
  149.7106  139.3640  154.2305 C   0  0  2  0  0  0  0  0  0  0  0  0
  148.2883  138.9219  153.8521 C   0  0  0  0  0  0  0  0  0  0  0  0
  146.3285  132.1092  152.2934 N   0  0  0  0  0  0  0  0  0  0  0  0
  145.3681  131.5957  151.4136 O   0  0  0  0  0  0  0  0  0  0  0  0
  143.7464  133.0616  148.8918 H   0  0  0  0  0  0  0  0  0  0  0  0
  142.9196  132.0732  150.0975 H   0  0  0  0  0  0  0  0  0  0  0  0
  144.1566  131.3544  149.0629 H   0  0  0  0  0  0  0  0  0  0  0  0
  145.3903  134.7420  150.4818 H   0  0  0  0  0  0  0  0  0  0  0  0
  147.6794  135.0221  152.1694 H   0  0  0  0  0  0  0  0  0  0  0  0
  149.0015  135.6359  153.5104 H   0  0  0  0  0  0  0  0  0  0  0  0
  148.8516  135.3175  156.2760 H   0  0  0  0  0  0  0  0  0  0  0  0
  149.8592  134.0021  155.7202 H   0  0  0  0  0  0  0  0  0  0  0  0
  151.3871  135.8067  156.1768 H   0  0  0  0  0  0  0  0  0  0  0  0
  151.2358  135.8093  154.4269 H   0  0  0  0  0  0  0  0  0  0  0  0
  150.6940  137.6306  153.3964 H   0  0  0  0  0  0  0  0  0  0  0  0
  152.7966  137.8251  154.7894 H   0  0  0  0  0  0  0  0  0  0  0  0
  152.4808  139.2578  153.8593 H   0  0  0  0  0  0  0  0  0  0  0  0
  151.8592  138.8891  156.8272 H   0  0  0  0  0  0  0  0  0  0  0  0
  153.1286  139.8807  156.1567 H   0  0  0  0  0  0  0  0  0  0  0  0
  151.1262  141.2387  156.8122 H   0  0  0  0  0  0  0  0  0  0  0  0
  151.4900  141.3883  155.1095 H   0  0  0  0  0  0  0  0  0  0  0  0
  149.3168  139.6356  156.3503 H   0  0  0  0  0  0  0  0  0  0  0  0
  149.0692  141.0785  155.4013 H   0  0  0  0  0  0  0  0  0  0  0  0
  150.0707  139.9969  153.4180 H   0  0  0  0  0  0  0  0  0  0  0  0
  147.8440  138.2976  154.6278 H   0  0  0  0  0  0  0  0  0  0  0  0
  148.2894  138.3500  152.9240 H   0  0  0  0  0  0  0  0  0  0  0  0
  147.6362  139.7836  153.7074 H   0  0  0  0  0  0  0  0  0  0  0  0
  1  2  1  0  0  0  0
  1 21  1  0  0  0  0
  1 22  1  0  0  0  0
  1 23  1  0  0  0  0
  2 20  1  0  0  0  0
  2  3  2  0  0  0  0
  3  4  1  0  0  0  0
  3 24  1  0  0  0  0
  4  5  1  0  0  0  0
  4 19  2  0  0  0  0
  5  6  1  0  0  0  0
  5 25  1  0  0  0  0
  6  7  2  0  0  0  0
  6  8  1  0  0  0  0
  8  9  1  0  0  0  0
  8 26  1  0  0  0  0
  9 10  1  0  0  0  0
  9 27  1  0  0  0  0
  9 28  1  0  0  0  0
 10 11  1  0  0  0  0
 10 29  1  0  0  0  0
 10 30  1  0  0  0  0
 11 12  1  0  0  0  0
 12 17  1  0  0  0  0
 12 13  1  0  0  0  0
 12 31  1  0  0  0  0
 13 14  1  0  0  0  0
 13 32  1  0  0  0  0
 13 33  1  0  0  0  0
 14 15  1  0  0  0  0
 14 34  1  0  0  0  0
 14 35  1  0  0  0  0
 15 16  1  0  0  0  0
 15 36  1  0  0  0  0
 15 37  1  0  0  0  0
 16 17  1  0  0  0  0
 16 38  1  0  0  0  0
 16 39  1  0  0  0  0
 17 18  1  0  0  0  0
 17 40  1  0  0  0  0
 18 41  1  0  0  0  0
 18 42  1  0  0  0  0
 18 43  1  0  0  0  0
 19 20  1  0  0  0  0
M  END
> <s_m_source_file>
AV-unprocessed.smi

> <i_m_source_file_index>
2104

> <i_lp_mmshare_version>
43012

> <i_f3d_flags>
0

> <s_epik_input>
W0NIM11jMVtjSF1jKG5vMSlbTkhdQyg9TylbTkhdW0NIMl1bQ0gyXU9bQ0BASF0yW0NIMl1bQ0gyXVtDSDJdW0NIMl1bQ0BIXTJbQ0gzXQ==

> <s_epik_cmdline>
J2VwaWtfcHl0aG9uJywgJy1waCcsICc3LjAnLCAnLXRuJywgJzgnLCAnLW1hJywgJzIwMCcsICctbWV0YWxfYmluZGluZycsICctaW1hZScsICc8aW5maWxlLm1hZT4nLCAnLW9tYWUnLCAnPG91dGZpbGUubWFlPic=

> <r_lp_tautomer_probability>
1

> <r_epik_Ionization_Penalty>
2.94418e-05

> <r_epik_Ionization_Penalty_Charging>
0

> <r_epik_Ionization_Penalty_Neutral>
2.94418e-05

> <r_epik_State_Penalty>
-0

> <r_epik_Charging_Adjusted_Penalty>
0

> <i_epik_Tot_Q>
0

> <i_epik_Tot_abs_Q>
0

> <r_epik_Metal_State_Penalty>
0.0104148

> <b_epik_Metal_Only>
0

> <s_lp_Force_Field>
OPLS_2005

> <r_lp_Energy>
9.69009

> <b_lp_Chiralities_Consistent>
1

> <s_lp_Variant>
AV-unprocessed.smi:2104-3

> <Gold.Version>
5.8.1

> <Gold.Id.Protein>
6NUR|6NUR_protein|mol2

> <Gold.PLP.Fitness>
39.9302

> <Gold.PLP.PLP>
-35.2948

> <Gold.PLP.part.hbond>
-2.0000

> <Gold.PLP.part.metal>
0.0000

> <Gold.PLP.part.buried>
-3.3612

> <Gold.PLP.part.nonpolar>
-29.9841

> <Gold.PLP.part.repulsive>
0.3775

> <Gold.PLP.ligand.clash>
0.0000

> <Gold.PLP.ligand.torsion>
0.7199

> <Gold.PLP.Chemscore.Hbond>
2.0000

> <Gold.PLP.Chemscore.CHOScore>
0.0000

> <Gold.PLP.Chemscore.Metal>
0.0000

> <Gold.Chemscore.Hbonds>
donor molecule, donor type, donor heavy atom, donor atom, acceptor molecule, acceptor atom, score
      L1  H     5    25       P1  7948  1.00
      L1  H     8    26       P1  7948  1.00

> <Gold.PLP.Chemscore.Internal.Correction>
0.0752

> <Gold.Rescore>
     Score         DG    S(hbond)    S(metal)    S(lipo)     H(rot)  DE(clash)    DE(int)     intcor
     14.56     -16.42       1.77        0.00      81.23       1.75       0.00       1.87       ----

> <Gold.Chemscore.Fitness>
14.5570

> <Gold.Chemscore.DG>
-16.4238

> <Gold.Chemscore.ZeroCoef>
-5.4800

> <Gold.Chemscore.Hbond>
1.7741

> <Gold.Chemscore.Metal>
0.0000

> <Gold.Chemscore.Lipo>
81.2339

> <Gold.Chemscore.Internal_Hbond>
0.0000

> <Gold.Chemscore.DEClash>
0.0009

> <Gold.Chemscore.DEInternal>
1.8659

> <Gold.Chemscore.Rot>
1.7524

> <Gold.Chemscore.Internal.Correction>
   9.000000E+99

> <Gold.Chemscore.Hbonds>
donor molecule, donor type, donor heavy atom, donor atom, acceptor molecule, acceptor atom, score
      L1  H     5    25       P1  7948  0.86
      L1  H     8    26       P1  7948  0.79

> <Gold.Chemscore.Hbond.Weighted>
-5.9255

> <Gold.Chemscore.Metal.Weighted>
-0.0000

> <Gold.Chemscore.Lipo.Weighted>
-9.5044

> <Gold.Chemscore.Internal_Hbond.Weighted>
0.0000

> <Gold.Chemscore.DEClash.Weighted>
0.0009

> <Gold.Chemscore.DEInternal.Weighted>
1.8659

> <Gold.Chemscore.Rot.Weighted>
4.4861

> <Gold.Chemscore.Internal.Correction.Weighted>
   9.000000E+99

> <Gold.Protein.RotatedTorsions>
[ 6907 6896 6895 6894 ] final  164.14 input  -60.11 | X-H torsion
[ 7974 7965 7964 7962 ] final  -44.55 input  175.53 | X-H torsion
[ 8008 7997 7996 7995 ] final  174.02 input   59.86 | X-H torsion
[ 10167 10162 10161 10158 ] final  174.01 input  -65.29 | X-H torsion
[ 10718 10713 10712 10709 ] final  -97.50 input   66.30 | X-H torsion
[ 10763 10752 10751 10750 ] final   55.09 input  -60.55 | X-H torsion
[ 11005 11000 10999 10996 ] final -101.11 input  -57.11 | X-H torsion

> <Gold.Protein.ActiveResidues>
 VAL166  LYS551  ARG553  GLY616  TRP617  ASP618  TYR619  PRO620  LYS621  CYS622 
 ASP623  PHE694  ASN695  SER759  ASP760  ASP761  ALA762  ILE779  LEU786  VAL792 
 PHE793  MET794  SER795  GLU796  ALA797  LYS798  CYS799  TRP800  GLU811  SER814 

> <Gold.Protein.RotatedAtoms>
  151.9145  133.3569  159.3874 H   0  0  0  0  0  0  0  0  0  0  0  0  # atno 6907 bound_to 6896
  150.7050  134.4698  159.5429 H   0  0  0  0  0  0  0  0  0  0  0  0  # atno 6908 bound_to 6896
  152.2310  134.8321  160.0524 H   0  0  0  0  0  0  0  0  0  0  0  0  # atno 6909 bound_to 6896
  145.9910  140.7181  142.9317 H   0  0  0  0  0  0  0  0  0  0  0  0  # atno 7974 bound_to 7965
  156.1016  140.1445  156.9459 H   0  0  0  0  0  0  0  0  0  0  0  0  # atno 8008 bound_to 7997
  154.4706  140.0911  156.7180 H   0  0  0  0  0  0  0  0  0  0  0  0  # atno 8009 bound_to 7997
  155.4750  140.3443  155.4333 H   0  0  0  0  0  0  0  0  0  0  0  0  # atno 8010 bound_to 7997
  139.5127  144.3195  152.0216 H   0  0  0  0  0  0  0  0  0  0  0  0  # atno 10167 bound_to 10162
  156.0085  130.5197  150.6384 H   0  0  0  0  0  0  0  0  0  0  0  0  # atno 10718 bound_to 10713
  152.9812  135.5722  154.5010 H   0  0  0  0  0  0  0  0  0  0  0  0  # atno 10763 bound_to 10752
  154.4530  135.2779  155.1770 H   0  0  0  0  0  0  0  0  0  0  0  0  # atno 10764 bound_to 10752
  154.3389  135.6233  153.5640 H   0  0  0  0  0  0  0  0  0  0  0  0  # atno 10765 bound_to 10752
  141.1244  133.8452  157.1190 H   0  0  0  0  0  0  0  0  0  0  0  0  # atno 11005 bound_to 11000
  144.6889  140.3069  143.7254 LP  0  0  0  0  0  0  0  0  0  0  0  0  # atno 17320 bound_to 7965
  145.7630  139.1831  143.2256 LP  0  0  0  0  0  0  0  0  0  0  0  0  # atno 17321 bound_to 7965
  140.2637  144.4039  150.6176 LP  0  0  0  0  0  0  0  0  0  0  0  0  # atno 17342 bound_to 10162
  140.6138  143.2171  151.6832 LP  0  0  0  0  0  0  0  0  0  0  0  0  # atno 17343 bound_to 10162
  157.4169  131.0831  151.1168 LP  0  0  0  0  0  0  0  0  0  0  0  0  # atno 17370 bound_to 10713
  157.1782  130.6298  149.5663 LP  0  0  0  0  0  0  0  0  0  0  0  0  # atno 17371 bound_to 10713
  140.0229  134.9937  157.0627 LP  0  0  0  0  0  0  0  0  0  0  0  0  # atno 17394 bound_to 11000
  140.4411  134.1680  155.7174 LP  0  0  0  0  0  0  0  0  0  0  0  0  # atno 17395 bound_to 11000

$$$$
