AV-unprocessed.smi:102|AV-procd|sdf|966|dock8
  -GOLD-   2262017513D 1   1.00000     0.00000
 Structure written by MMmdl.
 43 44  0  0  0  0  0  0  0  0  2 V2000
  146.2266  132.9283  154.1371 C   0  0  0  0  0  0  0  0  0  0  0  0
  145.9715  133.5943  155.4828 C   0  0  0  0  0  0  0  0  0  0  0  0
  145.8181  132.9330  156.5098 O   0  0  0  0  0  0  0  0  0  0  0  0
  145.9378  134.9299  155.3921 O   0  0  0  0  0  0  0  0  0  0  0  0
  145.6584  135.7142  156.5417 C   0  0  0  0  0  0  0  0  0  0  0  0
  146.7089  135.4575  157.6344 C   0  0  1  0  0  0  0  0  0  0  0  0
  148.0224  135.5041  157.1060 O   0  0  0  0  0  0  0  0  0  0  0  0
  148.9130  135.6826  158.1602 C   0  0  1  0  0  0  0  0  0  0  0  0
  150.1087  136.4521  157.6491 N   0  0  0  0  0  0  0  0  0  0  0  0
  150.4569  137.6395  158.2671 C   0  0  0  0  0  0  0  0  0  0  0  0
  151.5382  138.3435  157.8747 C   0  0  0  0  0  0  0  0  0  0  0  0
  151.8471  139.4963  158.4931 F   0  0  0  0  0  0  0  0  0  0  0  0
  152.3684  137.8425  156.7811 C   0  0  0  0  0  0  0  0  0  0  0  0
  153.3459  138.4948  156.4179 O   0  0  0  0  0  0  0  0  0  0  0  0
  152.0179  136.6557  156.2067 N   0  5  0  0  0  0  0  0  0  0  0  0
  150.9312  135.9333  156.6084 C   0  0  0  0  0  0  0  0  0  0  0  0
  150.6327  134.8473  156.1130 O   0  0  0  0  0  0  0  0  0  0  0  0
  148.1753  136.4055  159.3042 C   0  0  2  0  0  0  0  0  0  0  0  0
  148.3505  135.6931  160.5220 O   0  0  0  0  0  0  0  0  0  0  0  0
  147.7004  136.0843  161.6323 C   0  0  0  0  0  0  0  0  0  0  0  0
  147.4016  134.9219  162.5696 C   0  0  0  0  0  0  0  0  0  0  0  0
  147.3538  137.2340  161.9034 O   0  0  0  0  0  0  0  0  0  0  0  0
  146.7133  136.3869  158.8610 C   0  0  1  0  0  0  0  0  0  0  0  0
  146.3126  137.7265  158.5938 O   0  0  0  0  0  0  0  0  0  0  0  0
  146.9697  138.4800  157.6958 C   0  0  0  0  0  0  0  0  0  0  0  0
  146.4124  139.8944  157.6101 C   0  0  0  0  0  0  0  0  0  0  0  0
  147.9242  138.1231  157.0052 O   0  0  0  0  0  0  0  0  0  0  0  0
  145.7889  133.5163  153.3297 H   0  0  0  0  0  0  0  0  0  0  0  0
  145.7855  131.9319  154.1157 H   0  0  0  0  0  0  0  0  0  0  0  0
  147.2980  132.8382  153.9582 H   0  0  0  0  0  0  0  0  0  0  0  0
  145.6459  136.7749  156.2873 H   0  0  0  0  0  0  0  0  0  0  0  0
  144.6653  135.4566  156.9112 H   0  0  0  0  0  0  0  0  0  0  0  0
  146.5650  134.4411  158.0043 H   0  0  0  0  0  0  0  0  0  0  0  0
  149.2883  134.7041  158.4643 H   0  0  0  0  0  0  0  0  0  0  0  0
  149.8544  138.0181  159.0795 H   0  0  0  0  0  0  0  0  0  0  0  0
  148.5520  137.4244  159.4048 H   0  0  0  0  0  0  0  0  0  0  0  0
  148.2951  134.3163  162.7225 H   0  0  0  0  0  0  0  0  0  0  0  0
  146.6204  134.2889  162.1482 H   0  0  0  0  0  0  0  0  0  0  0  0
  147.0638  135.2893  163.5386 H   0  0  0  0  0  0  0  0  0  0  0  0
  146.0882  135.9587  159.6461 H   0  0  0  0  0  0  0  0  0  0  0  0
  146.0409  140.2191  158.5825 H   0  0  0  0  0  0  0  0  0  0  0  0
  145.5910  139.9325  156.8947 H   0  0  0  0  0  0  0  0  0  0  0  0
  147.1870  140.5902  157.2875 H   0  0  0  0  0  0  0  0  0  0  0  0
  1  2  1  0  0  0  0
  1 28  1  0  0  0  0
  1 29  1  0  0  0  0
  1 30  1  0  0  0  0
  2  3  2  0  0  0  0
  2  4  1  0  0  0  0
  4  5  1  0  0  0  0
  5  6  1  0  0  0  0
  5 31  1  0  0  0  0
  5 32  1  0  0  0  0
  6 23  1  0  0  0  0
  6  7  1  0  0  0  0
  6 33  1  0  0  0  0
  7  8  1  0  0  0  0
  8  9  1  0  0  0  0
  8 18  1  0  0  0  0
  8 34  1  0  0  0  0
  9 16  1  0  0  0  0
  9 10  1  0  0  0  0
 10 11  2  0  0  0  0
 10 35  1  0  0  0  0
 11 12  1  0  0  0  0
 11 13  1  0  0  0  0
 13 14  2  0  0  0  0
 13 15  1  0  0  0  0
 15 16  1  0  0  0  0
 16 17  2  0  0  0  0
 18 19  1  0  0  0  0
 18 23  1  0  0  0  0
 18 36  1  0  0  0  0
 19 20  1  0  0  0  0
 20 21  1  0  0  0  0
 20 22  2  0  0  0  0
 21 37  1  0  0  0  0
 21 38  1  0  0  0  0
 21 39  1  0  0  0  0
 23 24  1  0  0  0  0
 23 40  1  0  0  0  0
 24 25  1  0  0  0  0
 25 26  1  0  0  0  0
 25 27  2  0  0  0  0
 26 41  1  0  0  0  0
 26 42  1  0  0  0  0
 26 43  1  0  0  0  0
M  CHG  1  15  -1
M  END
> <s_m_source_file>
AV-unprocessed.smi

> <i_m_source_file_index>
102

> <i_lp_mmshare_version>
43012

> <i_f3d_flags>
0

> <s_epik_input>
W0NIM11DKD1PKU9bQ0gyXVtDQEBIXTFPW0NASF0oW0NAQEhdKE9DKD1PKVtDSDNdKVtDQEhdMU9DKD1PKVtDSDNdKW4yW2NIXWMoRiljKD1PKVtuSF1jMj1P

> <s_epik_cmdline>
J2VwaWtfcHl0aG9uJywgJy1waCcsICc3LjAnLCAnLXRuJywgJzgnLCAnLW1hJywgJzIwMCcsICctbWV0YWxfYmluZGluZycsICctaW1hZScsICc8aW5maWxlLm1hZT4nLCAnLW9tYWUnLCAnPG91dGZpbGUubWFlPic=

> <r_epik_Ionization_Penalty>
1.40304

> <r_epik_Ionization_Penalty_Charging>
1.43915e-08

> <r_epik_Ionization_Penalty_Neutral>
1.40304

> <r_epik_State_Penalty>
1.48536

> <r_epik_Charging_Adjusted_Penalty>
1.48536

> <i_epik_Tot_Q>
-1

> <i_epik_Tot_abs_Q>
1

> <r_epik_Metal_State_Penalty>
0.00663881

> <b_epik_Metal_Only>
0

> <s_epik_Chemistry_Notes>
This compound has an ester and may undergo hydrolysis at high or low pH. This compound contains an acetal/aminal-like group ( X-CH(R)-Y where X, Y are N, S, or O) that may be acid/base labile, releasing an aldehyde.

> <s_lp_Force_Field>
OPLS_2005

> <r_lp_Energy>
16.3749

> <b_lp_Chiralities_Consistent>
1

> <s_lp_Variant>
AV-unprocessed.smi:102-22

> <Gold.Version>
5.8.1

> <Gold.Id.Protein>
6NUR|6NUR_protein|mol2

> <Gold.PLP.Fitness>
36.8204

> <Gold.PLP.PLP>
-23.9405

> <Gold.PLP.part.hbond>
-4.0000

> <Gold.PLP.part.metal>
0.0000

> <Gold.PLP.part.buried>
-5.2290

> <Gold.PLP.part.nonpolar>
-15.0967

> <Gold.PLP.part.repulsive>
0.1406

> <Gold.PLP.ligand.clash>
0.0000

> <Gold.PLP.ligand.torsion>
0.4727

> <Gold.PLP.Chemscore.Hbond>
4.5600

> <Gold.PLP.Chemscore.CHOScore>
0.0000

> <Gold.PLP.Chemscore.Metal>
0.0000

> <Gold.Chemscore.Hbonds>
donor molecule, donor type, donor heavy atom, donor atom, acceptor molecule, acceptor atom, score
      P1  H  6931  6943       L1    22  0.88
      P1  H  6934  6947       L1    22  0.75
      P1  H  7997  8010       L1    14  0.93
      P1  H 10752 10764       L1    15  2.00

> <Gold.PLP.Chemscore.Internal.Correction>
0.1453

> <Gold.Rescore>
     Score         DG    S(hbond)    S(metal)    S(lipo)     H(rot)  DE(clash)    DE(int)     intcor
     -0.47      -7.97       2.93        0.00      25.11       4.00       0.01       8.43       ----

> <Gold.Chemscore.Fitness>
-0.4710

> <Gold.Chemscore.DG>
-7.9663

> <Gold.Chemscore.ZeroCoef>
-5.4800

> <Gold.Chemscore.Hbond>
2.9270

> <Gold.Chemscore.Metal>
0.0000

> <Gold.Chemscore.Lipo>
25.1081

> <Gold.Chemscore.Internal_Hbond>
0.0000

> <Gold.Chemscore.DEClash>
0.0075

> <Gold.Chemscore.DEInternal>
8.4298

> <Gold.Chemscore.Rot>
3.9951

> <Gold.Chemscore.Internal.Correction>
   9.000000E+99

> <Gold.Chemscore.Hbonds>
donor molecule, donor type, donor heavy atom, donor atom, acceptor molecule, acceptor atom, score
      P1  H  6931  6943       L1    22  0.43
      P1  H  6934  6947       L1    22  0.70
      P1  H  7997  8010       L1    14  0.90
      P1  H 10752 10764       L1    15  0.63

> <Gold.Chemscore.Hbond.Weighted>
-9.7760

> <Gold.Chemscore.Metal.Weighted>
-0.0000

> <Gold.Chemscore.Lipo.Weighted>
-2.9376

> <Gold.Chemscore.Internal_Hbond.Weighted>
0.0000

> <Gold.Chemscore.DEClash.Weighted>
0.0075

> <Gold.Chemscore.DEInternal.Weighted>
8.4298

> <Gold.Chemscore.Rot.Weighted>
10.2274

> <Gold.Chemscore.Internal.Correction.Weighted>
   9.000000E+99

> <Gold.Protein.RotatedTorsions>
[ 6907 6896 6895 6894 ] final  148.42 input  -60.11 | X-H torsion
[ 7974 7965 7964 7962 ] final   -8.14 input  175.53 | X-H torsion
[ 8008 7997 7996 7995 ] final   65.94 input   59.86 | X-H torsion
[ 10167 10162 10161 10158 ] final -136.30 input  -65.29 | X-H torsion
[ 10718 10713 10712 10709 ] final -154.87 input   66.30 | X-H torsion
[ 10763 10752 10751 10750 ] final  -31.36 input  -60.55 | X-H torsion
[ 11005 11000 10999 10996 ] final -154.58 input  -57.11 | X-H torsion

> <Gold.Protein.ActiveResidues>
 VAL166  LYS551  ARG553  GLY616  TRP617  ASP618  TYR619  PRO620  LYS621  CYS622 
 ASP623  PHE694  ASN695  SER759  ASP760  ASP761  ALA762  ILE779  LEU786  VAL792 
 PHE793  MET794  SER795  GLU796  ALA797  LYS798  CYS799  TRP800  GLU811  SER814 

> <Gold.Protein.RotatedAtoms>
  152.1417  133.4468  159.4769 H   0  0  0  0  0  0  0  0  0  0  0  0  # atno 6907 bound_to 6896
  150.6887  134.2297  159.4438 H   0  0  0  0  0  0  0  0  0  0  0  0  # atno 6908 bound_to 6896
  152.0188  134.9834  160.0620 H   0  0  0  0  0  0  0  0  0  0  0  0  # atno 6909 bound_to 6896
  146.2288  140.2424  142.8344 H   0  0  0  0  0  0  0  0  0  0  0  0  # atno 7974 bound_to 7965
  155.6697  140.3497  155.4813 H   0  0  0  0  0  0  0  0  0  0  0  0  # atno 8008 bound_to 7997
  155.9699  140.1153  157.0844 H   0  0  0  0  0  0  0  0  0  0  0  0  # atno 8009 bound_to 7997
  154.4163  140.1159  156.5278 H   0  0  0  0  0  0  0  0  0  0  0  0  # atno 8010 bound_to 7997
  139.8692  143.6979  152.2642 H   0  0  0  0  0  0  0  0  0  0  0  0  # atno 10167 bound_to 10162
  156.5052  130.8409  151.2625 H   0  0  0  0  0  0  0  0  0  0  0  0  # atno 10718 bound_to 10713
  153.7961  135.6894  153.4863 H   0  0  0  0  0  0  0  0  0  0  0  0  # atno 10763 bound_to 10752
  153.1718  135.4540  154.9911 H   0  0  0  0  0  0  0  0  0  0  0  0  # atno 10764 bound_to 10752
  154.8025  135.3343  154.7454 H   0  0  0  0  0  0  0  0  0  0  0  0  # atno 10765 bound_to 10752
  140.6958  134.3992  157.5215 H   0  0  0  0  0  0  0  0  0  0  0  0  # atno 11005 bound_to 11000
  144.9474  140.8143  143.5593 LP  0  0  0  0  0  0  0  0  0  0  0  0  # atno 17320 bound_to 7965
  145.2381  139.2084  143.5007 LP  0  0  0  0  0  0  0  0  0  0  0  0  # atno 17321 bound_to 7965
  139.7300  144.7584  151.0817 LP  0  0  0  0  0  0  0  0  0  0  0  0  # atno 17342 bound_to 10162
  140.7763  143.5100  150.9664 LP  0  0  0  0  0  0  0  0  0  0  0  0  # atno 17343 bound_to 10162
  157.7458  130.9968  150.2794 LP  0  0  0  0  0  0  0  0  0  0  0  0  # atno 17370 bound_to 10713
  156.3294  130.3798  149.7504 LP  0  0  0  0  0  0  0  0  0  0  0  0  # atno 17371 bound_to 10713
  139.8910  134.8789  156.2339 LP  0  0  0  0  0  0  0  0  0  0  0  0  # atno 17394 bound_to 11000
  141.0204  133.7044  156.1259 LP  0  0  0  0  0  0  0  0  0  0  0  0  # atno 17395 bound_to 11000

$$$$
