AV-unprocessed.smi:1809|AV-procd|sdf|7332|dock9
  -GOLD-   22720 8593D 1   1.00000     0.00000
 Structure written by MMmdl.
 38 40  0  0  0  0  0  0  0  0  2 V2000
  145.5977  134.6710  162.8331 C   0  0  0  0  0  0  0  0  0  0  0  0
  146.6330  135.3974  162.0446 C   0  0  0  0  0  0  0  0  0  0  0  0
  146.7054  136.7301  162.0028 N   0  0  0  0  0  0  0  0  0  0  0  0
  147.7500  137.1720  161.2035 N   0  0  0  0  0  0  0  0  0  0  0  0
  148.4577  136.1702  160.6619 C   0  0  0  0  0  0  0  0  0  0  0  0
  149.5075  136.3844  159.8517 N   0  5  0  0  0  0  0  0  0  0  0  0
  149.4903  137.4204  158.9822 C   0  0  0  0  0  0  0  0  0  0  0  0
  148.5415  138.1781  158.7659 O   0  0  0  0  0  0  0  0  0  0  0  0
  150.6434  137.5918  158.3228 N   0  0  0  0  0  0  0  0  0  0  0  0
  150.8973  138.6314  157.3337 C   0  0  0  0  0  0  0  0  0  0  0  0
  150.7989  140.0248  157.9696 C   0  0  1  0  0  0  0  0  0  0  0  0
  151.8847  140.2414  159.0491 C   0  0  0  0  0  0  0  0  0  0  0  0
  151.8384  141.6088  159.5310 N   0  0  0  0  0  0  0  0  0  0  0  0
  152.8456  141.9993  160.4897 C   0  0  0  0  0  0  0  0  0  0  0  0
  152.7994  143.5376  160.4822 C   0  0  0  0  0  0  0  0  0  0  0  0
  152.1264  143.8965  159.1383 C   0  0  0  0  0  0  0  0  0  0  0  0
  152.0086  142.5375  158.4464 C   0  0  2  0  0  0  0  0  0  0  0  0
  150.8972  142.3620  157.4021 C   0  0  0  0  0  0  0  0  0  0  0  0
  150.9419  141.0108  156.9380 O   0  0  0  0  0  0  0  0  0  0  0  0
  147.8574  134.5700  161.0971 S   0  0  0  0  0  0  0  0  0  0  0  0
  145.8498  134.6988  163.8933 H   0  0  0  0  0  0  0  0  0  0  0  0
  145.5396  133.6302  162.5141 H   0  0  0  0  0  0  0  0  0  0  0  0
  144.6209  135.1338  162.6908 H   0  0  0  0  0  0  0  0  0  0  0  0
  151.4010  136.9568  158.5279 H   0  0  0  0  0  0  0  0  0  0  0  0
  151.8943  138.4818  156.9166 H   0  0  0  0  0  0  0  0  0  0  0  0
  150.1860  138.5419  156.5113 H   0  0  0  0  0  0  0  0  0  0  0  0
  149.8149  140.1402  158.4279 H   0  0  0  0  0  0  0  0  0  0  0  0
  151.7344  139.5499  159.8786 H   0  0  0  0  0  0  0  0  0  0  0  0
  152.8697  140.0273  158.6314 H   0  0  0  0  0  0  0  0  0  0  0  0
  152.6493  141.5769  161.4754 H   0  0  0  0  0  0  0  0  0  0  0  0
  153.8288  141.6560  160.1634 H   0  0  0  0  0  0  0  0  0  0  0  0
  152.2055  143.9145  161.3156 H   0  0  0  0  0  0  0  0  0  0  0  0
  153.8006  143.9615  160.5654 H   0  0  0  0  0  0  0  0  0  0  0  0
  151.1398  144.3273  159.3145 H   0  0  0  0  0  0  0  0  0  0  0  0
  152.7081  144.6081  158.5516 H   0  0  0  0  0  0  0  0  0  0  0  0
  152.9630  142.3338  157.9559 H   0  0  0  0  0  0  0  0  0  0  0  0
  149.9159  142.5782  157.8274 H   0  0  0  0  0  0  0  0  0  0  0  0
  151.0463  143.0387  156.5606 H   0  0  0  0  0  0  0  0  0  0  0  0
  1  2  1  0  0  0  0
  1 21  1  0  0  0  0
  1 22  1  0  0  0  0
  1 23  1  0  0  0  0
  2 20  1  0  0  0  0
  2  3  2  0  0  0  0
  3  4  1  0  0  0  0
  4  5  2  0  0  0  0
  5  6  1  0  0  0  0
  5 20  1  0  0  0  0
  6  7  1  0  0  0  0
  7  8  2  0  0  0  0
  7  9  1  0  0  0  0
  9 10  1  0  0  0  0
  9 24  1  0  0  0  0
 10 11  1  0  0  0  0
 10 25  1  0  0  0  0
 10 26  1  0  0  0  0
 11 19  1  0  0  0  0
 11 12  1  0  0  0  0
 11 27  1  0  0  0  0
 12 13  1  0  0  0  0
 12 28  1  0  0  0  0
 12 29  1  0  0  0  0
 13 17  1  0  0  0  0
 13 14  1  0  0  0  0
 14 15  1  0  0  0  0
 14 30  1  0  0  0  0
 14 31  1  0  0  0  0
 15 16  1  0  0  0  0
 15 32  1  0  0  0  0
 15 33  1  0  0  0  0
 16 17  1  0  0  0  0
 16 34  1  0  0  0  0
 16 35  1  0  0  0  0
 17 18  1  0  0  0  0
 17 36  1  0  0  0  0
 18 19  1  0  0  0  0
 18 37  1  0  0  0  0
 18 38  1  0  0  0  0
M  CHG  1   6  -1
M  END
> <s_m_source_file>
AV-unprocessed.smi

> <i_m_source_file_index>
1809

> <i_lp_mmshare_version>
43012

> <i_f3d_flags>
0

> <s_epik_input>
W0NIM11jMW5uYyhzMSlbTkhdQyg9TylbTkhdW0NIMl1bQ0BIXShbQ0gyXTIpT1tDSDJdW0NAQEhdKE4yMylbQ0gyXVtDSDJdW0NIMl0z

> <s_epik_cmdline>
J2VwaWtfcHl0aG9uJywgJy1waCcsICc3LjAnLCAnLXRuJywgJzgnLCAnLW1hJywgJzIwMCcsICctbWV0YWxfYmluZGluZycsICctaW1hZScsICc8aW5maWxlLm1hZT4nLCAnLW9tYWUnLCAnPG91dGZpbGUubWFlPic=

> <r_lp_tautomer_probability>
1

> <r_epik_Ionization_Penalty>
4.48809

> <r_epik_Ionization_Penalty_Charging>
3.27284

> <r_epik_Ionization_Penalty_Neutral>
1.21525

> <r_epik_State_Penalty>
4.69427

> <r_epik_Charging_Adjusted_Penalty>
7.96711

> <i_epik_Tot_Q>
-1

> <i_epik_Tot_abs_Q>
1

> <r_epik_Metal_State_Penalty>
1.91976

> <b_epik_Metal_Only>
1

> <s_lp_Force_Field>
OPLS_2005

> <r_lp_Energy>
45.7242

> <b_lp_Chiralities_Consistent>
1

> <s_lp_Variant>
AV-unprocessed.smi:1809-24

> <Gold.Version>
5.8.1

> <Gold.Id.Protein>
6NUR|6NUR_protein|mol2

> <Gold.PLP.Fitness>
47.0310

> <Gold.PLP.PLP>
-36.1203

> <Gold.PLP.part.hbond>
-3.8132

> <Gold.PLP.part.metal>
0.0000

> <Gold.PLP.part.buried>
-6.1761

> <Gold.PLP.part.nonpolar>
-27.2727

> <Gold.PLP.part.repulsive>
0.1343

> <Gold.PLP.ligand.clash>
0.0000

> <Gold.PLP.ligand.torsion>
0.2925

> <Gold.PLP.Chemscore.Hbond>
3.8240

> <Gold.PLP.Chemscore.CHOScore>
0.0000

> <Gold.PLP.Chemscore.Metal>
0.0000

> <Gold.Chemscore.Hbonds>
donor molecule, donor type, donor heavy atom, donor atom, acceptor molecule, acceptor atom, score
      P1  H  6896  6909       L1     6  2.00
      P1  H  6931  6943       L1     4  0.98
      P1  H  6934  6947       L1     4  0.83

> <Gold.PLP.Chemscore.Internal.Correction>
0.0238

> <Gold.Rescore>
     Score         DG    S(hbond)    S(metal)    S(lipo)     H(rot)  DE(clash)    DE(int)     intcor
     17.24     -18.94       1.92        0.00      88.86       1.31       0.01       1.69       ----

> <Gold.Chemscore.Fitness>
17.2444

> <Gold.Chemscore.DG>
-18.9438

> <Gold.Chemscore.ZeroCoef>
-5.4800

> <Gold.Chemscore.Hbond>
1.9187

> <Gold.Chemscore.Metal>
0.0000

> <Gold.Chemscore.Lipo>
88.8587

> <Gold.Chemscore.Internal_Hbond>
0.0000

> <Gold.Chemscore.DEClash>
0.0106

> <Gold.Chemscore.DEInternal>
1.6888

> <Gold.Chemscore.Rot>
1.3051

> <Gold.Chemscore.Internal.Correction>
   9.000000E+99

> <Gold.Chemscore.Hbonds>
donor molecule, donor type, donor heavy atom, donor atom, acceptor molecule, acceptor atom, score
      P1  H  6896  6909       L1     6  0.89
      P1  H  6931  6943       L1     4  0.36
      P1  H  6934  6947       L1     4  0.21

> <Gold.Chemscore.Hbond.Weighted>
-6.4085

> <Gold.Chemscore.Metal.Weighted>
-0.0000

> <Gold.Chemscore.Lipo.Weighted>
-10.3965

> <Gold.Chemscore.Internal_Hbond.Weighted>
0.0000

> <Gold.Chemscore.DEClash.Weighted>
0.0106

> <Gold.Chemscore.DEInternal.Weighted>
1.6888

> <Gold.Chemscore.Rot.Weighted>
3.3412

> <Gold.Chemscore.Internal.Correction.Weighted>
   9.000000E+99

> <Gold.Protein.RotatedTorsions>
[ 6907 6896 6895 6894 ] final   76.51 input  -60.11 | X-H torsion
[ 7974 7965 7964 7962 ] final -151.43 input  175.53 | X-H torsion
[ 8008 7997 7996 7995 ] final   26.57 input   59.86 | X-H torsion
[ 10167 10162 10161 10158 ] final  -34.91 input  -65.29 | X-H torsion
[ 10718 10713 10712 10709 ] final  115.29 input   66.30 | X-H torsion
[ 10763 10752 10751 10750 ] final   13.67 input  -60.55 | X-H torsion
[ 11005 11000 10999 10996 ] final    5.41 input  -57.11 | X-H torsion

> <Gold.Protein.ActiveResidues>
 VAL166  LYS551  ARG553  GLY616  TRP617  ASP618  TYR619  PRO620  LYS621  CYS622 
 ASP623  PHE694  ASN695  SER759  ASP760  ASP761  ALA762  ILE779  LEU786  VAL792 
 PHE793  MET794  SER795  GLU796  ALA797  LYS798  CYS799  TRP800  GLU811  SER814 

> <Gold.Protein.RotatedAtoms>
  152.5076  134.3957  159.9399 H   0  0  0  0  0  0  0  0  0  0  0  0  # atno 6907 bound_to 6896
  151.3919  133.3780  159.2730 H   0  0  0  0  0  0  0  0  0  0  0  0  # atno 6908 bound_to 6896
  150.9426  134.8854  159.7680 H   0  0  0  0  0  0  0  0  0  0  0  0  # atno 6909 bound_to 6896
  144.7850  140.4799  143.5812 H   0  0  0  0  0  0  0  0  0  0  0  0  # atno 7974 bound_to 7965
  155.0294  140.3157  155.4764 H   0  0  0  0  0  0  0  0  0  0  0  0  # atno 8008 bound_to 7997
  156.2877  140.2183  156.5357 H   0  0  0  0  0  0  0  0  0  0  0  0  # atno 8009 bound_to 7997
  154.7384  140.0475  157.0777 H   0  0  0  0  0  0  0  0  0  0  0  0  # atno 8010 bound_to 7997
  140.7176  143.3514  151.2147 H   0  0  0  0  0  0  0  0  0  0  0  0  # atno 10167 bound_to 10162
  157.6231  131.1010  150.7309 H   0  0  0  0  0  0  0  0  0  0  0  0  # atno 10718 bound_to 10713
  153.1698  135.6810  153.8624 H   0  0  0  0  0  0  0  0  0  0  0  0  # atno 10763 bound_to 10752
  153.7992  135.3158  155.3389 H   0  0  0  0  0  0  0  0  0  0  0  0  # atno 10764 bound_to 10752
  154.7990  135.4789  154.0321 H   0  0  0  0  0  0  0  0  0  0  0  0  # atno 10765 bound_to 10752
  140.5710  134.0103  155.8008 H   0  0  0  0  0  0  0  0  0  0  0  0  # atno 11005 bound_to 11000
  145.5945  139.1498  143.3163 LP  0  0  0  0  0  0  0  0  0  0  0  0  # atno 17320 bound_to 7965
  146.2078  140.6069  142.9073 LP  0  0  0  0  0  0  0  0  0  0  0  0  # atno 17321 bound_to 7965
  139.7046  143.9476  152.2921 LP  0  0  0  0  0  0  0  0  0  0  0  0  # atno 17342 bound_to 10162
  139.9181  144.6816  150.8491 LP  0  0  0  0  0  0  0  0  0  0  0  0  # atno 17343 bound_to 10162
  156.7662  130.4814  149.5427 LP  0  0  0  0  0  0  0  0  0  0  0  0  # atno 17370 bound_to 10713
  156.1387  130.6229  151.0436 LP  0  0  0  0  0  0  0  0  0  0  0  0  # atno 17371 bound_to 10713
  141.1056  133.9698  157.3002 LP  0  0  0  0  0  0  0  0  0  0  0  0  # atno 17394 bound_to 11000
  139.9362  135.0196  156.8563 LP  0  0  0  0  0  0  0  0  0  0  0  0  # atno 17395 bound_to 11000

$$$$
