#       Name:                AV-unprocessed.smi:2298
#       Creating user name   scv26
#       Creation time:       Fri Mar 27 12:44:50 2020


#       File generated by GOLD software.
#

@<TRIPOS>MOLECULE
AV-unprocessed.smi:2298
    42    43     1
SMALL
NO_CHARGES


@<TRIPOS>ATOM
      1 ****        -5.6975   2.8039   1.1227 C.3            1 S1                 0.0000
      2 ****        -4.8261   1.5746   0.9496 C.ar           1 S1                 0.0000
      3 ****        -5.4261   0.3656   1.0130 N.pl3          1 S1                 1.0000
      4 ****        -4.7536  -0.7966   0.8826 C.ar           1 S1                 0.0000
      5 ****        -3.3623  -0.7827   0.6644 C.ar           1 S1                 0.0000
      6 ****        -2.6831   0.4589   0.5720 C.ar           1 S1                 0.0000
      7 ****        -1.2778   0.5636   0.3713 N.am           1 S1                 0.0000
      8 ****        -0.4431  -0.3209  -0.2008 C.2            1 S1                 0.0000
      9 ****        -0.7737  -1.4105  -0.6682 O.2            1 S1                 0.0000
     10 ****         0.8155   0.1409  -0.2170 N.am           1 S1                 0.0000
     11 ****         1.9667  -0.5655  -0.7713 C.3            1 S1                 0.0000
     12 ****         3.0361   0.4535  -1.2054 C.3            1 S1                 0.0000
     13 ****         4.2954  -0.2441  -1.7493 C.3            1 S1                 0.0000
     14 ****         4.8742  -1.2644  -0.7511 C.3            1 S1                 0.0000
     15 ****         5.4367  -0.5925   0.3586 O.3            1 S1                 0.0000
     16 ****         3.8012  -2.2619  -0.2757 C.3            1 S1                 0.0000
     17 ****         2.5434  -1.5558   0.2603 C.3            1 S1                 0.0000
     18 ****        -3.4303   1.6528   0.7312 C.ar           1 S1                 0.0000
     19 ****        -2.6497   3.1968   0.6547 Cl             1 S1                 0.0000
     20 ****         1.6515  -1.1214  -1.6568 H              1 S1                 0.0000
     21 ****         5.6835  -1.8150  -1.2321 H              1 S1                 0.0000
     22 ****        -5.6404   3.4376   0.2374 H              1 S1                 0.0000
     23 ****        -5.3677   3.3847   1.9847 H              1 S1                 0.0000
     24 ****        -6.7424   2.5331   1.2780 H              1 S1                 0.0000
     25 ****        -5.3436  -1.6979   0.9631 H              1 S1                 0.0000
     26 ****        -2.8424  -1.7251   0.5853 H              1 S1                 0.0000
     27 ****        -0.8708   1.4507   0.6302 H              1 S1                 0.0000
     28 ****         0.9954   1.0488   0.1863 H              1 S1                 0.0000
     29 ****         2.6297   1.1178  -1.9690 H              1 S1                 0.0000
     30 ****         3.3083   1.0877  -0.3604 H              1 S1                 0.0000
     31 ****         4.0400  -0.7605  -2.6755 H              1 S1                 0.0000
     32 ****         5.0501   0.4971  -2.0144 H              1 S1                 0.0000
     33 ****         6.1245  -0.0235   0.0485 H              1 S1                 0.0000
     34 ****         3.5157  -2.9018  -1.1117 H              1 S1                 0.0000
     35 ****         4.2123  -2.9251   0.4862 H              1 S1                 0.0000
     36 ****         2.7883  -1.0277   1.1829 H              1 S1                 0.0000
     37 ****         1.7943  -2.3031   0.5249 H              1 S1                 0.0000
     38 ****        -6.4333   0.3297   1.1720 H              1 S1                 0.0000
     39 ****        -1.7312  -1.6973  -0.6392 LP             1 S1                 0.0000
     40 ****        -0.0847  -2.0090  -1.0770 LP             1 S1                 0.0000
     41 ****         5.8148  -1.2597   1.0004 LP             1 S1                 0.0000
     42 ****         4.7323  -0.0509   0.8173 LP             1 S1                 0.0000
@<TRIPOS>BOND
    1    1    2 1     
    2    1   22 1     
    3    1   23 1     
    4    1   24 1     
    5    2   18 ar    
    6    2    3 ar    
    7    3    4 ar    
    8    3   38 1     
    9    4    5 ar    
   10    4   25 1     
   11    5    6 ar    
   12    5   26 1     
   13    6    7 1     
   14    6   18 ar    
   15    7    8 am    
   16    7   27 1     
   17    8    9 2     
   18    8   10 am    
   19   10   11 1     
   20   10   28 1     
   21   11   20 1     
   22   11   17 1     
   23   11   12 1     
   24   12   13 1     
   25   12   29 1     
   26   12   30 1     
   27   13   14 1     
   28   13   31 1     
   29   13   32 1     
   30   14   21 1     
   31   14   15 1     
   32   14   16 1     
   33   15   33 1     
   34   16   17 1     
   35   16   34 1     
   36   16   35 1     
   37   17   36 1     
   38   17   37 1     
   39   18   19 1     
   40    9   39 1     
   41    9   40 1     
   42   15   41 1     
   43   15   42 1     
@<TRIPOS>SUBSTRUCTURE
      1 S1             1
@<TRIPOS>SET
LONE_PAIRS      STATIC     ATOMS    <user>   **** ""
4 39 40 41 42
DONOR_HYDROGENS      STATIC     ATOMS    <user>   **** ""
4 38 27 28 33
ATOM$BLUE        STATIC     ATOMS    COLORGROUP SYSTEM
4 39 40 41 42
ATOM$RED        STATIC     ATOMS    COLORGROUP SYSTEM
4 38 27 28 33
