#       Name:                AV-unprocessed.smi:2765
#       Creating user name   scv26
#       Creation time:       Fri Mar 27 15:09:31 2020


#       File generated by GOLD software.
#

@<TRIPOS>MOLECULE
AV-unprocessed.smi:2765
    48    49     1
SMALL
NO_CHARGES


@<TRIPOS>ATOM
      1 ****        -0.4484  -1.8779   1.3096 C.3            1 S1                 0.0000
      2 ****        -1.8609  -1.4740   0.8327 C.3            1 S1                 0.0000
      3 ****        -2.8516  -2.0276   1.8754 C.3            1 S1                 0.0000
      4 ****        -2.0425   0.0633   0.7684 C.3            1 S1                 0.0000
      5 ****        -1.4414   0.7432  -0.4770 C.3            1 S1                 0.0000
      6 ****         0.0122   0.8874  -0.4250 N.am           1 S1                 0.0000
      7 ****         0.6805   1.7618   0.3419 C.2            1 S1                 0.0000
      8 ****         0.1275   2.5500   1.1091 O.2            1 S1                 0.0000
      9 ****         2.0087   1.6528   0.1611 N.am           1 S1                 0.0000
     10 ****         3.0426   2.4026   0.7831 C.ar           1 S1                 0.0000
     11 ****         4.3546   2.0563   0.3868 C.ar           1 S1                 0.0000
     12 ****         5.4509   2.7431   0.9442 C.ar           1 S1                 0.0000
     13 ****         5.2045   3.7593   1.8844 C.ar           1 S1                 0.0000
     14 ****         6.2260   4.4476   2.4468 F              1 S1                 0.0000
     15 ****         3.8690   4.0423   2.2254 C.ar           1 S1                 0.0000
     16 ****         2.8176   3.3843   1.6922 N.ar           1 S1                 0.0000
     17 ****        -1.9059   0.0234  -1.7532 C.3            1 S1                 0.0000
     18 ****        -1.7257  -1.5168  -1.7458 C.3            1 S1                 0.0000
     19 ****        -2.6058  -2.1025  -2.8674 C.3            1 S1                 0.0000
     20 ****        -0.2735  -1.9404  -2.0585 C.3            1 S1                 0.0000
     21 ****        -2.2071  -2.1139  -0.4679 N.4            1 S1                 1.0000
     22 ****        -0.2765  -1.5439   2.3335 H              1 S1                 0.0000
     23 ****         0.3539  -1.4498   0.7180 H              1 S1                 0.0000
     24 ****        -0.3215  -2.9609   1.2981 H              1 S1                 0.0000
     25 ****        -2.6788  -1.5923   2.8607 H              1 S1                 0.0000
     26 ****        -2.7622  -3.1102   1.9764 H              1 S1                 0.0000
     27 ****        -3.8855  -1.8123   1.6019 H              1 S1                 0.0000
     28 ****        -3.1112   0.2836   0.7594 H              1 S1                 0.0000
     29 ****        -1.6669   0.5272   1.6814 H              1 S1                 0.0000
     30 ****        -1.8433   1.7573  -0.5243 H              1 S1                 0.0000
     31 ****         0.5502   0.2835  -1.0292 H              1 S1                 0.0000
     32 ****         2.3173   0.9570  -0.5014 H              1 S1                 0.0000
     33 ****         4.5250   1.2732  -0.3379 H              1 S1                 0.0000
     34 ****         6.4610   2.4939   0.6544 H              1 S1                 0.0000
     35 ****         3.6377   4.8156   2.9432 H              1 S1                 0.0000
     36 ****        -2.9678   0.2457  -1.8711 H              1 S1                 0.0000
     37 ****        -1.4237   0.4595  -2.6296 H              1 S1                 0.0000
     38 ****        -2.3364  -1.6921  -3.8416 H              1 S1                 0.0000
     39 ****        -3.6622  -1.8845  -2.7040 H              1 S1                 0.0000
     40 ****        -2.5055  -3.1869  -2.9306 H              1 S1                 0.0000
     41 ****         0.0117  -1.6327  -3.0652 H              1 S1                 0.0000
     42 ****        -0.1586  -3.0237  -2.0082 H              1 S1                 0.0000
     43 ****         0.4638  -1.5060  -1.3917 H              1 S1                 0.0000
     44 ****        -1.9376  -3.0868  -0.4372 H              1 S1                 0.0000
     45 ****        -3.2150  -2.0781  -0.5209 H              1 S1                 0.0000
     46 ****        -0.8697   2.5592   1.1832 LP             1 S1                 0.0000
     47 ****         0.6755   3.1810   1.6582 LP             1 S1                 0.0000
     48 ****         1.8840   3.6177   1.9641 LP             1 S1                 0.0000
@<TRIPOS>BOND
    1    1    2 1     
    2    1   22 1     
    3    1   23 1     
    4    1   24 1     
    5    2   21 1     
    6    2    3 1     
    7    2    4 1     
    8    3   25 1     
    9    3   26 1     
   10    3   27 1     
   11    4    5 1     
   12    4   28 1     
   13    4   29 1     
   14    5    6 1     
   15    5   17 1     
   16    5   30 1     
   17    6    7 am    
   18    6   31 1     
   19    7    8 2     
   20    7    9 am    
   21    9   10 1     
   22    9   32 1     
   23   10   16 ar    
   24   10   11 ar    
   25   11   12 ar    
   26   11   33 1     
   27   12   13 ar    
   28   12   34 1     
   29   13   14 1     
   30   13   15 ar    
   31   15   16 ar    
   32   15   35 1     
   33   17   18 1     
   34   17   36 1     
   35   17   37 1     
   36   18   19 1     
   37   18   20 1     
   38   18   21 1     
   39   19   38 1     
   40   19   39 1     
   41   19   40 1     
   42   20   41 1     
   43   20   42 1     
   44   20   43 1     
   45   21   44 1     
   46   21   45 1     
   47    8   46 1     
   48    8   47 1     
   49   16   48 1     
@<TRIPOS>SUBSTRUCTURE
      1 S1             1
@<TRIPOS>SET
LONE_PAIRS      STATIC     ATOMS    <user>   **** ""
3 46 47 48
DONOR_HYDROGENS      STATIC     ATOMS    <user>   **** ""
4 31 32 44 45
ATOM$BLUE        STATIC     ATOMS    COLORGROUP SYSTEM
3 46 47 48
ATOM$RED        STATIC     ATOMS    COLORGROUP SYSTEM
4 31 32 44 45
