AV-unprocessed.smi:280|AV-procd|sdf|2099|dock5
  -GOLD-   2262021383D 1   1.00000     0.00000
 Structure written by MMmdl.
 59 62  0  0  0  0  0  0  0  0  2 V2000
  148.7640  136.4650  156.7195 C   0  0  0  0  0  0  0  0  0  0  0  0
  148.9962  136.2593  155.2060 C   0  0  2  0  0  0  0  0  0  0  0  0
  150.4952  136.3193  154.8416 C   0  0  0  0  0  0  0  0  0  0  0  0
  150.9936  137.6943  154.8886 N   0  0  0  0  0  0  0  0  0  0  0  0
  151.6840  138.0973  155.9905 C   0  0  0  0  0  0  0  0  0  0  0  0
  152.6464  137.2607  156.4604 N   0  0  0  0  0  0  0  0  0  0  0  0
  153.3698  137.5853  157.5345 C   0  0  0  0  0  0  0  0  0  0  0  0
  153.2982  138.6845  158.2842 N   0  0  0  0  0  0  0  0  0  0  0  0
  152.3355  139.5335  157.8256 C   0  0  0  0  0  0  0  0  0  0  0  0
  151.4881  139.3232  156.6981 C   0  0  0  0  0  0  0  0  0  0  0  0
  150.6246  140.4062  156.5660 N   0  0  0  0  0  0  0  0  0  0  0  0
  150.9525  141.2101  157.5392 C   0  0  0  0  0  0  0  0  0  0  0  0
  151.9806  140.7694  158.3387 N   0  0  0  0  0  0  0  0  0  0  0  0
  152.5506  141.4562  159.4876 C   0  0  0  0  0  0  0  0  0  0  0  0
  152.5078  142.9980  159.4086 C   0  0  0  0  0  0  0  0  0  0  0  0
  153.2748  143.5001  158.1708 C   0  0  0  0  0  0  0  0  0  0  0  0
  153.1197  144.8921  157.9755 O   0  0  0  0  0  0  0  0  0  0  0  0
  151.1478  143.6605  159.6802 C   0  0  0  0  0  0  0  0  0  0  0  0
  151.5141  143.9982  161.0341 O   0  0  0  0  0  0  0  0  0  0  0  0
  152.8889  143.6839  160.7294 C   0  0  0  0  0  0  0  0  0  0  0  0
  150.2438  138.6427  154.0718 C   0  0  0  0  0  0  0  0  0  0  0  0
  148.7428  138.6035  154.4150 C   0  0  0  0  0  0  0  0  0  0  0  0
  148.2219  137.2105  154.3540 N   0  3  2  0  0  0  0  0  0  0  0  0
  146.7443  137.1070  154.5040 C   0  0  0  0  0  0  0  0  0  0  0  0
  145.9834  137.2297  153.1610 C   0  0  0  0  0  0  0  0  0  0  0  0
  144.4556  137.1876  153.3487 C   0  0  0  0  0  0  0  0  0  0  0  0
  146.3936  138.5258  152.4419 C   0  0  0  0  0  0  0  0  0  0  0  0
  146.3549  136.1685  152.3050 O   0  0  0  0  0  0  0  0  0  0  0  0
  149.3424  135.7436  157.2971 H   0  0  0  0  0  0  0  0  0  0  0  0
  147.7189  136.3291  156.9958 H   0  0  0  0  0  0  0  0  0  0  0  0
  149.0650  137.4577  157.0529 H   0  0  0  0  0  0  0  0  0  0  0  0
  148.6510  135.2540  154.9605 H   0  0  0  0  0  0  0  0  0  0  0  0
  151.0617  135.6425  155.4812 H   0  0  0  0  0  0  0  0  0  0  0  0
  150.6352  135.9524  153.8241 H   0  0  0  0  0  0  0  0  0  0  0  0
  154.1131  136.8614  157.8350 H   0  0  0  0  0  0  0  0  0  0  0  0
  150.4471  142.1508  157.7003 H   0  0  0  0  0  0  0  0  0  0  0  0
  152.0169  141.1093  160.3736 H   0  0  0  0  0  0  0  0  0  0  0  0
  153.5780  141.1133  159.6158 H   0  0  0  0  0  0  0  0  0  0  0  0
  154.3433  143.3093  158.2731 H   0  0  0  0  0  0  0  0  0  0  0  0
  152.9563  142.9761  157.2693 H   0  0  0  0  0  0  0  0  0  0  0  0
  152.2459  145.0543  157.6539 H   0  0  0  0  0  0  0  0  0  0  0  0
  150.9614  144.5524  159.0797 H   0  0  0  0  0  0  0  0  0  0  0  0
  150.2970  142.9818  159.6376 H   0  0  0  0  0  0  0  0  0  0  0  0
  153.3376  143.0153  161.4654 H   0  0  0  0  0  0  0  0  0  0  0  0
  153.4911  144.5863  160.6124 H   0  0  0  0  0  0  0  0  0  0  0  0
  150.6454  139.6522  154.1494 H   0  0  0  0  0  0  0  0  0  0  0  0
  150.3790  138.3564  153.0281 H   0  0  0  0  0  0  0  0  0  0  0  0
  148.5627  139.0170  155.4068 H   0  0  0  0  0  0  0  0  0  0  0  0
  148.2061  139.2432  153.7165 H   0  0  0  0  0  0  0  0  0  0  0  0
  146.4930  136.1331  154.9260 H   0  0  0  0  0  0  0  0  0  0  0  0
  146.3888  137.8426  155.2277 H   0  0  0  0  0  0  0  0  0  0  0  0
  144.1190  137.9851  154.0120 H   0  0  0  0  0  0  0  0  0  0  0  0
  144.1239  136.2409  153.7758 H   0  0  0  0  0  0  0  0  0  0  0  0
  143.9363  137.3121  152.3978 H   0  0  0  0  0  0  0  0  0  0  0  0
  146.1327  139.4045  153.0330 H   0  0  0  0  0  0  0  0  0  0  0  0
  145.8959  138.6221  151.4759 H   0  0  0  0  0  0  0  0  0  0  0  0
  147.4690  138.5589  152.2616 H   0  0  0  0  0  0  0  0  0  0  0  0
  147.2986  136.1122  152.2854 H   0  0  0  0  0  0  0  0  0  0  0  0
  148.4033  136.9041  153.4088 H   0  0  0  0  0  0  0  0  0  0  0  0
  1  2  1  0  0  0  0
  1 29  1  0  0  0  0
  1 30  1  0  0  0  0
  1 31  1  0  0  0  0
  2 23  1  0  0  0  0
  2  3  1  0  0  0  0
  2 32  1  0  0  0  0
  3  4  1  0  0  0  0
  3 33  1  0  0  0  0
  3 34  1  0  0  0  0
  4  5  1  0  0  0  0
  4 21  1  0  0  0  0
  5 10  1  0  0  0  0
  5  6  2  0  0  0  0
  6  7  1  0  0  0  0
  7  8  2  0  0  0  0
  7 35  1  0  0  0  0
  8  9  1  0  0  0  0
  9 13  1  0  0  0  0
  9 10  2  0  0  0  0
 10 11  1  0  0  0  0
 11 12  2  0  0  0  0
 12 13  1  0  0  0  0
 12 36  1  0  0  0  0
 13 14  1  0  0  0  0
 14 15  1  0  0  0  0
 14 37  1  0  0  0  0
 14 38  1  0  0  0  0
 15 20  1  0  0  0  0
 15 16  1  0  0  0  0
 15 18  1  0  0  0  0
 16 17  1  0  0  0  0
 16 39  1  0  0  0  0
 16 40  1  0  0  0  0
 17 41  1  0  0  0  0
 18 19  1  0  0  0  0
 18 42  1  0  0  0  0
 18 43  1  0  0  0  0
 19 20  1  0  0  0  0
 20 44  1  0  0  0  0
 20 45  1  0  0  0  0
 21 22  1  0  0  0  0
 21 46  1  0  0  0  0
 21 47  1  0  0  0  0
 22 23  1  0  0  0  0
 22 48  1  0  0  0  0
 22 49  1  0  0  0  0
 23 24  1  0  0  0  0
 23 59  1  0  0  0  0
 24 25  1  0  0  0  0
 24 50  1  0  0  0  0
 24 51  1  0  0  0  0
 25 26  1  0  0  0  0
 25 27  1  0  0  0  0
 25 28  1  0  0  0  0
 26 52  1  0  0  0  0
 26 53  1  0  0  0  0
 26 54  1  0  0  0  0
 27 55  1  0  0  0  0
 27 56  1  0  0  0  0
 27 57  1  0  0  0  0
 28 58  1  0  0  0  0
M  CHG  1  23   1
M  END
> <s_m_source_file>
AV-unprocessed.smi

> <i_m_source_file_index>
280

> <i_lp_mmshare_version>
43012

> <i_f3d_flags>
0

> <s_epik_input>
W0NIM11DKFtDSDNdKShbT0hdKVtDSDJdTjFbQ0gyXVtDSDJdTihbQ0gyXVtDQEhdMVtDSDNdKWMobltjSF1uMiljKGMyMyluW2NIXW4zW0NIMl1DNChbQ0gyXVtPSF0pW0NIMl1PW0NIMl00

> <s_epik_cmdline>
J2VwaWtfcHl0aG9uJywgJy1waCcsICc3LjAnLCAnLXRuJywgJzgnLCAnLW1hJywgJzIwMCcsICctbWV0YWxfYmluZGluZycsICctaW1hZScsICc8aW5maWxlLm1hZT4nLCAnLW9tYWUnLCAnPG91dGZpbGUubWFlPic=

> <r_lp_tautomer_probability>
1

> <r_epik_Ionization_Penalty>
0.00179402

> <r_epik_Ionization_Penalty_Charging>
0.00173996

> <r_epik_Ionization_Penalty_Neutral>
5.40607e-05

> <r_epik_State_Penalty>
-0

> <r_epik_Charging_Adjusted_Penalty>
0.00173996

> <i_epik_Tot_Q>
1

> <i_epik_Tot_abs_Q>
1

> <r_epik_Metal_State_Penalty>
-0

> <b_epik_Metal_Only>
0

> <s_lp_Force_Field>
OPLS_2005

> <r_lp_Energy>
53.0384

> <b_lp_Chiralities_Consistent>
1

> <s_lp_Variant>
AV-unprocessed.smi:280-3

> <Gold.Version>
5.8.1

> <Gold.Id.Protein>
6NUR|6NUR_protein|mol2

> <Gold.PLP.Fitness>
47.0888

> <Gold.PLP.PLP>
-37.1582

> <Gold.PLP.part.hbond>
-4.8720

> <Gold.PLP.part.metal>
0.0000

> <Gold.PLP.part.buried>
-3.4933

> <Gold.PLP.part.nonpolar>
-29.3829

> <Gold.PLP.part.repulsive>
0.1781

> <Gold.PLP.ligand.clash>
0.0000

> <Gold.PLP.ligand.torsion>
1.5268

> <Gold.PLP.Chemscore.Hbond>
4.0028

> <Gold.PLP.Chemscore.CHOScore>
0.0000

> <Gold.PLP.Chemscore.Metal>
0.0000

> <Gold.Chemscore.Hbonds>
donor molecule, donor type, donor heavy atom, donor atom, acceptor molecule, acceptor atom, score
      L1  H    23    59       P1  7948  2.00
      L1  H    28    58       P1  7948  1.00
      P1  H  7997  8008       L1     8  0.12
      P1  H 10752 10765       L1     6  0.22

> <Gold.PLP.Chemscore.Internal.Correction>
0.9758

> <Gold.Rescore>
     Score         DG    S(hbond)    S(metal)    S(lipo)     H(rot)  DE(clash)    DE(int)     intcor
     13.36     -15.79       2.27        0.00      95.40       3.30       0.27       2.16       ----

> <Gold.Chemscore.Fitness>
13.3608

> <Gold.Chemscore.DG>
-15.7861

> <Gold.Chemscore.ZeroCoef>
-5.4800

> <Gold.Chemscore.Hbond>
2.2725

> <Gold.Chemscore.Metal>
0.0000

> <Gold.Chemscore.Lipo>
95.3969

> <Gold.Chemscore.Internal_Hbond>
0.0000

> <Gold.Chemscore.DEClash>
0.2692

> <Gold.Chemscore.DEInternal>
2.1562

> <Gold.Chemscore.Rot>
3.2991

> <Gold.Chemscore.Internal.Correction>
   9.000000E+99

> <Gold.Chemscore.Hbonds>
donor molecule, donor type, donor heavy atom, donor atom, acceptor molecule, acceptor atom, score
      L1  H    23    59       P1  7948  1.00
      L1  H    28    58       P1  7948  1.00
      P1  H 10752 10765       L1     6  0.20

> <Gold.Chemscore.Hbond.Weighted>
-7.5903

> <Gold.Chemscore.Metal.Weighted>
-0.0000

> <Gold.Chemscore.Lipo.Weighted>
-11.1614

> <Gold.Chemscore.Internal_Hbond.Weighted>
0.0000

> <Gold.Chemscore.DEClash.Weighted>
0.2692

> <Gold.Chemscore.DEInternal.Weighted>
2.1562

> <Gold.Chemscore.Rot.Weighted>
8.4456

> <Gold.Chemscore.Internal.Correction.Weighted>
   9.000000E+99

> <Gold.Protein.RotatedTorsions>
[ 6907 6896 6895 6894 ] final   66.29 input  -60.11 | X-H torsion
[ 7974 7965 7964 7962 ] final   -3.13 input  175.53 | X-H torsion
[ 8008 7997 7996 7995 ] final -109.30 input   59.86 | X-H torsion
[ 10167 10162 10161 10158 ] final -136.49 input  -65.29 | X-H torsion
[ 10718 10713 10712 10709 ] final  -84.89 input   66.30 | X-H torsion
[ 10763 10752 10751 10750 ] final -153.06 input  -60.55 | X-H torsion
[ 11005 11000 10999 10996 ] final -166.21 input  -57.11 | X-H torsion

> <Gold.Protein.ActiveResidues>
 VAL166  LYS551  ARG553  GLY616  TRP617  ASP618  TYR619  PRO620  LYS621  CYS622 
 ASP623  PHE694  ASN695  SER759  ASP760  ASP761  ALA762  ILE779  LEU786  VAL792 
 PHE793  MET794  SER795  GLU796  ALA797  LYS798  CYS799  TRP800  GLU811  SER814 

> <Gold.Protein.RotatedAtoms>
  152.4470  134.5474  159.9856 H   0  0  0  0  0  0  0  0  0  0  0  0  # atno 6907 bound_to 6896
  151.5557  133.3405  159.2969 H   0  0  0  0  0  0  0  0  0  0  0  0  # atno 6908 bound_to 6896
  150.8388  134.7705  159.6979 H   0  0  0  0  0  0  0  0  0  0  0  0  # atno 6909 bound_to 6896
  146.2394  140.1674  142.8332 H   0  0  0  0  0  0  0  0  0  0  0  0  # atno 7974 bound_to 7965
  154.9573  140.0399  157.2173 H   0  0  0  0  0  0  0  0  0  0  0  0  # atno 8008 bound_to 7997
  154.7922  140.2837  155.5961 H   0  0  0  0  0  0  0  0  0  0  0  0  # atno 8009 bound_to 7997
  156.2951  140.2571  156.2772 H   0  0  0  0  0  0  0  0  0  0  0  0  # atno 8010 bound_to 7997
  139.8673  143.7002  152.2644 H   0  0  0  0  0  0  0  0  0  0  0  0  # atno 10167 bound_to 10162
  156.0002  130.4713  150.4479 H   0  0  0  0  0  0  0  0  0  0  0  0  # atno 10718 bound_to 10713
  154.7953  135.3221  154.7682 H   0  0  0  0  0  0  0  0  0  0  0  0  # atno 10763 bound_to 10752
  153.8362  135.6875  153.4813 H   0  0  0  0  0  0  0  0  0  0  0  0  # atno 10764 bound_to 10752
  153.1641  135.4649  154.9755 H   0  0  0  0  0  0  0  0  0  0  0  0  # atno 10765 bound_to 10752
  140.5670  134.5276  157.5154 H   0  0  0  0  0  0  0  0  0  0  0  0  # atno 11005 bound_to 11000
  145.0039  140.8656  143.5265 LP  0  0  0  0  0  0  0  0  0  0  0  0  # atno 17320 bound_to 7965
  145.1698  139.2411  143.5348 LP  0  0  0  0  0  0  0  0  0  0  0  0  # atno 17321 bound_to 7965
  139.7317  144.7581  151.0791 LP  0  0  0  0  0  0  0  0  0  0  0  0  # atno 17342 bound_to 10162
  140.7766  143.5080  150.9688 LP  0  0  0  0  0  0  0  0  0  0  0  0  # atno 17343 bound_to 10162
  157.2514  131.0547  151.2377 LP  0  0  0  0  0  0  0  0  0  0  0  0  # atno 17370 bound_to 10713
  157.3524  130.7089  149.6449 LP  0  0  0  0  0  0  0  0  0  0  0  0  # atno 17371 bound_to 10713
  139.9380  134.7840  156.0752 LP  0  0  0  0  0  0  0  0  0  0  0  0  # atno 17394 bound_to 11000
  141.1079  133.6653  156.2908 LP  0  0  0  0  0  0  0  0  0  0  0  0  # atno 17395 bound_to 11000

$$$$
