AV-unprocessed.smi:2120|AV-procd|sdf|8639|dock3
  -GOLD-   2272011383D 1   1.00000     0.00000
 Structure written by MMmdl.
 46 49  0  0  0  0  0  0  0  0  2 V2000
  149.0178  141.0360  158.4140 O   0  0  0  0  0  0  0  0  0  0  0  0
  149.4775  142.0297  157.8495 C   0  0  0  0  0  0  0  0  0  0  0  0
  149.0489  142.4232  156.6380 N   0  0  0  0  0  0  0  0  0  0  0  0
  148.0246  141.7480  155.8504 C   0  0  0  0  0  0  0  0  0  0  0  0
  148.5435  141.3551  154.4563 C   0  0  0  0  0  0  0  0  0  0  0  0
  149.5074  140.1857  154.5100 C   0  0  0  0  0  0  0  0  0  0  0  0
  150.6846  140.2655  155.2867 C   0  0  0  0  0  0  0  0  0  0  0  0
  151.5665  139.1653  155.3218 C   0  0  0  0  0  0  0  0  0  0  0  0
  151.2495  138.0082  154.5814 C   0  0  0  0  0  0  0  0  0  0  0  0
  150.1134  137.9675  153.8510 N   0  3  0  0  0  0  0  0  0  0  0  0
  149.2443  139.0004  153.7894 C   0  0  0  0  0  0  0  0  0  0  0  0
  150.5779  142.8647  158.5464 C   0  0  0  0  0  0  0  0  0  0  0  0
  149.9482  143.6501  159.7290 C   0  0  0  0  0  0  0  0  0  0  0  0
  151.0329  144.4540  160.4787 C   0  0  1  0  0  0  0  0  0  0  0  0
  152.0979  143.4869  161.0367 C   0  0  0  0  0  0  0  0  0  0  0  0
  152.7471  142.7167  159.8678 C   0  0  2  0  0  0  0  0  0  0  0  0
  153.4177  143.7128  158.8997 C   0  0  0  0  0  0  0  0  0  0  0  0
  152.3509  144.6807  158.3476 C   0  0  2  0  0  0  0  0  0  0  0  0
  151.6985  145.4551  159.5117 C   0  0  0  0  0  0  0  0  0  0  0  0
  151.2694  143.8817  157.5894 C   0  0  0  0  0  0  0  0  0  0  0  0
  151.6654  141.9114  159.1163 C   0  0  0  0  0  0  0  0  0  0  0  0
  149.4704  143.2467  156.2329 H   0  0  0  0  0  0  0  0  0  0  0  0
  147.7104  140.8570  156.3947 H   0  0  0  0  0  0  0  0  0  0  0  0
  147.1448  142.3886  155.7684 H   0  0  0  0  0  0  0  0  0  0  0  0
  147.7136  141.0826  153.8032 H   0  0  0  0  0  0  0  0  0  0  0  0
  149.0344  142.2090  153.9871 H   0  0  0  0  0  0  0  0  0  0  0  0
  150.9109  141.1607  155.8480 H   0  0  0  0  0  0  0  0  0  0  0  0
  152.4725  139.2089  155.9087 H   0  0  0  0  0  0  0  0  0  0  0  0
  151.8657  137.1213  154.5518 H   0  0  0  0  0  0  0  0  0  0  0  0
  148.3719  138.8467  153.1708 H   0  0  0  0  0  0  0  0  0  0  0  0
  149.1744  144.3280  159.3648 H   0  0  0  0  0  0  0  0  0  0  0  0
  149.4536  142.9705  160.4253 H   0  0  0  0  0  0  0  0  0  0  0  0
  150.5728  144.9994  161.3032 H   0  0  0  0  0  0  0  0  0  0  0  0
  152.8559  144.0391  161.5936 H   0  0  0  0  0  0  0  0  0  0  0  0
  151.6435  142.7904  161.7422 H   0  0  0  0  0  0  0  0  0  0  0  0
  153.4993  142.0316  160.2601 H   0  0  0  0  0  0  0  0  0  0  0  0
  154.2031  144.2686  159.4136 H   0  0  0  0  0  0  0  0  0  0  0  0
  153.9024  143.1773  158.0824 H   0  0  0  0  0  0  0  0  0  0  0  0
  152.8239  145.3868  157.6644 H   0  0  0  0  0  0  0  0  0  0  0  0
  150.9599  146.1613  159.1303 H   0  0  0  0  0  0  0  0  0  0  0  0
  152.4475  146.0480  160.0383 H   0  0  0  0  0  0  0  0  0  0  0  0
  151.7264  143.3645  156.7441 H   0  0  0  0  0  0  0  0  0  0  0  0
  150.5398  144.5769  157.1709 H   0  0  0  0  0  0  0  0  0  0  0  0
  151.2244  141.1808  159.7965 H   0  0  0  0  0  0  0  0  0  0  0  0
  152.1262  141.3375  158.3109 H   0  0  0  0  0  0  0  0  0  0  0  0
  149.9023  137.1197  153.3235 H   0  0  0  0  0  0  0  0  0  0  0  0
  1  2  2  0  0  0  0
  2  3  1  0  0  0  0
  2 12  1  0  0  0  0
  3  4  1  0  0  0  0
  3 22  1  0  0  0  0
  4  5  1  0  0  0  0
  4 23  1  0  0  0  0
  4 24  1  0  0  0  0
  5  6  1  0  0  0  0
  5 25  1  0  0  0  0
  5 26  1  0  0  0  0
  6 11  1  0  0  0  0
  6  7  2  0  0  0  0
  7  8  1  0  0  0  0
  7 27  1  0  0  0  0
  8  9  2  0  0  0  0
  8 28  1  0  0  0  0
  9 10  1  0  0  0  0
  9 29  1  0  0  0  0
 10 11  2  0  0  0  0
 10 46  1  0  0  0  0
 11 30  1  0  0  0  0
 12 20  1  0  0  0  0
 12 21  1  0  0  0  0
 12 13  1  0  0  0  0
 13 14  1  0  0  0  0
 13 31  1  0  0  0  0
 13 32  1  0  0  0  0
 14 19  1  0  0  0  0
 14 15  1  0  0  0  0
 14 33  1  0  0  0  0
 15 16  1  0  0  0  0
 15 34  1  0  0  0  0
 15 35  1  0  0  0  0
 16 17  1  0  0  0  0
 16 21  1  0  0  0  0
 16 36  1  0  0  0  0
 17 18  1  0  0  0  0
 17 37  1  0  0  0  0
 17 38  1  0  0  0  0
 18 19  1  0  0  0  0
 18 20  1  0  0  0  0
 18 39  1  0  0  0  0
 19 40  1  0  0  0  0
 19 41  1  0  0  0  0
 20 42  1  0  0  0  0
 20 43  1  0  0  0  0
 21 44  1  0  0  0  0
 21 45  1  0  0  0  0
M  CHG  1  10   1
M  END
> <s_m_source_file>
AV-unprocessed.smi

> <i_m_source_file_index>
2120

> <i_lp_mmshare_version>
43012

> <i_f3d_flags>
0

> <s_epik_input>
W0NIMl0xW0NASF0oW0NIMl0yKVtDSDJdW0NASF0oW0NIMl0zKVtDSDJdW0NAQEhdMVtDSDJdQzIzQyg9TylbTkhdW0NIMl1bQ0gyXWM0W2NIXVtjSF1bY0hdbltjSF00

> <s_epik_cmdline>
J2VwaWtfcHl0aG9uJywgJy1waCcsICc3LjAnLCAnLXRuJywgJzgnLCAnLW1hJywgJzIwMCcsICctbWV0YWxfYmluZGluZycsICctaW1hZScsICc8aW5maWxlLm1hZT4nLCAnLW9tYWUnLCAnPG91dGZpbGUubWFlPic=

> <r_epik_Ionization_Penalty>
2.23732

> <r_epik_Ionization_Penalty_Charging>
2.23732

> <r_epik_Ionization_Penalty_Neutral>
2.68417e-08

> <r_epik_State_Penalty>
2.38345

> <r_epik_Charging_Adjusted_Penalty>
4.62076

> <i_epik_Tot_Q>
1

> <i_epik_Tot_abs_Q>
1

> <r_epik_Metal_State_Penalty>
2.39692

> <b_epik_Metal_Only>
0

> <s_lp_Force_Field>
OPLS_2005

> <r_lp_Energy>
42.1143

> <b_lp_Chiralities_Consistent>
1

> <s_lp_Variant>
AV-unprocessed.smi:2120-2

> <Gold.Version>
5.8.1

> <Gold.Id.Protein>
6NUR|6NUR_protein|mol2

> <Gold.PLP.Fitness>
54.3845

> <Gold.PLP.PLP>
-47.2429

> <Gold.PLP.part.hbond>
-2.7809

> <Gold.PLP.part.metal>
0.0000

> <Gold.PLP.part.buried>
1.4876

> <Gold.PLP.part.nonpolar>
-46.6149

> <Gold.PLP.part.repulsive>
0.0965

> <Gold.PLP.ligand.clash>
0.0000

> <Gold.PLP.ligand.torsion>
0.4914

> <Gold.PLP.Chemscore.Hbond>
2.7040

> <Gold.PLP.Chemscore.CHOScore>
0.0000

> <Gold.PLP.Chemscore.Metal>
0.0000

> <Gold.Chemscore.Hbonds>
donor molecule, donor type, donor heavy atom, donor atom, acceptor molecule, acceptor atom, score
      L1  H     3    22       P1  8028  0.70
      L1  H    10    46       P1  7948  2.00

> <Gold.PLP.Chemscore.Internal.Correction>
0.0124

> <Gold.Rescore>
     Score         DG    S(hbond)    S(metal)    S(lipo)     H(rot)  DE(clash)    DE(int)     intcor
     22.89     -24.46       1.37        0.00     153.96       1.41       1.00       0.57       ----

> <Gold.Chemscore.Fitness>
22.8858

> <Gold.Chemscore.DG>
-24.4571

> <Gold.Chemscore.ZeroCoef>
-5.4800

> <Gold.Chemscore.Hbond>
1.3726

> <Gold.Chemscore.Metal>
0.0000

> <Gold.Chemscore.Lipo>
153.9629

> <Gold.Chemscore.Internal_Hbond>
0.0000

> <Gold.Chemscore.DEClash>
1.0040

> <Gold.Chemscore.DEInternal>
0.5673

> <Gold.Chemscore.Rot>
1.4145

> <Gold.Chemscore.Internal.Correction>
   9.000000E+99

> <Gold.Chemscore.Hbonds>
donor molecule, donor type, donor heavy atom, donor atom, acceptor molecule, acceptor atom, score
      L1  H     3    22       P1  8028  0.70
      L1  H    10    46       P1  7948  0.33

> <Gold.Chemscore.Hbond.Weighted>
-4.5844

> <Gold.Chemscore.Metal.Weighted>
-0.0000

> <Gold.Chemscore.Lipo.Weighted>
-18.0137

> <Gold.Chemscore.Internal_Hbond.Weighted>
0.0000

> <Gold.Chemscore.DEClash.Weighted>
1.0040

> <Gold.Chemscore.DEInternal.Weighted>
0.5673

> <Gold.Chemscore.Rot.Weighted>
3.6210

> <Gold.Chemscore.Internal.Correction.Weighted>
   9.000000E+99

> <Gold.Protein.RotatedTorsions>
[ 6907 6896 6895 6894 ] final  141.58 input  -60.11 | X-H torsion
[ 7974 7965 7964 7962 ] final -102.94 input  175.53 | X-H torsion
[ 8008 7997 7996 7995 ] final -178.73 input   59.86 | X-H torsion
[ 10167 10162 10161 10158 ] final  -54.64 input  -65.29 | X-H torsion
[ 10718 10713 10712 10709 ] final -123.32 input   66.30 | X-H torsion
[ 10763 10752 10751 10750 ] final -174.25 input  -60.55 | X-H torsion
[ 11005 11000 10999 10996 ] final  103.24 input  -57.11 | X-H torsion

> <Gold.Protein.ActiveResidues>
 VAL166  LYS551  ARG553  GLY616  TRP617  ASP618  TYR619  PRO620  LYS621  CYS622 
 ASP623  PHE694  ASN695  SER759  ASP760  ASP761  ALA762  ILE779  LEU786  VAL792 
 PHE793  MET794  SER795  GLU796  ALA797  LYS798  CYS799  TRP800  GLU811  SER814 

> <Gold.Protein.RotatedAtoms>
  152.2293  133.5045  159.5206 H   0  0  0  0  0  0  0  0  0  0  0  0  # atno 6907 bound_to 6896
  150.7033  134.1238  159.4053 H   0  0  0  0  0  0  0  0  0  0  0  0  # atno 6908 bound_to 6896
  151.9159  135.0319  160.0569 H   0  0  0  0  0  0  0  0  0  0  0  0  # atno 6909 bound_to 6896
  145.2622  140.9273  143.3034 H   0  0  0  0  0  0  0  0  0  0  0  0  # atno 7974 bound_to 7965
  156.0223  140.1263  157.0345 H   0  0  0  0  0  0  0  0  0  0  0  0  # atno 8008 bound_to 7997
  154.4316  140.1066  156.6051 H   0  0  0  0  0  0  0  0  0  0  0  0  # atno 8009 bound_to 7997
  155.5927  140.3469  155.4573 H   0  0  0  0  0  0  0  0  0  0  0  0  # atno 8010 bound_to 7997
  140.6419  143.2513  151.4966 H   0  0  0  0  0  0  0  0  0  0  0  0  # atno 10167 bound_to 10162
  156.1492  130.6522  150.9888 H   0  0  0  0  0  0  0  0  0  0  0  0  # atno 10718 bound_to 10713
  154.5984  135.2852  155.0561 H   0  0  0  0  0  0  0  0  0  0  0  0  # atno 10763 bound_to 10752
  154.1835  135.6453  153.5044 H   0  0  0  0  0  0  0  0  0  0  0  0  # atno 10764 bound_to 10752
  153.0147  135.5429  154.6695 H   0  0  0  0  0  0  0  0  0  0  0  0  # atno 10765 bound_to 10752
  139.8782  134.9255  156.5179 H   0  0  0  0  0  0  0  0  0  0  0  0  # atno 11005 bound_to 11000
  144.9408  139.4191  143.6450 LP  0  0  0  0  0  0  0  0  0  0  0  0  # atno 17320 bound_to 7965
  146.3272  139.8367  142.8898 LP  0  0  0  0  0  0  0  0  0  0  0  0  # atno 17321 bound_to 7965
  139.5628  144.2114  152.1719 LP  0  0  0  0  0  0  0  0  0  0  0  0  # atno 17342 bound_to 10162
  140.1387  144.5222  150.6757 LP  0  0  0  0  0  0  0  0  0  0  0  0  # atno 17343 bound_to 10162
  157.6642  131.0875  150.7766 LP  0  0  0  0  0  0  0  0  0  0  0  0  # atno 17370 bound_to 10713
  156.7836  130.4867  149.5397 LP  0  0  0  0  0  0  0  0  0  0  0  0  # atno 17371 bound_to 10713
  140.8472  133.8159  155.9133 LP  0  0  0  0  0  0  0  0  0  0  0  0  # atno 17394 bound_to 11000
  140.9180  134.2178  157.4945 LP  0  0  0  0  0  0  0  0  0  0  0  0  # atno 17395 bound_to 11000

$$$$
