AV-unprocessed.smi:652|AV-procd|sdf|3193|dock7
  -GOLD-   22720 0123D 1   1.00000     0.00000
 Structure written by MMmdl.
 48 49  0  0  0  0  0  0  0  0  2 V2000
  143.0869  135.8386  152.9031 C   0  0  0  0  0  0  0  0  0  0  0  0
  143.9309  136.9586  152.2752 C   0  0  0  0  0  0  0  0  0  0  0  0
  145.2238  136.4135  151.6541 C   0  0  0  0  0  0  0  0  0  0  0  0
  144.2618  137.9676  153.2774 N   0  0  0  0  0  0  0  0  0  0  0  0
  144.9689  137.7514  154.3975 C   0  0  0  0  0  0  0  0  0  0  0  0
  145.4227  136.6496  154.7077 O   0  0  0  0  0  0  0  0  0  0  0  0
  145.1870  138.9748  155.2946 C   0  0  0  0  0  0  0  0  0  0  0  0
  146.6748  139.2862  155.5642 C   0  0  0  0  0  0  0  0  0  0  0  0
  146.9336  140.7397  155.7505 N   0  3  2  0  0  0  0  0  0  0  0  0
  146.6288  141.5503  154.5459 C   0  0  0  0  0  0  0  0  0  0  0  0
  147.7489  141.4309  153.4960 C   0  0  0  0  0  0  0  0  0  0  0  0
  148.9909  141.8045  154.0805 O   0  0  0  0  0  0  0  0  0  0  0  0
  149.3613  140.9597  155.1662 C   0  0  1  0  0  0  0  0  0  0  0  0
  150.7390  141.4046  155.6756 C   0  0  0  0  0  0  0  0  0  0  0  0
  150.6676  142.6853  156.3649 N   0  0  0  0  0  0  0  0  0  0  0  0
  151.4051  142.9128  157.5343 C   0  0  0  0  0  0  0  0  0  0  0  0
  151.8260  144.2245  157.8304 C   0  0  0  0  0  0  0  0  0  0  0  0
  152.5690  144.4209  159.0071 C   0  0  0  0  0  0  0  0  0  0  0  0
  152.8344  143.2890  159.7992 C   0  0  0  0  0  0  0  0  0  0  0  0
  152.4043  142.0509  159.4670 N   0  0  0  0  0  0  0  0  0  0  0  0
  151.6975  141.8656  158.3461 N   0  0  0  0  0  0  0  0  0  0  0  0
  148.2852  141.0777  156.2669 C   0  0  0  0  0  0  0  0  0  0  0  0
  142.8212  135.0866  152.1597 H   0  0  0  0  0  0  0  0  0  0  0  0
  142.1579  136.2287  153.3202 H   0  0  0  0  0  0  0  0  0  0  0  0
  143.6276  135.3358  153.7057 H   0  0  0  0  0  0  0  0  0  0  0  0
  143.3508  137.4241  151.4763 H   0  0  0  0  0  0  0  0  0  0  0  0
  145.0061  135.6748  150.8823 H   0  0  0  0  0  0  0  0  0  0  0  0
  145.8546  135.9342  152.4038 H   0  0  0  0  0  0  0  0  0  0  0  0
  145.8042  137.2115  151.1898 H   0  0  0  0  0  0  0  0  0  0  0  0
  143.9264  138.9038  153.1023 H   0  0  0  0  0  0  0  0  0  0  0  0
  144.7122  139.8329  154.8172 H   0  0  0  0  0  0  0  0  0  0  0  0
  144.6559  138.7981  156.2296 H   0  0  0  0  0  0  0  0  0  0  0  0
  147.0360  138.7154  156.4200 H   0  0  0  0  0  0  0  0  0  0  0  0
  147.2575  138.9501  154.7050 H   0  0  0  0  0  0  0  0  0  0  0  0
  145.6656  141.2662  154.1207 H   0  0  0  0  0  0  0  0  0  0  0  0
  146.5322  142.5933  154.8505 H   0  0  0  0  0  0  0  0  0  0  0  0
  147.8098  140.4197  153.0916 H   0  0  0  0  0  0  0  0  0  0  0  0
  147.5448  142.0942  152.6555 H   0  0  0  0  0  0  0  0  0  0  0  0
  149.4323  139.9262  154.8237 H   0  0  0  0  0  0  0  0  0  0  0  0
  151.1602  140.6496  156.3410 H   0  0  0  0  0  0  0  0  0  0  0  0
  151.4208  141.5054  154.8299 H   0  0  0  0  0  0  0  0  0  0  0  0
  150.0588  143.4055  156.0043 H   0  0  0  0  0  0  0  0  0  0  0  0
  151.5902  145.0529  157.1784 H   0  0  0  0  0  0  0  0  0  0  0  0
  152.9229  145.4008  159.2912 H   0  0  0  0  0  0  0  0  0  0  0  0
  153.4006  143.3767  160.7147 H   0  0  0  0  0  0  0  0  0  0  0  0
  148.2571  142.1053  156.6324 H   0  0  0  0  0  0  0  0  0  0  0  0
  148.5441  140.4639  157.1283 H   0  0  0  0  0  0  0  0  0  0  0  0
  146.2745  141.0357  156.4564 H   0  0  0  0  0  0  0  0  0  0  0  0
  1  2  1  0  0  0  0
  1 23  1  0  0  0  0
  1 24  1  0  0  0  0
  1 25  1  0  0  0  0
  2  3  1  0  0  0  0
  2  4  1  0  0  0  0
  2 26  1  0  0  0  0
  3 27  1  0  0  0  0
  3 28  1  0  0  0  0
  3 29  1  0  0  0  0
  4  5  1  0  0  0  0
  4 30  1  0  0  0  0
  5  6  2  0  0  0  0
  5  7  1  0  0  0  0
  7  8  1  0  0  0  0
  7 31  1  0  0  0  0
  7 32  1  0  0  0  0
  8  9  1  0  0  0  0
  8 33  1  0  0  0  0
  8 34  1  0  0  0  0
  9 22  1  0  0  0  0
  9 10  1  0  0  0  0
  9 48  1  0  0  0  0
 10 11  1  0  0  0  0
 10 35  1  0  0  0  0
 10 36  1  0  0  0  0
 11 12  1  0  0  0  0
 11 37  1  0  0  0  0
 11 38  1  0  0  0  0
 12 13  1  0  0  0  0
 13 14  1  0  0  0  0
 13 22  1  0  0  0  0
 13 39  1  0  0  0  0
 14 15  1  0  0  0  0
 14 40  1  0  0  0  0
 14 41  1  0  0  0  0
 15 16  1  0  0  0  0
 15 42  1  0  0  0  0
 16 21  1  0  0  0  0
 16 17  2  0  0  0  0
 17 18  1  0  0  0  0
 17 43  1  0  0  0  0
 18 19  2  0  0  0  0
 18 44  1  0  0  0  0
 19 20  1  0  0  0  0
 19 45  1  0  0  0  0
 20 21  2  0  0  0  0
 22 46  1  0  0  0  0
 22 47  1  0  0  0  0
M  CHG  1   9   1
M  END
> <s_m_source_file>
AV-unprocessed.smi

> <i_m_source_file_index>
652

> <i_lp_mmshare_version>
43012

> <i_f3d_flags>
0

> <s_epik_input>
W0NIM11bQ0hdKFtDSDNdKVtOSF1DKD1PKVtDSDJdW0NIMl1OMVtDSDJdW0NIMl1PW0NASF0oW0NIMl0xKVtDSDJdW05IXWMyW2NIXVtjSF1bY0hdbm4y

> <s_epik_cmdline>
J2VwaWtfcHl0aG9uJywgJy1waCcsICc3LjAnLCAnLXRuJywgJzgnLCAnLW1hJywgJzIwMCcsICctbWV0YWxfYmluZGluZycsICctaW1hZScsICc8aW5maWxlLm1hZT4nLCAnLW9tYWUnLCAnPG91dGZpbGUubWFlPic=

> <r_lp_tautomer_probability>
0.999978

> <r_epik_Ionization_Penalty>
0.433079

> <r_epik_Ionization_Penalty_Charging>
0.413784

> <r_epik_Ionization_Penalty_Neutral>
0.0192945

> <r_epik_State_Penalty>
0.425138

> <r_epik_Charging_Adjusted_Penalty>
0.838922

> <i_epik_Tot_Q>
1

> <i_epik_Tot_abs_Q>
1

> <r_epik_Metal_State_Penalty>
0.422073

> <b_epik_Metal_Only>
0

> <s_lp_Force_Field>
OPLS_2005

> <r_lp_Energy>
24.1608

> <b_lp_Chiralities_Consistent>
1

> <s_lp_Variant>
AV-unprocessed.smi:652-2

> <Gold.Version>
5.8.1

> <Gold.Id.Protein>
6NUR|6NUR_protein|mol2

> <Gold.PLP.Fitness>
45.3216

> <Gold.PLP.PLP>
-39.2013

> <Gold.PLP.part.hbond>
-3.0411

> <Gold.PLP.part.metal>
0.0000

> <Gold.PLP.part.buried>
-6.6974

> <Gold.PLP.part.nonpolar>
-29.2346

> <Gold.PLP.part.repulsive>
0.3184

> <Gold.PLP.ligand.clash>
0.0000

> <Gold.PLP.ligand.torsion>
0.6201

> <Gold.PLP.Chemscore.Hbond>
2.4150

> <Gold.PLP.Chemscore.CHOScore>
0.0000

> <Gold.PLP.Chemscore.Metal>
0.0000

> <Gold.Chemscore.Hbonds>
donor molecule, donor type, donor heavy atom, donor atom, acceptor molecule, acceptor atom, score
      L1  H     4    30       P1 10175  1.00
      L1  H    15    42       P1  8028  1.00
      P1  H  8011  8017       L1    12  0.36

> <Gold.PLP.Chemscore.Internal.Correction>
0.1157

> <Gold.Rescore>
     Score         DG    S(hbond)    S(metal)    S(lipo)     H(rot)  DE(clash)    DE(int)     intcor
     15.18     -16.94       2.09        0.00      87.70       2.26       0.13       1.63       ----

> <Gold.Chemscore.Fitness>
15.1847

> <Gold.Chemscore.DG>
-16.9446

> <Gold.Chemscore.ZeroCoef>
-5.4800

> <Gold.Chemscore.Hbond>
2.0920

> <Gold.Chemscore.Metal>
0.0000

> <Gold.Chemscore.Lipo>
87.7037

> <Gold.Chemscore.Internal_Hbond>
0.0000

> <Gold.Chemscore.DEClash>
0.1289

> <Gold.Chemscore.DEInternal>
1.6310

> <Gold.Chemscore.Rot>
2.2594

> <Gold.Chemscore.Internal.Correction>
   9.000000E+99

> <Gold.Chemscore.Hbonds>
donor molecule, donor type, donor heavy atom, donor atom, acceptor molecule, acceptor atom, score
      L1  H     4    30       P1 10175  1.00
      L1  H    15    42       P1  8028  1.00
      P1  H  8011  8017       L1    12  0.04

> <Gold.Chemscore.Hbond.Weighted>
-6.9874

> <Gold.Chemscore.Metal.Weighted>
-0.0000

> <Gold.Chemscore.Lipo.Weighted>
-10.2613

> <Gold.Chemscore.Internal_Hbond.Weighted>
0.0000

> <Gold.Chemscore.DEClash.Weighted>
0.1289

> <Gold.Chemscore.DEInternal.Weighted>
1.6310

> <Gold.Chemscore.Rot.Weighted>
5.7841

> <Gold.Chemscore.Internal.Correction.Weighted>
   9.000000E+99

> <Gold.Protein.RotatedTorsions>
[ 6907 6896 6895 6894 ] final  -88.82 input  -60.11 | X-H torsion
[ 7974 7965 7964 7962 ] final   54.57 input  175.53 | X-H torsion
[ 8008 7997 7996 7995 ] final -171.60 input   59.86 | X-H torsion
[ 10167 10162 10161 10158 ] final -177.60 input  -65.29 | X-H torsion
[ 10718 10713 10712 10709 ] final  -51.83 input   66.30 | X-H torsion
[ 10763 10752 10751 10750 ] final   43.57 input  -60.55 | X-H torsion
[ 11005 11000 10999 10996 ] final   31.23 input  -57.11 | X-H torsion

> <Gold.Protein.ActiveResidues>
 VAL166  LYS551  ARG553  GLY616  TRP617  ASP618  TYR619  PRO620  LYS621  CYS622 
 ASP623  PHE694  ASN695  SER759  ASP760  ASP761  ALA762  ILE779  LEU786  VAL792 
 PHE793  MET794  SER795  GLU796  ALA797  LYS798  CYS799  TRP800  GLU811  SER814 

> <Gold.Protein.RotatedAtoms>
  150.6870  134.2683  159.4577 H   0  0  0  0  0  0  0  0  0  0  0  0  # atno 6907 bound_to 6896
  152.0607  134.9593  160.0584 H   0  0  0  0  0  0  0  0  0  0  0  0  # atno 6908 bound_to 6896
  152.1021  133.4221  159.4629 H   0  0  0  0  0  0  0  0  0  0  0  0  # atno 6909 bound_to 6896
  145.9595  139.4045  143.0257 H   0  0  0  0  0  0  0  0  0  0  0  0  # atno 7974 bound_to 7965
  155.9337  140.1096  157.1112 H   0  0  0  0  0  0  0  0  0  0  0  0  # atno 8008 bound_to 7997
  154.4075  140.1232  156.4902 H   0  0  0  0  0  0  0  0  0  0  0  0  # atno 8009 bound_to 7997
  155.7048  140.3471  155.4951 H   0  0  0  0  0  0  0  0  0  0  0  0  # atno 8010 bound_to 7997
  139.5472  144.2203  152.1011 H   0  0  0  0  0  0  0  0  0  0  0  0  # atno 10167 bound_to 10162
  156.1675  130.4149  149.9697 H   0  0  0  0  0  0  0  0  0  0  0  0  # atno 10718 bound_to 10713
  152.9858  135.6097  154.3132 H   0  0  0  0  0  0  0  0  0  0  0  0  # atno 10763 bound_to 10752
  154.2846  135.2776  155.2683 H   0  0  0  0  0  0  0  0  0  0  0  0  # atno 10764 bound_to 10752
  154.5006  135.5867  153.6585 H   0  0  0  0  0  0  0  0  0  0  0  0  # atno 10765 bound_to 10752
  140.2861  134.2918  155.7788 H   0  0  0  0  0  0  0  0  0  0  0  0  # atno 11005 bound_to 11000
  145.8060  140.9748  143.0974 LP  0  0  0  0  0  0  0  0  0  0  0  0  # atno 17320 bound_to 7965
  144.6812  139.9861  143.7484 LP  0  0  0  0  0  0  0  0  0  0  0  0  # atno 17321 bound_to 7965
  140.1692  144.4952  150.6589 LP  0  0  0  0  0  0  0  0  0  0  0  0  # atno 17342 bound_to 10162
  140.6724  143.2291  151.5591 LP  0  0  0  0  0  0  0  0  0  0  0  0  # atno 17343 bound_to 10162
  156.7507  130.9114  151.3637 LP  0  0  0  0  0  0  0  0  0  0  0  0  # atno 17370 bound_to 10713
  157.6779  130.9112  150.0194 LP  0  0  0  0  0  0  0  0  0  0  0  0  # atno 17371 bound_to 10713
  141.2154  133.7555  156.9554 LP  0  0  0  0  0  0  0  0  0  0  0  0  # atno 17394 bound_to 11000
  140.1238  134.9400  157.2242 LP  0  0  0  0  0  0  0  0  0  0  0  0  # atno 17395 bound_to 11000

$$$$
