AV-unprocessed.smi:265|AV-procd|sdf|2029|dock3
  -GOLD-   2262021233D 1   1.00000     0.00000
 Structure written by MMmdl.
 52 56  0  0  0  0  0  0  0  0  1 V2000
  143.0932  137.3180  153.2435 C   0  0  0  0  0  0  0  0  0  0  0  0
  142.7780  137.9925  154.5877 C   0  0  2  0  0  0  0  0  0  0  0  0
  141.6808  138.8970  154.4700 O   0  0  0  0  0  0  0  0  0  0  0  0
  141.9697  140.1206  155.1367 C   0  0  0  0  0  0  0  0  0  0  0  0
  143.1506  139.8136  156.0521 C   0  0  0  0  0  0  0  0  0  0  0  0
  143.9304  138.7800  155.2509 C   0  0  2  0  0  0  0  0  0  0  0  0
  144.6944  139.4579  154.2674 O   0  0  0  0  0  0  0  0  0  0  0  0
  144.9398  137.9330  156.0690 C   0  0  0  0  0  0  0  0  0  0  0  0
  146.1523  138.6328  156.4644 N   0  0  0  0  0  0  0  0  0  0  0  0
  146.3790  139.2861  157.6560 C   0  0  0  0  0  0  0  0  0  0  0  0
  147.5537  139.8434  157.7730 N   0  0  0  0  0  0  0  0  0  0  0  0
  148.1757  139.5691  156.5622 C   0  0  0  0  0  0  0  0  0  0  0  0
  149.4486  139.8755  156.0159 C   0  0  0  0  0  0  0  0  0  0  0  0
  150.3722  140.5763  156.7063 N   0  0  0  0  0  0  0  0  0  0  0  0
  150.9491  139.8376  157.8304 C   0  0  0  0  0  0  0  0  0  0  0  0
  152.1312  140.6066  158.4508 C   0  0  0  0  0  0  0  0  0  0  0  0
  151.6873  142.0270  158.8270 C   0  0  1  0  0  0  0  0  0  0  0  0
  152.7677  142.8148  159.3038 O   0  0  0  0  0  0  0  0  0  0  0  0
  152.3611  144.0910  159.8110 C   0  0  0  0  0  0  0  0  0  0  0  0
  151.3782  144.8241  158.8726 C   0  0  0  0  0  0  0  0  0  0  0  0
  151.1324  146.0146  159.0535 O   0  0  0  0  0  0  0  0  0  0  0  0
  150.7820  144.1157  157.8994 N   0  0  0  0  0  0  0  0  0  0  0  0
  151.1417  142.7409  157.5797 C   0  0  2  0  0  0  0  0  0  0  0  0
  149.9598  141.9488  156.9981 C   0  0  0  0  0  0  0  0  0  0  0  0
  149.7272  139.4392  154.7595 N   0  0  0  0  0  0  0  0  0  0  0  0
  148.8106  138.7439  154.0786 C   0  0  0  0  0  0  0  0  0  0  0  0
  147.5831  138.3823  154.4601 N   0  0  0  0  0  0  0  0  0  0  0  0
  147.3065  138.8184  155.7231 C   0  0  0  0  0  0  0  0  0  0  0  0
  150.9185  141.9608  159.6002 H   0  0  0  0  0  0  0  0  0  0  0  0
  151.9298  142.7905  156.8260 H   0  0  0  0  0  0  0  0  0  0  0  0
  143.9332  136.6298  153.3392 H   0  0  0  0  0  0  0  0  0  0  0  0
  143.3413  138.0491  152.4740 H   0  0  0  0  0  0  0  0  0  0  0  0
  142.2359  136.7464  152.8880 H   0  0  0  0  0  0  0  0  0  0  0  0
  142.4236  137.2264  155.2755 H   0  0  0  0  0  0  0  0  0  0  0  0
  142.2462  140.8679  154.3921 H   0  0  0  0  0  0  0  0  0  0  0  0
  141.1020  140.4921  155.6823 H   0  0  0  0  0  0  0  0  0  0  0  0
  143.7329  140.6983  156.3122 H   0  0  0  0  0  0  0  0  0  0  0  0
  142.7656  139.3843  156.9761 H   0  0  0  0  0  0  0  0  0  0  0  0
  144.1170  139.7247  153.5686 H   0  0  0  0  0  0  0  0  0  0  0  0
  144.4594  137.5575  156.9738 H   0  0  0  0  0  0  0  0  0  0  0  0
  145.2348  137.0518  155.4976 H   0  0  0  0  0  0  0  0  0  0  0  0
  145.6423  139.3305  158.4450 H   0  0  0  0  0  0  0  0  0  0  0  0
  150.1810  139.6710  158.5873 H   0  0  0  0  0  0  0  0  0  0  0  0
  151.2832  138.8555  157.4929 H   0  0  0  0  0  0  0  0  0  0  0  0
  152.5030  140.0799  159.3300 H   0  0  0  0  0  0  0  0  0  0  0  0
  152.9563  140.6511  157.7386 H   0  0  0  0  0  0  0  0  0  0  0  0
  151.8815  143.9552  160.7811 H   0  0  0  0  0  0  0  0  0  0  0  0
  153.2458  144.7071  159.9729 H   0  0  0  0  0  0  0  0  0  0  0  0
  150.1104  144.5774  157.3034 H   0  0  0  0  0  0  0  0  0  0  0  0
  149.6032  142.4271  156.0845 H   0  0  0  0  0  0  0  0  0  0  0  0
  149.1282  141.9403  157.7045 H   0  0  0  0  0  0  0  0  0  0  0  0
  149.1024  138.4311  153.0868 H   0  0  0  0  0  0  0  0  0  0  0  0
  1  2  1  0  0  0  0
  1 31  1  0  0  0  0
  1 32  1  0  0  0  0
  1 33  1  0  0  0  0
  2  6  1  0  0  0  0
  2  3  1  0  0  0  0
  2 34  1  0  0  0  0
  3  4  1  0  0  0  0
  4  5  1  0  0  0  0
  4 35  1  0  0  0  0
  4 36  1  0  0  0  0
  5  6  1  0  0  0  0
  5 37  1  0  0  0  0
  5 38  1  0  0  0  0
  6  7  1  0  0  0  0
  6  8  1  0  0  0  0
  7 39  1  0  0  0  0
  8  9  1  0  0  0  0
  8 40  1  0  0  0  0
  8 41  1  0  0  0  0
  9 28  1  0  0  0  0
  9 10  1  0  0  0  0
 10 11  2  0  0  0  0
 10 42  1  0  0  0  0
 11 12  1  0  0  0  0
 12 28  2  0  0  0  0
 12 13  1  0  0  0  0
 13 14  1  0  0  0  0
 13 25  2  0  0  0  0
 14 24  1  0  0  0  0
 14 15  1  0  0  0  0
 15 16  1  0  0  0  0
 15 43  1  0  0  0  0
 15 44  1  0  0  0  0
 16 17  1  0  0  0  0
 16 45  1  0  0  0  0
 16 46  1  0  0  0  0
 17 29  1  0  0  0  0
 17 23  1  0  0  0  0
 17 18  1  0  0  0  0
 18 19  1  0  0  0  0
 19 20  1  0  0  0  0
 19 47  1  0  0  0  0
 19 48  1  0  0  0  0
 20 21  2  0  0  0  0
 20 22  1  0  0  0  0
 22 23  1  0  0  0  0
 22 49  1  0  0  0  0
 23 30  1  0  0  0  0
 23 24  1  0  0  0  0
 24 50  1  0  0  0  0
 24 51  1  0  0  0  0
 25 26  1  0  0  0  0
 26 27  2  0  0  0  0
 26 52  1  0  0  0  0
 27 28  1  0  0  0  0
M  END
> <s_m_source_file>
AV-unprocessed.smi

> <i_m_source_file_index>
265

> <i_lp_mmshare_version>
43012

> <i_f3d_flags>
0

> <s_epik_input>
W0NIMl0xW0NIMl1PW0NAQEhdKFtDSDNdKVtDQEBdMShbT0hdKVtDSDJdbihbY0hdbjIpYyhjMjMpbltjSF1uYzNOKFtDSDJdW0NIMl00KVtDSDJdW0NAQEhdKFtDQEhdNDUpW05IXUMoPU8pW0NIMl1PNQ==

> <s_epik_cmdline>
J2VwaWtfcHl0aG9uJywgJy1waCcsICc3LjAnLCAnLXRuJywgJzgnLCAnLW1hJywgJzIwMCcsICctbWV0YWxfYmluZGluZycsICctaW1hZScsICc8aW5maWxlLm1hZT4nLCAnLW9tYWUnLCAnPG91dGZpbGUubWFlPic=

> <r_lp_tautomer_probability>
1

> <r_epik_Ionization_Penalty>
0.00221504

> <r_epik_Ionization_Penalty_Charging>
0

> <r_epik_Ionization_Penalty_Neutral>
0.00221504

> <r_epik_State_Penalty>
-0

> <r_epik_Charging_Adjusted_Penalty>
0

> <i_epik_Tot_Q>
0

> <i_epik_Tot_abs_Q>
0

> <r_epik_Metal_State_Penalty>
-0

> <b_epik_Metal_Only>
0

> <s_lp_Force_Field>
OPLS_2005

> <r_lp_Energy>
49.142

> <b_lp_Chiralities_Consistent>
1

> <s_lp_Variant>
AV-unprocessed.smi:265-15

> <Gold.Version>
5.8.1

> <Gold.Id.Protein>
6NUR|6NUR_protein|mol2

> <Gold.PLP.Fitness>
39.5911

> <Gold.PLP.PLP>
-29.0150

> <Gold.PLP.part.hbond>
-4.1680

> <Gold.PLP.part.metal>
0.0000

> <Gold.PLP.part.buried>
-4.9399

> <Gold.PLP.part.nonpolar>
-21.4028

> <Gold.PLP.part.repulsive>
0.6134

> <Gold.PLP.ligand.clash>
0.0000

> <Gold.PLP.ligand.torsion>
0.5973

> <Gold.PLP.Chemscore.Hbond>
1.8938

> <Gold.PLP.Chemscore.CHOScore>
1.9559

> <Gold.PLP.Chemscore.Metal>
0.0000

> <Gold.Chemscore.Hbonds>
donor molecule, donor type, donor heavy atom, donor atom, acceptor molecule, acceptor atom, score
      L1  H     7    39       P1 10175  0.63
      L1  H    22    49       P1  8028  1.00
      L1  C    26    52       P1  7948  1.00
      L1  C    26    52       P1  7957  0.87

> <Gold.PLP.Chemscore.Internal.Correction>
0.2217

> <Gold.Rescore>
     Score         DG    S(hbond)    S(metal)    S(lipo)     H(rot)  DE(clash)    DE(int)     intcor
     10.55     -11.49       1.73        0.00      51.23       2.25       0.28       0.66       ----

> <Gold.Chemscore.Fitness>
10.5484

> <Gold.Chemscore.DG>
-11.4873

> <Gold.Chemscore.ZeroCoef>
-5.4800

> <Gold.Chemscore.Hbond>
1.7251

> <Gold.Chemscore.Metal>
0.0000

> <Gold.Chemscore.Lipo>
51.2258

> <Gold.Chemscore.Internal_Hbond>
0.0000

> <Gold.Chemscore.DEClash>
0.2831

> <Gold.Chemscore.DEInternal>
0.6558

> <Gold.Chemscore.Rot>
2.2453

> <Gold.Chemscore.Internal.Correction>
   9.000000E+99

> <Gold.Chemscore.Hbonds>
donor molecule, donor type, donor heavy atom, donor atom, acceptor molecule, acceptor atom, score
      L1  H     7    39       P1 10175  0.62
      L1  H    22    49       P1  8028  0.32

> <Gold.Chemscore.Hbond.Weighted>
-5.7618

> <Gold.Chemscore.Metal.Weighted>
-0.0000

> <Gold.Chemscore.Lipo.Weighted>
-5.9934

> <Gold.Chemscore.Internal_Hbond.Weighted>
0.0000

> <Gold.Chemscore.DEClash.Weighted>
0.2831

> <Gold.Chemscore.DEInternal.Weighted>
0.6558

> <Gold.Chemscore.Rot.Weighted>
5.7479

> <Gold.Chemscore.Internal.Correction.Weighted>
   9.000000E+99

> <Gold.Protein.RotatedTorsions>
[ 6907 6896 6895 6894 ] final -105.00 input  -60.11 | X-H torsion
[ 7974 7965 7964 7962 ] final  174.46 input  175.53 | X-H torsion
[ 8008 7997 7996 7995 ] final -158.82 input   59.86 | X-H torsion
[ 10167 10162 10161 10158 ] final  140.99 input  -65.29 | X-H torsion
[ 10718 10713 10712 10709 ] final  173.20 input   66.30 | X-H torsion
[ 10763 10752 10751 10750 ] final  -15.42 input  -60.55 | X-H torsion
[ 11005 11000 10999 10996 ] final  140.29 input  -57.11 | X-H torsion

> <Gold.Protein.ActiveResidues>
 VAL166  LYS551  ARG553  GLY616  TRP617  ASP618  TYR619  PRO620  LYS621  CYS622 
 ASP623  PHE694  ASN695  SER759  ASP760  ASP761  ALA762  ILE779  LEU786  VAL792 
 PHE793  MET794  SER795  GLU796  ALA797  LYS798  CYS799  TRP800  GLU811  SER814 

> <Gold.Protein.RotatedAtoms>
  150.7315  134.0192  159.3695 H   0  0  0  0  0  0  0  0  0  0  0  0  # atno 6907 bound_to 6896
  151.8156  135.0665  160.0428 H   0  0  0  0  0  0  0  0  0  0  0  0  # atno 6908 bound_to 6896
  152.3041  133.5649  159.5674 H   0  0  0  0  0  0  0  0  0  0  0  0  # atno 6909 bound_to 6896
  144.7221  139.9801  143.6438 H   0  0  0  0  0  0  0  0  0  0  0  0  # atno 7974 bound_to 7965
  155.7532  140.0829  157.2191 H   0  0  0  0  0  0  0  0  0  0  0  0  # atno 8008 bound_to 7997
  154.4010  140.1556  156.2804 H   0  0  0  0  0  0  0  0  0  0  0  0  # atno 8009 bound_to 7997
  155.8910  140.3415  155.5959 H   0  0  0  0  0  0  0  0  0  0  0  0  # atno 8010 bound_to 7997
  139.5033  144.6199  151.6075 H   0  0  0  0  0  0  0  0  0  0  0  0  # atno 10167 bound_to 10162
  156.9678  131.0081  151.2912 H   0  0  0  0  0  0  0  0  0  0  0  0  # atno 10718 bound_to 10713
  153.5430  135.7013  153.5627 H   0  0  0  0  0  0  0  0  0  0  0  0  # atno 10763 bound_to 10752
  153.3585  135.3976  155.1700 H   0  0  0  0  0  0  0  0  0  0  0  0  # atno 10764 bound_to 10752
  154.8671  135.3783  154.4936 H   0  0  0  0  0  0  0  0  0  0  0  0  # atno 10765 bound_to 10752
  140.0317  134.9349  157.0674 H   0  0  0  0  0  0  0  0  0  0  0  0  # atno 11005 bound_to 11000
  146.0495  139.3497  143.0648 LP  0  0  0  0  0  0  0  0  0  0  0  0  # atno 17320 bound_to 7965
  145.8233  140.9668  143.0887 LP  0  0  0  0  0  0  0  0  0  0  0  0  # atno 17321 bound_to 7965
  140.5898  143.9799  150.6318 LP  0  0  0  0  0  0  0  0  0  0  0  0  # atno 17342 bound_to 10162
  140.2976  143.3282  152.1003 LP  0  0  0  0  0  0  0  0  0  0  0  0  # atno 17343 bound_to 10162
  157.5613  130.8248  149.8270 LP  0  0  0  0  0  0  0  0  0  0  0  0  # atno 17370 bound_to 10713
  156.0295  130.3769  150.1727 LP  0  0  0  0  0  0  0  0  0  0  0  0  # atno 17371 bound_to 10713
  140.4215  134.1875  155.7164 LP  0  0  0  0  0  0  0  0  0  0  0  0  # atno 17394 bound_to 11000
  141.1834  133.8364  157.1175 LP  0  0  0  0  0  0  0  0  0  0  0  0  # atno 17395 bound_to 11000

$$$$
