#       Name:                AV-unprocessed.smi:1047
#       Creating user name   scv26
#       Creation time:       Fri Mar 27 03:03:07 2020


#       File generated by GOLD software.
#

@<TRIPOS>MOLECULE
AV-unprocessed.smi:1047
    62    64     1
SMALL
NO_CHARGES


@<TRIPOS>ATOM
      1 ****        -2.5764   5.1150   1.7112 C.3            1 S1                 0.0000
      2 ****        -3.8477   4.4035   1.2272 C.3            1 S1                 0.0000
      3 ****        -3.7169   3.8803  -0.1587 N.4            1 S1                 1.0000
      4 ****        -5.0203   3.6197  -0.8167 C.3            1 S1                 0.0000
      5 ****        -5.6409   2.3025  -0.3177 C.3            1 S1                 0.0000
      6 ****        -4.7262   1.2350  -0.5356 O.3            1 S1                 0.0000
      7 ****        -3.5074   1.4019   0.1815 C.3            1 S1                 0.0000
      8 ****        -2.6438   0.1577  -0.0765 C.3            1 S1                 0.0000
      9 ****        -1.4950   0.1109   0.8230 N.3            1 S1                 0.0000
     10 ****        -0.6421  -1.0553   0.6157 C.3            1 S1                 0.0000
     11 ****         0.5291  -1.0789   1.6159 C.3            1 S1                 0.0000
     12 ****         1.5252  -0.1859   1.1583 O.3            1 S1                 0.0000
     13 ****         1.1571  -2.4793   1.7879 C.3            1 S1                 0.0000
     14 ****         1.6033  -3.0788   0.5396 N.pl3          1 S1                 0.0000
     15 ****         0.8970  -3.8951  -0.2667 C.2            1 S1                 0.0000
     16 ****         1.4985  -4.3351  -1.3678 N.2            1 S1                 0.0000
     17 ****         2.7448  -3.7428  -1.2600 C.ar           1 S1                 0.0000
     18 ****         3.8681  -3.8103  -2.1130 C.ar           1 S1                 0.0000
     19 ****         5.0582  -3.1157  -1.8004 C.ar           1 S1                 0.0000
     20 ****         6.2423  -3.2168  -2.7458 C.3            1 S1                 0.0000
     21 ****         5.1366  -2.3375  -0.6176 C.ar           1 S1                 0.0000
     22 ****         6.4048  -1.5828  -0.2605 C.3            1 S1                 0.0000
     23 ****         4.0235  -2.2588   0.2452 C.ar           1 S1                 0.0000
     24 ****         2.8442  -2.9535  -0.0769 C.ar           1 S1                 0.0000
     25 ****        -2.8231   2.7024  -0.3006 C.3            1 S1                 0.0000
     26 ****        -2.7439   5.5746   2.6853 H              1 S1                 0.0000
     27 ****        -2.2794   5.9054   1.0215 H              1 S1                 0.0000
     28 ****        -1.7372   4.4288   1.8207 H              1 S1                 0.0000
     29 ****        -4.1256   3.6104   1.9208 H              1 S1                 0.0000
     30 ****        -4.6608   5.1298   1.2541 H              1 S1                 0.0000
     31 ****        -5.7050   4.4547  -0.6638 H              1 S1                 0.0000
     32 ****        -4.8546   3.5538  -1.8927 H              1 S1                 0.0000
     33 ****        -5.9079   2.3635   0.7382 H              1 S1                 0.0000
     34 ****        -6.5605   2.0930  -0.8643 H              1 S1                 0.0000
     35 ****        -3.7339   1.4551   1.2476 H              1 S1                 0.0000
     36 ****        -3.2534  -0.7342   0.0732 H              1 S1                 0.0000
     37 ****        -2.3162   0.1383  -1.1167 H              1 S1                 0.0000
     38 ****        -1.8086   0.1378   1.7881 H              1 S1                 0.0000
     39 ****        -1.2420  -1.9552   0.7574 H              1 S1                 0.0000
     40 ****        -0.2734  -1.0887  -0.4106 H              1 S1                 0.0000
     41 ****         0.1888  -0.7381   2.5948 H              1 S1                 0.0000
     42 ****         1.8376  -0.4897   0.3195 H              1 S1                 0.0000
     43 ****         2.0046  -2.4327   2.4730 H              1 S1                 0.0000
     44 ****         0.4325  -3.1530   2.2474 H              1 S1                 0.0000
     45 ****        -0.1190  -4.1790  -0.0338 H              1 S1                 0.0000
     46 ****         3.8080  -4.4038  -3.0134 H              1 S1                 0.0000
     47 ****         7.1116  -3.6230  -2.2284 H              1 S1                 0.0000
     48 ****         6.5008  -2.2338  -3.1401 H              1 S1                 0.0000
     49 ****         6.0224  -3.8691  -3.5913 H              1 S1                 0.0000
     50 ****         6.2862  -1.0226   0.6673 H              1 S1                 0.0000
     51 ****         6.6630  -0.8743  -1.0477 H              1 S1                 0.0000
     52 ****         7.2367  -2.2751  -0.1298 H              1 S1                 0.0000
     53 ****         4.0698  -1.6693   1.1491 H              1 S1                 0.0000
     54 ****        -2.5658   2.6029  -1.3560 H              1 S1                 0.0000
     55 ****        -1.8811   2.8633   0.2218 H              1 S1                 0.0000
     56 ****        -3.2887   4.6302  -0.6828 H              1 S1                 0.0000
     57 ****        -4.5186   1.1857  -1.5126 LP             1 S1                 0.0000
     58 ****        -5.1555   0.3807  -0.2426 LP             1 S1                 0.0000
     59 ****        -0.9391   0.9154   0.6138 LP             1 S1                 0.0000
     60 ****         2.2821  -0.1613   1.8115 LP             1 S1                 0.0000
     61 ****         1.1379   0.7310   1.0622 LP             1 S1                 0.0000
     62 ****         1.1440  -4.9355  -2.0846 LP             1 S1                 0.0000
@<TRIPOS>BOND
    1    1    2 1     
    2    1   26 1     
    3    1   27 1     
    4    1   28 1     
    5    2    3 1     
    6    2   29 1     
    7    2   30 1     
    8    3   25 1     
    9    3    4 1     
   10    3   56 1     
   11    4    5 1     
   12    4   31 1     
   13    4   32 1     
   14    5    6 1     
   15    5   33 1     
   16    5   34 1     
   17    6    7 1     
   18    7    8 1     
   19    7   25 1     
   20    7   35 1     
   21    8    9 1     
   22    8   36 1     
   23    8   37 1     
   24    9   10 1     
   25    9   38 1     
   26   10   11 1     
   27   10   39 1     
   28   10   40 1     
   29   11   12 1     
   30   11   13 1     
   31   11   41 1     
   32   12   42 1     
   33   13   14 1     
   34   13   43 1     
   35   13   44 1     
   36   14   24 1     
   37   14   15 1     
   38   15   16 2     
   39   15   45 1     
   40   16   17 1     
   41   17   24 ar    
   42   17   18 ar    
   43   18   19 ar    
   44   18   46 1     
   45   19   20 1     
   46   19   21 ar    
   47   20   47 1     
   48   20   48 1     
   49   20   49 1     
   50   21   22 1     
   51   21   23 ar    
   52   22   50 1     
   53   22   51 1     
   54   22   52 1     
   55   23   24 ar    
   56   23   53 1     
   57   25   54 1     
   58   25   55 1     
   59    6   57 1     
   60    6   58 1     
   61    9   59 1     
   62   12   60 1     
   63   12   61 1     
   64   16   62 1     
@<TRIPOS>SUBSTRUCTURE
      1 S1             1
@<TRIPOS>SET
LONE_PAIRS      STATIC     ATOMS    <user>   **** ""
6 57 58 59 60 61 62
DONOR_HYDROGENS      STATIC     ATOMS    <user>   **** ""
3 56 38 42
ATOM$BLUE        STATIC     ATOMS    COLORGROUP SYSTEM
6 57 58 59 60 61 62
ATOM$RED        STATIC     ATOMS    COLORGROUP SYSTEM
3 56 38 42
