AV-unprocessed.smi:557|AV-procd|sdf|2914|dock4
  -GOLD-   2262023403D 1   1.00000     0.00000
 Structure written by MMmdl.
 47 49  0  0  0  0  0  0  0  0  2 V2000
  151.7417  140.5922  157.1038 C   0  0  0  0  0  0  0  0  0  0  0  0
  150.7637  140.5694  156.0372 N   0  0  0  0  0  0  0  0  0  0  0  0
  149.7959  141.5036  155.7370 C   0  0  0  0  0  0  0  0  0  0  0  0
  149.1115  141.0485  154.6454 C   0  0  0  0  0  0  0  0  0  0  0  0
  147.9583  141.6887  153.9250 C   0  0  0  0  0  0  0  0  0  0  0  0
  146.6238  141.3736  154.6126 C   0  0  0  0  0  0  0  0  0  0  0  0
  146.0808  140.1080  154.1269 N   0  0  0  0  0  0  0  0  0  0  0  0
  146.2783  138.8861  154.6495 C   0  0  0  0  0  0  0  0  0  0  0  0
  146.9702  138.7092  155.6501 O   0  0  0  0  0  0  0  0  0  0  0  0
  145.6536  137.8912  153.9959 N   0  0  0  0  0  0  0  0  0  0  0  0
  145.7128  136.4757  154.3553 C   0  0  2  0  0  0  0  0  0  0  0  0
  147.0810  136.0581  154.9274 C   0  0  0  0  0  0  0  0  0  0  0  0
  147.3552  134.6824  154.3114 C   0  0  0  0  0  0  0  0  0  0  0  0
  146.7275  134.7847  152.9891 N   0  3  1  0  0  0  0  0  0  0  0  0
  146.5717  133.5565  152.1836 C   0  0  0  0  0  0  0  0  0  0  0  0
  146.0667  133.9549  150.7800 C   0  0  0  0  0  0  0  0  0  0  0  0
  144.8039  134.8442  150.8426 C   0  0  0  0  0  0  0  0  0  0  0  0
  144.9883  136.0389  151.8035 C   0  0  0  0  0  0  0  0  0  0  0  0
  145.4597  135.5124  153.1710 C   0  0  2  0  0  0  0  0  0  0  0  0
  149.7499  139.8106  154.3475 C   0  0  0  0  0  0  0  0  0  0  0  0
  150.7365  139.5267  155.1821 N   0  0  0  0  0  0  0  0  0  0  0  0
  151.5585  141.4429  157.7611 H   0  0  0  0  0  0  0  0  0  0  0  0
  152.7438  140.6776  156.6831 H   0  0  0  0  0  0  0  0  0  0  0  0
  151.6746  139.6738  157.6879 H   0  0  0  0  0  0  0  0  0  0  0  0
  149.6737  142.4052  156.3192 H   0  0  0  0  0  0  0  0  0  0  0  0
  148.0934  142.7699  153.8754 H   0  0  0  0  0  0  0  0  0  0  0  0
  147.9202  141.3469  152.8900 H   0  0  0  0  0  0  0  0  0  0  0  0
  146.7684  141.3186  155.6930 H   0  0  0  0  0  0  0  0  0  0  0  0
  145.9073  142.1737  154.4187 H   0  0  0  0  0  0  0  0  0  0  0  0
  145.4924  140.1632  153.3078 H   0  0  0  0  0  0  0  0  0  0  0  0
  145.1065  138.1341  153.1826 H   0  0  0  0  0  0  0  0  0  0  0  0
  144.9596  136.2782  155.1210 H   0  0  0  0  0  0  0  0  0  0  0  0
  147.8553  136.7563  154.6053 H   0  0  0  0  0  0  0  0  0  0  0  0
  147.0922  136.0360  156.0177 H   0  0  0  0  0  0  0  0  0  0  0  0
  148.4192  134.4553  154.2422 H   0  0  0  0  0  0  0  0  0  0  0  0
  146.8683  133.8969  154.8916 H   0  0  0  0  0  0  0  0  0  0  0  0
  147.5299  133.0418  152.1066 H   0  0  0  0  0  0  0  0  0  0  0  0
  145.8740  132.8730  152.6699 H   0  0  0  0  0  0  0  0  0  0  0  0
  146.8564  134.4963  150.2572 H   0  0  0  0  0  0  0  0  0  0  0  0
  145.8654  133.0617  150.1882 H   0  0  0  0  0  0  0  0  0  0  0  0
  144.5475  135.2025  149.8451 H   0  0  0  0  0  0  0  0  0  0  0  0
  143.9593  134.2409  151.1776 H   0  0  0  0  0  0  0  0  0  0  0  0
  145.7156  136.7412  151.3939 H   0  0  0  0  0  0  0  0  0  0  0  0
  144.0459  136.5777  151.9035 H   0  0  0  0  0  0  0  0  0  0  0  0
  144.7177  134.7916  153.5220 H   0  0  0  0  0  0  0  0  0  0  0  0
  149.5242  139.1130  153.5544 H   0  0  0  0  0  0  0  0  0  0  0  0
  147.3262  135.4003  152.4571 H   0  0  0  0  0  0  0  0  0  0  0  0
  1  2  1  0  0  0  0
  1 22  1  0  0  0  0
  1 23  1  0  0  0  0
  1 24  1  0  0  0  0
  2 21  1  0  0  0  0
  2  3  1  0  0  0  0
  3  4  2  0  0  0  0
  3 25  1  0  0  0  0
  4  5  1  0  0  0  0
  4 20  1  0  0  0  0
  5  6  1  0  0  0  0
  5 26  1  0  0  0  0
  5 27  1  0  0  0  0
  6  7  1  0  0  0  0
  6 28  1  0  0  0  0
  6 29  1  0  0  0  0
  7  8  1  0  0  0  0
  7 30  1  0  0  0  0
  8  9  2  0  0  0  0
  8 10  1  0  0  0  0
 10 11  1  0  0  0  0
 10 31  1  0  0  0  0
 11 19  1  0  0  0  0
 11 12  1  0  0  0  0
 11 32  1  0  0  0  0
 12 13  1  0  0  0  0
 12 33  1  0  0  0  0
 12 34  1  0  0  0  0
 13 14  1  0  0  0  0
 13 35  1  0  0  0  0
 13 36  1  0  0  0  0
 14 19  1  0  0  0  0
 14 15  1  0  0  0  0
 14 47  1  0  0  0  0
 15 16  1  0  0  0  0
 15 37  1  0  0  0  0
 15 38  1  0  0  0  0
 16 17  1  0  0  0  0
 16 39  1  0  0  0  0
 16 40  1  0  0  0  0
 17 18  1  0  0  0  0
 17 41  1  0  0  0  0
 17 42  1  0  0  0  0
 18 19  1  0  0  0  0
 18 43  1  0  0  0  0
 18 44  1  0  0  0  0
 19 45  1  0  0  0  0
 20 21  2  0  0  0  0
 20 46  1  0  0  0  0
M  CHG  1  14   1
M  END
> <s_m_source_file>
AV-unprocessed.smi

> <i_m_source_file_index>
557

> <i_lp_mmshare_version>
43012

> <i_f3d_flags>
0

> <s_epik_input>
W0NIM11uMVtjSF1jKFtjSF1uMSlbQ0gyXVtDSDJdW05IXUMoPU8pW05IXVtDQEhdKFtDSDJdW0NIMl0yKVtDQEhdKE4yMylbQ0gyXVtDSDJdW0NIMl1bQ0gyXTM=

> <s_epik_cmdline>
J2VwaWtfcHl0aG9uJywgJy1waCcsICc3LjAnLCAnLXRuJywgJzgnLCAnLW1hJywgJzIwMCcsICctbWV0YWxfYmluZGluZycsICctaW1hZScsICc8aW5maWxlLm1hZT4nLCAnLW9tYWUnLCAnPG91dGZpbGUubWFlPic=

> <r_lp_tautomer_probability>
1

> <r_epik_Ionization_Penalty>
0.000956547

> <r_epik_Ionization_Penalty_Charging>
0.000435796

> <r_epik_Ionization_Penalty_Neutral>
0.000520752

> <r_epik_State_Penalty>
-0

> <r_epik_Charging_Adjusted_Penalty>
0.000435796

> <i_epik_Tot_Q>
1

> <i_epik_Tot_abs_Q>
1

> <r_epik_Metal_State_Penalty>
-0

> <b_epik_Metal_Only>
0

> <s_lp_Force_Field>
OPLS_2005

> <r_lp_Energy>
46.5188

> <b_lp_Chiralities_Consistent>
1

> <s_lp_Variant>
AV-unprocessed.smi:557-1

> <Gold.Version>
5.8.1

> <Gold.Id.Protein>
6NUR|6NUR_protein|mol2

> <Gold.PLP.Fitness>
43.6579

> <Gold.PLP.PLP>
-31.4049

> <Gold.PLP.part.hbond>
-2.2772

> <Gold.PLP.part.metal>
0.0000

> <Gold.PLP.part.buried>
-2.2419

> <Gold.PLP.part.nonpolar>
-25.9941

> <Gold.PLP.part.repulsive>
0.0424

> <Gold.PLP.ligand.clash>
0.0000

> <Gold.PLP.ligand.torsion>
1.0256

> <Gold.PLP.Chemscore.Hbond>
2.9920

> <Gold.PLP.Chemscore.CHOScore>
1.7737

> <Gold.PLP.Chemscore.Metal>
0.0000

> <Gold.Chemscore.Hbonds>
donor molecule, donor type, donor heavy atom, donor atom, acceptor molecule, acceptor atom, score
      L1  H     7    30       P1 10175  1.00
      L1  H    14    47       P1  7948  2.00
      L1  C     3    25       P1  8028  0.99
      L1  C    20    46       P1  7957  0.68

> <Gold.PLP.Chemscore.Internal.Correction>
0.0071

> <Gold.Rescore>
     Score         DG    S(hbond)    S(metal)    S(lipo)     H(rot)  DE(clash)    DE(int)     intcor
     13.63     -16.23       1.96        0.00      71.10       1.60       0.03       2.57       ----

> <Gold.Chemscore.Fitness>
13.6316

> <Gold.Chemscore.DG>
-16.2305

> <Gold.Chemscore.ZeroCoef>
-5.4800

> <Gold.Chemscore.Hbond>
1.9560

> <Gold.Chemscore.Metal>
0.0000

> <Gold.Chemscore.Lipo>
71.0954

> <Gold.Chemscore.Internal_Hbond>
0.0000

> <Gold.Chemscore.DEClash>
0.0322

> <Gold.Chemscore.DEInternal>
2.5666

> <Gold.Chemscore.Rot>
1.6018

> <Gold.Chemscore.Internal.Correction>
   9.000000E+99

> <Gold.Chemscore.Hbonds>
donor molecule, donor type, donor heavy atom, donor atom, acceptor molecule, acceptor atom, score
      L1  H     7    30       P1 10175  0.89
      L1  H    14    47       P1  7948  0.99

> <Gold.Chemscore.Hbond.Weighted>
-6.5329

> <Gold.Chemscore.Metal.Weighted>
-0.0000

> <Gold.Chemscore.Lipo.Weighted>
-8.3182

> <Gold.Chemscore.Internal_Hbond.Weighted>
0.0000

> <Gold.Chemscore.DEClash.Weighted>
0.0322

> <Gold.Chemscore.DEInternal.Weighted>
2.5666

> <Gold.Chemscore.Rot.Weighted>
4.1006

> <Gold.Chemscore.Internal.Correction.Weighted>
   9.000000E+99

> <Gold.Protein.RotatedTorsions>
[ 6907 6896 6895 6894 ] final  153.12 input  -60.11 | X-H torsion
[ 7974 7965 7964 7962 ] final  138.35 input  175.53 | X-H torsion
[ 8008 7997 7996 7995 ] final -139.01 input   59.86 | X-H torsion
[ 10167 10162 10161 10158 ] final  115.13 input  -65.29 | X-H torsion
[ 10718 10713 10712 10709 ] final   71.53 input   66.30 | X-H torsion
[ 10763 10752 10751 10750 ] final  -72.33 input  -60.55 | X-H torsion
[ 11005 11000 10999 10996 ] final -167.28 input  -57.11 | X-H torsion

> <Gold.Protein.ActiveResidues>
 VAL166  LYS551  ARG553  GLY616  TRP617  ASP618  TYR619  PRO620  LYS621  CYS622 
 ASP623  PHE694  ASN695  SER759  ASP760  ASP761  ALA762  ILE779  LEU786  VAL792 
 PHE793  MET794  SER795  GLU796  ALA797  LYS798  CYS799  TRP800  GLU811  SER814 

> <Gold.Protein.RotatedAtoms>
  152.0772  133.4135  159.4484 H   0  0  0  0  0  0  0  0  0  0  0  0  # atno 6907 bound_to 6896
  150.6862  134.3024  159.4721 H   0  0  0  0  0  0  0  0  0  0  0  0  # atno 6908 bound_to 6896
  152.0862  134.9438  160.0623 H   0  0  0  0  0  0  0  0  0  0  0  0  # atno 6909 bound_to 6896
  144.9381  139.4965  143.5585 H   0  0  0  0  0  0  0  0  0  0  0  0  # atno 7974 bound_to 7965
  155.4379  140.0529  157.3013 H   0  0  0  0  0  0  0  0  0  0  0  0  # atno 8008 bound_to 7997
  154.4831  140.2089  155.9675 H   0  0  0  0  0  0  0  0  0  0  0  0  # atno 8009 bound_to 7997
  156.1235  140.3184  155.8248 H   0  0  0  0  0  0  0  0  0  0  0  0  # atno 8010 bound_to 7997
  139.6339  144.7118  151.2376 H   0  0  0  0  0  0  0  0  0  0  0  0  # atno 10167 bound_to 10162
  157.6456  130.9533  150.0802 H   0  0  0  0  0  0  0  0  0  0  0  0  # atno 10718 bound_to 10713
  154.4442  135.5933  153.6149 H   0  0  0  0  0  0  0  0  0  0  0  0  # atno 10763 bound_to 10752
  152.9808  135.6005  154.3685 H   0  0  0  0  0  0  0  0  0  0  0  0  # atno 10764 bound_to 10752
  154.3538  135.2841  155.2336 H   0  0  0  0  0  0  0  0  0  0  0  0  # atno 10765 bound_to 10752
  140.5551  134.5390  157.5131 H   0  0  0  0  0  0  0  0  0  0  0  0  # atno 11005 bound_to 11000
  146.3274  139.8380  142.8896 LP  0  0  0  0  0  0  0  0  0  0  0  0  # atno 17320 bound_to 7965
  145.3035  141.0201  143.3595 LP  0  0  0  0  0  0  0  0  0  0  0  0  # atno 17321 bound_to 7965
  140.7454  143.6432  150.8316 LP  0  0  0  0  0  0  0  0  0  0  0  0  # atno 17342 bound_to 10162
  140.0060  143.5693  152.2857 LP  0  0  0  0  0  0  0  0  0  0  0  0  # atno 17343 bound_to 10162
  156.1781  130.3649  149.9073 LP  0  0  0  0  0  0  0  0  0  0  0  0  # atno 17370 bound_to 10713
  156.7032  130.8941  151.3601 LP  0  0  0  0  0  0  0  0  0  0  0  0  # atno 17371 bound_to 10713
  139.9436  134.7743  156.0618 LP  0  0  0  0  0  0  0  0  0  0  0  0  # atno 17394 bound_to 11000
  141.1148  133.6631  156.3068 LP  0  0  0  0  0  0  0  0  0  0  0  0  # atno 17395 bound_to 11000

$$$$
