AV-unprocessed.smi:3202|AV-procd|sdf|12248|dock1
  -GOLD-   2272018 83D 1   1.00000     0.00000
 Structure written by MMmdl.
 43 44  0  0  0  0  0  0  0  0  2 V2000
  146.8884  139.6708  153.1594 C   0  0  0  0  0  0  0  0  0  0  0  0
  147.8924  140.4573  153.9494 C   0  0  0  0  0  0  0  0  0  0  0  0
  149.0909  139.9896  154.5636 C   0  0  0  0  0  0  0  0  0  0  0  0
  149.6233  141.1004  155.1555 C   0  0  0  0  0  0  0  0  0  0  0  0
  150.8637  141.2848  155.9685 C   0  0  0  0  0  0  0  0  0  0  0  0
  150.6402  142.0267  157.3005 C   0  0  1  0  0  0  0  0  0  0  0  0
  149.4597  141.4608  158.1065 C   0  0  0  0  0  0  0  0  0  0  0  0
  151.8716  141.9645  158.1187 N   0  3  0  0  0  0  0  0  0  0  0  0
  151.7295  142.4123  159.5226 C   0  0  1  0  0  0  0  0  0  0  0  0
  152.9767  142.1344  160.3742 C   0  0  0  0  0  0  0  0  0  0  0  0
  152.9585  143.1885  161.4886 C   0  0  0  0  0  0  0  0  0  0  0  0
  151.8183  144.1588  161.1468 C   0  0  0  0  0  0  0  0  0  0  0  0
  151.4793  143.9293  159.6628 C   0  0  0  0  0  0  0  0  0  0  0  0
  152.4176  144.7780  158.7732 C   0  0  0  0  0  0  0  0  0  0  0  0
  150.0139  144.2969  159.3632 C   0  0  0  0  0  0  0  0  0  0  0  0
  148.7596  142.1352  154.8766 N   0  0  0  0  0  0  0  0  0  0  0  0
  147.6991  141.7535  154.1415 N   0  0  0  0  0  0  0  0  0  0  0  0
  148.8772  143.0930  155.1754 H   0  0  0  0  0  0  0  0  0  0  0  0
  147.2306  138.6491  152.9927 H   0  0  0  0  0  0  0  0  0  0  0  0
  146.7111  140.1237  152.1835 H   0  0  0  0  0  0  0  0  0  0  0  0
  145.9334  139.6181  153.6824 H   0  0  0  0  0  0  0  0  0  0  0  0
  149.4938  138.9875  154.5720 H   0  0  0  0  0  0  0  0  0  0  0  0
  151.5996  141.8263  155.3723 H   0  0  0  0  0  0  0  0  0  0  0  0
  151.3047  140.3072  156.1673 H   0  0  0  0  0  0  0  0  0  0  0  0
  150.4099  143.0683  157.0716 H   0  0  0  0  0  0  0  0  0  0  0  0
  148.5209  141.5511  157.5594 H   0  0  0  0  0  0  0  0  0  0  0  0
  149.3359  141.9981  159.0475 H   0  0  0  0  0  0  0  0  0  0  0  0
  149.6079  140.4064  158.3421 H   0  0  0  0  0  0  0  0  0  0  0  0
  152.2086  141.0125  158.1243 H   0  0  0  0  0  0  0  0  0  0  0  0
  150.8841  141.8838  159.9684 H   0  0  0  0  0  0  0  0  0  0  0  0
  152.9822  141.1194  160.7727 H   0  0  0  0  0  0  0  0  0  0  0  0
  153.8828  142.2528  159.7780 H   0  0  0  0  0  0  0  0  0  0  0  0
  152.8009  142.7346  162.4674 H   0  0  0  0  0  0  0  0  0  0  0  0
  153.9143  143.7128  161.5234 H   0  0  0  0  0  0  0  0  0  0  0  0
  150.9558  143.9110  161.7675 H   0  0  0  0  0  0  0  0  0  0  0  0
  152.0774  145.1950  161.3683 H   0  0  0  0  0  0  0  0  0  0  0  0
  152.2960  145.8419  158.9807 H   0  0  0  0  0  0  0  0  0  0  0  0
  152.2068  144.6346  157.7131 H   0  0  0  0  0  0  0  0  0  0  0  0
  153.4681  144.5362  158.9357 H   0  0  0  0  0  0  0  0  0  0  0  0
  149.8286  145.3562  159.5450 H   0  0  0  0  0  0  0  0  0  0  0  0
  149.3206  143.7325  159.9878 H   0  0  0  0  0  0  0  0  0  0  0  0
  149.7588  144.0914  158.3232 H   0  0  0  0  0  0  0  0  0  0  0  0
  152.5687  142.5438  157.6729 H   0  0  0  0  0  0  0  0  0  0  0  0
  1 19  1  0  0  0  0
  1 20  1  0  0  0  0
  1 21  1  0  0  0  0
  1  2  1  0  0  0  0
  2 17  2  0  0  0  0
  2  3  1  0  0  0  0
  3  4  2  0  0  0  0
  3 22  1  0  0  0  0
  4 16  1  0  0  0  0
  4  5  1  0  0  0  0
  5  6  1  0  0  0  0
  5 23  1  0  0  0  0
  5 24  1  0  0  0  0
  6  7  1  0  0  0  0
  6  8  1  0  0  0  0
  6 25  1  0  0  0  0
  7 26  1  0  0  0  0
  7 27  1  0  0  0  0
  7 28  1  0  0  0  0
  8  9  1  0  0  0  0
  8 29  1  0  0  0  0
  8 43  1  0  0  0  0
  9 13  1  0  0  0  0
  9 10  1  0  0  0  0
  9 30  1  0  0  0  0
 10 11  1  0  0  0  0
 10 31  1  0  0  0  0
 10 32  1  0  0  0  0
 11 12  1  0  0  0  0
 11 33  1  0  0  0  0
 11 34  1  0  0  0  0
 12 13  1  0  0  0  0
 12 35  1  0  0  0  0
 12 36  1  0  0  0  0
 13 14  1  0  0  0  0
 13 15  1  0  0  0  0
 14 37  1  0  0  0  0
 14 38  1  0  0  0  0
 14 39  1  0  0  0  0
 15 40  1  0  0  0  0
 15 41  1  0  0  0  0
 15 42  1  0  0  0  0
 16 17  1  0  0  0  0
 16 18  1  0  0  0  0
M  CHG  1   8   1
M  END
> <s_m_source_file>
AV-unprocessed.smi

> <i_m_source_file_index>
3202

> <i_lp_mmshare_version>
43012

> <i_f3d_flags>
0

> <s_epik_input>
W0NIM11jMVtjSF1jKG5bbkhdMSlbQ0gyXVtDQEhdKFtDSDNdKVtOSF1bQ0BASF0oQzIoW0NIM10pW0NIM10pW0NIMl1bQ0gyXVtDSDJdMg==

> <s_epik_cmdline>
J2VwaWtfcHl0aG9uJywgJy1waCcsICc3LjAnLCAnLXRuJywgJzgnLCAnLW1hJywgJzIwMCcsICctbWV0YWxfYmluZGluZycsICctaW1hZScsICc8aW5maWxlLm1hZT4nLCAnLW9tYWUnLCAnPG91dGZpbGUubWFlPic=

> <r_lp_tautomer_probability>
0.5

> <r_epik_Ionization_Penalty>
0.000449684

> <r_epik_Ionization_Penalty_Charging>
0.000404963

> <r_epik_Ionization_Penalty_Neutral>
4.47208e-05

> <r_epik_State_Penalty>
0.41068

> <r_epik_Charging_Adjusted_Penalty>
0.411085

> <i_epik_Tot_Q>
1

> <i_epik_Tot_abs_Q>
1

> <r_epik_Metal_State_Penalty>
0.410687

> <b_epik_Metal_Only>
0

> <s_lp_Force_Field>
OPLS_2005

> <r_lp_Energy>
32.3918

> <b_lp_Chiralities_Consistent>
1

> <s_lp_Variant>
AV-unprocessed.smi:3202-8

> <Gold.Version>
5.8.1

> <Gold.Id.Protein>
6NUR|6NUR_protein|mol2

> <Gold.PLP.Fitness>
44.2463

> <Gold.PLP.PLP>
-41.7369

> <Gold.PLP.part.hbond>
-1.4466

> <Gold.PLP.part.metal>
0.0000

> <Gold.PLP.part.buried>
-3.1649

> <Gold.PLP.part.nonpolar>
-36.3036

> <Gold.PLP.part.repulsive>
0.7885

> <Gold.PLP.ligand.clash>
0.0000

> <Gold.PLP.ligand.torsion>
0.2719

> <Gold.PLP.Chemscore.Hbond>
1.0000

> <Gold.PLP.Chemscore.CHOScore>
0.0000

> <Gold.PLP.Chemscore.Metal>
0.0000

> <Gold.Chemscore.Hbonds>
donor molecule, donor type, donor heavy atom, donor atom, acceptor molecule, acceptor atom, score
      L1  H    16    18       P1  8028  1.00

> <Gold.PLP.Chemscore.Internal.Correction>
0.0532

> <Gold.Rescore>
     Score         DG    S(hbond)    S(metal)    S(lipo)     H(rot)  DE(clash)    DE(int)     intcor
     19.08     -19.52       1.00        0.00     123.39       1.46       0.15       0.29       ----

> <Gold.Chemscore.Fitness>
19.0795

> <Gold.Chemscore.DG>
-19.5198

> <Gold.Chemscore.ZeroCoef>
-5.4800

> <Gold.Chemscore.Hbond>
0.9999

> <Gold.Chemscore.Metal>
0.0000

> <Gold.Chemscore.Lipo>
123.3916

> <Gold.Chemscore.Internal_Hbond>
0.0000

> <Gold.Chemscore.DEClash>
0.1492

> <Gold.Chemscore.DEInternal>
0.2911

> <Gold.Chemscore.Rot>
1.4596

> <Gold.Chemscore.Internal.Correction>
   9.000000E+99

> <Gold.Chemscore.Hbonds>
donor molecule, donor type, donor heavy atom, donor atom, acceptor molecule, acceptor atom, score
      L1  H    16    18       P1  8028  1.00

> <Gold.Chemscore.Hbond.Weighted>
-3.3395

> <Gold.Chemscore.Metal.Weighted>
-0.0000

> <Gold.Chemscore.Lipo.Weighted>
-14.4368

> <Gold.Chemscore.Internal_Hbond.Weighted>
0.0000

> <Gold.Chemscore.DEClash.Weighted>
0.1492

> <Gold.Chemscore.DEInternal.Weighted>
0.2911

> <Gold.Chemscore.Rot.Weighted>
3.7365

> <Gold.Chemscore.Internal.Correction.Weighted>
   9.000000E+99

> <Gold.Protein.RotatedTorsions>
[ 6907 6896 6895 6894 ] final   82.13 input  -60.11 | X-H torsion
[ 7974 7965 7964 7962 ] final   70.76 input  175.53 | X-H torsion
[ 8008 7997 7996 7995 ] final   64.03 input   59.86 | X-H torsion
[ 10167 10162 10161 10158 ] final -122.35 input  -65.29 | X-H torsion
[ 10718 10713 10712 10709 ] final  161.89 input   66.30 | X-H torsion
[ 10763 10752 10751 10750 ] final    9.87 input  -60.55 | X-H torsion
[ 11005 11000 10999 10996 ] final -147.00 input  -57.11 | X-H torsion

> <Gold.Protein.ActiveResidues>
 VAL166  LYS551  ARG553  GLY616  TRP617  ASP618  TYR619  PRO620  LYS621  CYS622 
 ASP623  PHE694  ASN695  SER759  ASP760  ASP761  ALA762  ILE779  LEU786  VAL792 
 PHE793  MET794  SER795  GLU796  ALA797  LYS798  CYS799  TRP800  GLU811  SER814 

> <Gold.Protein.RotatedAtoms>
  152.5290  134.3098  159.9108 H   0  0  0  0  0  0  0  0  0  0  0  0  # atno 6907 bound_to 6896
  151.3048  133.4100  159.2650 H   0  0  0  0  0  0  0  0  0  0  0  0  # atno 6908 bound_to 6896
  151.0089  134.9397  159.8053 H   0  0  0  0  0  0  0  0  0  0  0  0  # atno 6909 bound_to 6896
  145.7741  139.2857  143.1303 H   0  0  0  0  0  0  0  0  0  0  0  0  # atno 7974 bound_to 7965
  155.6396  140.3496  155.4710 H   0  0  0  0  0  0  0  0  0  0  0  0  # atno 8008 bound_to 7997
  155.9937  140.1199  157.0638 H   0  0  0  0  0  0  0  0  0  0  0  0  # atno 8009 bound_to 7997
  154.4227  140.1114  156.5586 H   0  0  0  0  0  0  0  0  0  0  0  0  # atno 8010 bound_to 7997
  140.0152  143.5401  152.2245 H   0  0  0  0  0  0  0  0  0  0  0  0  # atno 10167 bound_to 10162
  157.1302  131.0514  151.2375 H   0  0  0  0  0  0  0  0  0  0  0  0  # atno 10718 bound_to 10713
  153.2093  135.6867  153.8134 H   0  0  0  0  0  0  0  0  0  0  0  0  # atno 10763 bound_to 10752
  153.7372  135.3243  155.3298 H   0  0  0  0  0  0  0  0  0  0  0  0  # atno 10764 bound_to 10752
  154.8213  135.4650  154.0893 H   0  0  0  0  0  0  0  0  0  0  0  0  # atno 10765 bound_to 10752
  140.7762  134.3132  157.5060 H   0  0  0  0  0  0  0  0  0  0  0  0  # atno 11005 bound_to 11000
  146.0140  140.8409  142.9957 LP  0  0  0  0  0  0  0  0  0  0  0  0  # atno 17320 bound_to 7965
  144.6807  140.2531  143.7329 LP  0  0  0  0  0  0  0  0  0  0  0  0  # atno 17321 bound_to 7965
  139.6178  144.7623  151.2808 LP  0  0  0  0  0  0  0  0  0  0  0  0  # atno 17342 bound_to 10162
  140.7365  143.6705  150.8086 LP  0  0  0  0  0  0  0  0  0  0  0  0  # atno 17343 bound_to 10162
  157.4399  130.7538  149.7061 LP  0  0  0  0  0  0  0  0  0  0  0  0  # atno 17370 bound_to 10713
  155.9809  130.4024  150.3499 LP  0  0  0  0  0  0  0  0  0  0  0  0  # atno 17371 bound_to 10713
  139.8749  134.9290  156.3467 LP  0  0  0  0  0  0  0  0  0  0  0  0  # atno 17394 bound_to 11000
  140.9527  133.7440  156.0293 LP  0  0  0  0  0  0  0  0  0  0  0  0  # atno 17395 bound_to 11000

$$$$
