AV-unprocessed.smi:1752|AV-procd|sdf|7059|dock1
  -GOLD-   22720 8273D 1   1.00000     0.00000
 Structure written by MMmdl.
 43 44  0  0  0  0  0  0  0  0  2 V2000
  150.7298  139.3467  158.3872 C   0  0  0  0  0  0  0  0  0  0  0  0
  150.5565  140.8640  158.2358 C   0  0  1  0  0  0  0  0  0  0  0  0
  151.9140  141.5658  158.0167 C   0  0  0  0  0  0  0  0  0  0  0  0
  151.9226  142.9362  158.4975 N   0  0  0  0  0  0  0  0  0  0  0  0
  151.4919  144.0745  157.8487 C   0  0  0  0  0  0  0  0  0  0  0  0
  151.6817  145.1241  158.7008 C   0  0  0  0  0  0  0  0  0  0  0  0
  152.2461  144.5205  159.8593 C   0  0  0  0  0  0  0  0  0  0  0  0
  152.3908  143.2112  159.7337 N   0  0  0  0  0  0  0  0  0  0  0  0
  149.6523  141.1297  157.1174 N   0  0  0  0  0  0  0  0  0  0  0  0
  148.3253  140.9082  157.1051 C   0  0  0  0  0  0  0  0  0  0  0  0
  147.7234  140.4284  158.0665 O   0  0  0  0  0  0  0  0  0  0  0  0
  147.6969  141.3372  155.9822 N   0  0  0  0  0  0  0  0  0  0  0  0
  148.4012  141.6917  154.7298 C   0  0  0  0  0  0  0  0  0  0  0  0
  147.5800  141.4346  153.4437 C   0  0  0  0  0  0  0  0  0  0  0  0
  147.1101  139.9772  153.2432 C   0  0  0  0  0  0  0  0  0  0  0  0
  146.6141  139.2997  154.4716 N   0  3  2  0  0  0  0  0  0  0  0  0
  146.1391  137.9277  154.1871 C   0  0  0  0  0  0  0  0  0  0  0  0
  145.6361  140.0757  155.2807 C   0  0  0  0  0  0  0  0  0  0  0  0
  146.2255  141.3561  155.9177 C   0  0  0  0  0  0  0  0  0  0  0  0
  151.3754  139.1093  159.2332 H   0  0  0  0  0  0  0  0  0  0  0  0
  151.1761  138.9055  157.4953 H   0  0  0  0  0  0  0  0  0  0  0  0
  149.7709  138.8562  158.5589 H   0  0  0  0  0  0  0  0  0  0  0  0
  150.1183  141.2306  159.1659 H   0  0  0  0  0  0  0  0  0  0  0  0
  152.7061  141.0220  158.5337 H   0  0  0  0  0  0  0  0  0  0  0  0
  152.1785  141.5661  156.9583 H   0  0  0  0  0  0  0  0  0  0  0  0
  151.0843  144.0417  156.8490 H   0  0  0  0  0  0  0  0  0  0  0  0
  151.4528  146.1645  158.5240 H   0  0  0  0  0  0  0  0  0  0  0  0
  152.5529  144.9921  160.7814 H   0  0  0  0  0  0  0  0  0  0  0  0
  150.0643  141.5505  156.2973 H   0  0  0  0  0  0  0  0  0  0  0  0
  148.6836  142.7441  154.7786 H   0  0  0  0  0  0  0  0  0  0  0  0
  149.3291  141.1249  154.6367 H   0  0  0  0  0  0  0  0  0  0  0  0
  146.7245  142.1070  153.3913 H   0  0  0  0  0  0  0  0  0  0  0  0
  148.1883  141.7163  152.5835 H   0  0  0  0  0  0  0  0  0  0  0  0
  146.3362  139.9536  152.4744 H   0  0  0  0  0  0  0  0  0  0  0  0
  147.9455  139.3910  152.8582 H   0  0  0  0  0  0  0  0  0  0  0  0
  145.2384  137.9461  153.5723 H   0  0  0  0  0  0  0  0  0  0  0  0
  145.9120  137.3957  155.1117 H   0  0  0  0  0  0  0  0  0  0  0  0
  146.9028  137.3559  153.6588 H   0  0  0  0  0  0  0  0  0  0  0  0
  144.7546  140.3137  154.6838 H   0  0  0  0  0  0  0  0  0  0  0  0
  145.2911  139.4338  156.0928 H   0  0  0  0  0  0  0  0  0  0  0  0
  145.7867  141.5026  156.9066 H   0  0  0  0  0  0  0  0  0  0  0  0
  145.8980  142.2402  155.3716 H   0  0  0  0  0  0  0  0  0  0  0  0
  147.4220  139.1903  155.0681 H   0  0  0  0  0  0  0  0  0  0  0  0
  1  2  1  0  0  0  0
  1 20  1  0  0  0  0
  1 21  1  0  0  0  0
  1 22  1  0  0  0  0
  2  3  1  0  0  0  0
  2  9  1  0  0  0  0
  2 23  1  0  0  0  0
  3  4  1  0  0  0  0
  3 24  1  0  0  0  0
  3 25  1  0  0  0  0
  4  8  1  0  0  0  0
  4  5  1  0  0  0  0
  5  6  2  0  0  0  0
  5 26  1  0  0  0  0
  6  7  1  0  0  0  0
  6 27  1  0  0  0  0
  7  8  2  0  0  0  0
  7 28  1  0  0  0  0
  9 10  1  0  0  0  0
  9 29  1  0  0  0  0
 10 11  2  0  0  0  0
 10 12  1  0  0  0  0
 12 19  1  0  0  0  0
 12 13  1  0  0  0  0
 13 14  1  0  0  0  0
 13 30  1  0  0  0  0
 13 31  1  0  0  0  0
 14 15  1  0  0  0  0
 14 32  1  0  0  0  0
 14 33  1  0  0  0  0
 15 16  1  0  0  0  0
 15 34  1  0  0  0  0
 15 35  1  0  0  0  0
 16 17  1  0  0  0  0
 16 18  1  0  0  0  0
 16 43  1  0  0  0  0
 17 36  1  0  0  0  0
 17 37  1  0  0  0  0
 17 38  1  0  0  0  0
 18 19  1  0  0  0  0
 18 39  1  0  0  0  0
 18 40  1  0  0  0  0
 19 41  1  0  0  0  0
 19 42  1  0  0  0  0
M  CHG  1  16   1
M  END
> <s_m_source_file>
AV-unprocessed.smi

> <i_m_source_file_index>
1752

> <i_lp_mmshare_version>
43012

> <i_f3d_flags>
0

> <s_epik_input>
bjFbY0hdW2NIXVtjSF1uMVtDSDJdW0NAQEhdKFtDSDNdKVtOSF1DKD1PKU4yW0NIMl1bQ0gyXVtDSDJdTihbQ0gzXSlbQ0gyXVtDSDJdMg==

> <s_epik_cmdline>
J2VwaWtfcHl0aG9uJywgJy1waCcsICc3LjAnLCAnLXRuJywgJzgnLCAnLW1hJywgJzIwMCcsICctbWV0YWxfYmluZGluZycsICctaW1hZScsICc8aW5maWxlLm1hZT4nLCAnLW9tYWUnLCAnPG91dGZpbGUubWFlPic=

> <r_lp_tautomer_probability>
1

> <r_epik_Ionization_Penalty>
0.00208423

> <r_epik_Ionization_Penalty_Charging>
0.00203643

> <r_epik_Ionization_Penalty_Neutral>
4.77939e-05

> <r_epik_State_Penalty>
0.00139278

> <r_epik_Charging_Adjusted_Penalty>
0.00342922

> <i_epik_Tot_Q>
1

> <i_epik_Tot_abs_Q>
1

> <r_epik_Metal_State_Penalty>
-0

> <b_epik_Metal_Only>
0

> <s_lp_Force_Field>
OPLS_2005

> <r_lp_Energy>
45.8522

> <b_lp_Chiralities_Consistent>
1

> <s_lp_Variant>
AV-unprocessed.smi:1752-2

> <Gold.Version>
5.8.1

> <Gold.Id.Protein>
6NUR|6NUR_protein|mol2

> <Gold.PLP.Fitness>
33.3244

> <Gold.PLP.PLP>
-31.9046

> <Gold.PLP.part.hbond>
-1.0000

> <Gold.PLP.part.metal>
0.0000

> <Gold.PLP.part.buried>
-5.4329

> <Gold.PLP.part.nonpolar>
-25.7188

> <Gold.PLP.part.repulsive>
0.0375

> <Gold.PLP.ligand.clash>
0.0000

> <Gold.PLP.ligand.torsion>
0.8684

> <Gold.PLP.Chemscore.Hbond>
0.0000

> <Gold.PLP.Chemscore.CHOScore>
1.0000

> <Gold.PLP.Chemscore.Metal>
0.0000

> <Gold.Chemscore.Hbonds>
donor molecule, donor type, donor heavy atom, donor atom, acceptor molecule, acceptor atom, score
      L1  C     5    26       P1  8028  0.91

> <Gold.PLP.Chemscore.Internal.Correction>
0.1565

> <Gold.Rescore>
     Score         DG    S(hbond)    S(metal)    S(lipo)     H(rot)  DE(clash)    DE(int)     intcor
     10.75     -11.59       0.00        0.00      83.16       1.41       0.20       0.65       ----

> <Gold.Chemscore.Fitness>
10.7539

> <Gold.Chemscore.DG>
-11.5942

> <Gold.Chemscore.ZeroCoef>
-5.4800

> <Gold.Chemscore.Hbond>
0.0000

> <Gold.Chemscore.Metal>
0.0000

> <Gold.Chemscore.Lipo>
83.1633

> <Gold.Chemscore.Internal_Hbond>
0.0000

> <Gold.Chemscore.DEClash>
0.1951

> <Gold.Chemscore.DEInternal>
0.6451

> <Gold.Chemscore.Rot>
1.4125

> <Gold.Chemscore.Internal.Correction>
   9.000000E+99

> <Gold.Chemscore.Hbond.Weighted>
-0.0000

> <Gold.Chemscore.Metal.Weighted>
-0.0000

> <Gold.Chemscore.Lipo.Weighted>
-9.7301

> <Gold.Chemscore.Internal_Hbond.Weighted>
0.0000

> <Gold.Chemscore.DEClash.Weighted>
0.1951

> <Gold.Chemscore.DEInternal.Weighted>
0.6451

> <Gold.Chemscore.Rot.Weighted>
3.6160

> <Gold.Chemscore.Internal.Correction.Weighted>
   9.000000E+99

> <Gold.Protein.RotatedTorsions>
[ 6907 6896 6895 6894 ] final  -29.28 input  -60.11 | X-H torsion
[ 7974 7965 7964 7962 ] final  -24.67 input  175.53 | X-H torsion
[ 8008 7997 7996 7995 ] final   15.30 input   59.86 | X-H torsion
[ 10167 10162 10161 10158 ] final -132.58 input  -65.29 | X-H torsion
[ 10718 10713 10712 10709 ] final -130.67 input   66.30 | X-H torsion
[ 10763 10752 10751 10750 ] final  149.28 input  -60.55 | X-H torsion
[ 11005 11000 10999 10996 ] final -106.97 input  -57.11 | X-H torsion

> <Gold.Protein.ActiveResidues>
 VAL166  LYS551  ARG553  GLY616  TRP617  ASP618  TYR619  PRO620  LYS621  CYS622 
 ASP623  PHE694  ASN695  SER759  ASP760  ASP761  ALA762  ILE779  LEU786  VAL792 
 PHE793  MET794  SER795  GLU796  ALA797  LYS798  CYS799  TRP800  GLU811  SER814 

> <Gold.Protein.RotatedAtoms>
  151.1214  135.0081  159.8539 H   0  0  0  0  0  0  0  0  0  0  0  0  # atno 6907 bound_to 6896
  152.5448  134.1718  159.8610 H   0  0  0  0  0  0  0  0  0  0  0  0  # atno 6908 bound_to 6896
  151.1777  133.4700  159.2627 H   0  0  0  0  0  0  0  0  0  0  0  0  # atno 6909 bound_to 6896
  146.1540  140.4783  142.8599 H   0  0  0  0  0  0  0  0  0  0  0  0  # atno 7974 bound_to 7965
  154.8607  140.2944  155.5541 H   0  0  0  0  0  0  0  0  0  0  0  0  # atno 8008 bound_to 7997
  156.3019  140.2478  156.3513 H   0  0  0  0  0  0  0  0  0  0  0  0  # atno 8009 bound_to 7997
  154.8922  140.0394  157.1834 H   0  0  0  0  0  0  0  0  0  0  0  0  # atno 8010 bound_to 7997
  139.9070  143.6539  152.2583 H   0  0  0  0  0  0  0  0  0  0  0  0  # atno 10167 bound_to 10162
  156.2167  130.6953  151.0711 H   0  0  0  0  0  0  0  0  0  0  0  0  # atno 10718 bound_to 10713
  154.0685  135.2868  155.3312 H   0  0  0  0  0  0  0  0  0  0  0  0  # atno 10763 bound_to 10752
  154.6762  135.5281  153.8206 H   0  0  0  0  0  0  0  0  0  0  0  0  # atno 10764 bound_to 10752
  153.0494  135.6570  154.0868 H   0  0  0  0  0  0  0  0  0  0  0  0  # atno 10765 bound_to 10752
  141.0977  133.8940  157.1920 H   0  0  0  0  0  0  0  0  0  0  0  0  # atno 11005 bound_to 11000
  144.7940  140.6086  143.6523 LP  0  0  0  0  0  0  0  0  0  0  0  0  # atno 17320 bound_to 7965
  145.4754  139.1500  143.3791 LP  0  0  0  0  0  0  0  0  0  0  0  0  # atno 17321 bound_to 7965
  139.6975  144.7639  151.1331 LP  0  0  0  0  0  0  0  0  0  0  0  0  # atno 17342 bound_to 10162
  140.7694  143.5503  150.9212 LP  0  0  0  0  0  0  0  0  0  0  0  0  # atno 17343 bound_to 10162
  157.7067  131.0753  150.6643 LP  0  0  0  0  0  0  0  0  0  0  0  0  # atno 17370 bound_to 10713
  156.6704  130.4538  149.5659 LP  0  0  0  0  0  0  0  0  0  0  0  0  # atno 17371 bound_to 10713
  139.9819  135.0095  156.9770 LP  0  0  0  0  0  0  0  0  0  0  0  0  # atno 17394 bound_to 11000
  140.5098  134.1013  155.7268 LP  0  0  0  0  0  0  0  0  0  0  0  0  # atno 17395 bound_to 11000

$$$$
