AV-unprocessed.smi:46|AV-procd|sdf|420|dock5
  -GOLD-   2262016293D 1   1.00000     0.00000
 Structure written by MMmdl.
 35 36  0  0  0  0  0  0  0  0  2 V2000
  152.8134  143.0551  159.9430 C   0  0  0  0  0  0  0  0  0  0  0  0
  152.3533  143.4090  158.5210 C   0  0  0  0  0  0  0  0  0  0  0  0
  151.6068  144.7510  158.4721 C   0  0  0  0  0  0  0  0  0  0  0  0
  151.5395  142.3395  157.9630 N   0  0  0  0  0  0  0  0  0  0  0  0
  150.2348  142.3893  157.5175 C   0  0  0  0  0  0  0  0  0  0  0  0
  149.8881  141.1342  157.0963 C   0  0  0  0  0  0  0  0  0  0  0  0
  148.5846  140.6264  156.5151 C   0  0  1  0  0  0  0  0  0  0  0  0
  147.4832  141.6933  156.4731 C   0  0  0  0  0  0  0  0  0  0  0  0
  147.6498  142.4121  155.1967 N   0  3  0  0  0  0  0  0  0  0  0  0
  148.4484  141.5627  154.2911 C   0  0  0  0  0  0  0  0  0  0  0  0
  148.6969  140.2368  155.0303 C   0  0  1  0  0  0  0  0  0  0  0  0
  149.9965  139.5219  154.6100 C   0  0  0  0  0  0  0  0  0  0  0  0
  149.7431  138.6658  153.5169 O   0  0  0  0  0  0  0  0  0  0  0  0
  151.0697  140.3760  157.3371 C   0  0  0  0  0  0  0  0  0  0  0  0
  152.0510  141.0957  157.8534 N   0  0  0  0  0  0  0  0  0  0  0  0
  148.2392  139.7696  157.0955 H   0  0  0  0  0  0  0  0  0  0  0  0
  147.8534  139.5787  154.8116 H   0  0  0  0  0  0  0  0  0  0  0  0
  153.4718  143.8261  160.3442 H   0  0  0  0  0  0  0  0  0  0  0  0
  153.3649  142.1143  159.9535 H   0  0  0  0  0  0  0  0  0  0  0  0
  151.9679  142.9532  160.6239 H   0  0  0  0  0  0  0  0  0  0  0  0
  153.2462  143.5083  157.9007 H   0  0  0  0  0  0  0  0  0  0  0  0
  152.2383  145.5619  158.8364 H   0  0  0  0  0  0  0  0  0  0  0  0
  150.7057  144.7328  159.0858 H   0  0  0  0  0  0  0  0  0  0  0  0
  151.3110  144.9976  157.4518 H   0  0  0  0  0  0  0  0  0  0  0  0
  149.6680  143.3081  157.5386 H   0  0  0  0  0  0  0  0  0  0  0  0
  146.5071  141.2071  156.4451 H   0  0  0  0  0  0  0  0  0  0  0  0
  147.4904  142.3633  157.3334 H   0  0  0  0  0  0  0  0  0  0  0  0
  146.7465  142.6155  154.7928 H   0  0  0  0  0  0  0  0  0  0  0  0
  147.9359  141.4099  153.3410 H   0  0  0  0  0  0  0  0  0  0  0  0
  149.3879  142.0765  154.0843 H   0  0  0  0  0  0  0  0  0  0  0  0
  150.7750  140.2323  154.3300 H   0  0  0  0  0  0  0  0  0  0  0  0
  150.3830  138.9233  155.4355 H   0  0  0  0  0  0  0  0  0  0  0  0
  149.6801  139.1894  152.7321 H   0  0  0  0  0  0  0  0  0  0  0  0
  151.2423  139.3264  157.1489 H   0  0  0  0  0  0  0  0  0  0  0  0
  148.1515  143.2736  155.3584 H   0  0  0  0  0  0  0  0  0  0  0  0
  1  2  1  0  0  0  0
  1 18  1  0  0  0  0
  1 19  1  0  0  0  0
  1 20  1  0  0  0  0
  2  3  1  0  0  0  0
  2  4  1  0  0  0  0
  2 21  1  0  0  0  0
  3 22  1  0  0  0  0
  3 23  1  0  0  0  0
  3 24  1  0  0  0  0
  4 15  1  0  0  0  0
  4  5  1  0  0  0  0
  5  6  2  0  0  0  0
  5 25  1  0  0  0  0
  6  7  1  0  0  0  0
  6 14  1  0  0  0  0
  7 16  1  0  0  0  0
  7 11  1  0  0  0  0
  7  8  1  0  0  0  0
  8  9  1  0  0  0  0
  8 26  1  0  0  0  0
  8 27  1  0  0  0  0
  9 10  1  0  0  0  0
  9 28  1  0  0  0  0
  9 35  1  0  0  0  0
 10 11  1  0  0  0  0
 10 29  1  0  0  0  0
 10 30  1  0  0  0  0
 11 17  1  0  0  0  0
 11 12  1  0  0  0  0
 12 13  1  0  0  0  0
 12 31  1  0  0  0  0
 12 32  1  0  0  0  0
 13 33  1  0  0  0  0
 14 15  2  0  0  0  0
 14 34  1  0  0  0  0
M  CHG  1   9   1
M  END
> <s_m_source_file>
AV-unprocessed.smi

> <i_m_source_file_index>
46

> <i_lp_mmshare_version>
43012

> <i_f3d_flags>
0

> <s_epik_input>
W0NIM11bQ0hdKFtDSDNdKW4xW2NIXWMoW2NIXW4xKVtDQEBIXTJbQ0gyXVtOSF1bQ0gyXVtDQEhdMltDSDJdW09IXQ==

> <s_epik_cmdline>
J2VwaWtfcHl0aG9uJywgJy1waCcsICc3LjAnLCAnLXRuJywgJzgnLCAnLW1hJywgJzIwMCcsICctbWV0YWxfYmluZGluZycsICctaW1hZScsICc8aW5maWxlLm1hZT4nLCAnLW9tYWUnLCAnPG91dGZpbGUubWFlPic=

> <r_lp_tautomer_probability>
1

> <r_epik_Ionization_Penalty>
0.000236226

> <r_epik_Ionization_Penalty_Charging>
0.00021985

> <r_epik_Ionization_Penalty_Neutral>
1.63752e-05

> <r_epik_State_Penalty>
-0

> <r_epik_Charging_Adjusted_Penalty>
0.00021985

> <i_epik_Tot_Q>
1

> <i_epik_Tot_abs_Q>
1

> <r_epik_Metal_State_Penalty>
-0

> <b_epik_Metal_Only>
0

> <s_lp_Force_Field>
OPLS_2005

> <r_lp_Energy>
33.3547

> <b_lp_Chiralities_Consistent>
1

> <s_lp_Variant>
AV-unprocessed.smi:46-2

> <Gold.Version>
5.8.1

> <Gold.Id.Protein>
6NUR|6NUR_protein|mol2

> <Gold.PLP.Fitness>
42.6704

> <Gold.PLP.PLP>
-31.5295

> <Gold.PLP.part.hbond>
-2.9875

> <Gold.PLP.part.metal>
0.0000

> <Gold.PLP.part.buried>
-4.2473

> <Gold.PLP.part.nonpolar>
-25.0933

> <Gold.PLP.part.repulsive>
0.1142

> <Gold.PLP.ligand.clash>
0.0000

> <Gold.PLP.ligand.torsion>
0.4572

> <Gold.PLP.Chemscore.Hbond>
3.0000

> <Gold.PLP.Chemscore.CHOScore>
1.0000

> <Gold.PLP.Chemscore.Metal>
0.0000

> <Gold.Chemscore.Hbonds>
donor molecule, donor type, donor heavy atom, donor atom, acceptor molecule, acceptor atom, score
      L1  H     9    35       P1  8028  2.00
      L1  H    13    33       P1  7957  1.00
      L1  C     5    25       P1  8028  1.00

> <Gold.PLP.Chemscore.Internal.Correction>
0.0553

> <Gold.Rescore>
     Score         DG    S(hbond)    S(metal)    S(lipo)     H(rot)  DE(clash)    DE(int)     intcor
     16.17     -16.56       1.93        0.00      81.28       1.90       0.03       0.36       ----

> <Gold.Chemscore.Fitness>
16.1655

> <Gold.Chemscore.DG>
-16.5627

> <Gold.Chemscore.ZeroCoef>
-5.4800

> <Gold.Chemscore.Hbond>
1.9256

> <Gold.Chemscore.Metal>
0.0000

> <Gold.Chemscore.Lipo>
81.2750

> <Gold.Chemscore.Internal_Hbond>
0.0000

> <Gold.Chemscore.DEClash>
0.0341

> <Gold.Chemscore.DEInternal>
0.3631

> <Gold.Chemscore.Rot>
1.8976

> <Gold.Chemscore.Internal.Correction>
   9.000000E+99

> <Gold.Chemscore.Hbonds>
donor molecule, donor type, donor heavy atom, donor atom, acceptor molecule, acceptor atom, score
      L1  H     9    35       P1  8028  0.88
      L1  H    13    33       P1  7957  0.97

> <Gold.Chemscore.Hbond.Weighted>
-6.4314

> <Gold.Chemscore.Metal.Weighted>
-0.0000

> <Gold.Chemscore.Lipo.Weighted>
-9.5092

> <Gold.Chemscore.Internal_Hbond.Weighted>
0.0000

> <Gold.Chemscore.DEClash.Weighted>
0.0341

> <Gold.Chemscore.DEInternal.Weighted>
0.3631

> <Gold.Chemscore.Rot.Weighted>
4.8579

> <Gold.Chemscore.Internal.Correction.Weighted>
   9.000000E+99

> <Gold.Protein.RotatedTorsions>
[ 6907 6896 6895 6894 ] final   84.56 input  -60.11 | X-H torsion
[ 7974 7965 7964 7962 ] final  -17.15 input  175.53 | X-H torsion
[ 8008 7997 7996 7995 ] final   31.21 input   59.86 | X-H torsion
[ 10167 10162 10161 10158 ] final -114.14 input  -65.29 | X-H torsion
[ 10718 10713 10712 10709 ] final   17.50 input   66.30 | X-H torsion
[ 10763 10752 10751 10750 ] final -171.49 input  -60.55 | X-H torsion
[ 11005 11000 10999 10996 ] final    4.63 input  -57.11 | X-H torsion

> <Gold.Protein.ActiveResidues>
 VAL166  LYS551  ARG553  GLY616  TRP617  ASP618  TYR619  PRO620  LYS621  CYS622 
 ASP623  PHE694  ASN695  SER759  ASP760  ASP761  ALA762  ILE779  LEU786  VAL792 
 PHE793  MET794  SER795  GLU796  ALA797  LYS798  CYS799  TRP800  GLU811  SER814 

> <Gold.Protein.RotatedAtoms>
  152.5355  134.2721  159.8975 H   0  0  0  0  0  0  0  0  0  0  0  0  # atno 6907 bound_to 6896
  151.2678  133.4263  159.2627 H   0  0  0  0  0  0  0  0  0  0  0  0  # atno 6908 bound_to 6896
  151.0395  134.9612  159.8210 H   0  0  0  0  0  0  0  0  0  0  0  0  # atno 6909 bound_to 6896
  146.1954  140.3738  142.8442 H   0  0  0  0  0  0  0  0  0  0  0  0  # atno 7974 bound_to 7965
  155.1028  140.3231  155.4542 H   0  0  0  0  0  0  0  0  0  0  0  0  # atno 8008 bound_to 7997
  156.2712  140.2058  156.6101 H   0  0  0  0  0  0  0  0  0  0  0  0  # atno 8009 bound_to 7997
  154.6816  140.0525  157.0259 H   0  0  0  0  0  0  0  0  0  0  0  0  # atno 8010 bound_to 7997
  140.1042  143.4586  152.1793 H   0  0  0  0  0  0  0  0  0  0  0  0  # atno 10167 bound_to 10162
  157.0830  130.6396  149.5831 H   0  0  0  0  0  0  0  0  0  0  0  0  # atno 10718 bound_to 10713
  154.6299  135.2885  155.0228 H   0  0  0  0  0  0  0  0  0  0  0  0  # atno 10763 bound_to 10752
  154.1393  135.6521  153.4942 H   0  0  0  0  0  0  0  0  0  0  0  0  # atno 10764 bound_to 10752
  153.0275  135.5329  154.7122 H   0  0  0  0  0  0  0  0  0  0  0  0  # atno 10765 bound_to 10752
  140.5798  134.0024  155.8043 H   0  0  0  0  0  0  0  0  0  0  0  0  # atno 11005 bound_to 11000
  144.8570  140.7085  143.6131 LP  0  0  0  0  0  0  0  0  0  0  0  0  # atno 17320 bound_to 7965
  145.3659  139.1670  143.4358 LP  0  0  0  0  0  0  0  0  0  0  0  0  # atno 17321 bound_to 7965
  139.5654  144.7432  151.4036 LP  0  0  0  0  0  0  0  0  0  0  0  0  # atno 17342 bound_to 10162
  140.6961  143.7745  150.7329 LP  0  0  0  0  0  0  0  0  0  0  0  0  # atno 17343 bound_to 10162
  155.9918  130.4974  150.7315 LP  0  0  0  0  0  0  0  0  0  0  0  0  # atno 17370 bound_to 10713
  157.4784  131.0900  151.0564 LP  0  0  0  0  0  0  0  0  0  0  0  0  # atno 17371 bound_to 10713
  141.1003  133.9778  157.3090 LP  0  0  0  0  0  0  0  0  0  0  0  0  # atno 17394 bound_to 11000
  139.9322  135.0199  156.8439 LP  0  0  0  0  0  0  0  0  0  0  0  0  # atno 17395 bound_to 11000

$$$$
