AV-unprocessed.smi:2855|AV-procd|sdf|10982|dock7
  -GOLD-   2272015433D 1   1.00000     0.00000
 Structure written by MMmdl.
 47 48  0  0  0  0  0  0  0  0  1 V2000
  151.1706  137.0210  155.9115 C   0  0  0  0  0  0  0  0  0  0  0  0
  151.6847  138.1096  154.9527 C   0  0  1  0  0  0  0  0  0  0  0  0
  150.6920  138.4218  153.8184 C   0  0  0  0  0  0  0  0  0  0  0  0
  149.4721  139.2190  154.3083 C   0  0  0  0  0  0  0  0  0  0  0  0
  149.8820  140.5298  155.0209 C   0  0  1  0  0  0  0  0  0  0  0  0
  148.6639  141.4063  155.4436 C   0  0  0  0  0  0  0  0  0  0  0  0
  147.7972  140.7851  156.5545 C   0  0  0  0  0  0  0  0  0  0  0  0
  147.7931  141.8202  154.2444 C   0  0  0  0  0  0  0  0  0  0  0  0
  150.8718  140.2194  156.1791 C   0  0  2  0  0  0  0  0  0  0  0  0
  151.3637  141.4528  156.7910 N   0  0  0  0  0  0  0  0  0  0  0  0
  150.8379  142.0667  157.8624 C   0  0  0  0  0  0  0  0  0  0  0  0
  149.8768  141.6273  158.4950 O   0  0  0  0  0  0  0  0  0  0  0  0
  151.5149  143.3758  158.2897 C   0  0  0  0  0  0  0  0  0  0  0  0
  151.9960  143.3320  159.6775 N   0  0  0  0  0  0  0  0  0  0  0  0
  152.8526  142.3221  160.0925 C   0  0  0  0  0  0  0  0  0  0  0  0
  153.3195  142.2146  161.3590 C   0  0  0  0  0  0  0  0  0  0  0  0
  152.9303  143.1867  162.3751 C   0  0  0  0  0  0  0  0  0  0  0  0
  153.3007  143.1745  163.5469 O   0  0  0  0  0  0  0  0  0  0  0  0
  152.0666  144.1860  161.9190 N   0  0  0  0  0  0  0  0  0  0  0  0
  151.5798  144.3015  160.6162 C   0  0  0  0  0  0  0  0  0  0  0  0
  150.8168  145.2206  160.3201 O   0  0  0  0  0  0  0  0  0  0  0  0
  152.0850  139.4049  155.6835 C   0  0  0  0  0  0  0  0  0  0  0  0
  151.7677  144.8804  162.5882 H   0  0  0  0  0  0  0  0  0  0  0  0
  150.2631  137.3250  156.4324 H   0  0  0  0  0  0  0  0  0  0  0  0
  151.9191  136.7824  156.6673 H   0  0  0  0  0  0  0  0  0  0  0  0
  150.9469  136.1004  155.3720 H   0  0  0  0  0  0  0  0  0  0  0  0
  152.5869  137.7064  154.4907 H   0  0  0  0  0  0  0  0  0  0  0  0
  151.2029  138.9981  153.0462 H   0  0  0  0  0  0  0  0  0  0  0  0
  150.3661  137.4984  153.3383 H   0  0  0  0  0  0  0  0  0  0  0  0
  148.8369  139.4338  153.4499 H   0  0  0  0  0  0  0  0  0  0  0  0
  148.8789  138.5950  154.9761 H   0  0  0  0  0  0  0  0  0  0  0  0
  150.4408  141.1180  154.2906 H   0  0  0  0  0  0  0  0  0  0  0  0
  149.0545  142.3421  155.8438 H   0  0  0  0  0  0  0  0  0  0  0  0
  147.3111  139.8675  156.2237 H   0  0  0  0  0  0  0  0  0  0  0  0
  147.0111  141.4755  156.8616 H   0  0  0  0  0  0  0  0  0  0  0  0
  148.3814  140.5539  157.4443 H   0  0  0  0  0  0  0  0  0  0  0  0
  147.2642  140.9713  153.8119 H   0  0  0  0  0  0  0  0  0  0  0  0
  148.3938  142.2781  153.4582 H   0  0  0  0  0  0  0  0  0  0  0  0
  147.0409  142.5501  154.5450 H   0  0  0  0  0  0  0  0  0  0  0  0
  150.3538  139.6159  156.9247 H   0  0  0  0  0  0  0  0  0  0  0  0
  152.1583  141.8886  156.3459 H   0  0  0  0  0  0  0  0  0  0  0  0
  152.3410  143.5681  157.6039 H   0  0  0  0  0  0  0  0  0  0  0  0
  150.8297  144.2163  158.1596 H   0  0  0  0  0  0  0  0  0  0  0  0
  153.1639  141.5762  159.3751 H   0  0  0  0  0  0  0  0  0  0  0  0
  153.9837  141.4039  161.6219 H   0  0  0  0  0  0  0  0  0  0  0  0
  152.7448  139.1686  156.5196 H   0  0  0  0  0  0  0  0  0  0  0  0
  152.6740  140.0214  155.0024 H   0  0  0  0  0  0  0  0  0  0  0  0
  1  2  1  0  0  0  0
  1 24  1  0  0  0  0
  1 25  1  0  0  0  0
  1 26  1  0  0  0  0
  2 22  1  0  0  0  0
  2  3  1  0  0  0  0
  2 27  1  0  0  0  0
  3  4  1  0  0  0  0
  3 28  1  0  0  0  0
  3 29  1  0  0  0  0
  4  5  1  0  0  0  0
  4 30  1  0  0  0  0
  4 31  1  0  0  0  0
  5  6  1  0  0  0  0
  5  9  1  0  0  0  0
  5 32  1  0  0  0  0
  6  7  1  0  0  0  0
  6  8  1  0  0  0  0
  6 33  1  0  0  0  0
  7 34  1  0  0  0  0
  7 35  1  0  0  0  0
  7 36  1  0  0  0  0
  8 37  1  0  0  0  0
  8 38  1  0  0  0  0
  8 39  1  0  0  0  0
  9 10  1  0  0  0  0
  9 22  1  0  0  0  0
  9 40  1  0  0  0  0
 10 11  1  0  0  0  0
 10 41  1  0  0  0  0
 11 12  2  0  0  0  0
 11 13  1  0  0  0  0
 13 14  1  0  0  0  0
 13 42  1  0  0  0  0
 13 43  1  0  0  0  0
 14 20  1  0  0  0  0
 14 15  1  0  0  0  0
 15 16  2  0  0  0  0
 15 44  1  0  0  0  0
 16 17  1  0  0  0  0
 16 45  1  0  0  0  0
 17 18  2  0  0  0  0
 17 19  1  0  0  0  0
 19 23  1  0  0  0  0
 19 20  1  0  0  0  0
 20 21  2  0  0  0  0
 22 46  1  0  0  0  0
 22 47  1  0  0  0  0
M  END
> <s_m_source_file>
AV-unprocessed.smi

> <i_m_source_file_index>
2855

> <i_lp_mmshare_version>
43012

> <i_f3d_flags>
0

> <s_epik_input>
W0NIM11bQ0BASF0xW0NIMl1bQ0gyXVtDQEBIXShbQ0hdKFtDSDNdKVtDSDNdKVtDQEhdKFtDSDJdMSlbTkhdQyg9TylbQ0gyXW4yW2NIXVtjSF1jKD1PKVtuSF1jMj1P

> <s_epik_cmdline>
J2VwaWtfcHl0aG9uJywgJy1waCcsICc3LjAnLCAnLXRuJywgJzgnLCAnLW1hJywgJzIwMCcsICctbWV0YWxfYmluZGluZycsICctaW1hZScsICc8aW5maWxlLm1hZT4nLCAnLW9tYWUnLCAnPG91dGZpbGUubWFlPic=

> <r_lp_tautomer_probability>
0.999537

> <r_epik_Ionization_Penalty>
0.00306256

> <r_epik_Ionization_Penalty_Charging>
0.00306254

> <r_epik_Ionization_Penalty_Neutral>
2.0223e-08

> <r_epik_State_Penalty>
0.0021533

> <r_epik_Charging_Adjusted_Penalty>
0.00521583

> <i_epik_Tot_Q>
0

> <i_epik_Tot_abs_Q>
0

> <r_epik_Metal_State_Penalty>
0.362116

> <b_epik_Metal_Only>
0

> <s_lp_Force_Field>
OPLS_2005

> <r_lp_Energy>
15.8562

> <b_lp_Chiralities_Consistent>
1

> <s_lp_Variant>
AV-unprocessed.smi:2855-6

> <Gold.Version>
5.8.1

> <Gold.Id.Protein>
6NUR|6NUR_protein|mol2

> <Gold.PLP.Fitness>
48.6724

> <Gold.PLP.PLP>
-49.4222

> <Gold.PLP.part.hbond>
-1.2723

> <Gold.PLP.part.metal>
0.0000

> <Gold.PLP.part.buried>
-7.2275

> <Gold.PLP.part.nonpolar>
-41.4576

> <Gold.PLP.part.repulsive>
0.5429

> <Gold.PLP.ligand.clash>
0.0000

> <Gold.PLP.ligand.torsion>
0.4063

> <Gold.PLP.Chemscore.Hbond>
0.0000

> <Gold.PLP.Chemscore.CHOScore>
0.0000

> <Gold.PLP.Chemscore.Metal>
0.0000

> <Gold.PLP.Chemscore.Internal.Correction>
0.0628

> <Gold.Rescore>
     Score         DG    S(hbond)    S(metal)    S(lipo)     H(rot)  DE(clash)    DE(int)     intcor
     11.50     -12.04       0.00        0.00      96.67       1.85       0.08       0.46       ----

> <Gold.Chemscore.Fitness>
11.5025

> <Gold.Chemscore.DG>
-12.0446

> <Gold.Chemscore.ZeroCoef>
-5.4800

> <Gold.Chemscore.Hbond>
0.0000

> <Gold.Chemscore.Metal>
0.0000

> <Gold.Chemscore.Lipo>
96.6720

> <Gold.Chemscore.Internal_Hbond>
0.0000

> <Gold.Chemscore.DEClash>
0.0779

> <Gold.Chemscore.DEInternal>
0.4643

> <Gold.Chemscore.Rot>
1.8539

> <Gold.Chemscore.Internal.Correction>
   9.000000E+99

> <Gold.Chemscore.Hbond.Weighted>
-0.0000

> <Gold.Chemscore.Metal.Weighted>
-0.0000

> <Gold.Chemscore.Lipo.Weighted>
-11.3106

> <Gold.Chemscore.Internal_Hbond.Weighted>
0.0000

> <Gold.Chemscore.DEClash.Weighted>
0.0779

> <Gold.Chemscore.DEInternal.Weighted>
0.4643

> <Gold.Chemscore.Rot.Weighted>
4.7460

> <Gold.Chemscore.Internal.Correction.Weighted>
   9.000000E+99

> <Gold.Protein.RotatedTorsions>
[ 6907 6896 6895 6894 ] final  165.22 input  -60.11 | X-H torsion
[ 7974 7965 7964 7962 ] final  158.37 input  175.53 | X-H torsion
[ 8008 7997 7996 7995 ] final    7.26 input   59.86 | X-H torsion
[ 10167 10162 10161 10158 ] final -161.72 input  -65.29 | X-H torsion
[ 10718 10713 10712 10709 ] final -157.81 input   66.30 | X-H torsion
[ 10763 10752 10751 10750 ] final  168.09 input  -60.55 | X-H torsion
[ 11005 11000 10999 10996 ] final  134.25 input  -57.11 | X-H torsion

> <Gold.Protein.ActiveResidues>
 VAL166  LYS551  ARG553  GLY616  TRP617  ASP618  TYR619  PRO620  LYS621  CYS622 
 ASP623  PHE694  ASN695  SER759  ASP760  ASP761  ALA762  ILE779  LEU786  VAL792 
 PHE793  MET794  SER795  GLU796  ALA797  LYS798  CYS799  TRP800  GLU811  SER814 

> <Gold.Protein.RotatedAtoms>
  151.8978  133.3531  159.3820 H   0  0  0  0  0  0  0  0  0  0  0  0  # atno 6907 bound_to 6896
  150.7087  134.4858  159.5501 H   0  0  0  0  0  0  0  0  0  0  0  0  # atno 6908 bound_to 6896
  152.2441  134.8199  160.0507 H   0  0  0  0  0  0  0  0  0  0  0  0  # atno 6909 bound_to 6896
  144.7849  139.7469  143.6245 H   0  0  0  0  0  0  0  0  0  0  0  0  # atno 7974 bound_to 7965
  154.7515  140.2768  155.6288 H   0  0  0  0  0  0  0  0  0  0  0  0  # atno 8008 bound_to 7997
  156.2896  140.2677  156.2197 H   0  0  0  0  0  0  0  0  0  0  0  0  # atno 8009 bound_to 7997
  155.0130  140.0372  157.2397 H   0  0  0  0  0  0  0  0  0  0  0  0  # atno 8010 bound_to 7997
  139.6444  144.0199  152.2116 H   0  0  0  0  0  0  0  0  0  0  0  0  # atno 10167 bound_to 10162
  156.5455  130.8582  151.2763 H   0  0  0  0  0  0  0  0  0  0  0  0  # atno 10718 bound_to 10713
  154.3635  135.2753  155.2307 H   0  0  0  0  0  0  0  0  0  0  0  0  # atno 10763 bound_to 10752
  154.4485  135.5937  153.6179 H   0  0  0  0  0  0  0  0  0  0  0  0  # atno 10764 bound_to 10752
  152.9842  135.6036  154.3858 H   0  0  0  0  0  0  0  0  0  0  0  0  # atno 10765 bound_to 10752
  139.9903  134.9517  156.9840 H   0  0  0  0  0  0  0  0  0  0  0  0  # atno 11005 bound_to 11000
  146.2076  139.5411  142.9702 LP  0  0  0  0  0  0  0  0  0  0  0  0  # atno 17320 bound_to 7965
  145.5948  141.0364  143.2050 LP  0  0  0  0  0  0  0  0  0  0  0  0  # atno 17321 bound_to 7965
  139.9897  144.6370  150.7826 LP  0  0  0  0  0  0  0  0  0  0  0  0  # atno 17342 bound_to 10162
  140.7507  143.2960  151.3203 LP  0  0  0  0  0  0  0  0  0  0  0  0  # atno 17343 bound_to 10162
  157.7397  130.9837  150.2333 LP  0  0  0  0  0  0  0  0  0  0  0  0  # atno 17370 bound_to 10713
  156.2932  130.3748  149.7821 LP  0  0  0  0  0  0  0  0  0  0  0  0  # atno 17371 bound_to 10713
  140.4922  134.1182  155.7235 LP  0  0  0  0  0  0  0  0  0  0  0  0  # atno 17394 bound_to 11000
  141.1560  133.8882  157.1976 LP  0  0  0  0  0  0  0  0  0  0  0  0  # atno 17395 bound_to 11000

$$$$
