#       Name:                AV-unprocessed.smi:1375
#       Creating user name   scv26
#       Creation time:       Fri Mar 27 05:19:10 2020


#       File generated by GOLD software.
#

@<TRIPOS>MOLECULE
AV-unprocessed.smi:1375
    39    40     1
SMALL
NO_CHARGES


@<TRIPOS>ATOM
      1 ****        -2.7965   5.8768  -1.2343 C.3            1 S1                 0.0000
      2 ****        -2.5451   4.8532  -0.1808 C.2            1 S1                 0.0000
      3 ****        -2.0221   3.6496  -0.4286 N.2            1 S1                 0.0000
      4 ****        -1.8864   2.8732   0.7267 C.2            1 S1                 0.0000
      5 ****        -1.3116   1.4921   0.6385 C.3            1 S1                 0.0000
      6 ****         0.2233   1.5069   0.5459 C.3            1 S1                 0.0000
      7 ****         0.7688   0.1586   0.4434 N.am           1 S1                 0.0000
      8 ****         0.9501  -0.6820   1.4760 C.2            1 S1                 0.0000
      9 ****         0.6745  -0.3953   2.6396 O.2            1 S1                 0.0000
     10 ****         1.4535  -1.8834   1.1411 N.am           1 S1                 0.0000
     11 ****         1.7636  -3.0092   2.0255 C.3            1 S1                 0.0000
     12 ****         3.0751  -2.7841   2.8087 C.3            1 S1                 0.0000
     13 ****         3.9079  -4.0531   2.6196 C.3            1 S1                 0.0000
     14 ****         3.4751  -4.5872   1.2584 C.3            1 S1                 0.0000
     15 ****         1.9758  -4.2938   1.2034 C.3            1 S1                 0.0000
     16 ****        -2.3148   3.5141   1.8624 C.2            1 S1                 0.0000
     17 ****        -2.9069   5.1163   1.5207 S.3            1 S1                 0.0000
     18 ****        -2.6598   5.4482  -2.2277 H              1 S1                 0.0000
     19 ****        -2.1051   6.7110  -1.1147 H              1 S1                 0.0000
     20 ****        -3.8168   6.2520  -1.1538 H              1 S1                 0.0000
     21 ****        -1.6215   0.9100   1.5073 H              1 S1                 0.0000
     22 ****        -1.7234   0.9740  -0.2286 H              1 S1                 0.0000
     23 ****         0.5381   2.0655  -0.3359 H              1 S1                 0.0000
     24 ****         0.6535   2.0193   1.4081 H              1 S1                 0.0000
     25 ****         1.0211  -0.1630  -0.4798 H              1 S1                 0.0000
     26 ****         1.6292  -2.0379   0.1588 H              1 S1                 0.0000
     27 ****         0.9320  -3.1734   2.7132 H              1 S1                 0.0000
     28 ****         3.6262  -1.9356   2.4001 H              1 S1                 0.0000
     29 ****         2.8933  -2.5706   3.8625 H              1 S1                 0.0000
     30 ****         4.9802  -3.8637   2.6758 H              1 S1                 0.0000
     31 ****         3.6561  -4.7780   3.3949 H              1 S1                 0.0000
     32 ****         3.9872  -4.0377   0.4675 H              1 S1                 0.0000
     33 ****         3.7011  -5.6461   1.1302 H              1 S1                 0.0000
     34 ****         1.4342  -5.1147   1.6755 H              1 S1                 0.0000
     35 ****         1.6102  -4.2194   0.1780 H              1 S1                 0.0000
     36 ****        -2.3159   3.1422   2.8763 H              1 S1                 0.0000
     37 ****        -1.7565   3.3376  -1.3407 LP             1 S1                 0.0000
     38 ****         0.2942   0.5038   2.8564 LP             1 S1                 0.0000
     39 ****         0.8306  -1.0612   3.3691 LP             1 S1                 0.0000
@<TRIPOS>BOND
    1    1    2 1     
    2    1   18 1     
    3    1   19 1     
    4    1   20 1     
    5    2   17 1     
    6    2    3 2     
    7    3    4 1     
    8    4    5 1     
    9    4   16 2     
   10    5    6 1     
   11    5   21 1     
   12    5   22 1     
   13    6    7 1     
   14    6   23 1     
   15    6   24 1     
   16    7    8 am    
   17    7   25 1     
   18    8    9 2     
   19    8   10 am    
   20   10   11 1     
   21   10   26 1     
   22   11   15 1     
   23   11   12 1     
   24   11   27 1     
   25   12   13 1     
   26   12   28 1     
   27   12   29 1     
   28   13   14 1     
   29   13   30 1     
   30   13   31 1     
   31   14   15 1     
   32   14   32 1     
   33   14   33 1     
   34   15   34 1     
   35   15   35 1     
   36   16   17 1     
   37   16   36 1     
   38    3   37 1     
   39    9   38 1     
   40    9   39 1     
@<TRIPOS>SUBSTRUCTURE
      1 S1             1
@<TRIPOS>SET
LONE_PAIRS      STATIC     ATOMS    <user>   **** ""
3 37 38 39
DONOR_HYDROGENS      STATIC     ATOMS    <user>   **** ""
2 25 26
ATOM$BLUE        STATIC     ATOMS    COLORGROUP SYSTEM
3 37 38 39
ATOM$RED        STATIC     ATOMS    COLORGROUP SYSTEM
2 25 26
