AV-unprocessed.smi:1369|AV-procd|sdf|5579|dock10
  -GOLD-   22720 5173D 1   1.00000     0.00000
 Structure written by MMmdl.
 39 41  0  0  0  0  0  0  0  0  1 V2000
  154.6554  140.1855  161.7029 C   0  0  0  0  0  0  0  0  0  0  0  0
  153.8232  141.4556  161.5644 C   0  0  0  0  0  0  0  0  0  0  0  0
  153.7644  142.2453  162.5059 O   0  0  0  0  0  0  0  0  0  0  0  0
  153.1792  141.6025  160.3925 N   0  0  0  0  0  0  0  0  0  0  0  0
  152.3377  142.6684  159.9653 C   0  0  0  0  0  0  0  0  0  0  0  0
  152.2622  143.9054  160.6511 C   0  0  0  0  0  0  0  0  0  0  0  0
  151.4327  144.9352  160.1721 C   0  0  0  0  0  0  0  0  0  0  0  0
  150.6811  144.7431  159.0005 C   0  0  0  0  0  0  0  0  0  0  0  0
  150.7629  143.5239  158.3032 C   0  0  0  0  0  0  0  0  0  0  0  0
  151.5954  142.4772  158.7750 C   0  0  0  0  0  0  0  0  0  0  0  0
  151.7211  141.2597  158.1378 O   0  0  0  0  0  0  0  0  0  0  0  0
  151.1576  141.1065  156.8422 C   0  0  0  0  0  0  0  0  0  0  0  0
  149.6661  140.7772  156.9916 C   0  0  0  0  0  0  0  0  0  0  0  0
  148.9304  141.0804  155.7672 N   0  0  0  0  0  0  0  0  0  0  0  0
  149.3859  140.8340  154.4694 C   0  0  0  0  0  0  0  0  0  0  0  0
  150.4601  140.3472  154.1214 O   0  0  0  0  0  0  0  0  0  0  0  0
  148.3902  141.2377  153.6176 O   0  0  0  0  0  0  0  0  0  0  0  0
  147.3438  141.7111  154.3538 C   0  0  0  0  0  0  0  0  0  0  0  0
  146.1090  142.2216  153.9195 C   0  0  0  0  0  0  0  0  0  0  0  0
  145.1894  142.6450  154.9076 C   0  0  0  0  0  0  0  0  0  0  0  0
  145.5115  142.5517  156.2858 C   0  0  0  0  0  0  0  0  0  0  0  0
  146.7579  142.0304  156.7022 C   0  0  0  0  0  0  0  0  0  0  0  0
  147.6500  141.6235  155.6952 C   0  0  0  0  0  0  0  0  0  0  0  0
  155.3120  140.0602  160.8414 H   0  0  0  0  0  0  0  0  0  0  0  0
  154.0044  139.3141  161.7742 H   0  0  0  0  0  0  0  0  0  0  0  0
  155.2750  140.2230  162.5994 H   0  0  0  0  0  0  0  0  0  0  0  0
  153.2417  140.8230  159.7534 H   0  0  0  0  0  0  0  0  0  0  0  0
  152.8441  144.0933  161.5401 H   0  0  0  0  0  0  0  0  0  0  0  0
  151.3782  145.8751  160.7013 H   0  0  0  0  0  0  0  0  0  0  0  0
  150.0445  145.5340  158.6320 H   0  0  0  0  0  0  0  0  0  0  0  0
  150.1733  143.4166  157.4057 H   0  0  0  0  0  0  0  0  0  0  0  0
  151.2679  142.0329  156.2768 H   0  0  0  0  0  0  0  0  0  0  0  0
  151.6627  140.3116  156.2909 H   0  0  0  0  0  0  0  0  0  0  0  0
  149.5364  139.7278  157.2568 H   0  0  0  0  0  0  0  0  0  0  0  0
  149.2427  141.3530  157.8157 H   0  0  0  0  0  0  0  0  0  0  0  0
  145.8707  142.2883  152.8683 H   0  0  0  0  0  0  0  0  0  0  0  0
  144.2308  143.0434  154.6091 H   0  0  0  0  0  0  0  0  0  0  0  0
  144.7958  142.8799  157.0251 H   0  0  0  0  0  0  0  0  0  0  0  0
  147.0083  141.9498  157.7496 H   0  0  0  0  0  0  0  0  0  0  0  0
  1  2  1  0  0  0  0
  1 24  1  0  0  0  0
  1 25  1  0  0  0  0
  1 26  1  0  0  0  0
  2  3  2  0  0  0  0
  2  4  1  0  0  0  0
  4  5  1  0  0  0  0
  4 27  1  0  0  0  0
  5 10  1  0  0  0  0
  5  6  2  0  0  0  0
  6  7  1  0  0  0  0
  6 28  1  0  0  0  0
  7  8  2  0  0  0  0
  7 29  1  0  0  0  0
  8  9  1  0  0  0  0
  8 30  1  0  0  0  0
  9 10  2  0  0  0  0
  9 31  1  0  0  0  0
 10 11  1  0  0  0  0
 11 12  1  0  0  0  0
 12 13  1  0  0  0  0
 12 32  1  0  0  0  0
 12 33  1  0  0  0  0
 13 14  1  0  0  0  0
 13 34  1  0  0  0  0
 13 35  1  0  0  0  0
 14 23  1  0  0  0  0
 14 15  1  0  0  0  0
 15 16  2  0  0  0  0
 15 17  1  0  0  0  0
 17 18  1  0  0  0  0
 18 23  2  0  0  0  0
 18 19  1  0  0  0  0
 19 20  2  0  0  0  0
 19 36  1  0  0  0  0
 20 21  1  0  0  0  0
 20 37  1  0  0  0  0
 21 22  2  0  0  0  0
 21 38  1  0  0  0  0
 22 23  1  0  0  0  0
 22 39  1  0  0  0  0
M  END
> <s_m_source_file>
AV-unprocessed.smi

> <i_m_source_file_index>
1369

> <i_lp_mmshare_version>
43012

> <i_f3d_flags>
0

> <s_epik_input>
W0NIM11DKD1PKVtOSF1jMVtjSF1bY0hdW2NIXVtjSF1jMU9bQ0gyXVtDSDJdbihjKD1PKW8yKWMoYzIzKVtjSF1bY0hdW2NIXVtjSF0z

> <s_epik_cmdline>
J2VwaWtfcHl0aG9uJywgJy1waCcsICc3LjAnLCAnLXRuJywgJzgnLCAnLW1hJywgJzIwMCcsICctbWV0YWxfYmluZGluZycsICctaW1hZScsICc8aW5maWxlLm1hZT4nLCAnLW9tYWUnLCAnPG91dGZpbGUubWFlPic=

> <r_lp_tautomer_probability>
1

> <r_epik_Ionization_Penalty>
9.24277e-08

> <r_epik_Ionization_Penalty_Charging>
1.02615e-14

> <r_epik_Ionization_Penalty_Neutral>
9.24277e-08

> <r_epik_State_Penalty>
-0

> <r_epik_Charging_Adjusted_Penalty>
1.02615e-14

> <i_epik_Tot_Q>
0

> <i_epik_Tot_abs_Q>
0

> <r_epik_Metal_State_Penalty>
-0

> <b_epik_Metal_Only>
0

> <s_lp_Force_Field>
OPLS_2005

> <r_lp_Energy>
36.4772

> <b_lp_Chiralities_Consistent>
1

> <s_lp_Variant>
AV-unprocessed.smi:1369-1

> <Gold.Version>
5.8.1

> <Gold.Id.Protein>
6NUR|6NUR_protein|mol2

> <Gold.PLP.Fitness>
51.5238

> <Gold.PLP.PLP>
-48.2294

> <Gold.PLP.part.hbond>
-2.6966

> <Gold.PLP.part.metal>
0.0000

> <Gold.PLP.part.buried>
-5.3683

> <Gold.PLP.part.nonpolar>
-41.0890

> <Gold.PLP.part.repulsive>
1.6474

> <Gold.PLP.ligand.clash>
0.0000

> <Gold.PLP.ligand.torsion>
0.6387

> <Gold.PLP.Chemscore.Hbond>
1.5132

> <Gold.PLP.Chemscore.CHOScore>
0.0000

> <Gold.PLP.Chemscore.Metal>
0.0000

> <Gold.Chemscore.Hbonds>
donor molecule, donor type, donor heavy atom, donor atom, acceptor molecule, acceptor atom, score
      P1  H  7989  7998       L1    16  0.71
      P1  H  8011  8017       L1    17  0.28

> <Gold.PLP.Chemscore.Internal.Correction>
0.0323

> <Gold.Rescore>
     Score         DG    S(hbond)    S(metal)    S(lipo)     H(rot)  DE(clash)    DE(int)     intcor
     14.53     -17.89       1.04        0.00     113.55       1.70       0.29       3.07       ----

> <Gold.Chemscore.Fitness>
14.5286

> <Gold.Chemscore.DG>
-17.8885

> <Gold.Chemscore.ZeroCoef>
-5.4800

> <Gold.Chemscore.Hbond>
1.0419

> <Gold.Chemscore.Metal>
0.0000

> <Gold.Chemscore.Lipo>
113.5503

> <Gold.Chemscore.Internal_Hbond>
0.0000

> <Gold.Chemscore.DEClash>
0.2932

> <Gold.Chemscore.DEInternal>
3.0667

> <Gold.Chemscore.Rot>
1.7019

> <Gold.Chemscore.Internal.Correction>
   9.000000E+99

> <Gold.Chemscore.Hbonds>
donor molecule, donor type, donor heavy atom, donor atom, acceptor molecule, acceptor atom, score
      P1  H  7989  7998       L1    16  0.67
      P1  H  8011  8017       L1    17  0.03

> <Gold.Chemscore.Hbond.Weighted>
-3.4800

> <Gold.Chemscore.Metal.Weighted>
-0.0000

> <Gold.Chemscore.Lipo.Weighted>
-13.2854

> <Gold.Chemscore.Internal_Hbond.Weighted>
0.0000

> <Gold.Chemscore.DEClash.Weighted>
0.2932

> <Gold.Chemscore.DEInternal.Weighted>
3.0667

> <Gold.Chemscore.Rot.Weighted>
4.3569

> <Gold.Chemscore.Internal.Correction.Weighted>
   9.000000E+99

> <Gold.Protein.RotatedTorsions>
[ 6907 6896 6895 6894 ] final  -38.69 input  -60.11 | X-H torsion
[ 7974 7965 7964 7962 ] final -170.24 input  175.53 | X-H torsion
[ 8008 7997 7996 7995 ] final   90.04 input   59.86 | X-H torsion
[ 10167 10162 10161 10158 ] final  -91.24 input  -65.29 | X-H torsion
[ 10718 10713 10712 10709 ] final  108.34 input   66.30 | X-H torsion
[ 10763 10752 10751 10750 ] final  -40.63 input  -60.55 | X-H torsion
[ 11005 11000 10999 10996 ] final  -10.63 input  -57.11 | X-H torsion

> <Gold.Protein.ActiveResidues>
 VAL166  LYS551  ARG553  GLY616  TRP617  ASP618  TYR619  PRO620  LYS621  CYS622 
 ASP623  PHE694  ASN695  SER759  ASP760  ASP761  ALA762  ILE779  LEU786  VAL792 
 PHE793  MET794  SER795  GLU796  ALA797  LYS798  CYS799  TRP800  GLU811  SER814 

> <Gold.Protein.RotatedAtoms>
  150.9994  134.9310  159.7944 H   0  0  0  0  0  0  0  0  0  0  0  0  # atno 6907 bound_to 6896
  152.5273  134.3174  159.9146 H   0  0  0  0  0  0  0  0  0  0  0  0  # atno 6908 bound_to 6896
  151.3180  133.4010  159.2686 H   0  0  0  0  0  0  0  0  0  0  0  0  # atno 6909 bound_to 6896
  144.7173  140.2102  143.6328 H   0  0  0  0  0  0  0  0  0  0  0  0  # atno 7974 bound_to 7965
  156.0072  140.3354  155.6904 H   0  0  0  0  0  0  0  0  0  0  0  0  # atno 8008 bound_to 7997
  155.6208  140.0675  157.2696 H   0  0  0  0  0  0  0  0  0  0  0  0  # atno 8009 bound_to 7997
  154.4269  140.1777  156.1357 H   0  0  0  0  0  0  0  0  0  0  0  0  # atno 8010 bound_to 7997
  140.3469  143.2912  151.9771 H   0  0  0  0  0  0  0  0  0  0  0  0  # atno 10167 bound_to 10162
  157.6590  131.0891  150.6291 H   0  0  0  0  0  0  0  0  0  0  0  0  # atno 10718 bound_to 10713
  153.9491  135.6752  153.4744 H   0  0  0  0  0  0  0  0  0  0  0  0  # atno 10763 bound_to 10752
  153.0893  135.4883  154.8656 H   0  0  0  0  0  0  0  0  0  0  0  0  # atno 10764 bound_to 10752
  154.7335  135.3144  154.8810 H   0  0  0  0  0  0  0  0  0  0  0  0  # atno 10765 bound_to 10752
  140.7468  133.8625  155.9012 H   0  0  0  0  0  0  0  0  0  0  0  0  # atno 11005 bound_to 11000
  145.8598  139.2217  143.1723 LP  0  0  0  0  0  0  0  0  0  0  0  0  # atno 17320 bound_to 7965
  146.0184  140.8371  142.9936 LP  0  0  0  0  0  0  0  0  0  0  0  0  # atno 17321 bound_to 7965
  139.4832  144.6109  151.7434 LP  0  0  0  0  0  0  0  0  0  0  0  0  # atno 17342 bound_to 10162
  140.5256  144.0810  150.6036 LP  0  0  0  0  0  0  0  0  0  0  0  0  # atno 17343 bound_to 10162
  156.6595  130.4508  149.5692 LP  0  0  0  0  0  0  0  0  0  0  0  0  # atno 17370 bound_to 10713
  156.2077  130.6660  151.1236 LP  0  0  0  0  0  0  0  0  0  0  0  0  # atno 17371 bound_to 10713
  140.9787  134.1435  157.4514 LP  0  0  0  0  0  0  0  0  0  0  0  0  # atno 17394 bound_to 11000
  139.8795  135.0003  156.6003 LP  0  0  0  0  0  0  0  0  0  0  0  0  # atno 17395 bound_to 11000

$$$$
