AV-unprocessed.smi:2504|AV-procd|sdf|9850|dock8
  -GOLD-   2272013483D 1   1.00000     0.00000
 Structure written by MMmdl.
 47 49  0  0  0  0  0  0  0  0  2 V2000
  152.4010  143.0481  161.4911 O   0  0  0  0  0  0  0  0  0  0  0  0
  152.7335  142.4187  160.4862 C   0  0  0  0  0  0  0  0  0  0  0  0
  152.4078  142.9529  159.0757 C   0  0  0  0  0  0  0  0  0  0  0  0
  152.6796  144.4604  158.9356 C   0  0  0  0  0  0  0  0  0  0  0  0
  151.3586  145.1825  159.2451 C   0  0  0  0  0  0  0  0  0  0  0  0
  150.2635  144.1075  159.2714 C   0  0  0  0  0  0  0  0  0  0  0  0
  150.9147  142.8275  158.7393 C   0  0  0  0  0  0  0  0  0  0  0  0
  153.3409  141.1631  160.5827 N   0  0  0  0  0  0  0  0  0  0  0  0
  154.1616  140.6412  159.5001 C   0  0  0  0  0  0  0  0  0  0  0  0
  154.9104  139.8688  160.5920 C   0  0  0  0  0  0  0  0  0  0  0  0
  156.7455  139.9511  160.3970 S   0  0  0  0  0  0  0  0  0  0  0  0
  157.0479  140.2473  158.9883 O   0  0  0  0  0  0  0  0  0  0  0  0
  157.3283  140.7833  161.4604 O   0  0  0  0  0  0  0  0  0  0  0  0
  157.2181  138.3196  160.7054 N   0  0  0  0  0  0  0  0  0  0  0  0
  158.0647  138.0309  161.8657 C   0  0  0  0  0  0  0  0  0  0  0  0
  157.3041  138.2558  163.1840 C   0  0  0  0  0  0  0  0  0  0  0  0
  156.2863  137.1707  163.4838 C   0  0  0  0  0  0  0  0  0  0  0  0
  154.9331  137.5022  163.7166 C   0  0  0  0  0  0  0  0  0  0  0  0
  154.0106  136.4771  164.0117 C   0  0  0  0  0  0  0  0  0  0  0  0
  154.4624  135.1430  164.0684 C   0  0  0  0  0  0  0  0  0  0  0  0
  155.7641  134.8633  163.8384 N   0  3  0  0  0  0  0  0  0  0  0  0
  156.6779  135.8157  163.5499 C   0  0  0  0  0  0  0  0  0  0  0  0
  154.3278  140.8602  161.6085 C   0  0  0  0  0  0  0  0  0  0  0  0
  153.0104  142.4103  158.3462 H   0  0  0  0  0  0  0  0  0  0  0  0
  153.4910  144.8088  159.5766 H   0  0  0  0  0  0  0  0  0  0  0  0
  152.9779  144.6765  157.9090 H   0  0  0  0  0  0  0  0  0  0  0  0
  151.4099  145.6930  160.2075 H   0  0  0  0  0  0  0  0  0  0  0  0
  151.1508  145.9388  158.4876 H   0  0  0  0  0  0  0  0  0  0  0  0
  149.9323  143.9505  160.2988 H   0  0  0  0  0  0  0  0  0  0  0  0
  149.3878  144.3934  158.6881 H   0  0  0  0  0  0  0  0  0  0  0  0
  150.7931  142.7761  157.6565 H   0  0  0  0  0  0  0  0  0  0  0  0
  150.4496  141.9339  159.1575 H   0  0  0  0  0  0  0  0  0  0  0  0
  153.6170  140.0160  158.7922 H   0  0  0  0  0  0  0  0  0  0  0  0
  154.7692  141.4041  159.0084 H   0  0  0  0  0  0  0  0  0  0  0  0
  154.5581  138.8426  160.7085 H   0  0  0  0  0  0  0  0  0  0  0  0
  156.4151  137.6913  160.6697 H   0  0  0  0  0  0  0  0  0  0  0  0
  158.4453  137.0103  161.8064 H   0  0  0  0  0  0  0  0  0  0  0  0
  158.9324  138.6899  161.8265 H   0  0  0  0  0  0  0  0  0  0  0  0
  158.0158  138.2996  164.0093 H   0  0  0  0  0  0  0  0  0  0  0  0
  156.8040  139.2253  163.1662 H   0  0  0  0  0  0  0  0  0  0  0  0
  154.6057  138.5310  163.6761 H   0  0  0  0  0  0  0  0  0  0  0  0
  152.9724  136.7119  164.1955 H   0  0  0  0  0  0  0  0  0  0  0  0
  153.8272  134.2978  164.2901 H   0  0  0  0  0  0  0  0  0  0  0  0
  157.6888  135.4688  163.3941 H   0  0  0  0  0  0  0  0  0  0  0  0
  154.9799  141.7018  161.8443 H   0  0  0  0  0  0  0  0  0  0  0  0
  153.9087  140.3945  162.5007 H   0  0  0  0  0  0  0  0  0  0  0  0
  156.0701  133.8913  163.8861 H   0  0  0  0  0  0  0  0  0  0  0  0
  1  2  2  0  0  0  0
  2  3  1  0  0  0  0
  2  8  1  0  0  0  0
  3  7  1  0  0  0  0
  3  4  1  0  0  0  0
  3 24  1  0  0  0  0
  4  5  1  0  0  0  0
  4 25  1  0  0  0  0
  4 26  1  0  0  0  0
  5  6  1  0  0  0  0
  5 27  1  0  0  0  0
  5 28  1  0  0  0  0
  6  7  1  0  0  0  0
  6 29  1  0  0  0  0
  6 30  1  0  0  0  0
  7 31  1  0  0  0  0
  7 32  1  0  0  0  0
  8 23  1  0  0  0  0
  8  9  1  0  0  0  0
  9 10  1  0  0  0  0
  9 33  1  0  0  0  0
  9 34  1  0  0  0  0
 10 11  1  0  0  0  0
 10 23  1  0  0  0  0
 10 35  1  0  0  0  0
 11 12  2  0  0  0  0
 11 13  2  0  0  0  0
 11 14  1  0  0  0  0
 14 15  1  0  0  0  0
 14 36  1  0  0  0  0
 15 16  1  0  0  0  0
 15 37  1  0  0  0  0
 15 38  1  0  0  0  0
 16 17  1  0  0  0  0
 16 39  1  0  0  0  0
 16 40  1  0  0  0  0
 17 22  1  0  0  0  0
 17 18  2  0  0  0  0
 18 19  1  0  0  0  0
 18 41  1  0  0  0  0
 19 20  2  0  0  0  0
 19 42  1  0  0  0  0
 20 21  1  0  0  0  0
 20 43  1  0  0  0  0
 21 22  2  0  0  0  0
 21 47  1  0  0  0  0
 22 44  1  0  0  0  0
 23 45  1  0  0  0  0
 23 46  1  0  0  0  0
M  CHG  1  21   1
M  END
> <s_m_source_file>
AV-unprocessed.smi

> <i_m_source_file_index>
2504

> <i_lp_mmshare_version>
43012

> <i_f3d_flags>
0

> <s_epik_input>
W0NIMl0xW0NIMl1bQ0gyXVtDSDJdW0NIXTFDKD1PKU4yW0NIMl1bQ0hdKFtDSDJdMilTKD1PKSg9TylbTkhdW0NIMl1bQ0gyXWMzW2NIXVtjSF1bY0hdbltjSF0z

> <s_epik_cmdline>
J2VwaWtfcHl0aG9uJywgJy1waCcsICc3LjAnLCAnLXRuJywgJzgnLCAnLW1hJywgJzIwMCcsICctbWV0YWxfYmluZGluZycsICctaW1hZScsICc8aW5maWxlLm1hZT4nLCAnLW9tYWUnLCAnPG91dGZpbGUubWFlPic=

> <r_epik_Ionization_Penalty>
2.38216

> <r_epik_Ionization_Penalty_Charging>
2.38209

> <r_epik_Ionization_Penalty_Neutral>
6.7549e-05

> <r_epik_State_Penalty>
2.53866

> <r_epik_Charging_Adjusted_Penalty>
4.92075

> <i_epik_Tot_Q>
1

> <i_epik_Tot_abs_Q>
1

> <r_epik_Metal_State_Penalty>
2.64273

> <b_epik_Metal_Only>
0

> <s_lp_Force_Field>
OPLS_2005

> <r_lp_Energy>
40.9078

> <b_lp_Chiralities_Consistent>
1

> <s_lp_Variant>
AV-unprocessed.smi:2504-2

> <Gold.Version>
5.8.1

> <Gold.Id.Protein>
6NUR|6NUR_protein|mol2

> <Gold.PLP.Fitness>
47.8414

> <Gold.PLP.PLP>
-45.9324

> <Gold.PLP.part.hbond>
-2.0000

> <Gold.PLP.part.metal>
0.0000

> <Gold.PLP.part.buried>
-6.2678

> <Gold.PLP.part.nonpolar>
-38.6738

> <Gold.PLP.part.repulsive>
0.1639

> <Gold.PLP.ligand.clash>
0.0000

> <Gold.PLP.ligand.torsion>
1.3749

> <Gold.PLP.Chemscore.Hbond>
1.0000

> <Gold.PLP.Chemscore.CHOScore>
0.0000

> <Gold.PLP.Chemscore.Metal>
0.0000

> <Gold.Chemscore.Hbonds>
donor molecule, donor type, donor heavy atom, donor atom, acceptor molecule, acceptor atom, score
      P1  H  7997  8010       L1    12  0.75

> <Gold.PLP.Chemscore.Internal.Correction>
1.6588

> <Gold.Rescore>
     Score         DG    S(hbond)    S(metal)    S(lipo)     H(rot)  DE(clash)    DE(int)     intcor
     16.44     -18.07       0.99        0.00     122.43       1.97       0.11       1.52       ----

> <Gold.Chemscore.Fitness>
16.4399

> <Gold.Chemscore.DG>
-18.0698

> <Gold.Chemscore.ZeroCoef>
-5.4800

> <Gold.Chemscore.Hbond>
0.9944

> <Gold.Chemscore.Metal>
0.0000

> <Gold.Chemscore.Lipo>
122.4292

> <Gold.Chemscore.Internal_Hbond>
0.0000

> <Gold.Chemscore.DEClash>
0.1114

> <Gold.Chemscore.DEInternal>
1.5184

> <Gold.Chemscore.Rot>
1.9749

> <Gold.Chemscore.Internal.Correction>
   9.000000E+99

> <Gold.Chemscore.Hbonds>
donor molecule, donor type, donor heavy atom, donor atom, acceptor molecule, acceptor atom, score
      P1  H  7997  8010       L1    12  0.70

> <Gold.Chemscore.Hbond.Weighted>
-3.3212

> <Gold.Chemscore.Metal.Weighted>
-0.0000

> <Gold.Chemscore.Lipo.Weighted>
-14.3242

> <Gold.Chemscore.Internal_Hbond.Weighted>
0.0000

> <Gold.Chemscore.DEClash.Weighted>
0.1114

> <Gold.Chemscore.DEInternal.Weighted>
1.5184

> <Gold.Chemscore.Rot.Weighted>
5.0556

> <Gold.Chemscore.Internal.Correction.Weighted>
   9.000000E+99

> <Gold.Protein.RotatedTorsions>
[ 6907 6896 6895 6894 ] final   41.34 input  -60.11 | X-H torsion
[ 7974 7965 7964 7962 ] final  -25.65 input  175.53 | X-H torsion
[ 8008 7997 7996 7995 ] final  -54.46 input   59.86 | X-H torsion
[ 10167 10162 10161 10158 ] final   16.10 input  -65.29 | X-H torsion
[ 10718 10713 10712 10709 ] final -129.57 input   66.30 | X-H torsion
[ 10763 10752 10751 10750 ] final -174.83 input  -60.55 | X-H torsion
[ 11005 11000 10999 10996 ] final   44.14 input  -57.11 | X-H torsion

> <Gold.Protein.ActiveResidues>
 VAL166  LYS551  ARG553  GLY616  TRP617  ASP618  TYR619  PRO620  LYS621  CYS622 
 ASP623  PHE694  ASN695  SER759  ASP760  ASP761  ALA762  ILE779  LEU786  VAL792 
 PHE793  MET794  SER795  GLU796  ALA797  LYS798  CYS799  TRP800  GLU811  SER814 

> <Gold.Protein.RotatedAtoms>
  152.1940  134.8647  160.0514 H   0  0  0  0  0  0  0  0  0  0  0  0  # atno 6907 bound_to 6896
  151.9525  133.3665  159.4013 H   0  0  0  0  0  0  0  0  0  0  0  0  # atno 6908 bound_to 6896
  150.6941  134.4249  159.5266 H   0  0  0  0  0  0  0  0  0  0  0  0  # atno 6909 bound_to 6896
  146.1477  140.4914  142.8624 H   0  0  0  0  0  0  0  0  0  0  0  0  # atno 7974 bound_to 7965
  154.4163  140.1176  156.5318 H   0  0  0  0  0  0  0  0  0  0  0  0  # atno 8008 bound_to 7997
  155.6597  140.3496  155.4759 H   0  0  0  0  0  0  0  0  0  0  0  0  # atno 8009 bound_to 7997
  155.9723  140.1144  157.0791 H   0  0  0  0  0  0  0  0  0  0  0  0  # atno 8010 bound_to 7997
  140.5821  143.8961  150.6798 H   0  0  0  0  0  0  0  0  0  0  0  0  # atno 10167 bound_to 10162
  156.2059  130.6887  151.0594 H   0  0  0  0  0  0  0  0  0  0  0  0  # atno 10718 bound_to 10713
  154.5916  135.2845  155.0629 H   0  0  0  0  0  0  0  0  0  0  0  0  # atno 10763 bound_to 10752
  154.1928  135.6438  153.5068 H   0  0  0  0  0  0  0  0  0  0  0  0  # atno 10764 bound_to 10752
  153.0123  135.5450  154.6604 H   0  0  0  0  0  0  0  0  0  0  0  0  # atno 10765 bound_to 10752
  140.1579  134.4378  155.8337 H   0  0  0  0  0  0  0  0  0  0  0  0  # atno 11005 bound_to 11000
  144.7866  140.5949  143.6569 LP  0  0  0  0  0  0  0  0  0  0  0  0  # atno 17320 bound_to 7965
  145.4898  139.1489  143.3716 LP  0  0  0  0  0  0  0  0  0  0  0  0  # atno 17321 bound_to 7965
  140.2463  143.3626  152.1444 LP  0  0  0  0  0  0  0  0  0  0  0  0  # atno 17342 bound_to 10162
  139.5176  144.6994  151.5538 LP  0  0  0  0  0  0  0  0  0  0  0  0  # atno 17343 bound_to 10162
  157.7012  131.0775  150.6814 LP  0  0  0  0  0  0  0  0  0  0  0  0  # atno 17370 bound_to 10713
  156.6872  130.4584  149.5610 LP  0  0  0  0  0  0  0  0  0  0  0  0  # atno 17371 bound_to 10713
  141.2206  133.6900  156.7541 LP  0  0  0  0  0  0  0  0  0  0  0  0  # atno 17394 bound_to 11000
  140.2525  134.8530  157.3681 LP  0  0  0  0  0  0  0  0  0  0  0  0  # atno 17395 bound_to 11000

$$$$
