AV-unprocessed.smi:1903|AV-procd|sdf|7722|dock5
  -GOLD-   22720 9463D 1   1.00000     0.00000
 Structure written by MMmdl.
 47 48  0  0  0  0  0  0  0  0  2 V2000
  152.6399  137.7755  155.6915 C   0  0  0  0  0  0  0  0  0  0  0  0
  151.7846  138.9828  155.9508 C   0  0  0  0  0  0  0  0  0  0  0  0
  152.1673  139.8681  156.8558 N   0  0  0  0  0  0  0  0  0  0  0  0
  151.2022  140.8090  156.8467 N   0  0  0  0  0  0  0  0  0  0  0  0
  151.3117  141.9490  157.7362 C   0  0  0  0  0  0  0  0  0  0  0  0
  150.2075  140.5180  155.9337 C   0  0  0  0  0  0  0  0  0  0  0  0
  149.0275  141.4137  155.7340 C   0  0  0  0  0  0  0  0  0  0  0  0
  150.5509  139.3372  155.3300 C   0  0  0  0  0  0  0  0  0  0  0  0
  149.8159  138.5721  154.2584 C   0  0  0  0  0  0  0  0  0  0  0  0
  148.4119  138.2163  154.7480 C   0  0  0  0  0  0  0  0  0  0  0  0
  147.9810  138.7033  155.7930 O   0  0  0  0  0  0  0  0  0  0  0  0
  147.7078  137.3652  153.9855 N   0  0  0  0  0  0  0  0  0  0  0  0
  146.3679  136.8795  154.2918 C   0  0  0  0  0  0  0  0  0  0  0  0
  146.2431  135.3639  154.0422 C   0  0  0  0  0  0  0  0  0  0  0  0
  146.0939  135.0362  152.6016 N   0  3  0  0  0  0  0  0  0  0  0  0
  146.0397  133.5696  152.3631 C   0  0  0  0  0  0  0  0  0  0  0  0
  146.0219  133.2479  150.8592 C   0  0  0  0  0  0  0  0  0  0  0  0
  144.8547  133.9549  150.1592 C   0  0  0  0  0  0  0  0  0  0  0  0
  144.9128  135.4611  150.4422 C   0  0  0  0  0  0  0  0  0  0  0  0
  144.9521  135.7374  151.9547 C   0  0  0  0  0  0  0  0  0  0  0  0
  152.8507  137.6685  154.6275 H   0  0  0  0  0  0  0  0  0  0  0  0
  152.1387  136.8663  156.0235 H   0  0  0  0  0  0  0  0  0  0  0  0
  153.5963  137.8362  156.2123 H   0  0  0  0  0  0  0  0  0  0  0  0
  150.4092  142.0304  158.3424 H   0  0  0  0  0  0  0  0  0  0  0  0
  151.4316  142.8600  157.1496 H   0  0  0  0  0  0  0  0  0  0  0  0
  152.1711  141.8397  158.3991 H   0  0  0  0  0  0  0  0  0  0  0  0
  148.3575  141.0248  154.9675 H   0  0  0  0  0  0  0  0  0  0  0  0
  149.3460  142.4090  155.4239 H   0  0  0  0  0  0  0  0  0  0  0  0
  148.4563  141.5132  156.6572 H   0  0  0  0  0  0  0  0  0  0  0  0
  149.7329  139.1581  153.3423 H   0  0  0  0  0  0  0  0  0  0  0  0
  150.3430  137.6588  153.9809 H   0  0  0  0  0  0  0  0  0  0  0  0
  148.1434  137.0115  153.1459 H   0  0  0  0  0  0  0  0  0  0  0  0
  146.1717  137.1204  155.3358 H   0  0  0  0  0  0  0  0  0  0  0  0
  145.6301  137.4273  153.7027 H   0  0  0  0  0  0  0  0  0  0  0  0
  147.1441  134.8800  154.4220 H   0  0  0  0  0  0  0  0  0  0  0  0
  145.4088  134.9440  154.6062 H   0  0  0  0  0  0  0  0  0  0  0  0
  146.9073  133.0896  152.8179 H   0  0  0  0  0  0  0  0  0  0  0  0
  145.1555  133.1530  152.8486 H   0  0  0  0  0  0  0  0  0  0  0  0
  146.9639  133.5600  150.4064 H   0  0  0  0  0  0  0  0  0  0  0  0
  145.9485  132.1703  150.7088 H   0  0  0  0  0  0  0  0  0  0  0  0
  144.8897  133.7701  149.0852 H   0  0  0  0  0  0  0  0  0  0  0  0
  143.9077  133.5481  150.5164 H   0  0  0  0  0  0  0  0  0  0  0  0
  145.7967  135.8895  149.9682 H   0  0  0  0  0  0  0  0  0  0  0  0
  144.0515  135.9578  149.9951 H   0  0  0  0  0  0  0  0  0  0  0  0
  144.0177  135.4169  152.4178 H   0  0  0  0  0  0  0  0  0  0  0  0
  145.0276  136.8127  152.1109 H   0  0  0  0  0  0  0  0  0  0  0  0
  146.9356  135.3613  152.1473 H   0  0  0  0  0  0  0  0  0  0  0  0
  1  2  1  0  0  0  0
  1 21  1  0  0  0  0
  1 22  1  0  0  0  0
  1 23  1  0  0  0  0
  2  8  1  0  0  0  0
  2  3  2  0  0  0  0
  3  4  1  0  0  0  0
  4  5  1  0  0  0  0
  4  6  1  0  0  0  0
  5 24  1  0  0  0  0
  5 25  1  0  0  0  0
  5 26  1  0  0  0  0
  6  7  1  0  0  0  0
  6  8  2  0  0  0  0
  7 27  1  0  0  0  0
  7 28  1  0  0  0  0
  7 29  1  0  0  0  0
  8  9  1  0  0  0  0
  9 10  1  0  0  0  0
  9 30  1  0  0  0  0
  9 31  1  0  0  0  0
 10 11  2  0  0  0  0
 10 12  1  0  0  0  0
 12 13  1  0  0  0  0
 12 32  1  0  0  0  0
 13 14  1  0  0  0  0
 13 33  1  0  0  0  0
 13 34  1  0  0  0  0
 14 15  1  0  0  0  0
 14 35  1  0  0  0  0
 14 36  1  0  0  0  0
 15 20  1  0  0  0  0
 15 16  1  0  0  0  0
 15 47  1  0  0  0  0
 16 17  1  0  0  0  0
 16 37  1  0  0  0  0
 16 38  1  0  0  0  0
 17 18  1  0  0  0  0
 17 39  1  0  0  0  0
 17 40  1  0  0  0  0
 18 19  1  0  0  0  0
 18 41  1  0  0  0  0
 18 42  1  0  0  0  0
 19 20  1  0  0  0  0
 19 43  1  0  0  0  0
 19 44  1  0  0  0  0
 20 45  1  0  0  0  0
 20 46  1  0  0  0  0
M  CHG  1  15   1
M  END
> <s_m_source_file>
AV-unprocessed.smi

> <i_m_source_file_index>
1903

> <i_lp_mmshare_version>
43012

> <i_f3d_flags>
0

> <s_epik_input>
W0NIM11jMW5uKFtDSDNdKWMoW0NIM10pYzFbQ0gyXUMoPU8pW05IXVtDSDJdW0NIMl1OMltDSDJdW0NIMl1bQ0gyXVtDSDJdW0NIMl0y

> <s_epik_cmdline>
J2VwaWtfcHl0aG9uJywgJy1waCcsICc3LjAnLCAnLXRuJywgJzgnLCAnLW1hJywgJzIwMCcsICctbWV0YWxfYmluZGluZycsICctaW1hZScsICc8aW5maWxlLm1hZT4nLCAnLW9tYWUnLCAnPG91dGZpbGUubWFlPic=

> <r_lp_tautomer_probability>
1

> <r_epik_Ionization_Penalty>
0.00456445

> <r_epik_Ionization_Penalty_Charging>
0.00240401

> <r_epik_Ionization_Penalty_Neutral>
0.00216044

> <r_epik_State_Penalty>
-0

> <r_epik_Charging_Adjusted_Penalty>
0.00240401

> <i_epik_Tot_Q>
1

> <i_epik_Tot_abs_Q>
1

> <r_epik_Metal_State_Penalty>
-0

> <b_epik_Metal_Only>
0

> <s_lp_Force_Field>
OPLS_2005

> <r_lp_Energy>
10.8117

> <b_lp_Chiralities_Consistent>
1

> <s_lp_Variant>
AV-unprocessed.smi:1903-1

> <Gold.Version>
5.8.1

> <Gold.Id.Protein>
6NUR|6NUR_protein|mol2

> <Gold.PLP.Fitness>
45.0335

> <Gold.PLP.PLP>
-33.5266

> <Gold.PLP.part.hbond>
-3.0000

> <Gold.PLP.part.metal>
0.0000

> <Gold.PLP.part.buried>
-1.3607

> <Gold.PLP.part.nonpolar>
-29.7951

> <Gold.PLP.part.repulsive>
0.0153

> <Gold.PLP.ligand.clash>
0.0000

> <Gold.PLP.ligand.torsion>
0.2784

> <Gold.PLP.Chemscore.Hbond>
4.0000

> <Gold.PLP.Chemscore.CHOScore>
0.0000

> <Gold.PLP.Chemscore.Metal>
0.0000

> <Gold.Chemscore.Hbonds>
donor molecule, donor type, donor heavy atom, donor atom, acceptor molecule, acceptor atom, score
      L1  H    12    32       P1  7948  1.00
      L1  H    15    47       P1  7948  1.24
      P1  H  7997  8010       L1     3  0.54

> <Gold.PLP.Chemscore.Internal.Correction>
0.0638

> <Gold.Rescore>
     Score         DG    S(hbond)    S(metal)    S(lipo)     H(rot)  DE(clash)    DE(int)     intcor
     17.33     -20.73       2.90        0.00      83.67       1.65       0.35       3.05       ----

> <Gold.Chemscore.Fitness>
17.3342

> <Gold.Chemscore.DG>
-20.7309

> <Gold.Chemscore.ZeroCoef>
-5.4800

> <Gold.Chemscore.Hbond>
2.8972

> <Gold.Chemscore.Metal>
0.0000

> <Gold.Chemscore.Lipo>
83.6736

> <Gold.Chemscore.Internal_Hbond>
0.0000

> <Gold.Chemscore.DEClash>
0.3458

> <Gold.Chemscore.DEInternal>
3.0509

> <Gold.Chemscore.Rot>
1.6467

> <Gold.Chemscore.Internal.Correction>
   9.000000E+99

> <Gold.Chemscore.Hbonds>
donor molecule, donor type, donor heavy atom, donor atom, acceptor molecule, acceptor atom, score
      L1  H    12    32       P1  7948  1.00
      L1  H    15    47       P1  7948  0.60
      P1  H  7997  8010       L1     3  0.23

> <Gold.Chemscore.Hbond.Weighted>
-9.6765

> <Gold.Chemscore.Metal.Weighted>
-0.0000

> <Gold.Chemscore.Lipo.Weighted>
-9.7898

> <Gold.Chemscore.Internal_Hbond.Weighted>
0.0000

> <Gold.Chemscore.DEClash.Weighted>
0.3458

> <Gold.Chemscore.DEInternal.Weighted>
3.0509

> <Gold.Chemscore.Rot.Weighted>
4.2155

> <Gold.Chemscore.Internal.Correction.Weighted>
   9.000000E+99

> <Gold.Protein.RotatedTorsions>
[ 6907 6896 6895 6894 ] final  -25.94 input  -60.11 | X-H torsion
[ 7974 7965 7964 7962 ] final -129.04 input  175.53 | X-H torsion
[ 8008 7997 7996 7995 ] final   70.12 input   59.86 | X-H torsion
[ 10167 10162 10161 10158 ] final  152.64 input  -65.29 | X-H torsion
[ 10718 10713 10712 10709 ] final   64.77 input   66.30 | X-H torsion
[ 10763 10752 10751 10750 ] final  -55.75 input  -60.55 | X-H torsion
[ 11005 11000 10999 10996 ] final   57.10 input  -57.11 | X-H torsion

> <Gold.Protein.ActiveResidues>
 VAL166  LYS551  ARG553  GLY616  TRP617  ASP618  TYR619  PRO620  LYS621  CYS622 
 ASP623  PHE694  ASN695  SER759  ASP760  ASP761  ALA762  ILE779  LEU786  VAL792 
 PHE793  MET794  SER795  GLU796  ALA797  LYS798  CYS799  TRP800  GLU811  SER814 

> <Gold.Protein.RotatedAtoms>
  151.1681  135.0305  159.8739 H   0  0  0  0  0  0  0  0  0  0  0  0  # atno 6907 bound_to 6896
  152.5449  134.1202  159.8406 H   0  0  0  0  0  0  0  0  0  0  0  0  # atno 6908 bound_to 6896
  151.1305  133.4994  159.2632 H   0  0  0  0  0  0  0  0  0  0  0  0  # atno 6909 bound_to 6896
  144.9611  140.7447  143.4728 H   0  0  0  0  0  0  0  0  0  0  0  0  # atno 7974 bound_to 7965
  155.7339  140.3491  155.5072 H   0  0  0  0  0  0  0  0  0  0  0  0  # atno 8008 bound_to 7997
  155.9157  140.1058  157.1267 H   0  0  0  0  0  0  0  0  0  0  0  0  # atno 8009 bound_to 7997
  154.4062  140.1259  156.4601 H   0  0  0  0  0  0  0  0  0  0  0  0  # atno 8010 bound_to 7997
  139.4831  144.5341  151.7675 H   0  0  0  0  0  0  0  0  0  0  0  0  # atno 10167 bound_to 10162
  157.6062  130.9178  149.9889 H   0  0  0  0  0  0  0  0  0  0  0  0  # atno 10718 bound_to 10713
  154.1957  135.6419  153.5072 H   0  0  0  0  0  0  0  0  0  0  0  0  # atno 10763 bound_to 10752
  153.0024  135.5439  154.6368 H   0  0  0  0  0  0  0  0  0  0  0  0  # atno 10764 bound_to 10752
  154.5769  135.2921  155.0745 H   0  0  0  0  0  0  0  0  0  0  0  0  # atno 10765 bound_to 10752
  140.0478  134.5780  155.9300 H   0  0  0  0  0  0  0  0  0  0  0  0  # atno 11005 bound_to 11000
  145.2699  139.1959  143.4847 LP  0  0  0  0  0  0  0  0  0  0  0  0  # atno 17320 bound_to 7965
  146.3353  140.2643  142.8603 LP  0  0  0  0  0  0  0  0  0  0  0  0  # atno 17321 bound_to 7965
  140.4871  144.1365  150.5943 LP  0  0  0  0  0  0  0  0  0  0  0  0  # atno 17342 bound_to 10162
  140.4213  143.2610  151.9712 LP  0  0  0  0  0  0  0  0  0  0  0  0  # atno 17343 bound_to 10162
  156.1149  130.3648  149.9986 LP  0  0  0  0  0  0  0  0  0  0  0  0  # atno 17370 bound_to 10713
  156.8077  130.9313  151.3645 LP  0  0  0  0  0  0  0  0  0  0  0  0  # atno 17371 bound_to 10713
  141.1916  133.6572  156.5462 LP  0  0  0  0  0  0  0  0  0  0  0  0  # atno 17394 bound_to 11000
  140.3965  134.7394  157.4753 LP  0  0  0  0  0  0  0  0  0  0  0  0  # atno 17395 bound_to 11000

$$$$
