#       Name:                AV-unprocessed.smi:160
#       Creating user name   scv26
#       Creation time:       Thu Mar 26 19:07:36 2020


#       File generated by GOLD software.
#

@<TRIPOS>MOLECULE
AV-unprocessed.smi:160
    41    42     1
SMALL
NO_CHARGES


@<TRIPOS>ATOM
      1 ****        -3.9222   2.6488  -0.2007 N.pl3          1 S1                -1.0000
      2 ****        -4.0929   1.3309  -0.4445 C.2            1 S1                 0.0000
      3 ****        -5.1657   0.7288  -0.4721 O.2            1 S1                 0.0000
      4 ****        -2.8131   0.5704  -0.6993 C.2            1 S1                 0.0000
      5 ****        -2.8396  -0.7724  -0.9571 N.2            1 S1                 0.0000
      6 ****        -1.5398  -0.9844  -1.1118 C.2            1 S1                 0.0000
      7 ****        -0.7820   0.1040  -0.9374 N.pl3          1 S1                 0.0000
      8 ****         0.6931   0.3052  -1.0844 C.3            1 S1                 0.0000
      9 ****         1.3057  -0.9517  -1.1141 O.3            1 S1                 0.0000
     10 ****         1.9493  -1.2392   0.1255 C.3            1 S1                 0.0000
     11 ****         0.9672  -1.9377   1.0948 C.3            1 S1                 0.0000
     12 ****         0.7673  -3.2757   0.6922 O.3            1 S1                 0.0000
     13 ****         2.4164   0.1578   0.5580 C.3            1 S1                 0.0000
     14 ****         2.6613   0.2554   1.9473 O.3            1 S1                 0.0000
     15 ****         1.2779   1.0702   0.1193 C.3            1 S1                 0.0000
     16 ****         1.7937   2.3303  -0.2596 O.3            1 S1                 0.0000
     17 ****        -1.6086   1.1503  -0.6970 N.2            1 S1                 0.0000
     18 ****         0.8038   0.8116  -2.0444 H              1 S1                 0.0000
     19 ****         2.8126  -1.8848  -0.0421 H              1 S1                 0.0000
     20 ****         3.3299   0.4042   0.0136 H              1 S1                 0.0000
     21 ****         0.5315   1.1732   0.9090 H              1 S1                 0.0000
     22 ****        -2.9677   3.0277  -0.2069 H              1 S1                 0.0000
     23 ****        -1.1320  -1.9547  -1.3546 H              1 S1                 0.0000
     24 ****         1.3865  -1.9782   2.0999 H              1 S1                 0.0000
     25 ****         0.0140  -1.4179   1.1760 H              1 S1                 0.0000
     26 ****         0.1745  -3.6870   1.3026 H              1 S1                 0.0000
     27 ****         2.9033   1.1477   2.1437 H              1 S1                 0.0000
     28 ****         1.0747   2.8680  -0.5562 H              1 S1                 0.0000
     29 ****        -4.7068   3.2413  -0.0185 LP             1 S1                 0.0000
     30 ****        -6.0197   1.2209  -0.3037 LP             1 S1                 0.0000
     31 ****        -5.1834  -0.2527  -0.6629 LP             1 S1                 0.0000
     32 ****        -3.6108  -1.4066  -1.0125 LP             1 S1                 0.0000
     33 ****         1.9865  -0.9659  -1.8464 LP             1 S1                 0.0000
     34 ****         0.6114  -1.6493  -1.2909 LP             1 S1                 0.0000
     35 ****         1.6412  -3.7618   0.6910 LP             1 S1                 0.0000
     36 ****         0.3733  -3.2963  -0.2266 LP             1 S1                 0.0000
     37 ****         3.4057  -0.3612   2.2037 LP             1 S1                 0.0000
     38 ****         1.8353   0.0095   2.4545 LP             1 S1                 0.0000
     39 ****         2.4577   2.2157  -0.9985 LP             1 S1                 0.0000
     40 ****         2.2389   2.7631   0.5243 LP             1 S1                 0.0000
     41 ****        -1.3765   2.1124  -0.5541 LP             1 S1                 0.0000
@<TRIPOS>BOND
    1    1    2 1     
    2    1   22 1     
    3    2    3 2     
    4    2    4 1     
    5    4   17 2     
    6    4    5 1     
    7    5    6 2     
    8    6    7 1     
    9    6   23 1     
   10    7    8 1     
   11    7   17 1     
   12    8   18 1     
   13    8   15 1     
   14    8    9 1     
   15    9   10 1     
   16   10   19 1     
   17   10   11 1     
   18   10   13 1     
   19   11   12 1     
   20   11   24 1     
   21   11   25 1     
   22   12   26 1     
   23   13   20 1     
   24   13   14 1     
   25   13   15 1     
   26   14   27 1     
   27   15   21 1     
   28   15   16 1     
   29   16   28 1     
   30    1   29 1     
   31    3   30 1     
   32    3   31 1     
   33    5   32 1     
   34    9   33 1     
   35    9   34 1     
   36   12   35 1     
   37   12   36 1     
   38   14   37 1     
   39   14   38 1     
   40   16   39 1     
   41   16   40 1     
   42   17   41 1     
@<TRIPOS>SUBSTRUCTURE
      1 S1             1
@<TRIPOS>SET
LONE_PAIRS      STATIC     ATOMS    <user>   **** ""
13 29 30 31 32 33 34 35 36 37 38 39 40 41
DONOR_HYDROGENS      STATIC     ATOMS    <user>   **** ""
4 22 26 27 28
ATOM$BLUE        STATIC     ATOMS    COLORGROUP SYSTEM
13 29 30 31 32 33 34 35 36 37 38 39 40 41
ATOM$RED        STATIC     ATOMS    COLORGROUP SYSTEM
4 22 26 27 28
