AV-unprocessed.smi:2759|AV-procd|sdf|10626|dock2
  -GOLD-   2272015 73D 1   1.00000     0.00000
 Structure written by MMmdl.
 43 44  0  0  0  0  0  0  0  0  1 V2000
  147.7940  139.5931  153.2171 C   0  0  0  0  0  0  0  0  0  0  0  0
  148.9159  138.5457  153.3587 C   0  0  0  0  0  0  0  0  0  0  0  0
  148.3926  137.3651  154.1983 C   0  0  0  0  0  0  0  0  0  0  0  0
  150.2135  139.1668  153.9417 C   0  0  2  0  0  0  0  0  0  0  0  0
  150.5863  140.2758  153.1430 O   0  0  0  0  0  0  0  0  0  0  0  0
  151.4199  138.2022  153.9759 C   0  0  0  0  0  0  0  0  0  0  0  0
  151.9247  137.9567  155.3602 C   0  0  0  0  0  0  0  0  0  0  0  0
  151.6813  138.6888  156.4444 N   0  0  0  0  0  0  0  0  0  0  0  0
  152.3044  137.9500  157.4048 C   0  0  0  0  0  0  0  0  0  0  0  0
  152.3055  138.3365  158.8498 C   0  0  0  0  0  0  0  0  0  0  0  0
  153.1321  139.6061  159.0685 C   0  0  0  0  0  0  0  0  0  0  0  0
  154.3535  139.5790  158.9201 O   0  0  0  0  0  0  0  0  0  0  0  0
  152.4543  140.7116  159.4171 N   0  0  0  0  0  0  0  0  0  0  0  0
  153.0525  142.0093  159.7152 C   0  0  0  0  0  0  0  0  0  0  0  0
  152.6503  142.4828  161.1252 C   0  0  0  0  0  0  0  0  0  0  0  0
  152.1914  143.9336  160.9699 C   0  0  0  0  0  0  0  0  0  0  0  0
  151.6347  144.0034  159.5515 C   0  0  0  0  0  0  0  0  0  0  0  0
  152.5618  143.0980  158.7402 C   0  0  0  0  0  0  0  0  0  0  0  0
  152.9050  136.8426  156.9839 N   0  0  0  0  0  0  0  0  0  0  0  0
  152.6384  136.8321  155.6074 O   0  0  0  0  0  0  0  0  0  0  0  0
  147.5448  140.0385  154.1807 H   0  0  0  0  0  0  0  0  0  0  0  0
  146.8851  139.1444  152.8152 H   0  0  0  0  0  0  0  0  0  0  0  0
  148.0739  140.4001  152.5398 H   0  0  0  0  0  0  0  0  0  0  0  0
  149.1371  138.1660  152.3601 H   0  0  0  0  0  0  0  0  0  0  0  0
  148.2439  137.6541  155.2393 H   0  0  0  0  0  0  0  0  0  0  0  0
  149.0711  136.5133  154.1780 H   0  0  0  0  0  0  0  0  0  0  0  0
  147.4362  137.0068  153.8166 H   0  0  0  0  0  0  0  0  0  0  0  0
  150.0064  139.5233  154.9519 H   0  0  0  0  0  0  0  0  0  0  0  0
  150.4263  140.0614  152.2363 H   0  0  0  0  0  0  0  0  0  0  0  0
  151.1511  137.2295  153.5681 H   0  0  0  0  0  0  0  0  0  0  0  0
  152.2346  138.5781  153.3555 H   0  0  0  0  0  0  0  0  0  0  0  0
  151.2812  138.4951  159.1902 H   0  0  0  0  0  0  0  0  0  0  0  0
  152.7177  137.5236  159.4491 H   0  0  0  0  0  0  0  0  0  0  0  0
  151.4508  140.6421  159.5072 H   0  0  0  0  0  0  0  0  0  0  0  0
  154.1399  141.9327  159.6565 H   0  0  0  0  0  0  0  0  0  0  0  0
  151.8194  141.8883  161.5092 H   0  0  0  0  0  0  0  0  0  0  0  0
  153.4682  142.3888  161.8401 H   0  0  0  0  0  0  0  0  0  0  0  0
  151.4597  144.2260  161.7236 H   0  0  0  0  0  0  0  0  0  0  0  0
  153.0486  144.6021  161.0605 H   0  0  0  0  0  0  0  0  0  0  0  0
  150.6206  143.6016  159.5344 H   0  0  0  0  0  0  0  0  0  0  0  0
  151.5975  145.0216  159.1632 H   0  0  0  0  0  0  0  0  0  0  0  0
  153.4175  143.6788  158.3938 H   0  0  0  0  0  0  0  0  0  0  0  0
  152.0679  142.6989  157.8532 H   0  0  0  0  0  0  0  0  0  0  0  0
  1  2  1  0  0  0  0
  1 21  1  0  0  0  0
  1 22  1  0  0  0  0
  1 23  1  0  0  0  0
  2  3  1  0  0  0  0
  2  4  1  0  0  0  0
  2 24  1  0  0  0  0
  3 25  1  0  0  0  0
  3 26  1  0  0  0  0
  3 27  1  0  0  0  0
  4  5  1  0  0  0  0
  4  6  1  0  0  0  0
  4 28  1  0  0  0  0
  5 29  1  0  0  0  0
  6  7  1  0  0  0  0
  6 30  1  0  0  0  0
  6 31  1  0  0  0  0
  7 20  1  0  0  0  0
  7  8  2  0  0  0  0
  8  9  1  0  0  0  0
  9 10  1  0  0  0  0
  9 19  2  0  0  0  0
 10 11  1  0  0  0  0
 10 32  1  0  0  0  0
 10 33  1  0  0  0  0
 11 12  2  0  0  0  0
 11 13  1  0  0  0  0
 13 14  1  0  0  0  0
 13 34  1  0  0  0  0
 14 18  1  0  0  0  0
 14 15  1  0  0  0  0
 14 35  1  0  0  0  0
 15 16  1  0  0  0  0
 15 36  1  0  0  0  0
 15 37  1  0  0  0  0
 16 17  1  0  0  0  0
 16 38  1  0  0  0  0
 16 39  1  0  0  0  0
 17 18  1  0  0  0  0
 17 40  1  0  0  0  0
 17 41  1  0  0  0  0
 18 42  1  0  0  0  0
 18 43  1  0  0  0  0
 19 20  1  0  0  0  0
M  END
> <s_m_source_file>
AV-unprocessed.smi

> <i_m_source_file_index>
2759

> <i_lp_mmshare_version>
43012

> <i_f3d_flags>
0

> <s_epik_input>
W0NIM11bQ0hdKFtDSDNdKVtDQEhdKFtPSF0pW0NIMl1jMW5jKG5vMSlbQ0gyXUMoPU8pW05IXVtDSF0yW0NIMl1bQ0gyXVtDSDJdW0NIMl0y

> <s_epik_cmdline>
J2VwaWtfcHl0aG9uJywgJy1waCcsICc3LjAnLCAnLXRuJywgJzgnLCAnLW1hJywgJzIwMCcsICctbWV0YWxfYmluZGluZycsICctaW1hZScsICc8aW5maWxlLm1hZT4nLCAnLW9tYWUnLCAnPG91dGZpbGUubWFlPic=

> <r_lp_tautomer_probability>
1

> <r_epik_Ionization_Penalty>
1.20032e-07

> <r_epik_Ionization_Penalty_Charging>
0

> <r_epik_Ionization_Penalty_Neutral>
1.20032e-07

> <r_epik_State_Penalty>
-0

> <r_epik_Charging_Adjusted_Penalty>
0

> <i_epik_Tot_Q>
0

> <i_epik_Tot_abs_Q>
0

> <r_epik_Metal_State_Penalty>
-0

> <b_epik_Metal_Only>
0

> <s_lp_Force_Field>
OPLS_2005

> <r_lp_Energy>
19.5735

> <b_lp_Chiralities_Consistent>
1

> <s_lp_Variant>
AV-unprocessed.smi:2759-1

> <Gold.Version>
5.8.1

> <Gold.Id.Protein>
6NUR|6NUR_protein|mol2

> <Gold.PLP.Fitness>
46.4467

> <Gold.PLP.PLP>
-38.8563

> <Gold.PLP.part.hbond>
-5.2206

> <Gold.PLP.part.metal>
0.0000

> <Gold.PLP.part.buried>
-4.5842

> <Gold.PLP.part.nonpolar>
-28.2689

> <Gold.PLP.part.repulsive>
0.1745

> <Gold.PLP.ligand.clash>
0.0000

> <Gold.PLP.ligand.torsion>
1.1802

> <Gold.PLP.Chemscore.Hbond>
3.2640

> <Gold.PLP.Chemscore.CHOScore>
0.0000

> <Gold.PLP.Chemscore.Metal>
0.0000

> <Gold.Chemscore.Hbonds>
donor molecule, donor type, donor heavy atom, donor atom, acceptor molecule, acceptor atom, score
      L1  H     5    29       P1  7957  0.50
      P1  H  7989  7998       L1     5  0.09
      P1  H  7997  8009       L1    12  1.00
      P1  H 10752 10765       L1    20  0.62

> <Gold.PLP.Chemscore.Internal.Correction>
0.1588

> <Gold.Rescore>
     Score         DG    S(hbond)    S(metal)    S(lipo)     H(rot)  DE(clash)    DE(int)     intcor
     19.07     -20.25       3.26        0.00      91.13       2.65       0.02       1.16       ----

> <Gold.Chemscore.Fitness>
19.0730

> <Gold.Chemscore.DG>
-20.2486

> <Gold.Chemscore.ZeroCoef>
-5.4800

> <Gold.Chemscore.Hbond>
3.2639

> <Gold.Chemscore.Metal>
0.0000

> <Gold.Chemscore.Lipo>
91.1309

> <Gold.Chemscore.Internal_Hbond>
0.0000

> <Gold.Chemscore.DEClash>
0.0197

> <Gold.Chemscore.DEInternal>
1.1559

> <Gold.Chemscore.Rot>
2.6543

> <Gold.Chemscore.Internal.Correction>
   9.000000E+99

> <Gold.Chemscore.Hbonds>
donor molecule, donor type, donor heavy atom, donor atom, acceptor molecule, acceptor atom, score
      L1  H     5    29       P1  7957  0.38
      P1  H  7989  7998       L1     5  0.08
      P1  H  7997  8009       L1    12  0.98
      P1  H 10752 10765       L1    20  0.60

> <Gold.Chemscore.Hbond.Weighted>
-10.9013

> <Gold.Chemscore.Metal.Weighted>
-0.0000

> <Gold.Chemscore.Lipo.Weighted>
-10.6623

> <Gold.Chemscore.Internal_Hbond.Weighted>
0.0000

> <Gold.Chemscore.DEClash.Weighted>
0.0197

> <Gold.Chemscore.DEInternal.Weighted>
1.1559

> <Gold.Chemscore.Rot.Weighted>
6.7950

> <Gold.Chemscore.Internal.Correction.Weighted>
   9.000000E+99

> <Gold.Protein.RotatedTorsions>
[ 6907 6896 6895 6894 ] final -125.03 input  -60.11 | X-H torsion
[ 7974 7965 7964 7962 ] final   60.49 input  175.53 | X-H torsion
[ 8008 7997 7996 7995 ] final  118.86 input   59.86 | X-H torsion
[ 10167 10162 10161 10158 ] final   23.32 input  -65.29 | X-H torsion
[ 10718 10713 10712 10709 ] final  107.50 input   66.30 | X-H torsion
[ 10763 10752 10751 10750 ] final -176.61 input  -60.55 | X-H torsion
[ 11005 11000 10999 10996 ] final  -61.46 input  -57.11 | X-H torsion

> <Gold.Protein.ActiveResidues>
 VAL166  LYS551  ARG553  GLY616  TRP617  ASP618  TYR619  PRO620  LYS621  CYS622 
 ASP623  PHE694  ASN695  SER759  ASP760  ASP761  ALA762  ILE779  LEU786  VAL792 
 PHE793  MET794  SER795  GLU796  ALA797  LYS798  CYS799  TRP800  GLU811  SER814 

> <Gold.Protein.RotatedAtoms>
  150.8826  133.7351  159.2927 H   0  0  0  0  0  0  0  0  0  0  0  0  # atno 6907 bound_to 6896
  151.4927  135.1057  159.9817 H   0  0  0  0  0  0  0  0  0  0  0  0  # atno 6908 bound_to 6896
  152.4770  133.8115  159.7061 H   0  0  0  0  0  0  0  0  0  0  0  0  # atno 6909 bound_to 6896
  145.8954  139.3542  143.0624 H   0  0  0  0  0  0  0  0  0  0  0  0  # atno 7974 bound_to 7965
  156.2567  140.2865  156.0900 H   0  0  0  0  0  0  0  0  0  0  0  0  # atno 8008 bound_to 7997
  155.1473  140.0396  157.2830 H   0  0  0  0  0  0  0  0  0  0  0  0  # atno 8009 bound_to 7997
  154.6486  140.2539  155.7246 H   0  0  0  0  0  0  0  0  0  0  0  0  # atno 8010 bound_to 7997
  140.5278  143.9892  150.6450 H   0  0  0  0  0  0  0  0  0  0  0  0  # atno 10167 bound_to 10162
  157.6626  131.0874  150.6165 H   0  0  0  0  0  0  0  0  0  0  0  0  # atno 10718 bound_to 10713
  154.5702  135.2827  155.0835 H   0  0  0  0  0  0  0  0  0  0  0  0  # atno 10763 bound_to 10752
  154.2210  135.6391  153.5148 H   0  0  0  0  0  0  0  0  0  0  0  0  # atno 10764 bound_to 10752
  153.0055  135.5514  154.6323 H   0  0  0  0  0  0  0  0  0  0  0  0  # atno 10765 bound_to 10752
  141.1325  133.6630  156.5379 H   0  0  0  0  0  0  0  0  0  0  0  0  # atno 11005 bound_to 11000
  145.8857  140.9335  143.0578 LP  0  0  0  0  0  0  0  0  0  0  0  0  # atno 17320 bound_to 7965
  144.6732  140.0839  143.7468 LP  0  0  0  0  0  0  0  0  0  0  0  0  # atno 17321 bound_to 7965
  140.3259  143.3108  152.0737 LP  0  0  0  0  0  0  0  0  0  0  0  0  # atno 17342 bound_to 10162
  139.4944  144.6542  151.6609 LP  0  0  0  0  0  0  0  0  0  0  0  0  # atno 17343 bound_to 10162
  156.6468  130.4474  149.5733 LP  0  0  0  0  0  0  0  0  0  0  0  0  # atno 17370 bound_to 10713
  156.2168  130.6712  151.1327 LP  0  0  0  0  0  0  0  0  0  0  0  0  # atno 17371 bound_to 10713
  140.4163  134.7227  157.4864 LP  0  0  0  0  0  0  0  0  0  0  0  0  # atno 17394 bound_to 11000
  140.0391  134.6293  155.9004 LP  0  0  0  0  0  0  0  0  0  0  0  0  # atno 17395 bound_to 11000

$$$$
