#       Name:                AV-unprocessed.smi:1419
#       Creating user name   scv26
#       Creation time:       Fri Mar 27 05:42:22 2020


#       File generated by GOLD software.
#

@<TRIPOS>MOLECULE
AV-unprocessed.smi:1419
    46    47     1
SMALL
NO_CHARGES


@<TRIPOS>ATOM
      1 ****        -3.4334  -1.3354   1.6805 C.3            1 S1                 0.0000
      2 ****        -2.6746  -0.5525   0.6007 C.3            1 S1                 0.0000
      3 ****        -2.6667  -1.3186  -0.7401 C.3            1 S1                 0.0000
      4 ****        -2.1396  -0.5216  -1.8533 N.pl3          1 S1                 0.0000
      5 ****        -2.7179   0.5781  -2.4341 C.2            1 S1                 0.0000
      6 ****        -1.8629   0.9938  -3.4218 C.2            1 S1                 0.0000
      7 ****        -0.8056   0.1239  -3.4105 N.pl3          1 S1                 1.0000
      8 ****        -0.9796  -0.8014  -2.4615 C.2            1 S1                 0.0000
      9 ****        -1.3137  -0.2995   1.0727 N.am           1 S1                 0.0000
     10 ****        -0.5867   0.8082   0.8426 C.2            1 S1                 0.0000
     11 ****        -1.0162   1.7480   0.1724 O.2            1 S1                 0.0000
     12 ****         0.6565   0.7909   1.3833 N.am           1 S1                 0.0000
     13 ****         1.2725  -0.2968   2.1557 C.3            1 S1                 0.0000
     14 ****         2.4226  -0.9108   1.3306 C.3            1 S1                 0.0000
     15 ****         1.9499  -1.7280   0.1154 C.3            1 S1                 0.0000
     16 ****         3.3426   0.1155   0.9439 O.3            1 S1                 0.0000
     17 ****         2.7741   1.2425   0.2710 C.3            1 S1                 0.0000
     18 ****         3.8966   2.2522   0.0095 C.3            1 S1                 0.0000
     19 ****         1.6440   1.8418   1.1312 C.3            1 S1                 0.0000
     20 ****        -4.4661  -1.5162   1.3813 H              1 S1                 0.0000
     21 ****        -3.4572  -0.7854   2.6219 H              1 S1                 0.0000
     22 ****        -2.9686  -2.3035   1.8710 H              1 S1                 0.0000
     23 ****        -3.1978   0.3960   0.4655 H              1 S1                 0.0000
     24 ****        -2.0858  -2.2389  -0.6588 H              1 S1                 0.0000
     25 ****        -3.6816  -1.6102  -1.0141 H              1 S1                 0.0000
     26 ****        -3.6650   0.9789  -2.1027 H              1 S1                 0.0000
     27 ****        -1.9267   1.8206  -4.1142 H              1 S1                 0.0000
     28 ****        -0.3102  -1.6101  -2.2288 H              1 S1                 0.0000
     29 ****        -0.8880  -1.0262   1.6298 H              1 S1                 0.0000
     30 ****         1.6697   0.1166   3.0840 H              1 S1                 0.0000
     31 ****         0.5757  -1.0754   2.4659 H              1 S1                 0.0000
     32 ****         2.9755  -1.5905   1.9795 H              1 S1                 0.0000
     33 ****         1.3106  -2.5533   0.4294 H              1 S1                 0.0000
     34 ****         2.7993  -2.1532  -0.4195 H              1 S1                 0.0000
     35 ****         1.3810  -1.1258  -0.5910 H              1 S1                 0.0000
     36 ****         2.3713   0.9261  -0.6918 H              1 S1                 0.0000
     37 ****         3.5212   3.1298  -0.5173 H              1 S1                 0.0000
     38 ****         4.6842   1.8100  -0.6012 H              1 S1                 0.0000
     39 ****         4.3490   2.5898   0.9424 H              1 S1                 0.0000
     40 ****         1.2159   2.7121   0.6316 H              1 S1                 0.0000
     41 ****         2.0391   2.2060   2.0808 H              1 S1                 0.0000
     42 ****        -0.0075   0.1706  -4.0315 H              1 S1                 0.0000
     43 ****        -1.9342   1.7028  -0.2215 LP             1 S1                 0.0000
     44 ****        -0.4469   2.5563   0.0221 LP             1 S1                 0.0000
     45 ****         4.0212  -0.2948   0.3347 LP             1 S1                 0.0000
     46 ****         3.7954   0.4488   1.7709 LP             1 S1                 0.0000
@<TRIPOS>BOND
    1    1    2 1     
    2    1   20 1     
    3    1   21 1     
    4    1   22 1     
    5    2    3 1     
    6    2    9 1     
    7    2   23 1     
    8    3    4 1     
    9    3   24 1     
   10    3   25 1     
   11    4    8 1     
   12    4    5 1     
   13    5    6 2     
   14    5   26 1     
   15    6    7 1     
   16    6   27 1     
   17    7    8 2     
   18    7   42 1     
   19    8   28 1     
   20    9   10 am    
   21    9   29 1     
   22   10   11 2     
   23   10   12 am    
   24   12   19 1     
   25   12   13 1     
   26   13   14 1     
   27   13   30 1     
   28   13   31 1     
   29   14   15 1     
   30   14   16 1     
   31   14   32 1     
   32   15   33 1     
   33   15   34 1     
   34   15   35 1     
   35   16   17 1     
   36   17   18 1     
   37   17   19 1     
   38   17   36 1     
   39   18   37 1     
   40   18   38 1     
   41   18   39 1     
   42   19   40 1     
   43   19   41 1     
   44   11   43 1     
   45   11   44 1     
   46   16   45 1     
   47   16   46 1     
@<TRIPOS>SUBSTRUCTURE
      1 S1             1
@<TRIPOS>SET
LONE_PAIRS      STATIC     ATOMS    <user>   **** ""
4 43 44 45 46
DONOR_HYDROGENS      STATIC     ATOMS    <user>   **** ""
2 42 29
ATOM$BLUE        STATIC     ATOMS    COLORGROUP SYSTEM
4 43 44 45 46
ATOM$RED        STATIC     ATOMS    COLORGROUP SYSTEM
2 42 29
