AV-unprocessed.smi:2022|AV-procd|sdf|8187|dock5
  -GOLD-   2272010443D 1   1.00000     0.00000
 Structure written by MMmdl.
 34 35  0  0  0  0  0  0  0  0  1 V2000
  153.2493  142.1208  160.8693 C   0  0  0  0  0  0  0  0  0  0  0  0
  152.5188  142.6137  159.6676 C   0  0  0  0  0  0  0  0  0  0  0  0
  151.5790  142.0460  158.8540 C   0  0  0  0  0  0  0  0  0  0  0  0
  151.3208  143.0680  157.9023 C   0  0  0  0  0  0  0  0  0  0  0  0
  150.3829  142.8678  156.8576 N   0  0  0  0  0  0  0  0  0  0  0  0
  149.8630  141.7030  156.4349 C   0  0  0  0  0  0  0  0  0  0  0  0
  150.1397  140.5942  156.8937 O   0  0  0  0  0  0  0  0  0  0  0  0
  148.9890  141.8962  155.4364 N   0  0  0  0  0  0  0  0  0  0  0  0
  148.2056  140.8539  154.7731 C   0  0  2  0  0  0  0  0  0  0  0  0
  147.1878  140.2212  155.7570 C   0  0  0  0  0  0  0  0  0  0  0  0
  146.7265  138.7864  155.4257 C   0  0  0  0  0  0  0  0  0  0  0  0
  146.1679  138.5810  154.0030 C   0  0  0  0  0  0  0  0  0  0  0  0
  147.0837  139.0001  152.8282 C   0  0  0  0  0  0  0  0  0  0  0  0
  148.5104  139.0157  153.1495 N   0  0  0  0  0  0  0  0  0  0  0  0
  149.1026  139.8551  154.0165 C   0  0  0  0  0  0  0  0  0  0  0  0
  150.3157  139.8183  154.2192 O   0  0  0  0  0  0  0  0  0  0  0  0
  152.0364  144.1616  158.1164 N   0  0  0  0  0  0  0  0  0  0  0  0
  152.8083  143.8757  159.2488 O   0  0  0  0  0  0  0  0  0  0  0  0
  152.7651  141.2362  161.2830 H   0  0  0  0  0  0  0  0  0  0  0  0
  153.2780  142.8842  161.6471 H   0  0  0  0  0  0  0  0  0  0  0  0
  154.2759  141.8572  160.6147 H   0  0  0  0  0  0  0  0  0  0  0  0
  151.1501  141.0578  158.9289 H   0  0  0  0  0  0  0  0  0  0  0  0
  150.0634  143.7031  156.3898 H   0  0  0  0  0  0  0  0  0  0  0  0
  148.8229  142.8427  155.1266 H   0  0  0  0  0  0  0  0  0  0  0  0
  147.6332  141.3619  153.9957 H   0  0  0  0  0  0  0  0  0  0  0  0
  147.6178  140.2028  156.7596 H   0  0  0  0  0  0  0  0  0  0  0  0
  146.3145  140.8712  155.8254 H   0  0  0  0  0  0  0  0  0  0  0  0
  147.5520  138.0930  155.5925 H   0  0  0  0  0  0  0  0  0  0  0  0
  145.9627  138.4916  156.1459 H   0  0  0  0  0  0  0  0  0  0  0  0
  145.9339  137.5215  153.8931 H   0  0  0  0  0  0  0  0  0  0  0  0
  145.2134  139.1002  153.9081 H   0  0  0  0  0  0  0  0  0  0  0  0
  146.9287  138.3231  151.9880 H   0  0  0  0  0  0  0  0  0  0  0  0
  146.7917  139.9841  152.4596 H   0  0  0  0  0  0  0  0  0  0  0  0
  149.0954  138.3524  152.6622 H   0  0  0  0  0  0  0  0  0  0  0  0
  1  2  1  0  0  0  0
  1 19  1  0  0  0  0
  1 20  1  0  0  0  0
  1 21  1  0  0  0  0
  2 18  1  0  0  0  0
  2  3  2  0  0  0  0
  3  4  1  0  0  0  0
  3 22  1  0  0  0  0
  4  5  1  0  0  0  0
  4 17  2  0  0  0  0
  5  6  1  0  0  0  0
  5 23  1  0  0  0  0
  6  7  2  0  0  0  0
  6  8  1  0  0  0  0
  8  9  1  0  0  0  0
  8 24  1  0  0  0  0
  9 15  1  0  0  0  0
  9 10  1  0  0  0  0
  9 25  1  0  0  0  0
 10 11  1  0  0  0  0
 10 26  1  0  0  0  0
 10 27  1  0  0  0  0
 11 12  1  0  0  0  0
 11 28  1  0  0  0  0
 11 29  1  0  0  0  0
 12 13  1  0  0  0  0
 12 30  1  0  0  0  0
 12 31  1  0  0  0  0
 13 14  1  0  0  0  0
 13 32  1  0  0  0  0
 13 33  1  0  0  0  0
 14 15  1  0  0  0  0
 14 34  1  0  0  0  0
 15 16  2  0  0  0  0
 17 18  1  0  0  0  0
M  END
> <s_m_source_file>
AV-unprocessed.smi

> <i_m_source_file_index>
2022

> <i_lp_mmshare_version>
43012

> <i_f3d_flags>
0

> <s_epik_input>
W0NIM11jMVtjSF1jKG5vMSlbTkhdQyg9TylbTkhdW0NAQEhdMltDSDJdW0NIMl1bQ0gyXVtDSDJdW05IXUMyPU8=

> <s_epik_cmdline>
J2VwaWtfcHl0aG9uJywgJy1waCcsICc3LjAnLCAnLXRuJywgJzgnLCAnLW1hJywgJzIwMCcsICctbWV0YWxfYmluZGluZycsICctaW1hZScsICc8aW5maWxlLm1hZT4nLCAnLW9tYWUnLCAnPG91dGZpbGUubWFlPic=

> <r_lp_tautomer_probability>
1

> <r_epik_Ionization_Penalty>
2.27343e-05

> <r_epik_Ionization_Penalty_Charging>
0

> <r_epik_Ionization_Penalty_Neutral>
2.27343e-05

> <r_epik_State_Penalty>
-0

> <r_epik_Charging_Adjusted_Penalty>
0

> <i_epik_Tot_Q>
0

> <i_epik_Tot_abs_Q>
0

> <r_epik_Metal_State_Penalty>
-0

> <b_epik_Metal_Only>
0

> <s_lp_Force_Field>
OPLS_2005

> <r_lp_Energy>
12.0489

> <b_lp_Chiralities_Consistent>
1

> <s_lp_Variant>
AV-unprocessed.smi:2022-1

> <Gold.Version>
5.8.1

> <Gold.Id.Protein>
6NUR|6NUR_protein|mol2

> <Gold.PLP.Fitness>
39.8956

> <Gold.PLP.PLP>
-29.6941

> <Gold.PLP.part.hbond>
-5.0000

> <Gold.PLP.part.metal>
0.0000

> <Gold.PLP.part.buried>
-5.5507

> <Gold.PLP.part.nonpolar>
-20.6084

> <Gold.PLP.part.repulsive>
0.4766

> <Gold.PLP.ligand.clash>
0.0000

> <Gold.PLP.ligand.torsion>
0.0817

> <Gold.PLP.Chemscore.Hbond>
3.4372

> <Gold.PLP.Chemscore.CHOScore>
0.0000

> <Gold.PLP.Chemscore.Metal>
0.0000

> <Gold.Chemscore.Hbonds>
donor molecule, donor type, donor heavy atom, donor atom, acceptor molecule, acceptor atom, score
      L1  H     5    23       P1  8028  1.00
      L1  H     8    24       P1  8028  0.91
      L1  H    14    34       P1  7948  0.39
      P1  H  7989  7998       L1    16  1.00

> <Gold.PLP.Chemscore.Internal.Correction>
0.0533

> <Gold.Rescore>
     Score         DG    S(hbond)    S(metal)    S(lipo)     H(rot)  DE(clash)    DE(int)     intcor
     16.18     -18.76       3.19        0.00      44.15       1.00       0.00       2.57       ----

> <Gold.Chemscore.Fitness>
16.1830

> <Gold.Chemscore.DG>
-18.7572

> <Gold.Chemscore.ZeroCoef>
-5.4800

> <Gold.Chemscore.Hbond>
3.1950

> <Gold.Chemscore.Metal>
0.0000

> <Gold.Chemscore.Lipo>
44.1539

> <Gold.Chemscore.Internal_Hbond>
0.0000

> <Gold.Chemscore.DEClash>
0.0048

> <Gold.Chemscore.DEInternal>
2.5694

> <Gold.Chemscore.Rot>
1.0000

> <Gold.Chemscore.Internal.Correction>
   9.000000E+99

> <Gold.Chemscore.Hbonds>
donor molecule, donor type, donor heavy atom, donor atom, acceptor molecule, acceptor atom, score
      L1  H     5    23       P1  8028  0.98
      L1  H     8    24       P1  8028  0.87
      L1  H    14    34       P1  7948  0.39
      P1  H  7989  7998       L1    16  0.99

> <Gold.Chemscore.Hbond.Weighted>
-10.6712

> <Gold.Chemscore.Metal.Weighted>
-0.0000

> <Gold.Chemscore.Lipo.Weighted>
-5.1660

> <Gold.Chemscore.Internal_Hbond.Weighted>
0.0000

> <Gold.Chemscore.DEClash.Weighted>
0.0048

> <Gold.Chemscore.DEInternal.Weighted>
2.5694

> <Gold.Chemscore.Rot.Weighted>
2.5600

> <Gold.Chemscore.Internal.Correction.Weighted>
   9.000000E+99

> <Gold.Protein.RotatedTorsions>
[ 6907 6896 6895 6894 ] final   38.59 input  -60.11 | X-H torsion
[ 7974 7965 7964 7962 ] final  165.34 input  175.53 | X-H torsion
[ 8008 7997 7996 7995 ] final   87.96 input   59.86 | X-H torsion
[ 10167 10162 10161 10158 ] final -134.84 input  -65.29 | X-H torsion
[ 10718 10713 10712 10709 ] final -171.43 input   66.30 | X-H torsion
[ 10763 10752 10751 10750 ] final  -74.48 input  -60.55 | X-H torsion
[ 11005 11000 10999 10996 ] final   10.45 input  -57.11 | X-H torsion

> <Gold.Protein.ActiveResidues>
 VAL166  LYS551  ARG553  GLY616  TRP617  ASP618  TYR619  PRO620  LYS621  CYS622 
 ASP623  PHE694  ASN695  SER759  ASP760  ASP761  ALA762  ILE779  LEU786  VAL792 
 PHE793  MET794  SER795  GLU796  ALA797  LYS798  CYS799  TRP800  GLU811  SER814 

> <Gold.Protein.RotatedAtoms>
  152.1584  134.8932  160.0543 H   0  0  0  0  0  0  0  0  0  0  0  0  # atno 6907 bound_to 6896
  151.9937  133.3795  159.4162 H   0  0  0  0  0  0  0  0  0  0  0  0  # atno 6908 bound_to 6896
  150.6884  134.3832  159.5087 H   0  0  0  0  0  0  0  0  0  0  0  0  # atno 6909 bound_to 6896
  144.7507  139.8456  143.6367 H   0  0  0  0  0  0  0  0  0  0  0  0  # atno 7974 bound_to 7965
  155.9819  140.3376  155.6671 H   0  0  0  0  0  0  0  0  0  0  0  0  # atno 8008 bound_to 7997
  155.6537  140.0708  157.2596 H   0  0  0  0  0  0  0  0  0  0  0  0  # atno 8009 bound_to 7997
  154.4194  140.1721  156.1690 H   0  0  0  0  0  0  0  0  0  0  0  0  # atno 8010 bound_to 7997
  139.8839  143.6805  152.2623 H   0  0  0  0  0  0  0  0  0  0  0  0  # atno 10167 bound_to 10162
  156.7408  130.9341  151.3110 H   0  0  0  0  0  0  0  0  0  0  0  0  # atno 10718 bound_to 10713
  154.4737  135.5863  153.6340 H   0  0  0  0  0  0  0  0  0  0  0  0  # atno 10763 bound_to 10752
  152.9838  135.6073  154.3334 H   0  0  0  0  0  0  0  0  0  0  0  0  # atno 10764 bound_to 10752
  154.3218  135.2843  155.2495 H   0  0  0  0  0  0  0  0  0  0  0  0  # atno 10765 bound_to 10752
  140.5143  134.0621  155.7827 H   0  0  0  0  0  0  0  0  0  0  0  0  # atno 11005 bound_to 11000
  146.1452  139.4519  143.0083 LP  0  0  0  0  0  0  0  0  0  0  0  0  # atno 17320 bound_to 7965
  145.6956  141.0151  143.1532 LP  0  0  0  0  0  0  0  0  0  0  0  0  # atno 17321 bound_to 7965
  139.7171  144.7610  151.1017 LP  0  0  0  0  0  0  0  0  0  0  0  0  # atno 17342 bound_to 10162
  140.7739  143.5256  150.9484 LP  0  0  0  0  0  0  0  0  0  0  0  0  # atno 17343 bound_to 10162
  157.6819  130.9148  150.0289 LP  0  0  0  0  0  0  0  0  0  0  0  0  # atno 17370 bound_to 10713
  156.1466  130.3642  149.9501 LP  0  0  0  0  0  0  0  0  0  0  0  0  # atno 17371 bound_to 10713
  141.1368  133.9207  157.2415 LP  0  0  0  0  0  0  0  0  0  0  0  0  # atno 17394 bound_to 11000
  139.9641  135.0146  156.9340 LP  0  0  0  0  0  0  0  0  0  0  0  0  # atno 17395 bound_to 11000

$$$$
