AV-unprocessed.smi:197|AV-procd|sdf|1545|dock5
  -GOLD-   2262019403D 1   1.00000     0.00000
 Structure written by MMmdl.
 54 57  0  0  0  0  0  0  0  0  1 V2000
  152.6963  143.3324  159.1072 C   0  0  0  0  0  0  0  0  0  0  0  0
  151.7063  142.3160  159.0727 O   0  0  0  0  0  0  0  0  0  0  0  0
  150.9406  142.2870  157.8759 C   0  0  0  0  0  0  0  0  0  0  0  0
  150.1065  140.9972  157.7656 C   0  0  0  0  0  0  0  0  0  0  0  0
  149.1393  140.9801  156.5562 C   0  0  1  0  0  0  0  0  0  0  0  0
  149.8035  141.4479  155.2425 C   0  0  0  0  0  0  0  0  0  0  0  0
  150.7652  140.4899  154.8111 O   0  0  0  0  0  0  0  0  0  0  0  0
  150.1680  139.2312  154.5187 C   0  0  0  0  0  0  0  0  0  0  0  0
  149.4939  138.6678  155.7801 C   0  0  0  0  0  0  0  0  0  0  0  0
  148.5626  139.6503  156.3337 N   0  0  0  0  0  0  0  0  0  0  0  0
  147.6460  139.2239  157.2424 C   0  0  0  0  0  0  0  0  0  0  0  0
  146.5990  140.0285  157.5692 N   0  0  0  0  0  0  0  0  0  0  0  0
  145.6774  139.6186  158.4449 C   0  0  0  0  0  0  0  0  0  0  0  0
  145.6100  138.4609  159.1040 N   0  0  0  0  0  0  0  0  0  0  0  0
  146.6597  137.6501  158.7880 C   0  0  0  0  0  0  0  0  0  0  0  0
  147.7149  137.9519  157.8803 C   0  0  0  0  0  0  0  0  0  0  0  0
  148.6147  136.8929  157.8374 N   0  0  0  0  0  0  0  0  0  0  0  0
  148.1151  136.0138  158.6617 C   0  0  0  0  0  0  0  0  0  0  0  0
  146.9345  136.3804  159.2660 N   0  0  0  0  0  0  0  0  0  0  0  0
  146.1664  135.5966  160.2210 C   0  0  0  0  0  0  0  0  0  0  0  0
  146.2820  136.0946  161.6886 C   0  0  1  0  0  0  0  0  0  0  0  0
  147.2749  137.0989  161.7740 O   0  0  0  0  0  0  0  0  0  0  0  0
  144.9794  136.6399  162.2619 C   0  0  0  0  0  0  0  0  0  0  0  0
  144.2599  135.3733  162.7152 C   0  0  0  0  0  0  0  0  0  0  0  0
  145.2877  134.4518  163.0673 O   0  0  0  0  0  0  0  0  0  0  0  0
  146.5643  134.9759  162.7100 C   0  0  1  0  0  0  0  0  0  0  0  0
  147.5082  133.8505  162.2603 C   0  0  0  0  0  0  0  0  0  0  0  0
  153.2593  143.2558  160.0372 H   0  0  0  0  0  0  0  0  0  0  0  0
  152.2614  144.3307  159.0683 H   0  0  0  0  0  0  0  0  0  0  0  0
  153.4012  143.2255  158.2818 H   0  0  0  0  0  0  0  0  0  0  0  0
  150.3103  143.1741  157.7964 H   0  0  0  0  0  0  0  0  0  0  0  0
  151.6500  142.3369  157.0510 H   0  0  0  0  0  0  0  0  0  0  0  0
  150.7753  140.1367  157.7279 H   0  0  0  0  0  0  0  0  0  0  0  0
  149.5244  140.8834  158.6791 H   0  0  0  0  0  0  0  0  0  0  0  0
  148.3372  141.6834  156.7718 H   0  0  0  0  0  0  0  0  0  0  0  0
  149.0500  141.5841  154.4650 H   0  0  0  0  0  0  0  0  0  0  0  0
  150.2899  142.4144  155.3638 H   0  0  0  0  0  0  0  0  0  0  0  0
  149.4442  139.3417  153.7097 H   0  0  0  0  0  0  0  0  0  0  0  0
  150.9374  138.5448  154.1653 H   0  0  0  0  0  0  0  0  0  0  0  0
  148.9660  137.7475  155.5266 H   0  0  0  0  0  0  0  0  0  0  0  0
  150.2467  138.4126  156.5267 H   0  0  0  0  0  0  0  0  0  0  0  0
  144.8787  140.3178  158.6445 H   0  0  0  0  0  0  0  0  0  0  0  0
  148.5938  135.0633  158.8478 H   0  0  0  0  0  0  0  0  0  0  0  0
  145.1244  135.6047  159.8993 H   0  0  0  0  0  0  0  0  0  0  0  0
  146.4979  134.5604  160.1441 H   0  0  0  0  0  0  0  0  0  0  0  0
  147.8956  136.8514  162.4422 H   0  0  0  0  0  0  0  0  0  0  0  0
  145.1833  137.2591  163.1375 H   0  0  0  0  0  0  0  0  0  0  0  0
  144.3924  137.2455  161.5731 H   0  0  0  0  0  0  0  0  0  0  0  0
  143.5867  135.5574  163.5528 H   0  0  0  0  0  0  0  0  0  0  0  0
  143.6753  134.9497  161.8978 H   0  0  0  0  0  0  0  0  0  0  0  0
  146.9706  135.4248  163.6186 H   0  0  0  0  0  0  0  0  0  0  0  0
  148.4750  134.2503  161.9539 H   0  0  0  0  0  0  0  0  0  0  0  0
  147.0947  133.2850  161.4254 H   0  0  0  0  0  0  0  0  0  0  0  0
  147.6835  133.1472  163.0743 H   0  0  0  0  0  0  0  0  0  0  0  0
  1  2  1  0  0  0  0
  1 28  1  0  0  0  0
  1 29  1  0  0  0  0
  1 30  1  0  0  0  0
  2  3  1  0  0  0  0
  3  4  1  0  0  0  0
  3 31  1  0  0  0  0
  3 32  1  0  0  0  0
  4  5  1  0  0  0  0
  4 33  1  0  0  0  0
  4 34  1  0  0  0  0
  5 10  1  0  0  0  0
  5  6  1  0  0  0  0
  5 35  1  0  0  0  0
  6  7  1  0  0  0  0
  6 36  1  0  0  0  0
  6 37  1  0  0  0  0
  7  8  1  0  0  0  0
  8  9  1  0  0  0  0
  8 38  1  0  0  0  0
  8 39  1  0  0  0  0
  9 10  1  0  0  0  0
  9 40  1  0  0  0  0
  9 41  1  0  0  0  0
 10 11  1  0  0  0  0
 11 16  1  0  0  0  0
 11 12  2  0  0  0  0
 12 13  1  0  0  0  0
 13 14  2  0  0  0  0
 13 42  1  0  0  0  0
 14 15  1  0  0  0  0
 15 19  1  0  0  0  0
 15 16  2  0  0  0  0
 16 17  1  0  0  0  0
 17 18  2  0  0  0  0
 18 19  1  0  0  0  0
 18 43  1  0  0  0  0
 19 20  1  0  0  0  0
 20 21  1  0  0  0  0
 20 44  1  0  0  0  0
 20 45  1  0  0  0  0
 21 26  1  0  0  0  0
 21 22  1  0  0  0  0
 21 23  1  0  0  0  0
 22 46  1  0  0  0  0
 23 24  1  0  0  0  0
 23 47  1  0  0  0  0
 23 48  1  0  0  0  0
 24 25  1  0  0  0  0
 24 49  1  0  0  0  0
 24 50  1  0  0  0  0
 25 26  1  0  0  0  0
 26 27  1  0  0  0  0
 26 51  1  0  0  0  0
 27 52  1  0  0  0  0
 27 53  1  0  0  0  0
 27 54  1  0  0  0  0
M  END
> <s_m_source_file>
AV-unprocessed.smi

> <i_m_source_file_index>
197

> <i_lp_mmshare_version>
43012

> <i_f3d_flags>
0

> <s_epik_input>
W0NIM11PW0NIMl1bQ0gyXVtDQEBIXTFbQ0gyXU9bQ0gyXVtDSDJdTjFjKG5bY0hdbjIpYyhjMjMpbltjSF1uM1tDSDJdW0NAQF00KFtPSF0pW0NIMl1bQ0gyXU9bQ0BIXTRbQ0gzXQ==

> <s_epik_cmdline>
J2VwaWtfcHl0aG9uJywgJy1waCcsICc3LjAnLCAnLXRuJywgJzgnLCAnLW1hJywgJzIwMCcsICctbWV0YWxfYmluZGluZycsICctaW1hZScsICc8aW5maWxlLm1hZT4nLCAnLW9tYWUnLCAnPG91dGZpbGUubWFlPic=

> <r_lp_tautomer_probability>
1

> <r_epik_Ionization_Penalty>
0.000106218

> <r_epik_Ionization_Penalty_Charging>
0

> <r_epik_Ionization_Penalty_Neutral>
0.000106218

> <r_epik_State_Penalty>
-0

> <r_epik_Charging_Adjusted_Penalty>
0

> <i_epik_Tot_Q>
0

> <i_epik_Tot_abs_Q>
0

> <r_epik_Metal_State_Penalty>
-0

> <b_epik_Metal_Only>
0

> <s_lp_Force_Field>
OPLS_2005

> <r_lp_Energy>
43.0465

> <b_lp_Chiralities_Consistent>
1

> <s_lp_Variant>
AV-unprocessed.smi:197-2

> <Gold.Version>
5.8.1

> <Gold.Id.Protein>
6NUR|6NUR_protein|mol2

> <Gold.PLP.Fitness>
40.1714

> <Gold.PLP.PLP>
-37.2137

> <Gold.PLP.part.hbond>
-4.1497

> <Gold.PLP.part.metal>
0.0000

> <Gold.PLP.part.buried>
-5.5854

> <Gold.PLP.part.nonpolar>
-27.1646

> <Gold.PLP.part.repulsive>
0.1377

> <Gold.PLP.ligand.clash>
0.0000

> <Gold.PLP.ligand.torsion>
1.5954

> <Gold.PLP.Chemscore.Hbond>
1.8480

> <Gold.PLP.Chemscore.CHOScore>
0.0000

> <Gold.PLP.Chemscore.Metal>
0.0000

> <Gold.Chemscore.Hbonds>
donor molecule, donor type, donor heavy atom, donor atom, acceptor molecule, acceptor atom, score
      P1  H  6934  6947       L1    22  0.72
      P1  H  7989  7998       L1     7  1.00

> <Gold.PLP.Chemscore.Internal.Correction>
0.6046

> <Gold.Rescore>
     Score         DG    S(hbond)    S(metal)    S(lipo)     H(rot)  DE(clash)    DE(int)     intcor
     10.59     -13.41       1.59        0.00      84.48       2.84       0.03       2.79       ----

> <Gold.Chemscore.Fitness>
10.5920

> <Gold.Chemscore.DG>
-13.4116

> <Gold.Chemscore.ZeroCoef>
-5.4800

> <Gold.Chemscore.Hbond>
1.5891

> <Gold.Chemscore.Metal>
0.0000

> <Gold.Chemscore.Lipo>
84.4756

> <Gold.Chemscore.Internal_Hbond>
0.0000

> <Gold.Chemscore.DEClash>
0.0262

> <Gold.Chemscore.DEInternal>
2.7934

> <Gold.Chemscore.Rot>
2.8358

> <Gold.Chemscore.Internal.Correction>
   9.000000E+99

> <Gold.Chemscore.Hbonds>
donor molecule, donor type, donor heavy atom, donor atom, acceptor molecule, acceptor atom, score
      P1  H  6934  6947       L1    22  0.69
      P1  H  7989  7998       L1     7  0.49

> <Gold.Chemscore.Hbond.Weighted>
-5.3075

> <Gold.Chemscore.Metal.Weighted>
-0.0000

> <Gold.Chemscore.Lipo.Weighted>
-9.8836

> <Gold.Chemscore.Internal_Hbond.Weighted>
0.0000

> <Gold.Chemscore.DEClash.Weighted>
0.0262

> <Gold.Chemscore.DEInternal.Weighted>
2.7934

> <Gold.Chemscore.Rot.Weighted>
7.2596

> <Gold.Chemscore.Internal.Correction.Weighted>
   9.000000E+99

> <Gold.Protein.RotatedTorsions>
[ 6907 6896 6895 6894 ] final  164.57 input  -60.11 | X-H torsion
[ 7974 7965 7964 7962 ] final -143.27 input  175.53 | X-H torsion
[ 8008 7997 7996 7995 ] final -150.96 input   59.86 | X-H torsion
[ 10167 10162 10161 10158 ] final -100.80 input  -65.29 | X-H torsion
[ 10718 10713 10712 10709 ] final  -52.76 input   66.30 | X-H torsion
[ 10763 10752 10751 10750 ] final  126.84 input  -60.55 | X-H torsion
[ 11005 11000 10999 10996 ] final   21.42 input  -57.11 | X-H torsion

> <Gold.Protein.ActiveResidues>
 VAL166  LYS551  ARG553  GLY616  TRP617  ASP618  TYR619  PRO620  LYS621  CYS622 
 ASP623  PHE694  ASN695  SER759  ASP760  ASP761  ALA762  ILE779  LEU786  VAL792 
 PHE793  MET794  SER795  GLU796  ALA797  LYS798  CYS799  TRP800  GLU811  SER814 

> <Gold.Protein.RotatedAtoms>
  151.9078  133.3553  159.3852 H   0  0  0  0  0  0  0  0  0  0  0  0  # atno 6907 bound_to 6896
  150.7065  134.4763  159.5458 H   0  0  0  0  0  0  0  0  0  0  0  0  # atno 6908 bound_to 6896
  152.2363  134.8273  160.0517 H   0  0  0  0  0  0  0  0  0  0  0  0  # atno 6909 bound_to 6896
  144.8381  140.5855  143.5470 H   0  0  0  0  0  0  0  0  0  0  0  0  # atno 7974 bound_to 7965
  155.6318  140.0692  157.2646 H   0  0  0  0  0  0  0  0  0  0  0  0  # atno 8008 bound_to 7997
  154.4204  140.1766  156.1529 H   0  0  0  0  0  0  0  0  0  0  0  0  # atno 8009 bound_to 7997
  155.9927  140.3343  155.6772 H   0  0  0  0  0  0  0  0  0  0  0  0  # atno 8010 bound_to 7997
  140.2481  143.3492  152.0740 H   0  0  0  0  0  0  0  0  0  0  0  0  # atno 10167 bound_to 10162
  156.1593  130.4150  149.9818 H   0  0  0  0  0  0  0  0  0  0  0  0  # atno 10718 bound_to 10713
  153.6997  135.3285  155.3222 H   0  0  0  0  0  0  0  0  0  0  0  0  # atno 10763 bound_to 10752
  154.8416  135.4451  154.1423 H   0  0  0  0  0  0  0  0  0  0  0  0  # atno 10764 bound_to 10752
  153.2487  135.6979  153.7781 H   0  0  0  0  0  0  0  0  0  0  0  0  # atno 10765 bound_to 10752
  140.3917  134.1812  155.7662 H   0  0  0  0  0  0  0  0  0  0  0  0  # atno 11005 bound_to 11000
  145.4751  139.1500  143.3793 LP  0  0  0  0  0  0  0  0  0  0  0  0  # atno 17320 bound_to 7965
  146.2678  140.4885  142.8827 LP  0  0  0  0  0  0  0  0  0  0  0  0  # atno 17321 bound_to 7965
  139.5055  144.6796  151.6042 LP  0  0  0  0  0  0  0  0  0  0  0  0  # atno 17342 bound_to 10162
  140.6062  143.9520  150.6420 LP  0  0  0  0  0  0  0  0  0  0  0  0  # atno 17343 bound_to 10162
  156.7653  130.9166  151.3643 LP  0  0  0  0  0  0  0  0  0  0  0  0  # atno 17370 bound_to 10713
  157.6720  130.9059  150.0062 LP  0  0  0  0  0  0  0  0  0  0  0  0  # atno 17371 bound_to 10713
  141.1888  133.8252  157.0980 LP  0  0  0  0  0  0  0  0  0  0  0  0  # atno 17394 bound_to 11000
  140.0401  134.9858  157.0946 LP  0  0  0  0  0  0  0  0  0  0  0  0  # atno 17395 bound_to 11000

$$$$
