AV-unprocessed.smi:1419|AV-procd|sdf|5774|dock8
  -GOLD-   22720 5413D 1   1.00000     0.00000
 Structure written by MMmdl.
 42 43  0  0  0  0  0  0  0  0  2 V2000
  146.3711  131.0764  153.3785 C   0  0  0  0  0  0  0  0  0  0  0  0
  146.4705  132.6017  153.2456 C   0  0  2  0  0  0  0  0  0  0  0  0
  146.8485  133.0170  151.8069 C   0  0  0  0  0  0  0  0  0  0  0  0
  145.7310  132.9010  150.8635 N   0  0  0  0  0  0  0  0  0  0  0  0
  145.6750  132.1285  149.7314 C   0  0  0  0  0  0  0  0  0  0  0  0
  144.4498  132.3595  149.1611 C   0  0  0  0  0  0  0  0  0  0  0  0
  143.8079  133.2567  149.9721 N   0  3  0  0  0  0  0  0  0  0  0  0
  144.5865  133.5807  151.0096 C   0  0  0  0  0  0  0  0  0  0  0  0
  147.4572  133.0996  154.2028 N   0  0  0  0  0  0  0  0  0  0  0  0
  148.7558  132.7532  154.2494 C   0  0  0  0  0  0  0  0  0  0  0  0
  149.2712  132.0213  153.4031 O   0  0  0  0  0  0  0  0  0  0  0  0
  149.4412  133.2712  155.2979 N   0  0  0  0  0  0  0  0  0  0  0  0
  148.8657  133.7740  156.5524 C   0  0  0  0  0  0  0  0  0  0  0  0
  149.0845  132.7002  157.6372 C   0  0  2  0  0  0  0  0  0  0  0  0
  148.5587  133.1423  159.0068 C   0  0  0  0  0  0  0  0  0  0  0  0
  150.4829  132.4384  157.7584 O   0  0  0  0  0  0  0  0  0  0  0  0
  151.1012  132.0053  156.5461 C   0  0  2  0  0  0  0  0  0  0  0  0
  152.5866  131.7571  156.8268 C   0  0  0  0  0  0  0  0  0  0  0  0
  150.8833  133.0776  155.4591 C   0  0  0  0  0  0  0  0  0  0  0  0
  145.6307  130.6700  152.6887 H   0  0  0  0  0  0  0  0  0  0  0  0
  146.0718  130.7887  154.3868 H   0  0  0  0  0  0  0  0  0  0  0  0
  147.3256  130.5946  153.1634 H   0  0  0  0  0  0  0  0  0  0  0  0
  145.4859  133.0086  153.4829 H   0  0  0  0  0  0  0  0  0  0  0  0
  147.2044  134.0481  151.7836 H   0  0  0  0  0  0  0  0  0  0  0  0
  147.6606  132.3937  151.4299 H   0  0  0  0  0  0  0  0  0  0  0  0
  146.4929  131.4955  149.4190 H   0  0  0  0  0  0  0  0  0  0  0  0
  143.9990  131.9641  148.2626 H   0  0  0  0  0  0  0  0  0  0  0  0
  144.3438  134.2670  151.8013 H   0  0  0  0  0  0  0  0  0  0  0  0
  147.1158  133.7242  154.9191 H   0  0  0  0  0  0  0  0  0  0  0  0
  149.3681  134.7011  156.8329 H   0  0  0  0  0  0  0  0  0  0  0  0
  147.8076  134.0268  156.4824 H   0  0  0  0  0  0  0  0  0  0  0  0
  148.5756  131.7786  157.3497 H   0  0  0  0  0  0  0  0  0  0  0  0
  147.4870  133.3392  158.9712 H   0  0  0  0  0  0  0  0  0  0  0  0
  149.0557  134.0519  159.3453 H   0  0  0  0  0  0  0  0  0  0  0  0
  148.7297  132.3707  159.7577 H   0  0  0  0  0  0  0  0  0  0  0  0
  150.6438  131.0651  156.2320 H   0  0  0  0  0  0  0  0  0  0  0  0
  153.1016  131.4051  155.9326 H   0  0  0  0  0  0  0  0  0  0  0  0
  152.7154  131.0023  157.6029 H   0  0  0  0  0  0  0  0  0  0  0  0
  153.0827  132.6682  157.1624 H   0  0  0  0  0  0  0  0  0  0  0  0
  151.3732  132.7824  154.5299 H   0  0  0  0  0  0  0  0  0  0  0  0
  151.3478  134.0194  155.7548 H   0  0  0  0  0  0  0  0  0  0  0  0
  142.8795  133.6263  149.8109 H   0  0  0  0  0  0  0  0  0  0  0  0
  1  2  1  0  0  0  0
  1 20  1  0  0  0  0
  1 21  1  0  0  0  0
  1 22  1  0  0  0  0
  2  3  1  0  0  0  0
  2  9  1  0  0  0  0
  2 23  1  0  0  0  0
  3  4  1  0  0  0  0
  3 24  1  0  0  0  0
  3 25  1  0  0  0  0
  4  8  1  0  0  0  0
  4  5  1  0  0  0  0
  5  6  2  0  0  0  0
  5 26  1  0  0  0  0
  6  7  1  0  0  0  0
  6 27  1  0  0  0  0
  7  8  2  0  0  0  0
  7 42  1  0  0  0  0
  8 28  1  0  0  0  0
  9 10  1  0  0  0  0
  9 29  1  0  0  0  0
 10 11  2  0  0  0  0
 10 12  1  0  0  0  0
 12 19  1  0  0  0  0
 12 13  1  0  0  0  0
 13 14  1  0  0  0  0
 13 30  1  0  0  0  0
 13 31  1  0  0  0  0
 14 15  1  0  0  0  0
 14 16  1  0  0  0  0
 14 32  1  0  0  0  0
 15 33  1  0  0  0  0
 15 34  1  0  0  0  0
 15 35  1  0  0  0  0
 16 17  1  0  0  0  0
 17 18  1  0  0  0  0
 17 19  1  0  0  0  0
 17 36  1  0  0  0  0
 18 37  1  0  0  0  0
 18 38  1  0  0  0  0
 18 39  1  0  0  0  0
 19 40  1  0  0  0  0
 19 41  1  0  0  0  0
M  CHG  1   7   1
M  END
> <s_m_source_file>
AV-unprocessed.smi

> <i_m_source_file_index>
1419

> <i_lp_mmshare_version>
43012

> <i_f3d_flags>
0

> <s_epik_input>
W2NIXTFuW2NIXVtjSF1uMVtDSDJdW0NAQEhdKFtDSDNdKVtOSF1DKD1PKU4yW0NIMl1bQ0BASF0oW0NIM10pT1tDQEBIXShbQ0gzXSlbQ0gyXTI=

> <s_epik_cmdline>
J2VwaWtfcHl0aG9uJywgJy1waCcsICc3LjAnLCAnLXRuJywgJzgnLCAnLW1hJywgJzIwMCcsICctbWV0YWxfYmluZGluZycsICctaW1hZScsICc8aW5maWxlLm1hZT4nLCAnLW9tYWUnLCAnPG91dGZpbGUubWFlPic=

> <r_lp_tautomer_probability>
1

> <r_epik_Ionization_Penalty>
0.253607

> <r_epik_Ionization_Penalty_Charging>
0

> <r_epik_Ionization_Penalty_Neutral>
0.253607

> <r_epik_State_Penalty>
0.245018

> <r_epik_Charging_Adjusted_Penalty>
0.245018

> <i_epik_Tot_Q>
1

> <i_epik_Tot_abs_Q>
1

> <r_epik_Metal_State_Penalty>
0.535379

> <b_epik_Metal_Only>
0

> <s_lp_Force_Field>
OPLS_2005

> <r_lp_Energy>
29.0063

> <b_lp_Chiralities_Consistent>
1

> <s_lp_Variant>
AV-unprocessed.smi:1419-1

> <Gold.Version>
5.8.1

> <Gold.Id.Protein>
6NUR|6NUR_protein|mol2

> <Gold.PLP.Fitness>
40.5544

> <Gold.PLP.PLP>
-29.7723

> <Gold.PLP.part.hbond>
-1.9792

> <Gold.PLP.part.metal>
0.0000

> <Gold.PLP.part.buried>
-4.9117

> <Gold.PLP.part.nonpolar>
-23.1238

> <Gold.PLP.part.repulsive>
0.1952

> <Gold.PLP.ligand.clash>
0.0000

> <Gold.PLP.ligand.torsion>
0.2300

> <Gold.PLP.Chemscore.Hbond>
3.0000

> <Gold.PLP.Chemscore.CHOScore>
0.7247

> <Gold.PLP.Chemscore.Metal>
0.0000

> <Gold.Chemscore.Hbonds>
donor molecule, donor type, donor heavy atom, donor atom, acceptor molecule, acceptor atom, score
      L1  H     7    42       P1 10186  1.89
      P1  H  6896  6909       L1    16  1.00
      L1  C     5    26       P1 10747  0.62

> <Gold.PLP.Chemscore.Internal.Correction>
0.0679

> <Gold.Rescore>
     Score         DG    S(hbond)    S(metal)    S(lipo)     H(rot)  DE(clash)    DE(int)     intcor
     13.70     -14.98       1.95        0.00      61.00       1.63       0.00       1.28       ----

> <Gold.Chemscore.Fitness>
13.6982

> <Gold.Chemscore.DG>
-14.9763

> <Gold.Chemscore.ZeroCoef>
-5.4800

> <Gold.Chemscore.Hbond>
1.9537

> <Gold.Chemscore.Metal>
0.0000

> <Gold.Chemscore.Lipo>
60.9989

> <Gold.Chemscore.Internal_Hbond>
0.0000

> <Gold.Chemscore.DEClash>
0.0029

> <Gold.Chemscore.DEInternal>
1.2752

> <Gold.Chemscore.Rot>
1.6273

> <Gold.Chemscore.Internal.Correction>
   9.000000E+99

> <Gold.Chemscore.Hbonds>
donor molecule, donor type, donor heavy atom, donor atom, acceptor molecule, acceptor atom, score
      L1  H     7    42       P1 10186  0.90
      P1  H  6896  6909       L1    16  0.65

> <Gold.Chemscore.Hbond.Weighted>
-6.5252

> <Gold.Chemscore.Metal.Weighted>
-0.0000

> <Gold.Chemscore.Lipo.Weighted>
-7.1369

> <Gold.Chemscore.Internal_Hbond.Weighted>
0.0000

> <Gold.Chemscore.DEClash.Weighted>
0.0029

> <Gold.Chemscore.DEInternal.Weighted>
1.2752

> <Gold.Chemscore.Rot.Weighted>
4.1658

> <Gold.Chemscore.Internal.Correction.Weighted>
   9.000000E+99

> <Gold.Protein.RotatedTorsions>
[ 6907 6896 6895 6894 ] final  -27.84 input  -60.11 | X-H torsion
[ 7974 7965 7964 7962 ] final   65.02 input  175.53 | X-H torsion
[ 8008 7997 7996 7995 ] final   28.46 input   59.86 | X-H torsion
[ 10167 10162 10161 10158 ] final -125.44 input  -65.29 | X-H torsion
[ 10718 10713 10712 10709 ] final  -91.91 input   66.30 | X-H torsion
[ 10763 10752 10751 10750 ] final   27.51 input  -60.55 | X-H torsion
[ 11005 11000 10999 10996 ] final  -35.57 input  -57.11 | X-H torsion

> <Gold.Protein.ActiveResidues>
 VAL166  LYS551  ARG553  GLY616  TRP617  ASP618  TYR619  PRO620  LYS621  CYS622 
 ASP623  PHE694  ASN695  SER759  ASP760  ASP761  ALA762  ILE779  LEU786  VAL792 
 PHE793  MET794  SER795  GLU796  ALA797  LYS798  CYS799  TRP800  GLU811  SER814 

> <Gold.Protein.RotatedAtoms>
  151.1412  135.0180  159.8626 H   0  0  0  0  0  0  0  0  0  0  0  0  # atno 6907 bound_to 6896
  152.5452  134.1496  159.8523 H   0  0  0  0  0  0  0  0  0  0  0  0  # atno 6908 bound_to 6896
  151.1572  133.4823  159.2627 H   0  0  0  0  0  0  0  0  0  0  0  0  # atno 6909 bound_to 6896
  145.8434  139.3209  143.0918 H   0  0  0  0  0  0  0  0  0  0  0  0  # atno 7974 bound_to 7965
  155.0590  140.3188  155.4667 H   0  0  0  0  0  0  0  0  0  0  0  0  # atno 8008 bound_to 7997
  156.2817  140.2132  156.5661 H   0  0  0  0  0  0  0  0  0  0  0  0  # atno 8009 bound_to 7997
  154.7148  140.0495  157.0572 H   0  0  0  0  0  0  0  0  0  0  0  0  # atno 8010 bound_to 7997
  139.9821  143.5731  152.2374 H   0  0  0  0  0  0  0  0  0  0  0  0  # atno 10167 bound_to 10162
  155.9997  130.4966  150.5546 H   0  0  0  0  0  0  0  0  0  0  0  0  # atno 10718 bound_to 10713
  153.0551  135.6535  154.0597 H   0  0  0  0  0  0  0  0  0  0  0  0  # atno 10763 bound_to 10752
  154.0277  135.2914  155.3374 H   0  0  0  0  0  0  0  0  0  0  0  0  # atno 10764 bound_to 10752
  154.6862  135.5301  153.8396 H   0  0  0  0  0  0  0  0  0  0  0  0  # atno 10765 bound_to 10752
  140.9807  133.7058  156.1678 H   0  0  0  0  0  0  0  0  0  0  0  0  # atno 11005 bound_to 11000
  145.9439  140.8959  143.0293 LP  0  0  0  0  0  0  0  0  0  0  0  0  # atno 17320 bound_to 7965
  144.6732  140.1587  143.7424 LP  0  0  0  0  0  0  0  0  0  0  0  0  # atno 17321 bound_to 7965
  139.6402  144.7654  151.2354 LP  0  0  0  0  0  0  0  0  0  0  0  0  # atno 17342 bound_to 10162
  140.7485  143.6330  150.8405 LP  0  0  0  0  0  0  0  0  0  0  0  0  # atno 17343 bound_to 10162
  157.3464  131.0726  151.1748 LP  0  0  0  0  0  0  0  0  0  0  0  0  # atno 17370 bound_to 10713
  157.2579  130.6645  149.5961 LP  0  0  0  0  0  0  0  0  0  0  0  0  # atno 17371 bound_to 10713
  140.7191  134.4378  157.5576 LP  0  0  0  0  0  0  0  0  0  0  0  0  # atno 17394 bound_to 11000
  139.8949  134.8696  156.2157 LP  0  0  0  0  0  0  0  0  0  0  0  0  # atno 17395 bound_to 11000

$$$$
