AV-unprocessed.smi:1495|AV-procd|sdf|6053|dock9
  -GOLD-   22720 6173D 1   1.00000     0.00000
 Structure written by MMmdl.
 40 41  0  0  0  0  0  0  0  0  1 V2000
  149.8769  144.7025  160.4815 C   0  0  0  0  0  0  0  0  0  0  0  0
  150.9072  145.0398  159.3969 C   0  0  0  0  0  0  0  0  0  0  0  0
  151.7320  143.8216  158.9541 C   0  0  2  0  0  0  0  0  0  0  0  0
  150.9650  142.4980  159.1551 C   0  0  0  0  0  0  0  0  0  0  0  0
  151.8390  141.3914  158.7394 N   0  0  0  0  0  0  0  0  0  0  0  0
  151.7106  140.6328  157.6225 C   0  0  0  0  0  0  0  0  0  0  0  0
  152.6267  139.9520  157.1591 O   0  0  0  0  0  0  0  0  0  0  0  0
  150.4875  140.6515  157.0697 N   0  0  0  0  0  0  0  0  0  0  0  0
  150.1059  139.9117  155.8751 C   0  0  0  0  0  0  0  0  0  0  0  0
  148.8779  139.0343  156.1541 C   0  0  0  0  0  0  0  0  0  0  0  0
  147.6068  139.8275  156.1660 C   0  0  0  0  0  0  0  0  0  0  0  0
  146.8934  140.2558  155.0743 C   0  0  0  0  0  0  0  0  0  0  0  0
  145.4671  141.1425  155.5376 S   0  0  0  0  0  0  0  0  0  0  0  0
  145.8984  140.8931  157.2254 C   0  0  0  0  0  0  0  0  0  0  0  0
  145.0874  141.4090  158.3642 C   0  0  0  0  0  0  0  0  0  0  0  0
  147.0276  140.1983  157.3835 N   0  0  0  0  0  0  0  0  0  0  0  0
  153.0402  141.3607  159.5771 C   0  0  0  0  0  0  0  0  0  0  0  0
  153.7904  142.6910  159.3897 C   0  0  0  0  0  0  0  0  0  0  0  0
  152.9304  143.7767  159.7295 O   0  0  0  0  0  0  0  0  0  0  0  0
  149.3246  145.5930  160.7816 H   0  0  0  0  0  0  0  0  0  0  0  0
  150.3591  144.2948  161.3703 H   0  0  0  0  0  0  0  0  0  0  0  0
  149.1537  143.9683  160.1257 H   0  0  0  0  0  0  0  0  0  0  0  0
  150.4009  145.4758  158.5348 H   0  0  0  0  0  0  0  0  0  0  0  0
  151.5773  145.8097  159.7807 H   0  0  0  0  0  0  0  0  0  0  0  0
  151.9901  143.9336  157.8992 H   0  0  0  0  0  0  0  0  0  0  0  0
  150.7024  142.3709  160.2064 H   0  0  0  0  0  0  0  0  0  0  0  0
  150.0162  142.5350  158.6201 H   0  0  0  0  0  0  0  0  0  0  0  0
  149.7757  141.2180  157.5072 H   0  0  0  0  0  0  0  0  0  0  0  0
  149.8875  140.6125  155.0672 H   0  0  0  0  0  0  0  0  0  0  0  0
  150.9459  139.2950  155.5508 H   0  0  0  0  0  0  0  0  0  0  0  0
  148.8144  138.2464  155.4022 H   0  0  0  0  0  0  0  0  0  0  0  0
  149.0052  138.5250  157.1104 H   0  0  0  0  0  0  0  0  0  0  0  0
  147.1188  140.1023  154.0294 H   0  0  0  0  0  0  0  0  0  0  0  0
  144.9821  140.6410  159.1309 H   0  0  0  0  0  0  0  0  0  0  0  0
  144.0937  141.6979  158.0216 H   0  0  0  0  0  0  0  0  0  0  0  0
  145.5738  142.2802  158.8032 H   0  0  0  0  0  0  0  0  0  0  0  0
  152.7526  141.2341  160.6217 H   0  0  0  0  0  0  0  0  0  0  0  0
  153.6995  140.5237  159.3434 H   0  0  0  0  0  0  0  0  0  0  0  0
  154.6705  142.7229  160.0319 H   0  0  0  0  0  0  0  0  0  0  0  0
  154.1394  142.7997  158.3615 H   0  0  0  0  0  0  0  0  0  0  0  0
  1  2  1  0  0  0  0
  1 20  1  0  0  0  0
  1 21  1  0  0  0  0
  1 22  1  0  0  0  0
  2  3  1  0  0  0  0
  2 23  1  0  0  0  0
  2 24  1  0  0  0  0
  3 19  1  0  0  0  0
  3  4  1  0  0  0  0
  3 25  1  0  0  0  0
  4  5  1  0  0  0  0
  4 26  1  0  0  0  0
  4 27  1  0  0  0  0
  5  6  1  0  0  0  0
  5 17  1  0  0  0  0
  6  7  2  0  0  0  0
  6  8  1  0  0  0  0
  8  9  1  0  0  0  0
  8 28  1  0  0  0  0
  9 10  1  0  0  0  0
  9 29  1  0  0  0  0
  9 30  1  0  0  0  0
 10 11  1  0  0  0  0
 10 31  1  0  0  0  0
 10 32  1  0  0  0  0
 11 16  1  0  0  0  0
 11 12  2  0  0  0  0
 12 13  1  0  0  0  0
 12 33  1  0  0  0  0
 13 14  1  0  0  0  0
 14 15  1  0  0  0  0
 14 16  2  0  0  0  0
 15 34  1  0  0  0  0
 15 35  1  0  0  0  0
 15 36  1  0  0  0  0
 17 18  1  0  0  0  0
 17 37  1  0  0  0  0
 17 38  1  0  0  0  0
 18 19  1  0  0  0  0
 18 39  1  0  0  0  0
 18 40  1  0  0  0  0
M  END
> <s_m_source_file>
AV-unprocessed.smi

> <i_m_source_file_index>
1495

> <i_lp_mmshare_version>
43012

> <i_f3d_flags>
0

> <s_epik_input>
W0NIM11bQ0gyXVtDQEBIXTFbQ0gyXU4oW0NIMl1bQ0gyXU8xKUMoPU8pW05IXVtDSDJdW0NIMl1jMltjSF1zYyhuMilbQ0gzXQ==

> <s_epik_cmdline>
J2VwaWtfcHl0aG9uJywgJy1waCcsICc3LjAnLCAnLXRuJywgJzgnLCAnLW1hJywgJzIwMCcsICctbWV0YWxfYmluZGluZycsICctaW1hZScsICc8aW5maWxlLm1hZT4nLCAnLW9tYWUnLCAnPG91dGZpbGUubWFlPic=

> <r_epik_Ionization_Penalty>
0.00206013

> <r_epik_Ionization_Penalty_Charging>
0

> <r_epik_Ionization_Penalty_Neutral>
0.00206013

> <r_epik_State_Penalty>
0.00138662

> <r_epik_Charging_Adjusted_Penalty>
0.00138662

> <i_epik_Tot_Q>
0

> <i_epik_Tot_abs_Q>
0

> <r_epik_Metal_State_Penalty>
-0

> <b_epik_Metal_Only>
0

> <s_lp_Force_Field>
OPLS_2005

> <r_lp_Energy>
21.6891

> <b_lp_Chiralities_Consistent>
1

> <s_lp_Variant>
AV-unprocessed.smi:1495-1

> <Gold.Version>
5.8.1

> <Gold.Id.Protein>
6NUR|6NUR_protein|mol2

> <Gold.PLP.Fitness>
43.8010

> <Gold.PLP.PLP>
-39.5199

> <Gold.PLP.part.hbond>
-1.0000

> <Gold.PLP.part.metal>
0.0000

> <Gold.PLP.part.buried>
-6.3126

> <Gold.PLP.part.nonpolar>
-32.8533

> <Gold.PLP.part.repulsive>
0.1582

> <Gold.PLP.ligand.clash>
0.0000

> <Gold.PLP.ligand.torsion>
0.8861

> <Gold.PLP.Chemscore.Hbond>
1.0000

> <Gold.PLP.Chemscore.CHOScore>
1.0000

> <Gold.PLP.Chemscore.Metal>
0.0000

> <Gold.Chemscore.Hbonds>
donor molecule, donor type, donor heavy atom, donor atom, acceptor molecule, acceptor atom, score
      P1  H  7997  8008       L1     7  1.00

> <Gold.PLP.Chemscore.Internal.Correction>
0.0533

> <Gold.Rescore>
     Score         DG    S(hbond)    S(metal)    S(lipo)     H(rot)  DE(clash)    DE(int)     intcor
     15.69     -16.50       0.99        0.00      96.96       1.42       0.04       0.77       ----

> <Gold.Chemscore.Fitness>
15.6931

> <Gold.Chemscore.DG>
-16.5038

> <Gold.Chemscore.ZeroCoef>
-5.4800

> <Gold.Chemscore.Hbond>
0.9936

> <Gold.Chemscore.Metal>
0.0000

> <Gold.Chemscore.Lipo>
96.9582

> <Gold.Chemscore.Internal_Hbond>
0.0000

> <Gold.Chemscore.DEClash>
0.0360

> <Gold.Chemscore.DEInternal>
0.7748

> <Gold.Chemscore.Rot>
1.4214

> <Gold.Chemscore.Internal.Correction>
   9.000000E+99

> <Gold.Chemscore.Hbonds>
donor molecule, donor type, donor heavy atom, donor atom, acceptor molecule, acceptor atom, score
      P1  H  7997  8008       L1     7  1.00

> <Gold.Chemscore.Hbond.Weighted>
-3.3185

> <Gold.Chemscore.Metal.Weighted>
-0.0000

> <Gold.Chemscore.Lipo.Weighted>
-11.3441

> <Gold.Chemscore.Internal_Hbond.Weighted>
0.0000

> <Gold.Chemscore.DEClash.Weighted>
0.0360

> <Gold.Chemscore.DEInternal.Weighted>
0.7748

> <Gold.Chemscore.Rot.Weighted>
3.6388

> <Gold.Chemscore.Internal.Correction.Weighted>
   9.000000E+99

> <Gold.Protein.RotatedTorsions>
[ 6907 6896 6895 6894 ] final   83.86 input  -60.11 | X-H torsion
[ 7974 7965 7964 7962 ] final  147.07 input  175.53 | X-H torsion
[ 8008 7997 7996 7995 ] final  -60.13 input   59.86 | X-H torsion
[ 10167 10162 10161 10158 ] final   84.11 input  -65.29 | X-H torsion
[ 10718 10713 10712 10709 ] final  159.02 input   66.30 | X-H torsion
[ 10763 10752 10751 10750 ] final  109.12 input  -60.55 | X-H torsion
[ 11005 11000 10999 10996 ] final  -89.95 input  -57.11 | X-H torsion

> <Gold.Protein.ActiveResidues>
 VAL166  LYS551  ARG553  GLY616  TRP617  ASP618  TYR619  PRO620  LYS621  CYS622 
 ASP623  PHE694  ASN695  SER759  ASP760  ASP761  ALA762  ILE779  LEU786  VAL792 
 PHE793  MET794  SER795  GLU796  ALA797  LYS798  CYS799  TRP800  GLU811  SER814 

> <Gold.Protein.RotatedAtoms>
  152.5338  134.2830  159.9014 H   0  0  0  0  0  0  0  0  0  0  0  0  # atno 6907 bound_to 6896
  151.2783  133.4215  159.2633 H   0  0  0  0  0  0  0  0  0  0  0  0  # atno 6908 bound_to 6896
  151.0306  134.9551  159.8165 H   0  0  0  0  0  0  0  0  0  0  0  0  # atno 6909 bound_to 6896
  144.8621  139.5983  143.5926 H   0  0  0  0  0  0  0  0  0  0  0  0  # atno 7974 bound_to 7965
  154.4384  140.1046  156.6225 H   0  0  0  0  0  0  0  0  0  0  0  0  # atno 8008 bound_to 7997
  155.5692  140.3489  155.4492 H   0  0  0  0  0  0  0  0  0  0  0  0  # atno 8009 bound_to 7997
  156.0402  140.1280  157.0153 H   0  0  0  0  0  0  0  0  0  0  0  0  # atno 8010 bound_to 7997
  139.9114  144.6269  150.8533 H   0  0  0  0  0  0  0  0  0  0  0  0  # atno 10167 bound_to 10162
  157.1699  131.0607  151.2188 H   0  0  0  0  0  0  0  0  0  0  0  0  # atno 10718 bound_to 10713
  153.4302  135.3790  155.2166 H   0  0  0  0  0  0  0  0  0  0  0  0  # atno 10763 bound_to 10752
  154.8749  135.3838  154.4277 H   0  0  0  0  0  0  0  0  0  0  0  0  # atno 10764 bound_to 10752
  153.4808  135.7088  153.6002 H   0  0  0  0  0  0  0  0  0  0  0  0  # atno 10765 bound_to 10752
  141.1575  133.7662  156.9668 H   0  0  0  0  0  0  0  0  0  0  0  0  # atno 11005 bound_to 11000
  146.2868  139.7027  142.9190 LP  0  0  0  0  0  0  0  0  0  0  0  0  # atno 17320 bound_to 7965
  145.4293  141.0413  143.2920 LP  0  0  0  0  0  0  0  0  0  0  0  0  # atno 17321 bound_to 7965
  140.7684  143.3363  151.2303 LP  0  0  0  0  0  0  0  0  0  0  0  0  # atno 17342 bound_to 10162
  139.6939  143.9646  152.2873 LP  0  0  0  0  0  0  0  0  0  0  0  0  # atno 17343 bound_to 10162
  157.4053  130.7355  149.6797 LP  0  0  0  0  0  0  0  0  0  0  0  0  # atno 17370 bound_to 10713
  155.9740  130.4110  150.3958 LP  0  0  0  0  0  0  0  0  0  0  0  0  # atno 17371 bound_to 10713
  140.1156  134.9449  157.2129 LP  0  0  0  0  0  0  0  0  0  0  0  0  # atno 17394 bound_to 11000
  140.3137  134.2994  155.7261 LP  0  0  0  0  0  0  0  0  0  0  0  0  # atno 17395 bound_to 11000

$$$$
