#       Name:                AV-unprocessed.smi:906
#       Creating user name   scv26
#       Creation time:       Fri Mar 27 01:59:31 2020


#       File generated by GOLD software.
#

@<TRIPOS>MOLECULE
AV-unprocessed.smi:906
    51    52     1
SMALL
NO_CHARGES


@<TRIPOS>ATOM
      1 ****        -3.6470   1.4615  -4.4434 C.3            1 S1                 0.0000
      2 ****        -3.6970   1.1875  -2.9555 C.ar           1 S1                 0.0000
      3 ****        -3.2862   2.1402  -1.9987 C.ar           1 S1                 0.0000
      4 ****        -3.3551   1.8135  -0.6287 C.ar           1 S1                 0.0000
      5 ****        -3.8323   0.5414  -0.2426 C.ar           1 S1                 0.0000
      6 ****        -3.8846   0.1424   1.2220 C.3            1 S1                 0.0000
      7 ****        -2.7716  -0.8409   1.6341 C.3            1 S1                 0.0000
      8 ****        -1.4347  -0.2967   1.4064 N.am           1 S1                 0.0000
      9 ****        -0.6733  -0.5064   0.3180 C.2            1 S1                 0.0000
     10 ****        -1.0551  -1.1979  -0.6274 O.2            1 S1                 0.0000
     11 ****         0.5037   0.1654   0.3165 N.am           1 S1                 0.0000
     12 ****         1.1773   0.7547   1.4827 C.3            1 S1                 0.0000
     13 ****         2.4154  -0.0968   1.8245 C.3            1 S1                 0.0000
     14 ****         3.3260  -0.1496   0.6723 N.3            1 S1                 0.0000
     15 ****         4.6073  -0.8332   0.9185 C.3            1 S1                 0.0000
     16 ****         4.4542  -2.2605   1.4890 C.3            1 S1                 0.0000
     17 ****         5.5741   0.0364   1.7579 C.3            1 S1                 0.0000
     18 ****         5.6440   1.2686   1.2525 F              1 S1                 0.0000
     19 ****         5.2050   0.1122   3.0365 F              1 S1                 0.0000
     20 ****         6.7942  -0.4981   1.7094 F              1 S1                 0.0000
     21 ****         2.6415  -0.6873  -0.5098 C.3            1 S1                 0.0000
     22 ****         1.4054   0.1708  -0.8383 C.3            1 S1                 0.0000
     23 ****        -4.2362  -0.3676  -1.2440 C.ar           1 S1                 0.0000
     24 ****        -4.1530  -0.0174  -2.5457 N.pl3          1 S1                 1.0000
     25 ****        -3.2139   2.4412  -4.6480 H              1 S1                 0.0000
     26 ****        -4.6509   1.4371  -4.8682 H              1 S1                 0.0000
     27 ****        -3.0398   0.7098  -4.9485 H              1 S1                 0.0000
     28 ****        -2.9177   3.1076  -2.3077 H              1 S1                 0.0000
     29 ****        -3.0329   2.5284   0.1145 H              1 S1                 0.0000
     30 ****        -3.8292   1.0390   1.8410 H              1 S1                 0.0000
     31 ****        -4.8588  -0.3041   1.4245 H              1 S1                 0.0000
     32 ****        -2.8644  -1.0684   2.6962 H              1 S1                 0.0000
     33 ****        -2.8936  -1.7911   1.1113 H              1 S1                 0.0000
     34 ****        -1.0584   0.2971   2.1314 H              1 S1                 0.0000
     35 ****         1.4778   1.7770   1.2471 H              1 S1                 0.0000
     36 ****         0.5421   0.8334   2.3646 H              1 S1                 0.0000
     37 ****         2.9135   0.3422   2.6864 H              1 S1                 0.0000
     38 ****         2.1000  -1.1012   2.1087 H              1 S1                 0.0000
     39 ****         5.0851  -0.9301  -0.0574 H              1 S1                 0.0000
     40 ****         5.4236  -2.7561   1.5433 H              1 S1                 0.0000
     41 ****         3.8139  -2.8853   0.8675 H              1 S1                 0.0000
     42 ****         4.0423  -2.2546   2.4981 H              1 S1                 0.0000
     43 ****         3.3191  -0.6826  -1.3642 H              1 S1                 0.0000
     44 ****         2.3399  -1.7216  -0.3424 H              1 S1                 0.0000
     45 ****         0.9266  -0.2003  -1.7454 H              1 S1                 0.0000
     46 ****         1.7048   1.1962  -1.0612 H              1 S1                 0.0000
     47 ****        -4.6060  -1.3629  -1.0453 H              1 S1                 0.0000
     48 ****        -4.4427  -0.6950  -3.2513 H              1 S1                 0.0000
     49 ****        -1.9589  -1.6252  -0.6014 LP             1 S1                 0.0000
     50 ****        -0.4614  -1.3318  -1.4208 LP             1 S1                 0.0000
     51 ****         3.5843   0.8006   0.4977 LP             1 S1                 0.0000
@<TRIPOS>BOND
    1    1    2 1     
    2    1   25 1     
    3    1   26 1     
    4    1   27 1     
    5    2   24 ar    
    6    2    3 ar    
    7    3    4 ar    
    8    3   28 1     
    9    4    5 ar    
   10    4   29 1     
   11    5    6 1     
   12    5   23 ar    
   13    6    7 1     
   14    6   30 1     
   15    6   31 1     
   16    7    8 1     
   17    7   32 1     
   18    7   33 1     
   19    8    9 am    
   20    8   34 1     
   21    9   10 2     
   22    9   11 am    
   23   11   22 1     
   24   11   12 1     
   25   12   13 1     
   26   12   35 1     
   27   12   36 1     
   28   13   14 1     
   29   13   37 1     
   30   13   38 1     
   31   14   15 1     
   32   14   21 1     
   33   15   16 1     
   34   15   17 1     
   35   15   39 1     
   36   16   40 1     
   37   16   41 1     
   38   16   42 1     
   39   17   18 1     
   40   17   19 1     
   41   17   20 1     
   42   21   22 1     
   43   21   43 1     
   44   21   44 1     
   45   22   45 1     
   46   22   46 1     
   47   23   24 ar    
   48   23   47 1     
   49   24   48 1     
   50   10   49 1     
   51   10   50 1     
   52   14   51 1     
@<TRIPOS>SUBSTRUCTURE
      1 S1             1
@<TRIPOS>SET
LONE_PAIRS      STATIC     ATOMS    <user>   **** ""
3 49 50 51
DONOR_HYDROGENS      STATIC     ATOMS    <user>   **** ""
2 34 48
ATOM$BLUE        STATIC     ATOMS    COLORGROUP SYSTEM
3 49 50 51
ATOM$RED        STATIC     ATOMS    COLORGROUP SYSTEM
2 34 48
