#       Name:                AV-unprocessed.smi:830
#       Creating user name   scv26
#       Creation time:       Fri Mar 27 01:32:26 2020


#       File generated by GOLD software.
#

@<TRIPOS>MOLECULE
AV-unprocessed.smi:830
    58    60     1
SMALL
NO_CHARGES


@<TRIPOS>ATOM
      1 ****        -2.2953  -0.8485  -2.2506 C.3            1 S1                 0.0000
      2 ****        -1.8817  -0.5980  -0.7906 C.3            1 S1                 0.0000
      3 ****        -0.4225  -0.6420  -0.7169 N.am           1 S1                 0.0000
      4 ****         0.2857  -0.8609   0.4010 C.2            1 S1                 0.0000
      5 ****        -0.2301  -1.1009   1.4926 O.2            1 S1                 0.0000
      6 ****         1.6056  -0.7924   0.1583 N.am           1 S1                 0.0000
      7 ****         2.6960  -0.9807   1.0571 C.ar           1 S1                 0.0000
      8 ****         2.5647  -0.8000   2.4567 C.ar           1 S1                 0.0000
      9 ****         3.6738  -1.0263   3.2897 C.ar           1 S1                 0.0000
     10 ****         4.8821  -1.4237   2.6946 C.ar           1 S1                 0.0000
     11 ****         5.0309  -1.5796   1.3644 N.ar           1 S1                 0.0000
     12 ****         3.9740  -1.3497   0.5468 C.ar           1 S1                 0.0000
     13 ****         4.1956  -1.4940  -0.8417 N.3            1 S1                 0.0000
     14 ****         3.9670  -0.3229  -1.6832 C.3            1 S1                 0.0000
     15 ****         5.0530  -0.3462  -2.7641 C.3            1 S1                 0.0000
     16 ****         5.4962  -1.8053  -2.7969 C.3            1 S1                 0.0000
     17 ****         5.3644  -2.2165  -1.3332 C.3            1 S1                 0.0000
     18 ****        -2.3871   0.7936  -0.3796 C.2            1 S1                 0.0000
     19 ****        -1.8560   1.8105  -0.8293 O.2            1 S1                 0.0000
     20 ****        -3.4261   0.8199   0.4685 N.am           1 S1                 0.0000
     21 ****        -4.0551   2.0304   0.9892 C.3            1 S1                 0.0000
     22 ****        -4.8201   1.7330   2.2933 C.3            1 S1                 0.0000
     23 ****        -6.1990   2.3748   2.1308 C.3            1 S1                 0.0000
     24 ****        -6.4625   2.3255   0.6290 C.3            1 S1                 0.0000
     25 ****        -5.0949   2.5964   0.0013 C.3            1 S1                 0.0000
     26 ****        -3.3794  -0.8137  -2.3661 H              1 S1                 0.0000
     27 ****        -1.9662  -1.8333  -2.5837 H              1 S1                 0.0000
     28 ****        -1.8644  -0.1110  -2.9299 H              1 S1                 0.0000
     29 ****        -2.3161  -1.3685  -0.1502 H              1 S1                 0.0000
     30 ****         0.0808  -0.4549  -1.5716 H              1 S1                 0.0000
     31 ****         1.8680  -0.6648  -0.8081 H              1 S1                 0.0000
     32 ****         1.6385  -0.4841   2.9103 H              1 S1                 0.0000
     33 ****         3.5981  -0.9001   4.3594 H              1 S1                 0.0000
     34 ****         5.7555  -1.6130   3.3010 H              1 S1                 0.0000
     35 ****         2.9827  -0.4093  -2.1441 H              1 S1                 0.0000
     36 ****         3.9932   0.6068  -1.1126 H              1 S1                 0.0000
     37 ****         4.6983   0.0147  -3.7297 H              1 S1                 0.0000
     38 ****         5.8897   0.2829  -2.4569 H              1 S1                 0.0000
     39 ****         4.8117  -2.3895  -3.4136 H              1 S1                 0.0000
     40 ****         6.5054  -1.9380  -3.1878 H              1 S1                 0.0000
     41 ****         6.2643  -1.9195  -0.7934 H              1 S1                 0.0000
     42 ****         5.2390  -3.2941  -1.2241 H              1 S1                 0.0000
     43 ****        -3.8003  -0.0623   0.7866 H              1 S1                 0.0000
     44 ****        -3.2910   2.7855   1.1846 H              1 S1                 0.0000
     45 ****        -4.9440   0.6575   2.4313 H              1 S1                 0.0000
     46 ****        -4.2964   2.1107   3.1724 H              1 S1                 0.0000
     47 ****        -6.9700   1.8670   2.7112 H              1 S1                 0.0000
     48 ****        -6.1620   3.4135   2.4620 H              1 S1                 0.0000
     49 ****        -6.8052   1.3286   0.3485 H              1 S1                 0.0000
     50 ****        -7.2205   3.0418   0.3104 H              1 S1                 0.0000
     51 ****        -4.9496   3.6734  -0.0920 H              1 S1                 0.0000
     52 ****        -5.0162   2.1770  -1.0029 H              1 S1                 0.0000
     53 ****        -1.2258  -1.1403   1.5773 LP             1 S1                 0.0000
     54 ****         0.3465  -1.2565   2.2947 LP             1 S1                 0.0000
     55 ****         5.9116  -1.8619   0.9843 LP             1 S1                 0.0000
     56 ****         3.4340  -2.1330  -0.9498 LP             1 S1                 0.0000
     57 ****        -1.0897   1.7341  -1.4671 LP             1 S1                 0.0000
     58 ****        -2.1914   2.7122  -0.5564 LP             1 S1                 0.0000
@<TRIPOS>BOND
    1    1    2 1     
    2    1   26 1     
    3    1   27 1     
    4    1   28 1     
    5    2    3 1     
    6    2   18 1     
    7    2   29 1     
    8    3    4 am    
    9    3   30 1     
   10    4    5 2     
   11    4    6 am    
   12    6    7 1     
   13    6   31 1     
   14    7   12 ar    
   15    7    8 ar    
   16    8    9 ar    
   17    8   32 1     
   18    9   10 ar    
   19    9   33 1     
   20   10   11 ar    
   21   10   34 1     
   22   11   12 ar    
   23   12   13 1     
   24   13   17 1     
   25   13   14 1     
   26   14   15 1     
   27   14   35 1     
   28   14   36 1     
   29   15   16 1     
   30   15   37 1     
   31   15   38 1     
   32   16   17 1     
   33   16   39 1     
   34   16   40 1     
   35   17   41 1     
   36   17   42 1     
   37   18   19 2     
   38   18   20 am    
   39   20   21 1     
   40   20   43 1     
   41   21   25 1     
   42   21   22 1     
   43   21   44 1     
   44   22   23 1     
   45   22   45 1     
   46   22   46 1     
   47   23   24 1     
   48   23   47 1     
   49   23   48 1     
   50   24   25 1     
   51   24   49 1     
   52   24   50 1     
   53   25   51 1     
   54   25   52 1     
   55    5   53 1     
   56    5   54 1     
   57   11   55 1     
   58   13   56 1     
   59   19   57 1     
   60   19   58 1     
@<TRIPOS>SUBSTRUCTURE
      1 S1             1
@<TRIPOS>SET
LONE_PAIRS      STATIC     ATOMS    <user>   **** ""
6 53 54 55 56 57 58
DONOR_HYDROGENS      STATIC     ATOMS    <user>   **** ""
3 30 31 43
ATOM$BLUE        STATIC     ATOMS    COLORGROUP SYSTEM
6 53 54 55 56 57 58
ATOM$RED        STATIC     ATOMS    COLORGROUP SYSTEM
3 30 31 43
