#       Name:                AV-unprocessed.smi:229
#       Creating user name   scv26
#       Creation time:       Thu Mar 26 20:28:28 2020


#       File generated by GOLD software.
#

@<TRIPOS>MOLECULE
AV-unprocessed.smi:229
    70    74     1
SMALL
NO_CHARGES


@<TRIPOS>ATOM
      1 ****        -6.9939   1.2638   0.7135 C.3            1 S1                 0.0000
      2 ****        -5.6923   1.8471   0.1496 C.3            1 S1                 0.0000
      3 ****        -4.5609   0.8120   0.0638 C.3            1 S1                 0.0000
      4 ****        -3.2383   1.4451  -0.4008 C.3            1 S1                 0.0000
      5 ****        -2.2249   0.4089  -0.5625 N.3            1 S1                 0.0000
      6 ****        -0.9263   0.7863  -0.6687 C.ar           1 S1                 0.0000
      7 ****        -0.6145   2.0601  -1.0293 N.ar           1 S1                 0.0000
      8 ****         0.6630   2.4360  -1.1430 C.ar           1 S1                 0.0000
      9 ****         1.7671   1.7136  -0.9430 N.ar           1 S1                 0.0000
     10 ****         1.4607   0.4377  -0.5723 C.ar           1 S1                 0.0000
     11 ****         0.1542  -0.1046  -0.4132 C.ar           1 S1                 0.0000
     12 ****         0.2401  -1.4340  -0.0145 N.2            1 S1                 0.0000
     13 ****         1.5229  -1.6656   0.0504 C.2            1 S1                 0.0000
     14 ****         2.3281  -0.5952  -0.2663 N.pl3          1 S1                 0.0000
     15 ****         3.7802  -0.5665  -0.2695 C.3            1 S1                 0.0000
     16 ****         4.3562   0.1379   0.9747 C.3            1 S1                 0.0000
     17 ****         3.9163  -0.5373   2.1383 O.3            1 S1                 0.0000
     18 ****         5.8958   0.1661   0.9704 C.3            1 S1                 0.0000
     19 ****         6.5204   0.9167   2.1484 C.3            1 S1                 0.0000
     20 ****         7.8694   1.3736   1.6141 C.3            1 S1                 0.0000
     21 ****         7.7588   1.1719   0.1007 C.3            1 S1                 0.0000
     22 ****         6.3835   0.9084  -0.1365 O.3            1 S1                 0.0000
     23 ****        -2.6368  -0.6542  -1.4718 C.3            1 S1                 0.0000
     24 ****        -3.9926  -1.2547  -1.0381 C.3            1 S1                 0.0000
     25 ****        -3.8971  -2.1372   0.2118 C.3            1 S1                 0.0000
     26 ****        -3.9539  -3.5547  -0.3394 C.3            1 S1                 0.0000
     27 ****        -4.8700  -3.4230  -1.4098 O.3            1 S1                 0.0000
     28 ****        -4.5343  -2.2287  -2.1020 C.3            1 S1                 0.0000
     29 ****        -4.9457  -0.2011  -0.8674 O.3            1 S1                 0.0000
     30 ****        -7.7678   2.0292   0.7743 H              1 S1                 0.0000
     31 ****        -6.8439   0.8615   1.7156 H              1 S1                 0.0000
     32 ****        -7.3727   0.4591   0.0827 H              1 S1                 0.0000
     33 ****        -5.8804   2.2708  -0.8376 H              1 S1                 0.0000
     34 ****        -5.3759   2.6758   0.7843 H              1 S1                 0.0000
     35 ****        -4.4173   0.3727   1.0519 H              1 S1                 0.0000
     36 ****        -3.3800   1.9645  -1.3499 H              1 S1                 0.0000
     37 ****        -2.9081   2.1840   0.3307 H              1 S1                 0.0000
     38 ****         0.8236   3.4628  -1.4367 H              1 S1                 0.0000
     39 ****         1.9192  -2.6281   0.3396 H              1 S1                 0.0000
     40 ****         4.1505  -1.5906  -0.3356 H              1 S1                 0.0000
     41 ****         4.1063  -0.0584  -1.1779 H              1 S1                 0.0000
     42 ****         3.9768   1.1600   1.0165 H              1 S1                 0.0000
     43 ****         4.2577  -1.4183   2.1206 H              1 S1                 0.0000
     44 ****         6.2977  -0.8479   0.9185 H              1 S1                 0.0000
     45 ****         5.9169   1.7891   2.4036 H              1 S1                 0.0000
     46 ****         6.6065   0.2971   3.0416 H              1 S1                 0.0000
     47 ****         8.0532   2.4180   1.8686 H              1 S1                 0.0000
     48 ****         8.6866   0.7790   2.0237 H              1 S1                 0.0000
     49 ****         8.0968   2.0405  -0.4648 H              1 S1                 0.0000
     50 ****         8.3486   0.3099  -0.2147 H              1 S1                 0.0000
     51 ****        -2.7255  -0.2281  -2.4721 H              1 S1                 0.0000
     52 ****        -1.8884  -1.4434  -1.5363 H              1 S1                 0.0000
     53 ****        -3.0042  -1.9553   0.8112 H              1 S1                 0.0000
     54 ****        -4.7651  -1.9779   0.8530 H              1 S1                 0.0000
     55 ****        -2.9805  -3.8702  -0.7183 H              1 S1                 0.0000
     56 ****        -4.2941  -4.2823   0.3977 H              1 S1                 0.0000
     57 ****        -5.4001  -1.8347  -2.6351 H              1 S1                 0.0000
     58 ****        -3.7718  -2.4665  -2.8455 H              1 S1                 0.0000
     59 ****        -2.1939   0.0067   0.3526 LP             1 S1                 0.0000
     60 ****        -1.3448   2.7188  -1.2102 LP             1 S1                 0.0000
     61 ****         2.6980   2.0626  -1.0509 LP             1 S1                 0.0000
     62 ****        -0.5093  -2.0674   0.1784 LP             1 S1                 0.0000
     63 ****         2.9168  -0.5631   2.1559 LP             1 S1                 0.0000
     64 ****         4.2518  -0.0617   2.9515 LP             1 S1                 0.0000
     65 ****         5.8802   1.7685  -0.2195 LP             1 S1                 0.0000
     66 ****         6.2774   0.3776  -0.9773 LP             1 S1                 0.0000
     67 ****        -5.8038  -3.3641  -1.0568 LP             1 S1                 0.0000
     68 ****        -4.7948  -4.2084  -2.0242 LP             1 S1                 0.0000
     69 ****        -5.0916   0.2330  -1.7563 LP             1 S1                 0.0000
     70 ****        -5.8030  -0.6060  -0.5494 LP             1 S1                 0.0000
@<TRIPOS>BOND
    1    1    2 1     
    2    1   30 1     
    3    1   31 1     
    4    1   32 1     
    5    2    3 1     
    6    2   33 1     
    7    2   34 1     
    8    3   29 1     
    9    3    4 1     
   10    3   35 1     
   11    4    5 1     
   12    4   36 1     
   13    4   37 1     
   14    5    6 1     
   15    5   23 1     
   16    6   11 ar    
   17    6    7 ar    
   18    7    8 ar    
   19    8    9 ar    
   20    8   38 1     
   21    9   10 ar    
   22   10   14 1     
   23   10   11 ar    
   24   11   12 1     
   25   12   13 2     
   26   13   14 1     
   27   13   39 1     
   28   14   15 1     
   29   15   16 1     
   30   15   40 1     
   31   15   41 1     
   32   16   17 1     
   33   16   18 1     
   34   16   42 1     
   35   17   43 1     
   36   18   22 1     
   37   18   19 1     
   38   18   44 1     
   39   19   20 1     
   40   19   45 1     
   41   19   46 1     
   42   20   21 1     
   43   20   47 1     
   44   20   48 1     
   45   21   22 1     
   46   21   49 1     
   47   21   50 1     
   48   23   24 1     
   49   23   51 1     
   50   23   52 1     
   51   24   28 1     
   52   24   25 1     
   53   24   29 1     
   54   25   26 1     
   55   25   53 1     
   56   25   54 1     
   57   26   27 1     
   58   26   55 1     
   59   26   56 1     
   60   27   28 1     
   61   28   57 1     
   62   28   58 1     
   63    5   59 1     
   64    7   60 1     
   65    9   61 1     
   66   12   62 1     
   67   17   63 1     
   68   17   64 1     
   69   22   65 1     
   70   22   66 1     
   71   27   67 1     
   72   27   68 1     
   73   29   69 1     
   74   29   70 1     
@<TRIPOS>SUBSTRUCTURE
      1 S1             1
@<TRIPOS>SET
LONE_PAIRS      STATIC     ATOMS    <user>   **** ""
12 59 60 61 62 63 64 65 66 67 68 69 70
DONOR_HYDROGENS      STATIC     ATOMS    <user>   **** ""
1 43
ATOM$BLUE        STATIC     ATOMS    COLORGROUP SYSTEM
12 59 60 61 62 63 64 65 66 67 68 69 70
ATOM$RED        STATIC     ATOMS    COLORGROUP SYSTEM
1 43
