AV-unprocessed.smi:1990|AV-procd|sdf|8062|dock3
  -GOLD-   2272010263D 1   1.00000     0.00000
 Structure written by MMmdl.
 46 47  0  0  0  0  0  0  0  0  1 V2000
  149.8228  142.4203  156.8674 C   0  0  0  0  0  0  0  0  0  0  0  0
  151.1676  142.6733  157.5559 C   0  0  2  0  0  0  0  0  0  0  0  0
  151.6193  141.4708  158.4070 C   0  0  0  0  0  0  0  0  0  0  0  0
  152.8494  141.7954  159.1173 N   0  0  0  0  0  0  0  0  0  0  0  0
  153.3938  140.7110  159.8198 C   0  0  0  0  0  0  0  0  0  0  0  0
  154.5399  140.9175  160.6144 C   0  0  0  0  0  0  0  0  0  0  0  0
  155.0835  139.8274  161.3207 C   0  0  0  0  0  0  0  0  0  0  0  0
  154.4561  138.5631  161.2157 C   0  0  0  0  0  0  0  0  0  0  0  0
  154.9181  137.3843  161.8602 N   0  0  0  0  0  0  0  0  0  0  0  0
  154.5414  136.1092  161.6488 C   0  0  0  0  0  0  0  0  0  0  0  0
  153.7396  135.7555  160.7845 O   0  0  0  0  0  0  0  0  0  0  0  0
  155.2083  135.0597  162.5490 C   0  0  2  0  0  0  0  0  0  0  0  0
  154.5741  133.6696  162.3770 C   0  0  0  0  0  0  0  0  0  0  0  0
  155.1025  135.5881  164.3232 S   0  0  0  0  0  0  0  0  0  0  0  0
  154.2864  134.1511  165.1379 C   0  0  0  0  0  0  0  0  0  0  0  0
  156.4631  135.7086  164.8695 O   0  0  0  0  0  0  0  0  0  0  0  0
  154.1903  136.7392  164.4021 O   0  0  0  0  0  0  0  0  0  0  0  0
  153.3241  138.4600  160.3810 C   0  0  0  0  0  0  0  0  0  0  0  0
  152.7974  139.5008  159.7020 N   0  0  0  0  0  0  0  0  0  0  0  0
  152.7241  143.0053  159.9200 C   0  0  0  0  0  0  0  0  0  0  0  0
  152.2511  144.1777  159.0391 C   0  0  2  0  0  0  0  0  0  0  0  0
  152.0055  145.4501  159.8565 C   0  0  0  0  0  0  0  0  0  0  0  0
  151.0296  143.8154  158.3987 O   0  0  0  0  0  0  0  0  0  0  0  0
  149.8774  141.5571  156.2039 H   0  0  0  0  0  0  0  0  0  0  0  0
  149.5246  143.2815  156.2687 H   0  0  0  0  0  0  0  0  0  0  0  0
  149.0347  142.2331  157.5976 H   0  0  0  0  0  0  0  0  0  0  0  0
  151.9165  142.8834  156.7901 H   0  0  0  0  0  0  0  0  0  0  0  0
  150.8399  141.2058  159.1231 H   0  0  0  0  0  0  0  0  0  0  0  0
  151.7823  140.6000  157.7704 H   0  0  0  0  0  0  0  0  0  0  0  0
  154.9996  141.8929  160.6797 H   0  0  0  0  0  0  0  0  0  0  0  0
  155.9727  139.9804  161.9119 H   0  0  0  0  0  0  0  0  0  0  0  0
  155.6592  137.5224  162.5320 H   0  0  0  0  0  0  0  0  0  0  0  0
  156.2675  134.9893  162.2984 H   0  0  0  0  0  0  0  0  0  0  0  0
  154.5796  133.3567  161.3322 H   0  0  0  0  0  0  0  0  0  0  0  0
  153.5414  133.6533  162.7276 H   0  0  0  0  0  0  0  0  0  0  0  0
  155.1250  132.9203  162.9455 H   0  0  0  0  0  0  0  0  0  0  0  0
  154.0948  134.3926  166.1832 H   0  0  0  0  0  0  0  0  0  0  0  0
  154.9354  133.2770  165.0896 H   0  0  0  0  0  0  0  0  0  0  0  0
  153.3419  133.9350  164.6395 H   0  0  0  0  0  0  0  0  0  0  0  0
  152.8203  137.5125  160.2563 H   0  0  0  0  0  0  0  0  0  0  0  0
  152.0127  142.8372  160.7300 H   0  0  0  0  0  0  0  0  0  0  0  0
  153.6852  143.2428  160.3778 H   0  0  0  0  0  0  0  0  0  0  0  0
  153.0029  144.3930  158.2777 H   0  0  0  0  0  0  0  0  0  0  0  0
  152.9153  145.7730  160.3631 H   0  0  0  0  0  0  0  0  0  0  0  0
  151.2383  145.2896  160.6146 H   0  0  0  0  0  0  0  0  0  0  0  0
  151.6743  146.2670  159.2149 H   0  0  0  0  0  0  0  0  0  0  0  0
  1  2  1  0  0  0  0
  1 24  1  0  0  0  0
  1 25  1  0  0  0  0
  1 26  1  0  0  0  0
  2 23  1  0  0  0  0
  2  3  1  0  0  0  0
  2 27  1  0  0  0  0
  3  4  1  0  0  0  0
  3 28  1  0  0  0  0
  3 29  1  0  0  0  0
  4  5  1  0  0  0  0
  4 20  1  0  0  0  0
  5 19  1  0  0  0  0
  5  6  2  0  0  0  0
  6  7  1  0  0  0  0
  6 30  1  0  0  0  0
  7  8  2  0  0  0  0
  7 31  1  0  0  0  0
  8  9  1  0  0  0  0
  8 18  1  0  0  0  0
  9 10  1  0  0  0  0
  9 32  1  0  0  0  0
 10 11  2  0  0  0  0
 10 12  1  0  0  0  0
 12 13  1  0  0  0  0
 12 14  1  0  0  0  0
 12 33  1  0  0  0  0
 13 34  1  0  0  0  0
 13 35  1  0  0  0  0
 13 36  1  0  0  0  0
 14 15  1  0  0  0  0
 14 16  2  0  0  0  0
 14 17  2  0  0  0  0
 15 37  1  0  0  0  0
 15 38  1  0  0  0  0
 15 39  1  0  0  0  0
 18 19  2  0  0  0  0
 18 40  1  0  0  0  0
 20 21  1  0  0  0  0
 20 41  1  0  0  0  0
 20 42  1  0  0  0  0
 21 22  1  0  0  0  0
 21 23  1  0  0  0  0
 21 43  1  0  0  0  0
 22 44  1  0  0  0  0
 22 45  1  0  0  0  0
 22 46  1  0  0  0  0
M  END
> <s_m_source_file>
AV-unprocessed.smi

> <i_m_source_file_index>
1990

> <i_lp_mmshare_version>
43012

> <i_f3d_flags>
0

> <s_epik_input>
W0NIM11bQ0BASF0xW0NIMl1OKFtDSDJdW0NASF0oTzEpW0NIM10pYzJbY0hdW2NIXWMoW2NIXW4yKVtOSF1DKD1PKVtDQEhdKFtDSDNdKVMoPU8pKD1PKVtDSDNd

> <s_epik_cmdline>
J2VwaWtfcHl0aG9uJywgJy1waCcsICc3LjAnLCAnLXRuJywgJzgnLCAnLW1hJywgJzIwMCcsICctbWV0YWxfYmluZGluZycsICctaW1hZScsICc8aW5maWxlLm1hZT4nLCAnLW9tYWUnLCAnPG91dGZpbGUubWFlPic=

> <r_lp_tautomer_probability>
1

> <r_epik_Ionization_Penalty>
0.000334888

> <r_epik_Ionization_Penalty_Charging>
0

> <r_epik_Ionization_Penalty_Neutral>
0.000334888

> <r_epik_State_Penalty>
0.000200905

> <r_epik_Charging_Adjusted_Penalty>
0.000200905

> <i_epik_Tot_Q>
0

> <i_epik_Tot_abs_Q>
0

> <r_epik_Metal_State_Penalty>
-0

> <b_epik_Metal_Only>
0

> <s_lp_Force_Field>
OPLS_2005

> <r_lp_Energy>
20.1561

> <b_lp_Chiralities_Consistent>
1

> <s_lp_Variant>
AV-unprocessed.smi:1990-2

> <Gold.Version>
5.8.1

> <Gold.Id.Protein>
6NUR|6NUR_protein|mol2

> <Gold.PLP.Fitness>
43.0027

> <Gold.PLP.PLP>
-40.7444

> <Gold.PLP.part.hbond>
-1.0000

> <Gold.PLP.part.metal>
0.0000

> <Gold.PLP.part.buried>
-4.3367

> <Gold.PLP.part.nonpolar>
-35.9437

> <Gold.PLP.part.repulsive>
0.3026

> <Gold.PLP.ligand.clash>
0.0000

> <Gold.PLP.ligand.torsion>
0.5057

> <Gold.PLP.Chemscore.Hbond>
1.0000

> <Gold.PLP.Chemscore.CHOScore>
0.0000

> <Gold.PLP.Chemscore.Metal>
0.0000

> <Gold.Chemscore.Hbonds>
donor molecule, donor type, donor heavy atom, donor atom, acceptor molecule, acceptor atom, score
      P1  H  6896  6908       L1    11  1.00

> <Gold.PLP.Chemscore.Internal.Correction>
0.2697

> <Gold.Rescore>
     Score         DG    S(hbond)    S(metal)    S(lipo)     H(rot)  DE(clash)    DE(int)     intcor
     13.06     -16.70       0.99        0.00     100.83       1.52       0.15       3.50       ----

> <Gold.Chemscore.Fitness>
13.0586

> <Gold.Chemscore.DG>
-16.7038

> <Gold.Chemscore.ZeroCoef>
-5.4800

> <Gold.Chemscore.Hbond>
0.9916

> <Gold.Chemscore.Metal>
0.0000

> <Gold.Chemscore.Lipo>
100.8303

> <Gold.Chemscore.Internal_Hbond>
0.0000

> <Gold.Chemscore.DEClash>
0.1461

> <Gold.Chemscore.DEInternal>
3.4991

> <Gold.Chemscore.Rot>
1.5177

> <Gold.Chemscore.Internal.Correction>
   9.000000E+99

> <Gold.Chemscore.Hbonds>
donor molecule, donor type, donor heavy atom, donor atom, acceptor molecule, acceptor atom, score
      P1  H  6896  6908       L1    11  0.99

> <Gold.Chemscore.Hbond.Weighted>
-3.3119

> <Gold.Chemscore.Metal.Weighted>
-0.0000

> <Gold.Chemscore.Lipo.Weighted>
-11.7971

> <Gold.Chemscore.Internal_Hbond.Weighted>
0.0000

> <Gold.Chemscore.DEClash.Weighted>
0.1461

> <Gold.Chemscore.DEInternal.Weighted>
3.4991

> <Gold.Chemscore.Rot.Weighted>
3.8853

> <Gold.Chemscore.Internal.Correction.Weighted>
   9.000000E+99

> <Gold.Protein.RotatedTorsions>
[ 6907 6896 6895 6894 ] final  -73.33 input  -60.11 | X-H torsion
[ 7974 7965 7964 7962 ] final  -13.35 input  175.53 | X-H torsion
[ 8008 7997 7996 7995 ] final    3.80 input   59.86 | X-H torsion
[ 10167 10162 10161 10158 ] final -161.22 input  -65.29 | X-H torsion
[ 10718 10713 10712 10709 ] final  -18.31 input   66.30 | X-H torsion
[ 10763 10752 10751 10750 ] final -139.13 input  -60.55 | X-H torsion
[ 11005 11000 10999 10996 ] final  133.30 input  -57.11 | X-H torsion

> <Gold.Protein.ActiveResidues>
 VAL166  LYS551  ARG553  GLY616  TRP617  ASP618  TYR619  PRO620  LYS621  CYS622 
 ASP623  PHE694  ASN695  SER759  ASP760  ASP761  ALA762  ILE779  LEU786  VAL792 
 PHE793  MET794  SER795  GLU796  ALA797  LYS798  CYS799  TRP800  GLU811  SER814 

> <Gold.Protein.RotatedAtoms>
  150.7134  134.5032  159.5571 H   0  0  0  0  0  0  0  0  0  0  0  0  # atno 6907 bound_to 6896
  152.2625  134.8016  160.0437 H   0  0  0  0  0  0  0  0  0  0  0  0  # atno 6908 bound_to 6896
  151.8725  133.3443  159.3776 H   0  0  0  0  0  0  0  0  0  0  0  0  # atno 6909 bound_to 6896
  146.2117  140.3191  142.8389 H   0  0  0  0  0  0  0  0  0  0  0  0  # atno 7974 bound_to 7965
  154.7081  140.2687  155.6655 H   0  0  0  0  0  0  0  0  0  0  0  0  # atno 8008 bound_to 7997
  156.2786  140.2759  156.1637 H   0  0  0  0  0  0  0  0  0  0  0  0  # atno 8009 bound_to 7997
  155.0672  140.0372  157.2586 H   0  0  0  0  0  0  0  0  0  0  0  0  # atno 8010 bound_to 7997
  139.6481  144.0134  152.2142 H   0  0  0  0  0  0  0  0  0  0  0  0  # atno 10167 bound_to 10162
  156.5614  130.4726  149.6405 H   0  0  0  0  0  0  0  0  0  0  0  0  # atno 10718 bound_to 10713
  154.8618  135.3591  154.5496 H   0  0  0  0  0  0  0  0  0  0  0  0  # atno 10763 bound_to 10752
  153.6115  135.7009  153.5350 H   0  0  0  0  0  0  0  0  0  0  0  0  # atno 10764 bound_to 10752
  153.3205  135.4152  155.1373 H   0  0  0  0  0  0  0  0  0  0  0  0  # atno 10765 bound_to 10752
  139.9843  134.9537  156.9705 H   0  0  0  0  0  0  0  0  0  0  0  0  # atno 11005 bound_to 11000
  144.8933  140.7551  143.5913 LP  0  0  0  0  0  0  0  0  0  0  0  0  # atno 17320 bound_to 7965
  145.3114  139.1817  143.4637 LP  0  0  0  0  0  0  0  0  0  0  0  0  # atno 17321 bound_to 7965
  139.9841  144.6408  150.7874 LP  0  0  0  0  0  0  0  0  0  0  0  0  # atno 17342 bound_to 10162
  140.7525  143.2991  151.3128 LP  0  0  0  0  0  0  0  0  0  0  0  0  # atno 17343 bound_to 10162
  156.2796  130.7063  151.1883 LP  0  0  0  0  0  0  0  0  0  0  0  0  # atno 17370 bound_to 10713
  157.7368  131.0559  150.5395 LP  0  0  0  0  0  0  0  0  0  0  0  0  # atno 17371 bound_to 10713
  140.5033  134.1075  155.7255 LP  0  0  0  0  0  0  0  0  0  0  0  0  # atno 17394 bound_to 11000
  141.1511  133.8968  157.2096 LP  0  0  0  0  0  0  0  0  0  0  0  0  # atno 17395 bound_to 11000

$$$$
