#       Name:                AV-unprocessed.smi:1019
#       Creating user name   scv26
#       Creation time:       Fri Mar 27 02:42:04 2020


#       File generated by GOLD software.
#

@<TRIPOS>MOLECULE
AV-unprocessed.smi:1019
    47    49     1
SMALL
NO_CHARGES


@<TRIPOS>ATOM
      1 ****        -1.1990   3.2109  -0.7817 C.3            1 S1                 0.0000
      2 ****        -0.7574   1.8218  -0.6926 N.3            1 S1                 0.0000
      3 ****        -1.4026   0.9974  -1.7187 C.3            1 S1                 0.0000
      4 ****        -2.9088   0.8819  -1.5570 C.ar           1 S1                 0.0000
      5 ****        -3.4515   0.2449  -0.4211 C.ar           1 S1                 0.0000
      6 ****        -4.8476   0.1382  -0.2688 C.ar           1 S1                 0.0000
      7 ****        -5.7059   0.6670  -1.2522 C.ar           1 S1                 0.0000
      8 ****        -5.1675   1.3018  -2.3883 C.ar           1 S1                 0.0000
      9 ****        -3.7713   1.4085  -2.5414 C.ar           1 S1                 0.0000
     10 ****         0.7030   1.7553  -0.7736 C.3            1 S1                 0.0000
     11 ****         1.3230   0.3838  -0.4283 C.3            1 S1                 0.0000
     12 ****         1.5544  -0.3350  -1.6253 O.3            1 S1                 0.0000
     13 ****         2.6628   0.5294   0.3201 C.3            1 S1                 0.0000
     14 ****         3.2509  -0.7532   0.6642 N.pl3          1 S1                 0.0000
     15 ****         4.2902  -1.3618   0.0609 C.2            1 S1                 0.0000
     16 ****         4.6679  -2.5426   0.5428 N.2            1 S1                 0.0000
     17 ****         3.7724  -2.7193   1.5836 C.ar           1 S1                 0.0000
     18 ****         3.6341  -3.7817   2.5054 C.ar           1 S1                 0.0000
     19 ****         2.6307  -3.7419   3.4960 C.ar           1 S1                 0.0000
     20 ****         1.7522  -2.6422   3.5806 C.ar           1 S1                 0.0000
     21 ****         1.8708  -1.5716   2.6737 C.ar           1 S1                 0.0000
     22 ****         2.8727  -1.6157   1.6867 C.ar           1 S1                 0.0000
     23 ****        -0.7314   3.8174  -0.0054 H              1 S1                 0.0000
     24 ****        -2.2776   3.2935  -0.6462 H              1 S1                 0.0000
     25 ****        -0.9438   3.6440  -1.7497 H              1 S1                 0.0000
     26 ****        -1.1652   1.3802  -2.7124 H              1 S1                 0.0000
     27 ****        -1.0157  -0.0203  -1.6822 H              1 S1                 0.0000
     28 ****        -2.7966  -0.1609   0.3361 H              1 S1                 0.0000
     29 ****        -5.2598  -0.3488   0.6027 H              1 S1                 0.0000
     30 ****        -6.7764   0.5858  -1.1350 H              1 S1                 0.0000
     31 ****        -5.8255   1.7072  -3.1427 H              1 S1                 0.0000
     32 ****        -3.3653   1.8981  -3.4144 H              1 S1                 0.0000
     33 ****         1.0479   2.0972  -1.7510 H              1 S1                 0.0000
     34 ****         1.1034   2.4781  -0.0615 H              1 S1                 0.0000
     35 ****         0.6335  -0.1874   0.1954 H              1 S1                 0.0000
     36 ****         1.8848  -1.1916  -1.4004 H              1 S1                 0.0000
     37 ****         3.3773   1.0942  -0.2809 H              1 S1                 0.0000
     38 ****         2.5195   1.0911   1.2441 H              1 S1                 0.0000
     39 ****         4.7955  -0.9144  -0.7825 H              1 S1                 0.0000
     40 ****         4.3014  -4.6290   2.4506 H              1 S1                 0.0000
     41 ****         2.5349  -4.5598   4.1950 H              1 S1                 0.0000
     42 ****         0.9867  -2.6211   4.3424 H              1 S1                 0.0000
     43 ****         1.2000  -0.7275   2.7349 H              1 S1                 0.0000
     44 ****        -1.0340   1.4491   0.1932 LP             1 S1                 0.0000
     45 ****         2.2262   0.1495  -2.1856 LP             1 S1                 0.0000
     46 ****         0.6989  -0.4263  -2.1351 LP             1 S1                 0.0000
     47 ****         5.4047  -3.1443   0.2344 LP             1 S1                 0.0000
@<TRIPOS>BOND
    1    1    2 1     
    2    1   23 1     
    3    1   24 1     
    4    1   25 1     
    5    2    3 1     
    6    2   10 1     
    7    3    4 1     
    8    3   26 1     
    9    3   27 1     
   10    4    9 ar    
   11    4    5 ar    
   12    5    6 ar    
   13    5   28 1     
   14    6    7 ar    
   15    6   29 1     
   16    7    8 ar    
   17    7   30 1     
   18    8    9 ar    
   19    8   31 1     
   20    9   32 1     
   21   10   11 1     
   22   10   33 1     
   23   10   34 1     
   24   11   12 1     
   25   11   13 1     
   26   11   35 1     
   27   12   36 1     
   28   13   14 1     
   29   13   37 1     
   30   13   38 1     
   31   14   22 1     
   32   14   15 1     
   33   15   16 2     
   34   15   39 1     
   35   16   17 1     
   36   17   22 ar    
   37   17   18 ar    
   38   18   19 ar    
   39   18   40 1     
   40   19   20 ar    
   41   19   41 1     
   42   20   21 ar    
   43   20   42 1     
   44   21   22 ar    
   45   21   43 1     
   46    2   44 1     
   47   12   45 1     
   48   12   46 1     
   49   16   47 1     
@<TRIPOS>SUBSTRUCTURE
      1 S1             1
@<TRIPOS>SET
LONE_PAIRS      STATIC     ATOMS    <user>   **** ""
4 44 45 46 47
DONOR_HYDROGENS      STATIC     ATOMS    <user>   **** ""
1 36
ATOM$BLUE        STATIC     ATOMS    COLORGROUP SYSTEM
4 44 45 46 47
ATOM$RED        STATIC     ATOMS    COLORGROUP SYSTEM
1 36
