AV-unprocessed.smi:2954|AV-procd|sdf|11299|dock4
  -GOLD-   2272016193D 1   1.00000     0.00000
 Structure written by MMmdl.
 43 45  0  0  0  0  0  0  0  0  2 V2000
  150.3131  133.4482  155.5476 C   0  0  0  0  0  0  0  0  0  0  0  0
  150.4247  133.6148  154.0261 C   0  0  2  0  0  0  0  0  0  0  0  0
  150.5640  135.0275  153.6938 N   0  0  0  0  0  0  0  0  0  0  0  0
  151.5362  135.8169  154.1667 C   0  0  0  0  0  0  0  0  0  0  0  0
  152.4077  135.4208  154.9359 O   0  0  0  0  0  0  0  0  0  0  0  0
  149.2446  132.9889  153.3411 C   0  0  0  0  0  0  0  0  0  0  0  0
  148.3700  133.6318  152.5148 N   0  3  0  0  0  0  0  0  0  0  0  0
  147.3796  132.7471  152.0899 C   0  0  0  0  0  0  0  0  0  0  0  0
  146.2816  132.9417  151.2576 C   0  0  0  0  0  0  0  0  0  0  0  0
  145.4498  131.8250  151.0358 C   0  0  0  0  0  0  0  0  0  0  0  0
  145.7245  130.5761  151.6293 C   0  0  0  0  0  0  0  0  0  0  0  0
  146.8435  130.3903  152.4673 C   0  0  0  0  0  0  0  0  0  0  0  0
  147.6621  131.4997  152.6826 C   0  0  0  0  0  0  0  0  0  0  0  0
  148.8231  131.6942  153.4425 N   0  0  0  0  0  0  0  0  0  0  0  0
  149.3732  130.5706  154.2185 C   0  0  0  0  0  0  0  0  0  0  0  0
  150.8716  130.3705  153.9505 C   0  0  0  0  0  0  0  0  0  0  0  0
  151.2307  129.0441  154.3127 O   0  0  0  0  0  0  0  0  0  0  0  0
  152.4860  128.5840  153.9799 C   0  0  0  0  0  0  0  0  0  0  0  0
  153.5990  129.4295  153.7417 C   0  0  0  0  0  0  0  0  0  0  0  0
  154.8517  128.8815  153.4051 C   0  0  0  0  0  0  0  0  0  0  0  0
  155.0082  127.4873  153.3006 C   0  0  0  0  0  0  0  0  0  0  0  0
  153.9094  126.6403  153.5333 C   0  0  0  0  0  0  0  0  0  0  0  0
  152.6552  127.1856  153.8708 C   0  0  0  0  0  0  0  0  0  0  0  0
  151.3227  126.1246  154.1605 Cl  0  0  0  0  0  0  0  0  0  0  0  0
  150.2528  132.3948  155.8230 H   0  0  0  0  0  0  0  0  0  0  0  0
  149.4252  133.9449  155.9406 H   0  0  0  0  0  0  0  0  0  0  0  0
  151.1820  133.8702  156.0536 H   0  0  0  0  0  0  0  0  0  0  0  0
  151.3330  133.1050  153.7029 H   0  0  0  0  0  0  0  0  0  0  0  0
  149.8769  135.4311  153.0735 H   0  0  0  0  0  0  0  0  0  0  0  0
  151.4507  136.8472  153.7866 H   0  0  0  0  0  0  0  0  0  0  0  0
  146.0665  133.8988  150.8055 H   0  0  0  0  0  0  0  0  0  0  0  0
  144.5819  131.9293  150.4005 H   0  0  0  0  0  0  0  0  0  0  0  0
  145.0618  129.7437  151.4417 H   0  0  0  0  0  0  0  0  0  0  0  0
  147.0354  129.4304  152.9228 H   0  0  0  0  0  0  0  0  0  0  0  0
  149.1880  130.7391  155.2790 H   0  0  0  0  0  0  0  0  0  0  0  0
  148.8162  129.6708  153.9578 H   0  0  0  0  0  0  0  0  0  0  0  0
  151.0874  130.5487  152.8961 H   0  0  0  0  0  0  0  0  0  0  0  0
  151.4418  131.0910  154.5388 H   0  0  0  0  0  0  0  0  0  0  0  0
  153.5162  130.5036  153.8075 H   0  0  0  0  0  0  0  0  0  0  0  0
  155.6945  129.5328  153.2255 H   0  0  0  0  0  0  0  0  0  0  0  0
  155.9695  127.0682  153.0421 H   0  0  0  0  0  0  0  0  0  0  0  0
  154.0301  125.5698  153.4540 H   0  0  0  0  0  0  0  0  0  0  0  0
  148.4458  134.6098  152.2669 H   0  0  0  0  0  0  0  0  0  0  0  0
  1  2  1  0  0  0  0
  1 25  1  0  0  0  0
  1 26  1  0  0  0  0
  1 27  1  0  0  0  0
  2  3  1  0  0  0  0
  2  6  1  0  0  0  0
  2 28  1  0  0  0  0
  3  4  1  0  0  0  0
  3 29  1  0  0  0  0
  4  5  2  0  0  0  0
  4 30  1  0  0  0  0
  6 14  1  0  0  0  0
  6  7  2  0  0  0  0
  7  8  1  0  0  0  0
  7 43  1  0  0  0  0
  8 13  2  0  0  0  0
  8  9  1  0  0  0  0
  9 10  2  0  0  0  0
  9 31  1  0  0  0  0
 10 11  1  0  0  0  0
 10 32  1  0  0  0  0
 11 12  2  0  0  0  0
 11 33  1  0  0  0  0
 12 13  1  0  0  0  0
 12 34  1  0  0  0  0
 13 14  1  0  0  0  0
 14 15  1  0  0  0  0
 15 16  1  0  0  0  0
 15 35  1  0  0  0  0
 15 36  1  0  0  0  0
 16 17  1  0  0  0  0
 16 37  1  0  0  0  0
 16 38  1  0  0  0  0
 17 18  1  0  0  0  0
 18 23  1  0  0  0  0
 18 19  2  0  0  0  0
 19 20  1  0  0  0  0
 19 39  1  0  0  0  0
 20 21  2  0  0  0  0
 20 40  1  0  0  0  0
 21 22  1  0  0  0  0
 21 41  1  0  0  0  0
 22 23  2  0  0  0  0
 22 42  1  0  0  0  0
 23 24  1  0  0  0  0
M  CHG  1   7   1
M  END
> <s_m_source_file>
AV-unprocessed.smi

> <i_m_source_file_index>
2954

> <i_lp_mmshare_version>
43012

> <i_f3d_flags>
0

> <s_epik_input>
Tz1bQ0hdW05IXVtDQEBIXShbQ0gzXSljKG4xKW4oYyhjMTIpW2NIXVtjSF1bY0hdW2NIXTIpW0NIMl1bQ0gyXU9jM1tjSF1bY0hdW2NIXVtjSF1jM0Ns

> <s_epik_cmdline>
J2VwaWtfcHl0aG9uJywgJy1waCcsICc3LjAnLCAnLXRuJywgJzgnLCAnLW1hJywgJzIwMCcsICctbWV0YWxfYmluZGluZycsICctaW1hZScsICc8aW5maWxlLm1hZT4nLCAnLW9tYWUnLCAnPG91dGZpbGUubWFlPic=

> <r_lp_tautomer_probability>
1

> <r_epik_Ionization_Penalty>
1.18508

> <r_epik_Ionization_Penalty_Charging>
1.18508

> <r_epik_Ionization_Penalty_Neutral>
5.5802e-08

> <r_epik_State_Penalty>
1.24934

> <r_epik_Charging_Adjusted_Penalty>
2.43443

> <i_epik_Tot_Q>
1

> <i_epik_Tot_abs_Q>
1

> <r_epik_Metal_State_Penalty>
1.32564

> <b_epik_Metal_Only>
0

> <s_lp_Force_Field>
OPLS_2005

> <r_lp_Energy>
16.9753

> <b_lp_Chiralities_Consistent>
1

> <s_lp_Variant>
AV-unprocessed.smi:2954-3

> <Gold.Version>
5.8.1

> <Gold.Id.Protein>
6NUR|6NUR_protein|mol2

> <Gold.PLP.Fitness>
53.3597

> <Gold.PLP.PLP>
-42.4131

> <Gold.PLP.part.hbond>
-3.4293

> <Gold.PLP.part.metal>
0.0000

> <Gold.PLP.part.buried>
-3.0617

> <Gold.PLP.part.nonpolar>
-35.4535

> <Gold.PLP.part.repulsive>
0.1457

> <Gold.PLP.ligand.clash>
0.0000

> <Gold.PLP.ligand.torsion>
0.5370

> <Gold.PLP.Chemscore.Hbond>
3.9840

> <Gold.PLP.Chemscore.CHOScore>
0.0000

> <Gold.PLP.Chemscore.Metal>
0.0000

> <Gold.Chemscore.Hbonds>
donor molecule, donor type, donor heavy atom, donor atom, acceptor molecule, acceptor atom, score
      L1  H     7    43       P1  7948  1.30

> <Gold.PLP.Chemscore.Internal.Correction>
0.0685

> <Gold.Rescore>
     Score         DG    S(hbond)    S(metal)    S(lipo)     H(rot)  DE(clash)    DE(int)     intcor
     17.67     -18.36       2.29        0.00      95.98       2.35       0.04       0.65       ----

> <Gold.Chemscore.Fitness>
17.6721

> <Gold.Chemscore.DG>
-18.3614

> <Gold.Chemscore.ZeroCoef>
-5.4800

> <Gold.Chemscore.Hbond>
2.2931

> <Gold.Chemscore.Metal>
0.0000

> <Gold.Chemscore.Lipo>
95.9836

> <Gold.Chemscore.Internal_Hbond>
0.0000

> <Gold.Chemscore.DEClash>
0.0434

> <Gold.Chemscore.DEInternal>
0.6459

> <Gold.Chemscore.Rot>
2.3467

> <Gold.Chemscore.Internal.Correction>
   9.000000E+99

> <Gold.Chemscore.Hbonds>
donor molecule, donor type, donor heavy atom, donor atom, acceptor molecule, acceptor atom, score
      L1  H     7    43       P1  7948  0.06

> <Gold.Chemscore.Hbond.Weighted>
-7.6590

> <Gold.Chemscore.Metal.Weighted>
-0.0000

> <Gold.Chemscore.Lipo.Weighted>
-11.2301

> <Gold.Chemscore.Internal_Hbond.Weighted>
0.0000

> <Gold.Chemscore.DEClash.Weighted>
0.0434

> <Gold.Chemscore.DEInternal.Weighted>
0.6459

> <Gold.Chemscore.Rot.Weighted>
6.0077

> <Gold.Chemscore.Internal.Correction.Weighted>
   9.000000E+99

> <Gold.Protein.RotatedTorsions>
[ 6907 6896 6895 6894 ] final   28.16 input  -60.11 | X-H torsion
[ 7974 7965 7964 7962 ] final -128.17 input  175.53 | X-H torsion
[ 8008 7997 7996 7995 ] final  -75.24 input   59.86 | X-H torsion
[ 10167 10162 10161 10158 ] final  148.45 input  -65.29 | X-H torsion
[ 10718 10713 10712 10709 ] final   40.54 input   66.30 | X-H torsion
[ 10763 10752 10751 10750 ] final   84.80 input  -60.55 | X-H torsion
[ 11005 11000 10999 10996 ] final   68.27 input  -57.11 | X-H torsion

> <Gold.Protein.ActiveResidues>
 VAL166  LYS551  ARG553  GLY616  TRP617  ASP618  TYR619  PRO620  LYS621  CYS622 
 ASP623  PHE694  ASN695  SER759  ASP760  ASP761  ALA762  ILE779  LEU786  VAL792 
 PHE793  MET794  SER795  GLU796  ALA797  LYS798  CYS799  TRP800  GLU811  SER814 

> <Gold.Protein.RotatedAtoms>
  152.0129  134.9866  160.0568 H   0  0  0  0  0  0  0  0  0  0  0  0  # atno 6907 bound_to 6896
  152.1411  133.4460  159.4775 H   0  0  0  0  0  0  0  0  0  0  0  0  # atno 6908 bound_to 6896
  150.6865  134.2222  159.4444 H   0  0  0  0  0  0  0  0  0  0  0  0  # atno 6909 bound_to 6896
  144.9697  140.7533  143.4678 H   0  0  0  0  0  0  0  0  0  0  0  0  # atno 7974 bound_to 7965
  154.5399  140.0747  156.8492 H   0  0  0  0  0  0  0  0  0  0  0  0  # atno 8008 bound_to 7997
  155.3201  140.3395  155.4223 H   0  0  0  0  0  0  0  0  0  0  0  0  # atno 8009 bound_to 7997
  156.1865  140.1670  156.8162 H   0  0  0  0  0  0  0  0  0  0  0  0  # atno 8010 bound_to 7997
  139.4875  144.5678  151.7112 H   0  0  0  0  0  0  0  0  0  0  0  0  # atno 10167 bound_to 10162
  157.3834  130.7766  149.7211 H   0  0  0  0  0  0  0  0  0  0  0  0  # atno 10718 bound_to 10713
  153.1415  135.4641  154.9503 H   0  0  0  0  0  0  0  0  0  0  0  0  # atno 10763 bound_to 10752
  154.7751  135.3170  154.8111 H   0  0  0  0  0  0  0  0  0  0  0  0  # atno 10764 bound_to 10752
  153.8633  135.6910  153.4835 H   0  0  0  0  0  0  0  0  0  0  0  0  # atno 10765 bound_to 10752
  139.9721  134.6883  156.0426 H   0  0  0  0  0  0  0  0  0  0  0  0  # atno 11005 bound_to 11000
  145.2577  139.2005  143.4909 LP  0  0  0  0  0  0  0  0  0  0  0  0  # atno 17320 bound_to 7965
  146.3378  140.2501  142.8598 LP  0  0  0  0  0  0  0  0  0  0  0  0  # atno 17321 bound_to 7965
  140.5259  144.0806  150.6037 LP  0  0  0  0  0  0  0  0  0  0  0  0  # atno 17342 bound_to 10162
  140.3779  143.2818  152.0203 LP  0  0  0  0  0  0  0  0  0  0  0  0  # atno 17343 bound_to 10162
  155.9781  130.4055  150.3670 LP  0  0  0  0  0  0  0  0  0  0  0  0  # atno 17370 bound_to 10713
  157.1777  131.0384  151.2764 LP  0  0  0  0  0  0  0  0  0  0  0  0  # atno 17371 bound_to 10713
  141.1400  133.6566  156.3703 LP  0  0  0  0  0  0  0  0  0  0  0  0  # atno 17394 bound_to 11000
  140.5271  134.6248  157.5338 LP  0  0  0  0  0  0  0  0  0  0  0  0  # atno 17395 bound_to 11000

$$$$
