AV-unprocessed.smi:2568|AV-procd|sdf|10100|dock2
  -GOLD-   2272014113D 1   1.00000     0.00000
 Structure written by MMmdl.
 23 24  0  0  0  0  0  0  0  0  2 V2000
  155.5853  139.5166  160.8278 C   0  0  0  0  0  0  0  0  0  0  0  0
  154.4675  140.2246  160.0976 C   0  0  0  0  0  0  0  0  0  0  0  0
  153.9661  139.8808  158.8982 N   0  5  0  0  0  0  0  0  0  0  0  0
  153.0014  140.7137  158.5642 N   0  0  0  0  0  0  0  0  0  0  0  0
  152.9049  141.5788  159.5860 C   0  0  0  0  0  0  0  0  0  0  0  0
  151.9412  142.7486  159.6297 C   0  0  2  0  0  0  0  0  0  0  0  0
  151.2438  142.9438  158.2682 C   0  0  0  0  0  0  0  0  0  0  0  0
  150.3227  144.0796  158.3176 N   0  0  0  0  0  0  0  0  0  0  0  0
  151.0018  145.2934  158.7653 C   0  0  0  0  0  0  0  0  0  0  0  0
  151.7009  145.0468  160.1130 C   0  0  0  0  0  0  0  0  0  0  0  0
  152.6085  143.9587  159.9835 O   0  0  0  0  0  0  0  0  0  0  0  0
  153.8121  141.2955  160.5329 N   0  0  0  0  0  0  0  0  0  0  0  0
  155.9827  138.6997  160.2251 H   0  0  0  0  0  0  0  0  0  0  0  0
  155.2191  139.1061  161.7686 H   0  0  0  0  0  0  0  0  0  0  0  0
  156.3956  140.2125  161.0448 H   0  0  0  0  0  0  0  0  0  0  0  0
  151.1957  142.5225  160.3947 H   0  0  0  0  0  0  0  0  0  0  0  0
  151.9931  143.1077  157.4926 H   0  0  0  0  0  0  0  0  0  0  0  0
  150.7018  142.0387  157.9931 H   0  0  0  0  0  0  0  0  0  0  0  0
  149.9240  144.2320  157.3971 H   0  0  0  0  0  0  0  0  0  0  0  0
  151.7381  145.6030  158.0225 H   0  0  0  0  0  0  0  0  0  0  0  0
  150.2860  146.1102  158.8578 H   0  0  0  0  0  0  0  0  0  0  0  0
  152.2562  145.9347  160.4150 H   0  0  0  0  0  0  0  0  0  0  0  0
  150.9743  144.8422  160.9011 H   0  0  0  0  0  0  0  0  0  0  0  0
  1 13  1  0  0  0  0
  1 14  1  0  0  0  0
  1 15  1  0  0  0  0
  1  2  1  0  0  0  0
  2 12  2  0  0  0  0
  2  3  1  0  0  0  0
  3  4  1  0  0  0  0
  4  5  2  0  0  0  0
  5 12  1  0  0  0  0
  5  6  1  0  0  0  0
  6 11  1  0  0  0  0
  6  7  1  0  0  0  0
  6 16  1  0  0  0  0
  7  8  1  0  0  0  0
  7 17  1  0  0  0  0
  7 18  1  0  0  0  0
  8  9  1  0  0  0  0
  8 19  1  0  0  0  0
  9 10  1  0  0  0  0
  9 20  1  0  0  0  0
  9 21  1  0  0  0  0
 10 11  1  0  0  0  0
 10 22  1  0  0  0  0
 10 23  1  0  0  0  0
M  CHG  1   3  -1
M  END
> <s_m_source_file>
AV-unprocessed.smi

> <i_m_source_file_index>
2568

> <i_lp_mmshare_version>
43012

> <i_f3d_flags>
0

> <s_epik_input>
W0NIM11jMW5bbkhdYyhuMSlbQ0BASF0yW0NIMl1bTkhdW0NIMl1bQ0gyXU8y

> <s_epik_cmdline>
J2VwaWtfcHl0aG9uJywgJy1waCcsICc3LjAnLCAnLXRuJywgJzgnLCAnLW1hJywgJzIwMCcsICctbWV0YWxfYmluZGluZycsICctaW1hZScsICc8aW5maWxlLm1hZT4nLCAnLW9tYWUnLCAnPG91dGZpbGUubWFlPic=

> <r_epik_Ionization_Penalty>
17.7898

> <r_epik_Ionization_Penalty_Charging>
16.2165

> <r_epik_Ionization_Penalty_Neutral>
1.5733

> <r_epik_State_Penalty>
6.78491

> <r_epik_Charging_Adjusted_Penalty>
23.0014

> <i_epik_Tot_Q>
-1

> <i_epik_Tot_abs_Q>
1

> <r_epik_Metal_State_Penalty>
3.02615

> <b_epik_Metal_Only>
1

> <s_lp_Force_Field>
OPLS_2005

> <r_lp_Energy>
14.4772

> <b_lp_Chiralities_Consistent>
1

> <s_lp_Variant>
AV-unprocessed.smi:2568-13

> <Gold.Version>
5.8.1

> <Gold.Id.Protein>
6NUR|6NUR_protein|mol2

> <Gold.PLP.Fitness>
32.0357

> <Gold.PLP.PLP>
-23.4613

> <Gold.PLP.part.hbond>
-3.1142

> <Gold.PLP.part.metal>
0.0000

> <Gold.PLP.part.buried>
-3.3866

> <Gold.PLP.part.nonpolar>
-17.1397

> <Gold.PLP.part.repulsive>
0.0159

> <Gold.PLP.ligand.clash>
0.0000

> <Gold.PLP.ligand.torsion>
0.2180

> <Gold.PLP.Chemscore.Hbond>
3.0000

> <Gold.PLP.Chemscore.CHOScore>
0.0000

> <Gold.PLP.Chemscore.Metal>
0.0000

> <Gold.Chemscore.Hbonds>
donor molecule, donor type, donor heavy atom, donor atom, acceptor molecule, acceptor atom, score
      L1  H     8    19       P1  8028  0.94
      P1  H  7997  8008       L1     3  1.90

> <Gold.PLP.Chemscore.Internal.Correction>
0.0103

> <Gold.Rescore>
     Score         DG    S(hbond)    S(metal)    S(lipo)     H(rot)  DE(clash)    DE(int)     intcor
     11.98     -12.31       1.11        0.00      48.50       1.00       0.05       0.28       ----

> <Gold.Chemscore.Fitness>
11.9830

> <Gold.Chemscore.DG>
-12.3105

> <Gold.Chemscore.ZeroCoef>
-5.4800

> <Gold.Chemscore.Hbond>
1.1126

> <Gold.Chemscore.Metal>
0.0000

> <Gold.Chemscore.Lipo>
48.4989

> <Gold.Chemscore.Internal_Hbond>
0.0000

> <Gold.Chemscore.DEClash>
0.0477

> <Gold.Chemscore.DEInternal>
0.2798

> <Gold.Chemscore.Rot>
1.0000

> <Gold.Chemscore.Internal.Correction>
   9.000000E+99

> <Gold.Chemscore.Hbonds>
donor molecule, donor type, donor heavy atom, donor atom, acceptor molecule, acceptor atom, score
      L1  H     8    19       P1  8028  0.40
      P1  H  7997  8008       L1     3  0.20

> <Gold.Chemscore.Hbond.Weighted>
-3.7162

> <Gold.Chemscore.Metal.Weighted>
-0.0000

> <Gold.Chemscore.Lipo.Weighted>
-5.6744

> <Gold.Chemscore.Internal_Hbond.Weighted>
0.0000

> <Gold.Chemscore.DEClash.Weighted>
0.0477

> <Gold.Chemscore.DEInternal.Weighted>
0.2798

> <Gold.Chemscore.Rot.Weighted>
2.5600

> <Gold.Chemscore.Internal.Correction.Weighted>
   9.000000E+99

> <Gold.Protein.RotatedTorsions>
[ 6907 6896 6895 6894 ] final   58.04 input  -60.11 | X-H torsion
[ 7974 7965 7964 7962 ] final   12.81 input  175.53 | X-H torsion
[ 8008 7997 7996 7995 ] final -117.04 input   59.86 | X-H torsion
[ 10167 10162 10161 10158 ] final   75.23 input  -65.29 | X-H torsion
[ 10718 10713 10712 10709 ] final  -94.95 input   66.30 | X-H torsion
[ 10763 10752 10751 10750 ] final  -23.89 input  -60.55 | X-H torsion
[ 11005 11000 10999 10996 ] final  163.13 input  -57.11 | X-H torsion

> <Gold.Protein.ActiveResidues>
 VAL166  LYS551  ARG553  GLY616  TRP617  ASP618  TYR619  PRO620  LYS621  CYS622 
 ASP623  PHE694  ASN695  SER759  ASP760  ASP761  ALA762  ILE779  LEU786  VAL792 
 PHE793  MET794  SER795  GLU796  ALA797  LYS798  CYS799  TRP800  GLU811  SER814 

> <Gold.Protein.RotatedAtoms>
  152.3787  134.6623  160.0150 H   0  0  0  0  0  0  0  0  0  0  0  0  # atno 6907 bound_to 6896
  151.6893  133.3305  159.3247 H   0  0  0  0  0  0  0  0  0  0  0  0  # atno 6908 bound_to 6896
  150.7730  134.6648  159.6404 H   0  0  0  0  0  0  0  0  0  0  0  0  # atno 6909 bound_to 6896
  146.2343  139.9282  142.8500 H   0  0  0  0  0  0  0  0  0  0  0  0  # atno 7974 bound_to 7965
  155.0775  140.0394  157.2628 H   0  0  0  0  0  0  0  0  0  0  0  0  # atno 8008 bound_to 7997
  154.6933  140.2658  155.6766 H   0  0  0  0  0  0  0  0  0  0  0  0  # atno 8009 bound_to 7997
  156.2736  140.2755  156.1519 H   0  0  0  0  0  0  0  0  0  0  0  0  # atno 8010 bound_to 7997
  140.0052  144.5656  150.7704 H   0  0  0  0  0  0  0  0  0  0  0  0  # atno 10167 bound_to 10162
  156.0035  130.5089  150.6004 H   0  0  0  0  0  0  0  0  0  0  0  0  # atno 10718 bound_to 10713
  153.6751  135.6970  153.5135 H   0  0  0  0  0  0  0  0  0  0  0  0  # atno 10763 bound_to 10752
  153.2528  135.4269  155.0814 H   0  0  0  0  0  0  0  0  0  0  0  0  # atno 10764 bound_to 10752
  154.8416  135.3535  154.6295 H   0  0  0  0  0  0  0  0  0  0  0  0  # atno 10765 bound_to 10752
  140.2327  134.8111  157.3333 H   0  0  0  0  0  0  0  0  0  0  0  0  # atno 11005 bound_to 11000
  145.2070  140.9879  143.4122 LP  0  0  0  0  0  0  0  0  0  0  0  0  # atno 17320 bound_to 7965
  144.9724  139.3866  143.6302 LP  0  0  0  0  0  0  0  0  0  0  0  0  # atno 17321 bound_to 7965
  140.7403  143.2803  151.3619 LP  0  0  0  0  0  0  0  0  0  0  0  0  # atno 17342 bound_to 10162
  139.6243  144.0844  152.2420 LP  0  0  0  0  0  0  0  0  0  0  0  0  # atno 17343 bound_to 10162
  157.3854  131.0787  151.1441 LP  0  0  0  0  0  0  0  0  0  0  0  0  # atno 17370 bound_to 10713
  157.2150  130.6455  149.5789 LP  0  0  0  0  0  0  0  0  0  0  0  0  # atno 17371 bound_to 10713
  140.1734  134.4580  155.7817 LP  0  0  0  0  0  0  0  0  0  0  0  0  # atno 17394 bound_to 11000
  141.2216  133.6951  156.7746 LP  0  0  0  0  0  0  0  0  0  0  0  0  # atno 17395 bound_to 11000

$$$$
