AV-unprocessed.smi:200|AV-procd|sdf|1577|dock4
  -GOLD-   2262019463D 1   1.00000     0.00000
 Structure written by MMmdl.
 56 59  0  0  0  0  0  0  0  0  1 V2000
  148.4321  141.0576  154.2738 C   0  0  0  0  0  0  0  0  0  0  0  0
  149.6973  140.4938  153.9784 O   0  0  0  0  0  0  0  0  0  0  0  0
  150.2360  139.7642  155.0683 C   0  0  0  0  0  0  0  0  0  0  0  0
  151.0015  140.7302  155.9830 C   0  0  0  0  0  0  0  0  0  0  0  0
  150.7530  140.4761  157.4027 N   0  0  0  0  0  0  0  0  0  0  0  0
  151.0922  139.2268  157.7968 C   0  0  0  0  0  0  0  0  0  0  0  0
  152.3925  138.8342  157.7616 N   0  0  0  0  0  0  0  0  0  0  0  0
  152.7262  137.6000  158.1511 C   0  0  0  0  0  0  0  0  0  0  0  0
  151.9344  136.6221  158.5975 N   0  0  0  0  0  0  0  0  0  0  0  0
  150.6281  137.0137  158.6265 C   0  0  0  0  0  0  0  0  0  0  0  0
  150.1250  138.2872  158.2406 C   0  0  0  0  0  0  0  0  0  0  0  0
  148.7454  138.3239  158.3924 N   0  0  0  0  0  0  0  0  0  0  0  0
  148.4477  137.1364  158.8441 C   0  0  0  0  0  0  0  0  0  0  0  0
  149.5187  136.2892  159.0268 N   0  0  0  0  0  0  0  0  0  0  0  0
  149.4655  134.9220  159.5219 C   0  0  0  0  0  0  0  0  0  0  0  0
  148.6565  134.7505  160.8251 C   0  0  0  0  0  0  0  0  0  0  0  0
  147.1654  135.0529  160.5920 C   0  0  0  0  0  0  0  0  0  0  0  0
  146.6000  134.1691  159.6449 O   0  0  0  0  0  0  0  0  0  0  0  0
  148.9352  133.4656  161.6171 C   0  0  0  0  0  0  0  0  0  0  0  0
  149.1496  134.1993  162.8410 O   0  0  0  0  0  0  0  0  0  0  0  0
  149.2477  135.4181  162.0750 C   0  0  0  0  0  0  0  0  0  0  0  0
  150.9699  141.5698  158.3615 C   0  0  1  0  0  0  0  0  0  0  0  0
  152.3467  141.6223  159.0418 C   0  0  0  0  0  0  0  0  0  0  0  0
  152.4518  143.0458  159.6067 C   0  0  0  0  0  0  0  0  0  0  0  0
  151.3649  143.8820  158.9018 C   0  0  1  0  0  0  0  0  0  0  0  0
  151.8589  145.2433  158.3948 C   0  0  0  0  0  0  0  0  0  0  0  0
  150.8057  142.9821  157.7929 C   0  0  0  0  0  0  0  0  0  0  0  0
  148.0661  141.6078  153.4069 H   0  0  0  0  0  0  0  0  0  0  0  0
  148.4953  141.7523  155.1123 H   0  0  0  0  0  0  0  0  0  0  0  0
  147.7023  140.2833  154.5135 H   0  0  0  0  0  0  0  0  0  0  0  0
  149.4216  139.3062  155.6309 H   0  0  0  0  0  0  0  0  0  0  0  0
  150.8760  138.9542  154.7182 H   0  0  0  0  0  0  0  0  0  0  0  0
  152.0673  140.6543  155.7595 H   0  0  0  0  0  0  0  0  0  0  0  0
  150.7135  141.7558  155.7519 H   0  0  0  0  0  0  0  0  0  0  0  0
  153.7784  137.3622  158.0985 H   0  0  0  0  0  0  0  0  0  0  0  0
  147.4313  136.8458  159.0673 H   0  0  0  0  0  0  0  0  0  0  0  0
  149.0523  134.2919  158.7334 H   0  0  0  0  0  0  0  0  0  0  0  0
  150.4914  134.5779  159.6589 H   0  0  0  0  0  0  0  0  0  0  0  0
  146.6047  134.9473  161.5214 H   0  0  0  0  0  0  0  0  0  0  0  0
  147.0082  136.0804  160.2633 H   0  0  0  0  0  0  0  0  0  0  0  0
  147.2151  134.0557  158.9364 H   0  0  0  0  0  0  0  0  0  0  0  0
  148.0851  132.7852  161.6786 H   0  0  0  0  0  0  0  0  0  0  0  0
  149.8349  132.9358  161.2994 H   0  0  0  0  0  0  0  0  0  0  0  0
  150.2854  135.7356  161.9657 H   0  0  0  0  0  0  0  0  0  0  0  0
  148.6353  136.2235  162.4820 H   0  0  0  0  0  0  0  0  0  0  0  0
  150.2358  141.4520  159.1582 H   0  0  0  0  0  0  0  0  0  0  0  0
  152.4596  140.8565  159.8099 H   0  0  0  0  0  0  0  0  0  0  0  0
  153.1546  141.4889  158.3224 H   0  0  0  0  0  0  0  0  0  0  0  0
  152.2847  143.0476  160.6845 H   0  0  0  0  0  0  0  0  0  0  0  0
  153.4518  143.4471  159.4368 H   0  0  0  0  0  0  0  0  0  0  0  0
  150.5629  144.0554  159.6210 H   0  0  0  0  0  0  0  0  0  0  0  0
  152.6662  145.1283  157.6709 H   0  0  0  0  0  0  0  0  0  0  0  0
  152.2325  145.8540  159.2169 H   0  0  0  0  0  0  0  0  0  0  0  0
  151.0528  145.7951  157.9108 H   0  0  0  0  0  0  0  0  0  0  0  0
  151.3964  143.1022  156.8846 H   0  0  0  0  0  0  0  0  0  0  0  0
  149.7699  143.2223  157.5519 H   0  0  0  0  0  0  0  0  0  0  0  0
  1  2  1  0  0  0  0
  1 28  1  0  0  0  0
  1 29  1  0  0  0  0
  1 30  1  0  0  0  0
  2  3  1  0  0  0  0
  3  4  1  0  0  0  0
  3 31  1  0  0  0  0
  3 32  1  0  0  0  0
  4  5  1  0  0  0  0
  4 33  1  0  0  0  0
  4 34  1  0  0  0  0
  5  6  1  0  0  0  0
  5 22  1  0  0  0  0
  6 11  1  0  0  0  0
  6  7  2  0  0  0  0
  7  8  1  0  0  0  0
  8  9  2  0  0  0  0
  8 35  1  0  0  0  0
  9 10  1  0  0  0  0
 10 14  1  0  0  0  0
 10 11  2  0  0  0  0
 11 12  1  0  0  0  0
 12 13  2  0  0  0  0
 13 14  1  0  0  0  0
 13 36  1  0  0  0  0
 14 15  1  0  0  0  0
 15 16  1  0  0  0  0
 15 37  1  0  0  0  0
 15 38  1  0  0  0  0
 16 21  1  0  0  0  0
 16 17  1  0  0  0  0
 16 19  1  0  0  0  0
 17 18  1  0  0  0  0
 17 39  1  0  0  0  0
 17 40  1  0  0  0  0
 18 41  1  0  0  0  0
 19 20  1  0  0  0  0
 19 42  1  0  0  0  0
 19 43  1  0  0  0  0
 20 21  1  0  0  0  0
 21 44  1  0  0  0  0
 21 45  1  0  0  0  0
 22 27  1  0  0  0  0
 22 23  1  0  0  0  0
 22 46  1  0  0  0  0
 23 24  1  0  0  0  0
 23 47  1  0  0  0  0
 23 48  1  0  0  0  0
 24 25  1  0  0  0  0
 24 49  1  0  0  0  0
 24 50  1  0  0  0  0
 25 26  1  0  0  0  0
 25 27  1  0  0  0  0
 25 51  1  0  0  0  0
 26 52  1  0  0  0  0
 26 53  1  0  0  0  0
 26 54  1  0  0  0  0
 27 55  1  0  0  0  0
 27 56  1  0  0  0  0
M  END
> <s_m_source_file>
AV-unprocessed.smi

> <i_m_source_file_index>
200

> <i_lp_mmshare_version>
43012

> <i_f3d_flags>
0

> <s_epik_input>
W0NIM11bQ0BASF0oW0NIMl0xKVtDSDJdW0NIMl1bQ0BIXTFOKFtDSDJdW0NIMl1PW0NIM10pYyhuW2NIXW4yKWMoYzIzKW5bY0hdbjNbQ0gyXUM0KFtDSDJdW09IXSlbQ0gyXU9bQ0gyXTQ=

> <s_epik_cmdline>
J2VwaWtfcHl0aG9uJywgJy1waCcsICc3LjAnLCAnLXRuJywgJzgnLCAnLW1hJywgJzIwMCcsICctbWV0YWxfYmluZGluZycsICctaW1hZScsICc8aW5maWxlLm1hZT4nLCAnLW9tYWUnLCAnPG91dGZpbGUubWFlPic=

> <r_lp_tautomer_probability>
1

> <r_epik_Ionization_Penalty>
0.00363087

> <r_epik_Ionization_Penalty_Charging>
0

> <r_epik_Ionization_Penalty_Neutral>
0.00363087

> <r_epik_State_Penalty>
0.0024341

> <r_epik_Charging_Adjusted_Penalty>
0.0024341

> <i_epik_Tot_Q>
0

> <i_epik_Tot_abs_Q>
0

> <r_epik_Metal_State_Penalty>
-0

> <b_epik_Metal_Only>
0

> <s_lp_Force_Field>
OPLS_2005

> <r_lp_Energy>
50.9431

> <b_lp_Chiralities_Consistent>
1

> <s_lp_Variant>
AV-unprocessed.smi:200-2

> <Gold.Version>
5.8.1

> <Gold.Id.Protein>
6NUR|6NUR_protein|mol2

> <Gold.PLP.Fitness>
53.1947

> <Gold.PLP.PLP>
-49.4261

> <Gold.PLP.part.hbond>
-3.2328

> <Gold.PLP.part.metal>
0.0000

> <Gold.PLP.part.buried>
-7.3717

> <Gold.PLP.part.nonpolar>
-41.3291

> <Gold.PLP.part.repulsive>
1.2118

> <Gold.PLP.ligand.clash>
0.0000

> <Gold.PLP.ligand.torsion>
1.6698

> <Gold.PLP.Chemscore.Hbond>
1.8240

> <Gold.PLP.Chemscore.CHOScore>
0.0000

> <Gold.PLP.Chemscore.Metal>
0.0000

> <Gold.Chemscore.Hbonds>
donor molecule, donor type, donor heavy atom, donor atom, acceptor molecule, acceptor atom, score
      P1  H  7989  7998       L1     2  0.20

> <Gold.PLP.Chemscore.Internal.Correction>
1.6361

> <Gold.Rescore>
     Score         DG    S(hbond)    S(metal)    S(lipo)     H(rot)  DE(clash)    DE(int)     intcor
     14.63     -16.30       1.62        0.00     117.89       3.28       0.24       1.42       ----

> <Gold.Chemscore.Fitness>
14.6344

> <Gold.Chemscore.DG>
-16.2976

> <Gold.Chemscore.ZeroCoef>
-5.4800

> <Gold.Chemscore.Hbond>
1.6201

> <Gold.Chemscore.Metal>
0.0000

> <Gold.Chemscore.Lipo>
117.8911

> <Gold.Chemscore.Internal_Hbond>
0.0000

> <Gold.Chemscore.DEClash>
0.2414

> <Gold.Chemscore.DEInternal>
1.4218

> <Gold.Chemscore.Rot>
3.2761

> <Gold.Chemscore.Internal.Correction>
   9.000000E+99

> <Gold.Chemscore.Hbond.Weighted>
-5.4112

> <Gold.Chemscore.Metal.Weighted>
-0.0000

> <Gold.Chemscore.Lipo.Weighted>
-13.7933

> <Gold.Chemscore.Internal_Hbond.Weighted>
0.0000

> <Gold.Chemscore.DEClash.Weighted>
0.2414

> <Gold.Chemscore.DEInternal.Weighted>
1.4218

> <Gold.Chemscore.Rot.Weighted>
8.3868

> <Gold.Chemscore.Internal.Correction.Weighted>
   9.000000E+99

> <Gold.Protein.RotatedTorsions>
[ 6907 6896 6895 6894 ] final -156.57 input  -60.11 | X-H torsion
[ 7974 7965 7964 7962 ] final  148.13 input  175.53 | X-H torsion
[ 8008 7997 7996 7995 ] final  -91.37 input   59.86 | X-H torsion
[ 10167 10162 10161 10158 ] final   77.94 input  -65.29 | X-H torsion
[ 10718 10713 10712 10709 ] final  139.22 input   66.30 | X-H torsion
[ 10763 10752 10751 10750 ] final  167.11 input  -60.55 | X-H torsion
[ 11005 11000 10999 10996 ] final  161.92 input  -57.11 | X-H torsion

> <Gold.Protein.ActiveResidues>
 VAL166  LYS551  ARG553  GLY616  TRP617  ASP618  TYR619  PRO620  LYS621  CYS622 
 ASP623  PHE694  ASN695  SER759  ASP760  ASP761  ALA762  ILE779  LEU786  VAL792 
 PHE793  MET794  SER795  GLU796  ALA797  LYS798  CYS799  TRP800  GLU811  SER814 

> <Gold.Protein.RotatedAtoms>
  151.2896  133.4171  159.2631 H   0  0  0  0  0  0  0  0  0  0  0  0  # atno 6907 bound_to 6896
  151.0289  134.9525  159.8110 H   0  0  0  0  0  0  0  0  0  0  0  0  # atno 6908 bound_to 6896
  152.5341  134.2857  159.9077 H   0  0  0  0  0  0  0  0  0  0  0  0  # atno 6909 bound_to 6896
  144.8537  139.6115  143.5962 H   0  0  0  0  0  0  0  0  0  0  0  0  # atno 7974 bound_to 7965
  154.7099  140.0520  157.0540 H   0  0  0  0  0  0  0  0  0  0  0  0  # atno 8008 bound_to 7997
  155.0569  140.3185  155.4654 H   0  0  0  0  0  0  0  0  0  0  0  0  # atno 8009 bound_to 7997
  156.2786  140.2106  156.5695 H   0  0  0  0  0  0  0  0  0  0  0  0  # atno 8010 bound_to 7997
  139.9762  144.5859  150.7941 H   0  0  0  0  0  0  0  0  0  0  0  0  # atno 10167 bound_to 10162
  157.4167  131.1034  151.0397 H   0  0  0  0  0  0  0  0  0  0  0  0  # atno 10718 bound_to 10713
  154.3489  135.2753  155.2382 H   0  0  0  0  0  0  0  0  0  0  0  0  # atno 10763 bound_to 10752
  154.4620  135.5904  153.6266 H   0  0  0  0  0  0  0  0  0  0  0  0  # atno 10764 bound_to 10752
  152.9851  135.6067  154.3698 H   0  0  0  0  0  0  0  0  0  0  0  0  # atno 10765 bound_to 10752
  140.2206  134.8199  157.3216 H   0  0  0  0  0  0  0  0  0  0  0  0  # atno 11005 bound_to 11000
  146.2806  139.6867  142.9232 LP  0  0  0  0  0  0  0  0  0  0  0  0  # atno 17320 bound_to 7965
  145.4448  141.0425  143.2837 LP  0  0  0  0  0  0  0  0  0  0  0  0  # atno 17321 bound_to 7965
  140.7505  143.2956  151.3214 LP  0  0  0  0  0  0  0  0  0  0  0  0  # atno 17342 bound_to 10162
  139.6444  144.0479  152.2579 LP  0  0  0  0  0  0  0  0  0  0  0  0  # atno 17343 bound_to 10162
  157.1342  130.6115  149.5537 LP  0  0  0  0  0  0  0  0  0  0  0  0  # atno 17370 bound_to 10713
  155.9867  130.4903  150.7093 LP  0  0  0  0  0  0  0  0  0  0  0  0  # atno 17371 bound_to 10713
  140.1854  134.4437  155.7747 LP  0  0  0  0  0  0  0  0  0  0  0  0  # atno 17394 bound_to 11000
  141.2223  133.7002  156.7938 LP  0  0  0  0  0  0  0  0  0  0  0  0  # atno 17395 bound_to 11000

$$$$
