AV-unprocessed.smi:2339|AV-procd|sdf|9336|dock6
  -GOLD-   2272012553D 1   1.00000     0.00000
 Structure written by MMmdl.
 49 52  0  0  0  0  0  0  0  0  1 V2000
  148.7757  131.3579  161.1060 C   0  0  0  0  0  0  0  0  0  0  0  0
  147.9233  132.2979  160.2465 C   0  0  0  0  0  0  0  0  0  0  0  0
  147.8796  133.6439  160.7994 N   0  0  0  0  0  0  0  0  0  0  0  0
  147.3615  133.8884  162.0668 C   0  0  0  0  0  0  0  0  0  0  0  0
  147.2403  135.1156  162.6083 C   0  0  0  0  0  0  0  0  0  0  0  0
  147.6704  136.2953  161.8311 C   0  0  0  0  0  0  0  0  0  0  0  0
  147.5760  137.4303  162.2975 O   0  0  0  0  0  0  0  0  0  0  0  0
  148.2159  136.0352  160.4724 C   0  0  0  0  0  0  0  0  0  0  0  0
  148.6362  137.1608  159.7456 N   0  0  0  0  0  0  0  0  0  0  0  0
  149.1926  137.2321  158.5191 C   0  0  0  0  0  0  0  0  0  0  0  0
  149.3844  136.2785  157.7679 O   0  0  0  0  0  0  0  0  0  0  0  0
  149.5469  138.4776  158.1563 N   0  0  0  0  0  0  0  0  0  0  0  0
  150.1706  138.8993  156.9006 C   0  0  2  0  0  0  0  0  0  0  0  0
  151.3694  138.0158  156.5266 C   0  0  1  0  0  0  0  0  0  0  0  0
  151.2884  137.1188  155.3216 C   0  0  0  0  0  0  0  0  0  0  0  0
  151.9082  137.9778  154.2151 C   0  0  0  0  0  0  0  0  0  0  0  0
  151.7938  139.3172  154.6911 O   0  0  0  0  0  0  0  0  0  0  0  0
  152.0598  139.2970  156.0919 C   0  0  1  0  0  0  0  0  0  0  0  0
  151.1179  140.1301  156.9907 C   0  0  0  0  0  0  0  0  0  0  0  0
  151.7099  140.5382  158.3582 C   0  0  0  0  0  0  0  0  0  0  0  0
  151.8203  142.0609  158.3819 C   0  0  0  0  0  0  0  0  0  0  0  0
  150.6750  142.5194  157.4923 C   0  0  0  0  0  0  0  0  0  0  0  0
  150.6154  141.4553  156.3988 C   0  0  0  0  0  0  0  0  0  0  0  0
  148.2871  134.7466  160.0511 C   0  0  0  0  0  0  0  0  0  0  0  0
  148.7942  130.3546  160.6804 H   0  0  0  0  0  0  0  0  0  0  0  0
  148.3797  131.2829  162.1190 H   0  0  0  0  0  0  0  0  0  0  0  0
  149.8054  131.7106  161.1722 H   0  0  0  0  0  0  0  0  0  0  0  0
  148.3207  132.3348  159.2315 H   0  0  0  0  0  0  0  0  0  0  0  0
  146.9093  131.9053  160.1635 H   0  0  0  0  0  0  0  0  0  0  0  0
  147.0605  133.0007  162.6040 H   0  0  0  0  0  0  0  0  0  0  0  0
  146.8342  135.2578  163.5991 H   0  0  0  0  0  0  0  0  0  0  0  0
  148.5044  138.0401  160.2245 H   0  0  0  0  0  0  0  0  0  0  0  0
  149.3807  139.2091  158.8320 H   0  0  0  0  0  0  0  0  0  0  0  0
  149.4654  138.9814  156.0700 H   0  0  0  0  0  0  0  0  0  0  0  0
  151.8565  137.5733  157.3975 H   0  0  0  0  0  0  0  0  0  0  0  0
  151.8340  136.1846  155.4563 H   0  0  0  0  0  0  0  0  0  0  0  0
  150.2521  136.8718  155.0885 H   0  0  0  0  0  0  0  0  0  0  0  0
  152.9643  137.7356  154.0886 H   0  0  0  0  0  0  0  0  0  0  0  0
  151.4107  137.8498  153.2537 H   0  0  0  0  0  0  0  0  0  0  0  0
  153.1231  139.3366  156.3324 H   0  0  0  0  0  0  0  0  0  0  0  0
  151.0669  140.2386  159.1839 H   0  0  0  0  0  0  0  0  0  0  0  0
  152.6798  140.0771  158.5471 H   0  0  0  0  0  0  0  0  0  0  0  0
  151.7655  142.4738  159.3896 H   0  0  0  0  0  0  0  0  0  0  0  0
  152.7708  142.3685  157.9440 H   0  0  0  0  0  0  0  0  0  0  0  0
  149.7441  142.5152  158.0610 H   0  0  0  0  0  0  0  0  0  0  0  0
  150.8214  143.5247  157.0967 H   0  0  0  0  0  0  0  0  0  0  0  0
  151.2593  141.7645  155.5747 H   0  0  0  0  0  0  0  0  0  0  0  0
  149.6099  141.3718  155.9877 H   0  0  0  0  0  0  0  0  0  0  0  0
  148.6896  134.4627  159.0921 H   0  0  0  0  0  0  0  0  0  0  0  0
  1  2  1  0  0  0  0
  1 25  1  0  0  0  0
  1 26  1  0  0  0  0
  1 27  1  0  0  0  0
  2  3  1  0  0  0  0
  2 28  1  0  0  0  0
  2 29  1  0  0  0  0
  3 24  1  0  0  0  0
  3  4  1  0  0  0  0
  4  5  2  0  0  0  0
  4 30  1  0  0  0  0
  5  6  1  0  0  0  0
  5 31  1  0  0  0  0
  6  7  2  0  0  0  0
  6  8  1  0  0  0  0
  8  9  1  0  0  0  0
  8 24  2  0  0  0  0
  9 10  1  0  0  0  0
  9 32  1  0  0  0  0
 10 11  2  0  0  0  0
 10 12  1  0  0  0  0
 12 13  1  0  0  0  0
 12 33  1  0  0  0  0
 13 19  1  0  0  0  0
 13 14  1  0  0  0  0
 13 34  1  0  0  0  0
 14 18  1  0  0  0  0
 14 15  1  0  0  0  0
 14 35  1  0  0  0  0
 15 16  1  0  0  0  0
 15 36  1  0  0  0  0
 15 37  1  0  0  0  0
 16 17  1  0  0  0  0
 16 38  1  0  0  0  0
 16 39  1  0  0  0  0
 17 18  1  0  0  0  0
 18 19  1  0  0  0  0
 18 40  1  0  0  0  0
 19 23  1  0  0  0  0
 19 20  1  0  0  0  0
 20 21  1  0  0  0  0
 20 41  1  0  0  0  0
 20 42  1  0  0  0  0
 21 22  1  0  0  0  0
 21 43  1  0  0  0  0
 21 44  1  0  0  0  0
 22 23  1  0  0  0  0
 22 45  1  0  0  0  0
 22 46  1  0  0  0  0
 23 47  1  0  0  0  0
 23 48  1  0  0  0  0
 24 49  1  0  0  0  0
M  END
> <s_m_source_file>
AV-unprocessed.smi

> <i_m_source_file_index>
2339

> <i_lp_mmshare_version>
43012

> <i_f3d_flags>
0

> <s_epik_input>
W0NIM11bQ0gyXW4xW2NIXVtjSF1jKD1PKWMoW2NIXTEpW05IXUMoPU8pW05IXVtDQEBIXTJbQ0BASF0oW0NIMl1bQ0gyXU8zKVtDQEBIXTNDMjRbQ0gyXVtDSDJdW0NIMl1bQ0gyXTQ=

> <s_epik_cmdline>
J2VwaWtfcHl0aG9uJywgJy1waCcsICc3LjAnLCAnLXRuJywgJzgnLCAnLW1hJywgJzIwMCcsICctbWV0YWxfYmluZGluZycsICctaW1hZScsICc8aW5maWxlLm1hZT4nLCAnLW9tYWUnLCAnPG91dGZpbGUubWFlPic=

> <r_lp_tautomer_probability>
1

> <r_epik_Ionization_Penalty>
0.00145966

> <r_epik_Ionization_Penalty_Charging>
0.00143969

> <r_epik_Ionization_Penalty_Neutral>
1.99697e-05

> <r_epik_State_Penalty>
0.000961843

> <r_epik_Charging_Adjusted_Penalty>
0.00240153

> <i_epik_Tot_Q>
0

> <i_epik_Tot_abs_Q>
0

> <r_epik_Metal_State_Penalty>
-0

> <b_epik_Metal_Only>
0

> <s_lp_Force_Field>
OPLS_2005

> <r_lp_Energy>
57.0786

> <b_lp_Chiralities_Consistent>
1

> <s_lp_Variant>
AV-unprocessed.smi:2339-1

> <Gold.Version>
5.8.1

> <Gold.Id.Protein>
6NUR|6NUR_protein|mol2

> <Gold.PLP.Fitness>
48.6481

> <Gold.PLP.PLP>
-42.2285

> <Gold.PLP.part.hbond>
-3.0000

> <Gold.PLP.part.metal>
0.0000

> <Gold.PLP.part.buried>
-5.1851

> <Gold.PLP.part.nonpolar>
-34.2323

> <Gold.PLP.part.repulsive>
0.4406

> <Gold.PLP.ligand.clash>
0.0000

> <Gold.PLP.ligand.torsion>
0.2566

> <Gold.PLP.Chemscore.Hbond>
2.2508

> <Gold.PLP.Chemscore.CHOScore>
0.0000

> <Gold.PLP.Chemscore.Metal>
0.0000

> <Gold.Chemscore.Hbonds>
donor molecule, donor type, donor heavy atom, donor atom, acceptor molecule, acceptor atom, score
      P1  H  6931  6943       L1     7  0.77
      P1  H  6934  6947       L1     7  0.39
      P1  H  7989  7998       L1    17  1.00

> <Gold.PLP.Chemscore.Internal.Correction>
0.1803

> <Gold.Rescore>
     Score         DG    S(hbond)    S(metal)    S(lipo)     H(rot)  DE(clash)    DE(int)     intcor
     18.28     -19.57       1.92        0.00      91.05       1.17       0.02       1.27       ----

> <Gold.Chemscore.Fitness>
18.2775

> <Gold.Chemscore.DG>
-19.5657

> <Gold.Chemscore.ZeroCoef>
-5.4800

> <Gold.Chemscore.Hbond>
1.9221

> <Gold.Chemscore.Metal>
0.0000

> <Gold.Chemscore.Lipo>
91.0543

> <Gold.Chemscore.Internal_Hbond>
0.0000

> <Gold.Chemscore.DEClash>
0.0195

> <Gold.Chemscore.DEInternal>
1.2687

> <Gold.Chemscore.Rot>
1.1670

> <Gold.Chemscore.Internal.Correction>
   9.000000E+99

> <Gold.Chemscore.Hbonds>
donor molecule, donor type, donor heavy atom, donor atom, acceptor molecule, acceptor atom, score
      P1  H  6931  6943       L1     7  0.51
      P1  H  6934  6947       L1     7  0.38
      P1  H  7989  7998       L1    17  0.94

> <Gold.Chemscore.Hbond.Weighted>
-6.4198

> <Gold.Chemscore.Metal.Weighted>
-0.0000

> <Gold.Chemscore.Lipo.Weighted>
-10.6534

> <Gold.Chemscore.Internal_Hbond.Weighted>
0.0000

> <Gold.Chemscore.DEClash.Weighted>
0.0195

> <Gold.Chemscore.DEInternal.Weighted>
1.2687

> <Gold.Chemscore.Rot.Weighted>
2.9874

> <Gold.Chemscore.Internal.Correction.Weighted>
   9.000000E+99

> <Gold.Protein.RotatedTorsions>
[ 6907 6896 6895 6894 ] final -103.18 input  -60.11 | X-H torsion
[ 7974 7965 7964 7962 ] final  103.15 input  175.53 | X-H torsion
[ 8008 7997 7996 7995 ] final  -10.06 input   59.86 | X-H torsion
[ 10167 10162 10161 10158 ] final  102.82 input  -65.29 | X-H torsion
[ 10718 10713 10712 10709 ] final  -10.32 input   66.30 | X-H torsion
[ 10763 10752 10751 10750 ] final  -26.23 input  -60.55 | X-H torsion
[ 11005 11000 10999 10996 ] final -112.59 input  -57.11 | X-H torsion

> <Gold.Protein.ActiveResidues>
 VAL166  LYS551  ARG553  GLY616  TRP617  ASP618  TYR619  PRO620  LYS621  CYS622 
 ASP623  PHE694  ASN695  SER759  ASP760  ASP761  ALA762  ILE779  LEU786  VAL792 
 PHE793  MET794  SER795  GLU796  ALA797  LYS798  CYS799  TRP800  GLU811  SER814 

> <Gold.Protein.RotatedAtoms>
  150.7229  134.0468  159.3784 H   0  0  0  0  0  0  0  0  0  0  0  0  # atno 6907 bound_to 6896
  151.8444  135.0577  160.0461 H   0  0  0  0  0  0  0  0  0  0  0  0  # atno 6908 bound_to 6896
  152.2838  133.5460  159.5551 H   0  0  0  0  0  0  0  0  0  0  0  0  # atno 6909 bound_to 6896
  145.3497  139.2442  143.3565 H   0  0  0  0  0  0  0  0  0  0  0  0  # atno 7974 bound_to 7965
  154.5589  140.2339  155.8366 H   0  0  0  0  0  0  0  0  0  0  0  0  # atno 8008 bound_to 7997
  156.2012  140.3052  155.9491 H   0  0  0  0  0  0  0  0  0  0  0  0  # atno 8009 bound_to 7997
  155.2926  140.0427  157.3014 H   0  0  0  0  0  0  0  0  0  0  0  0  # atno 8010 bound_to 7997
  139.7316  144.7034  151.0713 H   0  0  0  0  0  0  0  0  0  0  0  0  # atno 10167 bound_to 10162
  156.6753  130.5021  149.5988 H   0  0  0  0  0  0  0  0  0  0  0  0  # atno 10718 bound_to 10713
  153.7126  135.6950  153.5033 H   0  0  0  0  0  0  0  0  0  0  0  0  # atno 10763 bound_to 10752
  153.2262  135.4353  155.0543 H   0  0  0  0  0  0  0  0  0  0  0  0  # atno 10764 bound_to 10752
  154.8310  135.3473  154.6662 H   0  0  0  0  0  0  0  0  0  0  0  0  # atno 10765 bound_to 10752
  141.0666  133.9449  157.2567 H   0  0  0  0  0  0  0  0  0  0  0  0  # atno 11005 bound_to 11000
  146.2973  140.4110  142.8717 LP  0  0  0  0  0  0  0  0  0  0  0  0  # atno 17320 bound_to 7965
  144.8727  140.7295  143.6036 LP  0  0  0  0  0  0  0  0  0  0  0  0  # atno 17321 bound_to 7965
  140.7772  143.5036  150.9740 LP  0  0  0  0  0  0  0  0  0  0  0  0  # atno 17342 bound_to 10162
  139.8724  143.7175  152.3165 LP  0  0  0  0  0  0  0  0  0  0  0  0  # atno 17343 bound_to 10162
  156.1908  130.6559  151.1059 LP  0  0  0  0  0  0  0  0  0  0  0  0  # atno 17370 bound_to 10713
  157.7063  131.0755  150.6655 LP  0  0  0  0  0  0  0  0  0  0  0  0  # atno 17371 bound_to 10713
  139.9482  135.0180  156.8915 LP  0  0  0  0  0  0  0  0  0  0  0  0  # atno 17394 bound_to 11000
  140.5761  134.0396  155.7447 LP  0  0  0  0  0  0  0  0  0  0  0  0  # atno 17395 bound_to 11000

$$$$
