AV-unprocessed.smi:1484|AV-procd|sdf|5993|dock5
  -GOLD-   22720 6 83D 1   1.00000     0.00000
 Structure written by MMmdl.
 37 38  0  0  0  0  0  0  0  0  2 V2000
  149.0965  140.8078  154.3342 C   0  0  0  0  0  0  0  0  0  0  0  0
  149.4659  139.9493  155.5522 C   0  0  2  0  0  0  0  0  0  0  0  0
  150.8499  140.3314  156.1105 C   0  0  0  0  0  0  0  0  0  0  0  0
  151.2248  139.4728  157.3285 C   0  0  0  0  0  0  0  0  0  0  0  0
  151.1717  137.9724  156.9928 C   0  0  0  0  0  0  0  0  0  0  0  0
  149.8059  137.5535  156.4157 C   0  0  1  0  0  0  0  0  0  0  0  0
  148.7842  137.5872  157.4607 N   0  0  0  0  0  0  0  0  0  0  0  0
  148.6905  136.7326  158.4907 C   0  0  0  0  0  0  0  0  0  0  0  0
  149.4790  135.8019  158.6653 O   0  0  0  0  0  0  0  0  0  0  0  0
  147.5173  136.9821  159.4518 C   0  0  0  0  0  0  0  0  0  0  0  0
  147.4380  136.0300  160.5694 N   0  0  0  0  0  0  0  0  0  0  0  0
  147.4134  134.6311  160.1499 N   0  5  0  0  0  0  0  0  0  0  0  0
  147.3231  133.6578  161.0947 C   0  0  0  0  0  0  0  0  0  0  0  0
  147.2816  132.4614  160.8169 O   0  0  0  0  0  0  0  0  0  0  0  0
  147.2789  134.0608  162.4905 C   0  0  0  0  0  0  0  0  0  0  0  0
  147.3244  135.3587  162.8498 C   0  0  0  0  0  0  0  0  0  0  0  0
  147.4155  136.4357  161.8712 C   0  0  0  0  0  0  0  0  0  0  0  0
  147.4652  137.6231  162.1930 O   0  0  0  0  0  0  0  0  0  0  0  0
  149.4155  138.4440  155.2157 C   0  0  0  0  0  0  0  0  0  0  0  0
  149.8004  140.6585  153.5149 H   0  0  0  0  0  0  0  0  0  0  0  0
  149.0990  141.8685  154.5863 H   0  0  0  0  0  0  0  0  0  0  0  0
  148.1003  140.5592  153.9672 H   0  0  0  0  0  0  0  0  0  0  0  0
  148.7238  140.1489  156.3263 H   0  0  0  0  0  0  0  0  0  0  0  0
  151.6074  140.2103  155.3349 H   0  0  0  0  0  0  0  0  0  0  0  0
  150.8613  141.3853  156.3906 H   0  0  0  0  0  0  0  0  0  0  0  0
  152.2237  139.7385  157.6753 H   0  0  0  0  0  0  0  0  0  0  0  0
  150.5459  139.6918  158.1537 H   0  0  0  0  0  0  0  0  0  0  0  0
  151.9509  137.7452  156.2640 H   0  0  0  0  0  0  0  0  0  0  0  0
  151.4052  137.3810  157.8794 H   0  0  0  0  0  0  0  0  0  0  0  0
  149.8976  136.5233  156.0667 H   0  0  0  0  0  0  0  0  0  0  0  0
  148.0934  138.3205  157.3958 H   0  0  0  0  0  0  0  0  0  0  0  0
  147.5978  138.0014  159.8346 H   0  0  0  0  0  0  0  0  0  0  0  0
  146.5880  136.9604  158.8800 H   0  0  0  0  0  0  0  0  0  0  0  0
  147.2100  133.3024  163.2563 H   0  0  0  0  0  0  0  0  0  0  0  0
  147.2901  135.6117  163.8988 H   0  0  0  0  0  0  0  0  0  0  0  0
  148.4223  138.1731  154.8551 H   0  0  0  0  0  0  0  0  0  0  0  0
  150.0986  138.2397  154.3902 H   0  0  0  0  0  0  0  0  0  0  0  0
  1  2  1  0  0  0  0
  1 20  1  0  0  0  0
  1 21  1  0  0  0  0
  1 22  1  0  0  0  0
  2 19  1  0  0  0  0
  2  3  1  0  0  0  0
  2 23  1  0  0  0  0
  3  4  1  0  0  0  0
  3 24  1  0  0  0  0
  3 25  1  0  0  0  0
  4  5  1  0  0  0  0
  4 26  1  0  0  0  0
  4 27  1  0  0  0  0
  5  6  1  0  0  0  0
  5 28  1  0  0  0  0
  5 29  1  0  0  0  0
  6  7  1  0  0  0  0
  6 19  1  0  0  0  0
  6 30  1  0  0  0  0
  7  8  1  0  0  0  0
  7 31  1  0  0  0  0
  8  9  2  0  0  0  0
  8 10  1  0  0  0  0
 10 32  1  0  0  0  0
 10 33  1  0  0  0  0
 10 11  1  0  0  0  0
 11 12  1  0  0  0  0
 11 17  1  0  0  0  0
 12 13  1  0  0  0  0
 13 14  2  0  0  0  0
 13 15  1  0  0  0  0
 15 34  1  0  0  0  0
 15 16  2  0  0  0  0
 16 35  1  0  0  0  0
 16 17  1  0  0  0  0
 17 18  2  0  0  0  0
 19 36  1  0  0  0  0
 19 37  1  0  0  0  0
M  CHG  1  12  -1
M  END
> <s_m_source_file>
AV-unprocessed.smi

> <i_m_source_file_index>
1484

> <i_lp_mmshare_version>
43012

> <i_f3d_flags>
0

> <s_epik_input>
W0NIM11bQ0BASF0xW0NIMl1bQ0gyXVtDSDJdW0NASF0oW0NIMl0xKVtOSF1DKD1PKVtDSDJdbjJbbkhdYyg9TylbY0hdW2NIXWMyPU8=

> <s_epik_cmdline>
J2VwaWtfcHl0aG9uJywgJy1waCcsICc3LjAnLCAnLXRuJywgJzgnLCAnLW1hJywgJzIwMCcsICctbWV0YWxfYmluZGluZycsICctaW1hZScsICc8aW5maWxlLm1hZT4nLCAnLW9tYWUnLCAnPG91dGZpbGUubWFlPic=

> <r_lp_tautomer_probability>
1

> <r_epik_Ionization_Penalty>
0.101352

> <r_epik_Ionization_Penalty_Charging>
0.101352

> <r_epik_Ionization_Penalty_Neutral>
1.90469e-08

> <r_epik_State_Penalty>
0.0358555

> <r_epik_Charging_Adjusted_Penalty>
0.137208

> <i_epik_Tot_Q>
-1

> <i_epik_Tot_abs_Q>
1

> <r_epik_Metal_State_Penalty>
0.0358555

> <b_epik_Metal_Only>
0

> <s_lp_Force_Field>
OPLS_2005

> <r_lp_Energy>
23.9764

> <b_lp_Chiralities_Consistent>
1

> <s_lp_Variant>
AV-unprocessed.smi:1484-1

> <Gold.Version>
5.8.1

> <Gold.Id.Protein>
6NUR|6NUR_protein|mol2

> <Gold.PLP.Fitness>
38.1353

> <Gold.PLP.PLP>
-31.4730

> <Gold.PLP.part.hbond>
-3.0000

> <Gold.PLP.part.metal>
0.0000

> <Gold.PLP.part.buried>
-4.6065

> <Gold.PLP.part.nonpolar>
-24.1796

> <Gold.PLP.part.repulsive>
0.0396

> <Gold.PLP.ligand.clash>
0.0000

> <Gold.PLP.ligand.torsion>
0.1649

> <Gold.PLP.Chemscore.Hbond>
2.3280

> <Gold.PLP.Chemscore.CHOScore>
0.0000

> <Gold.PLP.Chemscore.Metal>
0.0000

> <Gold.Chemscore.Hbonds>
donor molecule, donor type, donor heavy atom, donor atom, acceptor molecule, acceptor atom, score
      P1  H  6896  6908       L1     9  1.00
      P1  H  6931  6943       L1    18  0.66
      P1  H  6934  6947       L1    18  0.50

> <Gold.PLP.Chemscore.Internal.Correction>
0.0081

> <Gold.Rescore>
     Score         DG    S(hbond)    S(metal)    S(lipo)     H(rot)  DE(clash)    DE(int)     intcor
     15.89     -16.42       2.60        0.00      55.53       1.65       0.18       0.35       ----

> <Gold.Chemscore.Fitness>
15.8889

> <Gold.Chemscore.DG>
-16.4163

> <Gold.Chemscore.ZeroCoef>
-5.4800

> <Gold.Chemscore.Hbond>
2.5974

> <Gold.Chemscore.Metal>
0.0000

> <Gold.Chemscore.Lipo>
55.5343

> <Gold.Chemscore.Internal_Hbond>
0.0000

> <Gold.Chemscore.DEClash>
0.1799

> <Gold.Chemscore.DEInternal>
0.3475

> <Gold.Chemscore.Rot>
1.6549

> <Gold.Chemscore.Internal.Correction>
   9.000000E+99

> <Gold.Chemscore.Hbonds>
donor molecule, donor type, donor heavy atom, donor atom, acceptor molecule, acceptor atom, score
      P1  H  6896  6908       L1     9  1.00
      P1  H  6931  6943       L1    18  0.54
      P1  H  6934  6947       L1    18  0.50

> <Gold.Chemscore.Hbond.Weighted>
-8.6752

> <Gold.Chemscore.Metal.Weighted>
-0.0000

> <Gold.Chemscore.Lipo.Weighted>
-6.4975

> <Gold.Chemscore.Internal_Hbond.Weighted>
0.0000

> <Gold.Chemscore.DEClash.Weighted>
0.1799

> <Gold.Chemscore.DEInternal.Weighted>
0.3475

> <Gold.Chemscore.Rot.Weighted>
4.2364

> <Gold.Chemscore.Internal.Correction.Weighted>
   9.000000E+99

> <Gold.Protein.RotatedTorsions>
[ 6907 6896 6895 6894 ] final  179.39 input  -60.11 | X-H torsion
[ 7974 7965 7964 7962 ] final  -50.59 input  175.53 | X-H torsion
[ 8008 7997 7996 7995 ] final    3.91 input   59.86 | X-H torsion
[ 10167 10162 10161 10158 ] final  124.39 input  -65.29 | X-H torsion
[ 10718 10713 10712 10709 ] final  103.33 input   66.30 | X-H torsion
[ 10763 10752 10751 10750 ] final  142.72 input  -60.55 | X-H torsion
[ 11005 11000 10999 10996 ] final   63.27 input  -57.11 | X-H torsion

> <Gold.Protein.ActiveResidues>
 VAL166  LYS551  ARG553  GLY616  TRP617  ASP618  TYR619  PRO620  LYS621  CYS622 
 ASP623  PHE694  ASN695  SER759  ASP760  ASP761  ALA762  ILE779  LEU786  VAL792 
 PHE793  MET794  SER795  GLU796  ALA797  LYS798  CYS799  TRP800  GLU811  SER814 

> <Gold.Protein.RotatedAtoms>
  151.6725  133.3313  159.3199 H   0  0  0  0  0  0  0  0  0  0  0  0  # atno 6907 bound_to 6896
  150.7861  134.6850  159.6474 H   0  0  0  0  0  0  0  0  0  0  0  0  # atno 6908 bound_to 6896
  152.3931  134.6413  160.0152 H   0  0  0  0  0  0  0  0  0  0  0  0  # atno 6909 bound_to 6896
  145.9282  140.7773  142.9613 H   0  0  0  0  0  0  0  0  0  0  0  0  # atno 7974 bound_to 7965
  154.7095  140.2689  155.6643 H   0  0  0  0  0  0  0  0  0  0  0  0  # atno 8008 bound_to 7997
  156.2791  140.2756  156.1656 H   0  0  0  0  0  0  0  0  0  0  0  0  # atno 8009 bound_to 7997
  155.0654  140.0371  157.2581 H   0  0  0  0  0  0  0  0  0  0  0  0  # atno 8010 bound_to 7997
  139.5744  144.6956  151.3691 H   0  0  0  0  0  0  0  0  0  0  0  0  # atno 10167 bound_to 10162
  157.6776  131.0776  150.5538 H   0  0  0  0  0  0  0  0  0  0  0  0  # atno 10718 bound_to 10713
  153.9605  135.2960  155.3434 H   0  0  0  0  0  0  0  0  0  0  0  0  # atno 10763 bound_to 10752
  154.7377  135.5039  153.9073 H   0  0  0  0  0  0  0  0  0  0  0  0  # atno 10764 bound_to 10752
  153.0949  135.6718  153.9893 H   0  0  0  0  0  0  0  0  0  0  0  0  # atno 10765 bound_to 10752
  140.0036  134.6404  155.9891 H   0  0  0  0  0  0  0  0  0  0  0  0  # atno 11005 bound_to 11000
  144.6761  140.2084  143.7379 LP  0  0  0  0  0  0  0  0  0  0  0  0  # atno 17320 bound_to 7965
  145.8461  139.2153  143.1799 LP  0  0  0  0  0  0  0  0  0  0  0  0  # atno 17321 bound_to 7965
  140.7028  143.7590  150.7431 LP  0  0  0  0  0  0  0  0  0  0  0  0  # atno 17342 bound_to 10162
  140.1105  143.4703  152.2372 LP  0  0  0  0  0  0  0  0  0  0  0  0  # atno 17343 bound_to 10162
  156.5842  130.4312  149.5964 LP  0  0  0  0  0  0  0  0  0  0  0  0  # atno 17370 bound_to 10713
  156.2636  130.6976  151.1753 LP  0  0  0  0  0  0  0  0  0  0  0  0  # atno 17371 bound_to 10713
  141.1660  133.6537  156.4482 LP  0  0  0  0  0  0  0  0  0  0  0  0  # atno 17394 bound_to 11000
  140.4683  134.6777  157.5117 LP  0  0  0  0  0  0  0  0  0  0  0  0  # atno 17395 bound_to 11000

$$$$
