#       Name:                AV-unprocessed.smi:2480
#       Creating user name   scv26
#       Creation time:       Fri Mar 27 13:41:22 2020


#       File generated by GOLD software.
#

@<TRIPOS>MOLECULE
AV-unprocessed.smi:2480
    38    39     1
SMALL
NO_CHARGES


@<TRIPOS>ATOM
      1 ****         0.6279   2.9681  -0.2029 O.2            1 S1                 0.0000
      2 ****         0.2928   1.7867  -0.2539 C.2            1 S1                 0.0000
      3 ****         1.1465   0.7439  -0.2816 N.am           1 S1                 0.0000
      4 ****         2.5713   0.7375  -0.2497 C.ar           1 S1                 0.0000
      5 ****         3.3465   1.8433  -0.6788 C.ar           1 S1                 0.0000
      6 ****         4.7502   1.7416  -0.6628 C.ar           1 S1                 0.0000
      7 ****         5.4083   0.6338  -0.2695 N.ar           1 S1                 0.0000
      8 ****         4.6727  -0.4260   0.1235 C.ar           1 S1                 0.0000
      9 ****         3.2598  -0.4387   0.1576 C.ar           1 S1                 0.0000
     10 ****         2.5635  -1.6600   0.6029 N.pl3          1 S1                 1.0000
     11 ****         3.0172  -2.7372   0.2321 O.2            1 S1                 0.0000
     12 ****         1.5873  -1.5466   1.3364 O.2            1 S1                -1.0000
     13 ****        -1.0066   1.4352  -0.2750 N.am           1 S1                 0.0000
     14 ****        -2.1884   2.3007  -0.2555 C.3            1 S1                 0.0000
     15 ****        -2.5028   2.8030  -1.6584 C.2            1 S1                 0.0000
     16 ****        -3.7415   2.8415  -2.1780 C.2            1 S1                 0.0000
     17 ****        -4.9803   2.3975  -1.4228 C.3            1 S1                 0.0000
     18 ****        -4.7161   2.2418   0.0854 C.3            1 S1                 0.0000
     19 ****        -3.3795   1.5349   0.3588 C.3            1 S1                 0.0000
     20 ****         0.7143  -0.1679  -0.2451 H              1 S1                 0.0000
     21 ****         2.8990   2.7568  -1.0378 H              1 S1                 0.0000
     22 ****         5.3612   2.5710  -0.9870 H              1 S1                 0.0000
     23 ****         5.2368  -1.2956   0.4278 H              1 S1                 0.0000
     24 ****        -1.1972   0.4453  -0.3363 H              1 S1                 0.0000
     25 ****        -2.0027   3.1787   0.3651 H              1 S1                 0.0000
     26 ****        -1.6691   3.1409  -2.2564 H              1 S1                 0.0000
     27 ****        -3.8874   3.1908  -3.1897 H              1 S1                 0.0000
     28 ****        -5.7807   3.1191  -1.5872 H              1 S1                 0.0000
     29 ****        -5.3136   1.4503  -1.8478 H              1 S1                 0.0000
     30 ****        -4.6979   3.2270   0.5531 H              1 S1                 0.0000
     31 ****        -5.5364   1.6954   0.5518 H              1 S1                 0.0000
     32 ****        -3.4283   0.5273  -0.0575 H              1 S1                 0.0000
     33 ****        -3.2307   1.4159   1.4328 H              1 S1                 0.0000
     34 ****         1.5974   3.2123  -0.1788 LP             1 S1                 0.0000
     35 ****        -0.0689   3.6852  -0.1855 LP             1 S1                 0.0000
     36 ****         6.4077   0.5986  -0.2690 LP             1 S1                 0.0000
     37 ****         3.8298  -2.7637  -0.3501 LP             1 S1                 0.0000
     38 ****         2.5746  -3.5891   0.5119 LP             1 S1                 0.0000
@<TRIPOS>BOND
    1    1    2 2     
    2    2    3 am    
    3    2   13 am    
    4    3    4 1     
    5    3   20 1     
    6    4    9 ar    
    7    4    5 ar    
    8    5    6 ar    
    9    5   21 1     
   10    6    7 ar    
   11    6   22 1     
   12    7    8 ar    
   13    8    9 ar    
   14    8   23 1     
   15    9   10 1     
   16   10   11 2     
   17   10   12 1     
   18   13   14 1     
   19   13   24 1     
   20   14   19 1     
   21   14   15 1     
   22   14   25 1     
   23   15   16 2     
   24   15   26 1     
   25   16   17 1     
   26   16   27 1     
   27   17   18 1     
   28   17   28 1     
   29   17   29 1     
   30   18   19 1     
   31   18   30 1     
   32   18   31 1     
   33   19   32 1     
   34   19   33 1     
   35    1   34 1     
   36    1   35 1     
   37    7   36 1     
   38   11   37 1     
   39   11   38 1     
@<TRIPOS>SUBSTRUCTURE
      1 S1             1
@<TRIPOS>SET
LONE_PAIRS      STATIC     ATOMS    <user>   **** ""
6 34 35 36 37 38 12
DONOR_HYDROGENS      STATIC     ATOMS    <user>   **** ""
2 20 24
ATOM$BLUE        STATIC     ATOMS    COLORGROUP SYSTEM
6 34 35 36 37 38 12
ATOM$RED        STATIC     ATOMS    COLORGROUP SYSTEM
2 20 24
