AV-unprocessed.smi:2830|AV-procd|sdf|10906|dock7
  -GOLD-   2272015353D 1   1.00000     0.00000
 Structure written by MMmdl.
 28 28  0  0  0  0  0  0  0  0  1 V2000
  144.1743  133.0227  150.9106 C   0  0  0  0  0  0  0  0  0  0  0  0
  145.1644  132.5170  151.7888 O   0  0  0  0  0  0  0  0  0  0  0  0
  145.3128  131.1084  151.6911 C   0  0  0  0  0  0  0  0  0  0  0  0
  146.3437  130.6145  152.7235 C   0  0  2  0  0  0  0  0  0  0  0  0
  147.6431  131.2237  152.4443 N   0  0  0  0  0  0  0  0  0  0  0  0
  148.5652  131.5092  153.4634 C   0  0  0  0  0  0  0  0  0  0  0  0
  148.9596  132.8504  153.6542 C   0  0  0  0  0  0  0  0  0  0  0  0
  149.8801  133.1506  154.6772 C   0  0  0  0  0  0  0  0  0  0  0  0
  150.3728  132.0999  155.4758 C   0  0  0  0  0  0  0  0  0  0  0  0
  151.3220  132.3584  156.5445 C   0  0  0  0  0  0  0  0  0  0  0  0
  152.0781  132.5643  157.3959 N   0  0  0  0  0  0  0  0  0  0  0  0
  149.9199  130.7915  155.2120 C   0  0  0  0  0  0  0  0  0  0  0  0
  149.0373  130.4986  154.2328 N   0  0  0  0  0  0  0  0  0  0  0  0
  146.3912  129.0773  152.7319 C   0  0  0  0  0  0  0  0  0  0  0  0
  145.2857  128.4371  153.1208 N   0  0  0  0  0  0  0  0  0  0  0  0
  147.4052  128.4755  152.3810 O   0  0  0  0  0  0  0  0  0  0  0  0
  144.1053  134.1048  151.0207 H   0  0  0  0  0  0  0  0  0  0  0  0
  143.1948  132.5985  151.1349 H   0  0  0  0  0  0  0  0  0  0  0  0
  144.4212  132.8060  149.8705 H   0  0  0  0  0  0  0  0  0  0  0  0
  144.3515  130.6108  151.8349 H   0  0  0  0  0  0  0  0  0  0  0  0
  145.6531  130.8617  150.6838 H   0  0  0  0  0  0  0  0  0  0  0  0
  146.0106  130.9643  153.7023 H   0  0  0  0  0  0  0  0  0  0  0  0
  147.9771  131.1903  151.4922 H   0  0  0  0  0  0  0  0  0  0  0  0
  148.5671  133.6385  153.0281 H   0  0  0  0  0  0  0  0  0  0  0  0
  150.1974  134.1703  154.8411 H   0  0  0  0  0  0  0  0  0  0  0  0
  150.2702  129.9545  155.7989 H   0  0  0  0  0  0  0  0  0  0  0  0
  145.2708  127.4278  153.1451 H   0  0  0  0  0  0  0  0  0  0  0  0
  144.4694  128.9658  153.3919 H   0  0  0  0  0  0  0  0  0  0  0  0
  1  2  1  0  0  0  0
  1 17  1  0  0  0  0
  1 18  1  0  0  0  0
  1 19  1  0  0  0  0
  2  3  1  0  0  0  0
  3  4  1  0  0  0  0
  3 20  1  0  0  0  0
  3 21  1  0  0  0  0
  4  5  1  0  0  0  0
  4 14  1  0  0  0  0
  4 22  1  0  0  0  0
  5  6  1  0  0  0  0
  5 23  1  0  0  0  0
  6 13  1  0  0  0  0
  6  7  2  0  0  0  0
  7  8  1  0  0  0  0
  7 24  1  0  0  0  0
  8  9  2  0  0  0  0
  8 25  1  0  0  0  0
  9 10  1  0  0  0  0
  9 12  1  0  0  0  0
 10 11  3  0  0  0  0
 12 13  2  0  0  0  0
 12 26  1  0  0  0  0
 14 15  1  0  0  0  0
 14 16  2  0  0  0  0
 15 27  1  0  0  0  0
 15 28  1  0  0  0  0
M  END
> <s_m_source_file>
AV-unprocessed.smi

> <i_m_source_file_index>
2830

> <i_lp_mmshare_version>
43012

> <i_f3d_flags>
0

> <s_epik_input>
W0NIM11PW0NIMl1bQ0BASF0oQyg9TylbTkgyXSlbTkhdYzFbY0hdW2NIXWMoQyNOKVtjSF1uMQ==

> <s_epik_cmdline>
J2VwaWtfcHl0aG9uJywgJy1waCcsICc3LjAnLCAnLXRuJywgJzgnLCAnLW1hJywgJzIwMCcsICctbWV0YWxfYmluZGluZycsICctaW1hZScsICc8aW5maWxlLm1hZT4nLCAnLW9tYWUnLCAnPG91dGZpbGUubWFlPic=

> <r_lp_tautomer_probability>
1

> <r_epik_Ionization_Penalty>
4.37908e-06

> <r_epik_Ionization_Penalty_Charging>
0

> <r_epik_Ionization_Penalty_Neutral>
4.37908e-06

> <r_epik_State_Penalty>
-0

> <r_epik_Charging_Adjusted_Penalty>
0

> <i_epik_Tot_Q>
0

> <i_epik_Tot_abs_Q>
0

> <r_epik_Metal_State_Penalty>
-0

> <b_epik_Metal_Only>
0

> <s_lp_Force_Field>
OPLS_2005

> <r_lp_Energy>
0.179783

> <b_lp_Chiralities_Consistent>
1

> <s_lp_Variant>
AV-unprocessed.smi:2830-1

> <Gold.Version>
5.8.1

> <Gold.Id.Protein>
6NUR|6NUR_protein|mol2

> <Gold.PLP.Fitness>
35.4372

> <Gold.PLP.PLP>
-28.5536

> <Gold.PLP.part.hbond>
-3.0000

> <Gold.PLP.part.metal>
0.0000

> <Gold.PLP.part.buried>
-5.2741

> <Gold.PLP.part.nonpolar>
-21.2304

> <Gold.PLP.part.repulsive>
0.3442

> <Gold.PLP.ligand.clash>
0.0000

> <Gold.PLP.ligand.torsion>
1.0289

> <Gold.PLP.Chemscore.Hbond>
2.9680

> <Gold.PLP.Chemscore.CHOScore>
0.0000

> <Gold.PLP.Chemscore.Metal>
0.0000

> <Gold.Chemscore.Hbonds>
donor molecule, donor type, donor heavy atom, donor atom, acceptor molecule, acceptor atom, score
      L1  H     5    23       P1 10747  1.00
      L1  H    15    28       P1 10956  0.99
      P1  H  6896  6908       L1    11  0.98

> <Gold.PLP.Chemscore.Internal.Correction>
0.0375

> <Gold.Rescore>
     Score         DG    S(hbond)    S(metal)    S(lipo)     H(rot)  DE(clash)    DE(int)     intcor
     13.77     -14.77       2.97        0.00      45.28       2.32       0.00       1.00       ----

> <Gold.Chemscore.Fitness>
13.7704

> <Gold.Chemscore.DG>
-14.7728

> <Gold.Chemscore.ZeroCoef>
-5.4800

> <Gold.Chemscore.Hbond>
2.9740

> <Gold.Chemscore.Metal>
0.0000

> <Gold.Chemscore.Lipo>
45.2824

> <Gold.Chemscore.Internal_Hbond>
0.0000

> <Gold.Chemscore.DEClash>
0.0000

> <Gold.Chemscore.DEInternal>
1.0024

> <Gold.Chemscore.Rot>
2.3197

> <Gold.Chemscore.Internal.Correction>
   9.000000E+99

> <Gold.Chemscore.Hbonds>
donor molecule, donor type, donor heavy atom, donor atom, acceptor molecule, acceptor atom, score
      L1  H     5    23       P1 10747  0.98
      L1  H    15    28       P1 10956  0.66
      P1  H  6896  6908       L1    11  0.88

> <Gold.Chemscore.Hbond.Weighted>
-9.9332

> <Gold.Chemscore.Metal.Weighted>
-0.0000

> <Gold.Chemscore.Lipo.Weighted>
-5.2980

> <Gold.Chemscore.Internal_Hbond.Weighted>
0.0000

> <Gold.Chemscore.DEClash.Weighted>
0.0000

> <Gold.Chemscore.DEInternal.Weighted>
1.0024

> <Gold.Chemscore.Rot.Weighted>
5.9384

> <Gold.Chemscore.Internal.Correction.Weighted>
   9.000000E+99

> <Gold.Protein.RotatedTorsions>
[ 6907 6896 6895 6894 ] final   61.27 input  -60.11 | X-H torsion
[ 7974 7965 7964 7962 ] final -114.77 input  175.53 | X-H torsion
[ 8008 7997 7996 7995 ] final  166.87 input   59.86 | X-H torsion
[ 10167 10162 10161 10158 ] final  -34.10 input  -65.29 | X-H torsion
[ 10718 10713 10712 10709 ] final   22.28 input   66.30 | X-H torsion
[ 10763 10752 10751 10750 ] final -142.44 input  -60.55 | X-H torsion
[ 11005 11000 10999 10996 ] final   78.12 input  -57.11 | X-H torsion

> <Gold.Protein.ActiveResidues>
 VAL166  LYS551  ARG553  GLY616  TRP617  ASP618  TYR619  PRO620  LYS621  CYS622 
 ASP623  PHE694  ASN695  SER759  ASP760  ASP761  ALA762  ILE779  LEU786  VAL792 
 PHE793  MET794  SER795  GLU796  ALA797  LYS798  CYS799  TRP800  GLU811  SER814 

> <Gold.Protein.RotatedAtoms>
  152.4074  134.6183  160.0043 H   0  0  0  0  0  0  0  0  0  0  0  0  # atno 6907 bound_to 6896
  151.6371  133.3322  159.3129 H   0  0  0  0  0  0  0  0  0  0  0  0  # atno 6908 bound_to 6896
  150.7968  134.7074  159.6629 H   0  0  0  0  0  0  0  0  0  0  0  0  # atno 6909 bound_to 6896
  145.1163  140.8642  143.3840 H   0  0  0  0  0  0  0  0  0  0  0  0  # atno 7974 bound_to 7965
  156.1682  140.1632  156.8495 H   0  0  0  0  0  0  0  0  0  0  0  0  # atno 8008 bound_to 7997
  154.5229  140.0774  156.8239 H   0  0  0  0  0  0  0  0  0  0  0  0  # atno 8009 bound_to 7997
  155.3568  140.3393  155.4242 H   0  0  0  0  0  0  0  0  0  0  0  0  # atno 8010 bound_to 7997
  140.7192  143.3572  151.2035 H   0  0  0  0  0  0  0  0  0  0  0  0  # atno 10167 bound_to 10162
  157.1501  130.6671  149.6009 H   0  0  0  0  0  0  0  0  0  0  0  0  # atno 10718 bound_to 10713
  154.8509  135.3496  154.6028 H   0  0  0  0  0  0  0  0  0  0  0  0  # atno 10763 bound_to 10752
  153.6637  135.6988  153.5174 H   0  0  0  0  0  0  0  0  0  0  0  0  # atno 10764 bound_to 10752
  153.2797  135.4267  155.1024 H   0  0  0  0  0  0  0  0  0  0  0  0  # atno 10765 bound_to 10752
  139.9226  134.7738  156.1609 H   0  0  0  0  0  0  0  0  0  0  0  0  # atno 11005 bound_to 11000
  145.0790  139.2973  143.5793 LP  0  0  0  0  0  0  0  0  0  0  0  0  # atno 17320 bound_to 7965
  146.3523  140.0291  142.8652 LP  0  0  0  0  0  0  0  0  0  0  0  0  # atno 17321 bound_to 7965
  139.7116  143.9367  152.2950 LP  0  0  0  0  0  0  0  0  0  0  0  0  # atno 17342 bound_to 10162
  139.9094  144.6865  150.8578 LP  0  0  0  0  0  0  0  0  0  0  0  0  # atno 17343 bound_to 10162
  155.9772  130.4747  150.6578 LP  0  0  0  0  0  0  0  0  0  0  0  0  # atno 17370 bound_to 10713
  157.4228  131.0839  151.1114 LP  0  0  0  0  0  0  0  0  0  0  0  0  # atno 17371 bound_to 10713
  141.0758  133.6776  156.2234 LP  0  0  0  0  0  0  0  0  0  0  0  0  # atno 17394 bound_to 11000
  140.6431  134.5146  157.5571 LP  0  0  0  0  0  0  0  0  0  0  0  0  # atno 17395 bound_to 11000

$$$$
