AV-unprocessed.smi:477|AV-procd|sdf|2670|dock9
  -GOLD-   2262023 83D 1   1.00000     0.00000
 Structure written by MMmdl.
 45 46  0  0  0  0  0  0  0  0  1 V2000
  146.9004  136.2184  155.3756 C   0  0  0  0  0  0  0  0  0  0  0  0
  148.3986  136.1374  155.4944 C   0  0  0  0  0  0  0  0  0  0  0  0
  149.0724  137.1362  155.0267 N   0  0  0  0  0  0  0  0  0  0  0  0
  150.4525  137.1643  155.0857 N   0  0  0  0  0  0  0  0  0  0  0  0
  151.0463  138.3897  154.5317 C   0  0  0  0  0  0  0  0  0  0  0  0
  150.7571  139.6395  155.3759 C   0  0  0  0  0  0  0  0  0  0  0  0
  150.1943  140.6215  154.8896 O   0  0  0  0  0  0  0  0  0  0  0  0
  151.1612  139.5847  156.6537 N   0  0  0  0  0  0  0  0  0  0  0  0
  151.0337  140.6689  157.6208 C   0  0  0  0  0  0  0  0  0  0  0  0
  152.3930  141.2331  158.0832 C   0  0  0  0  0  0  0  0  0  0  0  0
  152.2874  142.5270  158.8772 C   0  0  0  0  0  0  0  0  0  0  0  0
  152.6527  142.5920  160.1722 C   0  0  0  0  0  0  0  0  0  0  0  0
  152.5362  143.8388  161.0312 C   0  0  0  0  0  0  0  0  0  0  0  0
  151.6333  144.9076  160.3931 C   0  0  0  0  0  0  0  0  0  0  0  0
  151.9237  145.0555  158.8946 C   0  0  0  0  0  0  0  0  0  0  0  0
  151.6983  143.7299  158.1460 C   0  0  0  0  0  0  0  0  0  0  0  0
  151.2273  136.1750  155.6171 C   0  0  0  0  0  0  0  0  0  0  0  0
  152.4571  136.2402  155.6486 O   0  0  0  0  0  0  0  0  0  0  0  0
  150.4572  135.0461  156.1441 C   0  0  0  0  0  0  0  0  0  0  0  0
  151.2303  133.9877  156.7094 C   0  0  0  0  0  0  0  0  0  0  0  0
  151.8649  133.1423  157.1814 N   0  0  0  0  0  0  0  0  0  0  0  0
  149.1019  135.0103  156.0988 C   0  0  0  0  0  0  0  0  0  0  0  0
  148.2570  133.8623  156.6343 C   0  0  0  0  0  0  0  0  0  0  0  0
  146.5027  135.3407  154.8655 H   0  0  0  0  0  0  0  0  0  0  0  0
  146.5839  137.0966  154.8105 H   0  0  0  0  0  0  0  0  0  0  0  0
  146.4379  136.2758  156.3612 H   0  0  0  0  0  0  0  0  0  0  0  0
  152.1264  138.2857  154.4174 H   0  0  0  0  0  0  0  0  0  0  0  0
  150.6633  138.5526  153.5222 H   0  0  0  0  0  0  0  0  0  0  0  0
  151.6127  138.7399  156.9732 H   0  0  0  0  0  0  0  0  0  0  0  0
  150.4205  141.4684  157.2019 H   0  0  0  0  0  0  0  0  0  0  0  0
  150.4850  140.2858  158.4816 H   0  0  0  0  0  0  0  0  0  0  0  0
  152.9370  140.4938  158.6723 H   0  0  0  0  0  0  0  0  0  0  0  0
  153.0079  141.4196  157.2018 H   0  0  0  0  0  0  0  0  0  0  0  0
  153.0693  141.7196  160.6547 H   0  0  0  0  0  0  0  0  0  0  0  0
  152.1489  143.5649  162.0127 H   0  0  0  0  0  0  0  0  0  0  0  0
  153.5396  144.2367  161.1857 H   0  0  0  0  0  0  0  0  0  0  0  0
  150.5874  144.6287  160.5284 H   0  0  0  0  0  0  0  0  0  0  0  0
  151.7667  145.8618  160.9032 H   0  0  0  0  0  0  0  0  0  0  0  0
  151.2988  145.8373  158.4620 H   0  0  0  0  0  0  0  0  0  0  0  0
  152.9573  145.3773  158.7600 H   0  0  0  0  0  0  0  0  0  0  0  0
  152.1160  143.8108  157.1439 H   0  0  0  0  0  0  0  0  0  0  0  0
  150.6297  143.5522  158.0217 H   0  0  0  0  0  0  0  0  0  0  0  0
  148.8583  133.1139  157.1497 H   0  0  0  0  0  0  0  0  0  0  0  0
  147.7350  133.3619  155.8181 H   0  0  0  0  0  0  0  0  0  0  0  0
  147.5151  134.2276  157.3452 H   0  0  0  0  0  0  0  0  0  0  0  0
  1  2  1  0  0  0  0
  1 24  1  0  0  0  0
  1 25  1  0  0  0  0
  1 26  1  0  0  0  0
  2 22  1  0  0  0  0
  2  3  2  0  0  0  0
  3  4  1  0  0  0  0
  4  5  1  0  0  0  0
  4 17  1  0  0  0  0
  5  6  1  0  0  0  0
  5 27  1  0  0  0  0
  5 28  1  0  0  0  0
  6  7  2  0  0  0  0
  6  8  1  0  0  0  0
  8  9  1  0  0  0  0
  8 29  1  0  0  0  0
  9 10  1  0  0  0  0
  9 30  1  0  0  0  0
  9 31  1  0  0  0  0
 10 11  1  0  0  0  0
 10 32  1  0  0  0  0
 10 33  1  0  0  0  0
 11 16  1  0  0  0  0
 11 12  2  0  0  0  0
 12 13  1  0  0  0  0
 12 34  1  0  0  0  0
 13 14  1  0  0  0  0
 13 35  1  0  0  0  0
 13 36  1  0  0  0  0
 14 15  1  0  0  0  0
 14 37  1  0  0  0  0
 14 38  1  0  0  0  0
 15 16  1  0  0  0  0
 15 39  1  0  0  0  0
 15 40  1  0  0  0  0
 16 41  1  0  0  0  0
 16 42  1  0  0  0  0
 17 18  2  0  0  0  0
 17 19  1  0  0  0  0
 19 20  1  0  0  0  0
 19 22  2  0  0  0  0
 20 21  3  0  0  0  0
 22 23  1  0  0  0  0
 23 43  1  0  0  0  0
 23 44  1  0  0  0  0
 23 45  1  0  0  0  0
M  END
> <s_m_source_file>
AV-unprocessed.smi

> <i_m_source_file_index>
477

> <i_lp_mmshare_version>
43012

> <i_f3d_flags>
0

> <s_epik_input>
TiNDYyhjMVtDSDNdKWMoPU8pbihuYzFbQ0gzXSlbQ0gyXUMoPU8pW05IXVtDSDJdW0NIMl1DMj1bQ0hdW0NIMl1bQ0gyXVtDSDJdW0NIMl0y

> <s_epik_cmdline>
J2VwaWtfcHl0aG9uJywgJy1waCcsICc3LjAnLCAnLXRuJywgJzgnLCAnLW1hJywgJzIwMCcsICctbWV0YWxfYmluZGluZycsICctaW1hZScsICc8aW5maWxlLm1hZT4nLCAnLW9tYWUnLCAnPG91dGZpbGUubWFlPic=

> <r_lp_tautomer_probability>
1

> <r_epik_Ionization_Penalty>
1.81256e-08

> <r_epik_Ionization_Penalty_Charging>
2.1856e-11

> <r_epik_Ionization_Penalty_Neutral>
1.81037e-08

> <r_epik_State_Penalty>
-0

> <r_epik_Charging_Adjusted_Penalty>
2.1856e-11

> <i_epik_Tot_Q>
0

> <i_epik_Tot_abs_Q>
0

> <r_epik_Metal_State_Penalty>
-0

> <b_epik_Metal_Only>
0

> <s_lp_Force_Field>
OPLS_2005

> <r_lp_Energy>
23.5318

> <b_lp_Chiralities_Consistent>
1

> <s_lp_Variant>
AV-unprocessed.smi:477-1

> <Gold.Version>
5.8.1

> <Gold.Id.Protein>
6NUR|6NUR_protein|mol2

> <Gold.PLP.Fitness>
50.0399

> <Gold.PLP.PLP>
-41.9079

> <Gold.PLP.part.hbond>
-3.0000

> <Gold.PLP.part.metal>
0.0000

> <Gold.PLP.part.buried>
-5.4837

> <Gold.PLP.part.nonpolar>
-34.7919

> <Gold.PLP.part.repulsive>
0.5017

> <Gold.PLP.ligand.clash>
0.0000

> <Gold.PLP.ligand.torsion>
0.1446

> <Gold.PLP.Chemscore.Hbond>
2.7920

> <Gold.PLP.Chemscore.CHOScore>
0.0000

> <Gold.PLP.Chemscore.Metal>
0.0000

> <Gold.Chemscore.Hbonds>
donor molecule, donor type, donor heavy atom, donor atom, acceptor molecule, acceptor atom, score
      P1  H  6896  6909       L1    21  0.22
      P1  H  7989  7998       L1     7  0.58
      P1  H 10752 10763       L1    18  0.15

> <Gold.PLP.Chemscore.Internal.Correction>
0.0451

> <Gold.Rescore>
     Score         DG    S(hbond)    S(metal)    S(lipo)     H(rot)  DE(clash)    DE(int)     intcor
     20.92     -21.41       2.82        0.00      95.65       1.83       0.03       0.47       ----

> <Gold.Chemscore.Fitness>
20.9207

> <Gold.Chemscore.DG>
-21.4148

> <Gold.Chemscore.ZeroCoef>
-5.4800

> <Gold.Chemscore.Hbond>
2.8234

> <Gold.Chemscore.Metal>
0.0000

> <Gold.Chemscore.Lipo>
95.6456

> <Gold.Chemscore.Internal_Hbond>
0.0000

> <Gold.Chemscore.DEClash>
0.0255

> <Gold.Chemscore.DEInternal>
0.4686

> <Gold.Chemscore.Rot>
1.8305

> <Gold.Chemscore.Internal.Correction>
   9.000000E+99

> <Gold.Chemscore.Hbonds>
donor molecule, donor type, donor heavy atom, donor atom, acceptor molecule, acceptor atom, score
      P1  H  6896  6909       L1    21  0.02
      P1  H  7989  7998       L1     7  0.05
      P1  H 10752 10763       L1    18  0.16

> <Gold.Chemscore.Hbond.Weighted>
-9.4303

> <Gold.Chemscore.Metal.Weighted>
-0.0000

> <Gold.Chemscore.Lipo.Weighted>
-11.1905

> <Gold.Chemscore.Internal_Hbond.Weighted>
0.0000

> <Gold.Chemscore.DEClash.Weighted>
0.0255

> <Gold.Chemscore.DEInternal.Weighted>
0.4686

> <Gold.Chemscore.Rot.Weighted>
4.6860

> <Gold.Chemscore.Internal.Correction.Weighted>
   9.000000E+99

> <Gold.Protein.RotatedTorsions>
[ 6907 6896 6895 6894 ] final  -23.23 input  -60.11 | X-H torsion
[ 7974 7965 7964 7962 ] final  -30.71 input  175.53 | X-H torsion
[ 8008 7997 7996 7995 ] final  156.79 input   59.86 | X-H torsion
[ 10167 10162 10161 10158 ] final  -82.12 input  -65.29 | X-H torsion
[ 10718 10713 10712 10709 ] final   -1.70 input   66.30 | X-H torsion
[ 10763 10752 10751 10750 ] final   90.99 input  -60.55 | X-H torsion
[ 11005 11000 10999 10996 ] final  162.45 input  -57.11 | X-H torsion

> <Gold.Protein.ActiveResidues>
 VAL166  LYS551  ARG553  GLY616  TRP617  ASP618  TYR619  PRO620  LYS621  CYS622 
 ASP623  PHE694  ASN695  SER759  ASP760  ASP761  ALA762  ILE779  LEU786  VAL792 
 PHE793  MET794  SER795  GLU796  ALA797  LYS798  CYS799  TRP800  GLU811  SER814 

> <Gold.Protein.RotatedAtoms>
  151.2071  135.0466  159.8895 H   0  0  0  0  0  0  0  0  0  0  0  0  # atno 6907 bound_to 6896
  152.5428  134.0786  159.8236 H   0  0  0  0  0  0  0  0  0  0  0  0  # atno 6908 bound_to 6896
  151.0934  133.5250  159.2645 H   0  0  0  0  0  0  0  0  0  0  0  0  # atno 6909 bound_to 6896
  146.1122  140.5575  142.8773 H   0  0  0  0  0  0  0  0  0  0  0  0  # atno 7974 bound_to 7965
  156.2402  140.1903  156.7009 H   0  0  0  0  0  0  0  0  0  0  0  0  # atno 8008 bound_to 7997
  154.6182  140.0612  156.9608 H   0  0  0  0  0  0  0  0  0  0  0  0  # atno 8009 bound_to 7997
  155.1904  140.3284  155.4362 H   0  0  0  0  0  0  0  0  0  0  0  0  # atno 8010 bound_to 7997
  140.4349  143.2535  151.8708 H   0  0  0  0  0  0  0  0  0  0  0  0  # atno 10167 bound_to 10162
  156.8017  130.5395  149.5721 H   0  0  0  0  0  0  0  0  0  0  0  0  # atno 10718 bound_to 10713
  153.2035  135.4414  155.0294 H   0  0  0  0  0  0  0  0  0  0  0  0  # atno 10763 bound_to 10752
  154.8160  135.3315  154.7177 H   0  0  0  0  0  0  0  0  0  0  0  0  # atno 10764 bound_to 10752
  153.7620  135.6991  153.4979 H   0  0  0  0  0  0  0  0  0  0  0  0  # atno 10765 bound_to 10752
  140.2258  134.8161  157.3267 H   0  0  0  0  0  0  0  0  0  0  0  0  # atno 11005 bound_to 11000
  144.7522  140.5218  143.6794 LP  0  0  0  0  0  0  0  0  0  0  0  0  # atno 17320 bound_to 7965
  145.5640  139.1480  143.3325 LP  0  0  0  0  0  0  0  0  0  0  0  0  # atno 17321 bound_to 7965
  139.4786  144.5294  151.8689 LP  0  0  0  0  0  0  0  0  0  0  0  0  # atno 17342 bound_to 10162
  140.4385  144.2019  150.5890 LP  0  0  0  0  0  0  0  0  0  0  0  0  # atno 17343 bound_to 10162
  156.1097  130.6031  151.0028 LP  0  0  0  0  0  0  0  0  0  0  0  0  # atno 17370 bound_to 10713
  157.6550  131.0891  150.7967 LP  0  0  0  0  0  0  0  0  0  0  0  0  # atno 17371 bound_to 10713
  140.1802  134.4500  155.7777 LP  0  0  0  0  0  0  0  0  0  0  0  0  # atno 17394 bound_to 11000
  141.2220  133.6980  156.7855 LP  0  0  0  0  0  0  0  0  0  0  0  0  # atno 17395 bound_to 11000

$$$$
