#       Name:                AV-unprocessed.smi:683
#       Creating user name   scv26
#       Creation time:       Fri Mar 27 00:30:05 2020


#       File generated by GOLD software.
#

@<TRIPOS>MOLECULE
AV-unprocessed.smi:683
    37    38     1
SMALL
NO_CHARGES


@<TRIPOS>ATOM
      1 ****        -0.8410   5.4847  -0.3040 N.1            1 S1                 0.0000
      2 ****        -1.4125   4.4820  -0.2215 C.1            1 S1                 0.0000
      3 ****        -2.1303   3.2225  -0.1181 C.ar           1 S1                 0.0000
      4 ****        -3.5368   3.2176  -0.0350 C.ar           1 S1                 0.0000
      5 ****        -4.2286   1.9964   0.0649 C.ar           1 S1                 0.0000
      6 ****        -3.5162   0.7823   0.0805 C.ar           1 S1                 0.0000
      7 ****        -2.1088   0.7697  -0.0031 C.ar           1 S1                 0.0000
      8 ****        -1.4926  -0.4633   0.0173 O.3            1 S1                 0.0000
      9 ****        -0.0765  -0.5075  -0.0898 C.3            1 S1                 0.0000
     10 ****         0.3741  -1.9750  -0.0753 C.3            1 S1                 0.0000
     11 ****         1.8365  -2.0846  -0.1552 N.am           1 S1                 0.0000
     12 ****         2.5462  -2.2187   1.0499 C.2            1 S1                 0.0000
     13 ****         3.8893  -2.3173   1.0814 C.2            1 S1                 0.0000
     14 ****         4.7354  -2.4804   2.5789 Cl             1 S1                 0.0000
     15 ****         4.6099  -2.2786  -0.1897 C.2            1 S1                 0.0000
     16 ****         5.8367  -2.3700  -0.1976 O.2            1 S1                 0.0000
     17 ****         3.8743  -2.1386  -1.3314 N.pl3          1 S1                -1.0000
     18 ****         2.5095  -2.0367  -1.3429 C.2            1 S1                 0.0000
     19 ****         1.8682  -1.9006  -2.3851 O.2            1 S1                 0.0000
     20 ****        -1.4185   2.0049  -0.1019 C.ar           1 S1                 0.0000
     21 ****        -4.0905   4.1457  -0.0477 H              1 S1                 0.0000
     22 ****        -5.3066   1.9907   0.1289 H              1 S1                 0.0000
     23 ****        -4.0560  -0.1504   0.1561 H              1 S1                 0.0000
     24 ****         0.2446  -0.0296  -1.0167 H              1 S1                 0.0000
     25 ****         0.3797   0.0260   0.7457 H              1 S1                 0.0000
     26 ****         0.0101  -2.4588   0.8324 H              1 S1                 0.0000
     27 ****        -0.0959  -2.5189  -0.8964 H              1 S1                 0.0000
     28 ****         1.9361  -2.2322   1.9413 H              1 S1                 0.0000
     29 ****        -0.3408   2.0381  -0.1670 H              1 S1                 0.0000
     30 ****        -0.3470   6.3513  -0.3753 LP             1 S1                 0.0000
     31 ****        -1.8643  -0.9933  -0.7448 LP             1 S1                 0.0000
     32 ****        -1.7386  -0.9035   0.8808 LP             1 S1                 0.0000
     33 ****         6.3362  -2.4702   0.6630 LP             1 S1                 0.0000
     34 ****         6.3345  -2.3441  -1.0645 LP             1 S1                 0.0000
     35 ****         4.3586  -2.1089  -2.2058 LP             1 S1                 0.0000
     36 ****         0.8715  -1.8272  -2.3528 LP             1 S1                 0.0000
     37 ****         2.3442  -1.8635  -3.2638 LP             1 S1                 0.0000
@<TRIPOS>BOND
    1    1    2 3     
    2    2    3 1     
    3    3   20 ar    
    4    3    4 ar    
    5    4    5 ar    
    6    4   21 1     
    7    5    6 ar    
    8    5   22 1     
    9    6    7 ar    
   10    6   23 1     
   11    7    8 1     
   12    7   20 ar    
   13    8    9 1     
   14    9   10 1     
   15    9   24 1     
   16    9   25 1     
   17   10   11 1     
   18   10   26 1     
   19   10   27 1     
   20   11   18 am    
   21   11   12 1     
   22   12   13 2     
   23   12   28 1     
   24   13   14 1     
   25   13   15 1     
   26   15   16 2     
   27   15   17 1     
   28   17   18 1     
   29   18   19 2     
   30   20   29 1     
   31    1   30 1     
   32    8   31 1     
   33    8   32 1     
   34   16   33 1     
   35   16   34 1     
   36   17   35 1     
   37   19   36 1     
   38   19   37 1     
@<TRIPOS>SUBSTRUCTURE
      1 S1             1
@<TRIPOS>SET
LONE_PAIRS      STATIC     ATOMS    <user>   **** ""
8 30 31 32 33 34 35 36 37
ATOM$BLUE        STATIC     ATOMS    COLORGROUP SYSTEM
8 30 31 32 33 34 35 36 37
