AV-unprocessed.smi:1978|AV-procd|sdf|7992|dock1
  -GOLD-   2272010173D 1   1.00000     0.00000
 Structure written by MMmdl.
 45 46  0  0  0  0  0  0  0  0  2 V2000
  150.9389  142.1827  156.4240 C   0  0  0  0  0  0  0  0  0  0  0  0
  150.6477  141.0135  155.5470 C   0  0  0  0  0  0  0  0  0  0  0  0
  149.4973  140.5371  154.9835 C   0  0  0  0  0  0  0  0  0  0  0  0
  149.9412  139.3913  154.2712 C   0  0  0  0  0  0  0  0  0  0  0  0
  149.0293  138.5927  153.5343 N   0  0  0  0  0  0  0  0  0  0  0  0
  147.7227  138.8272  153.3239 C   0  0  0  0  0  0  0  0  0  0  0  0
  147.0974  139.7958  153.7561 O   0  0  0  0  0  0  0  0  0  0  0  0
  147.1705  137.8695  152.5634 N   0  0  0  0  0  0  0  0  0  0  0  0
  145.7679  137.8181  152.1543 C   0  0  0  0  0  0  0  0  0  0  0  0
  145.3023  136.3942  151.7306 C   0  0  2  0  0  0  0  0  0  0  0  0
  143.9048  136.0943  152.3294 C   0  0  0  0  0  0  0  0  0  0  0  0
  146.2916  135.3216  152.1033 N   0  3  1  0  0  0  0  0  0  0  0  0
  146.3940  135.0758  153.5749 C   0  0  0  0  0  0  0  0  0  0  0  0
  147.5790  134.1596  153.9218 C   0  0  0  0  0  0  0  0  0  0  0  0
  147.4973  132.8296  153.1709 C   0  0  0  0  0  0  0  0  0  0  0  0
  147.3706  133.0987  151.6679 C   0  0  0  0  0  0  0  0  0  0  0  0
  146.1868  134.0330  151.3386 C   0  0  1  0  0  0  0  0  0  0  0  0
  144.8251  133.3229  151.5128 C   0  0  0  0  0  0  0  0  0  0  0  0
  151.2443  139.1877  154.3878 N   0  0  0  0  0  0  0  0  0  0  0  0
  151.7039  140.2268  155.2052 O   0  0  0  0  0  0  0  0  0  0  0  0
  150.0209  142.5873  156.8505 H   0  0  0  0  0  0  0  0  0  0  0  0
  151.4285  142.9756  155.8588 H   0  0  0  0  0  0  0  0  0  0  0  0
  151.5954  141.8971  157.2463 H   0  0  0  0  0  0  0  0  0  0  0  0
  148.5011  140.9447  155.0706 H   0  0  0  0  0  0  0  0  0  0  0  0
  149.4162  137.7593  153.1171 H   0  0  0  0  0  0  0  0  0  0  0  0
  147.7622  137.1129  152.2516 H   0  0  0  0  0  0  0  0  0  0  0  0
  145.2189  138.1706  153.0256 H   0  0  0  0  0  0  0  0  0  0  0  0
  145.5634  138.5325  151.3551 H   0  0  0  0  0  0  0  0  0  0  0  0
  145.2035  136.3893  150.6440 H   0  0  0  0  0  0  0  0  0  0  0  0
  143.1851  136.8813  152.1093 H   0  0  0  0  0  0  0  0  0  0  0  0
  143.9545  135.9923  153.4141 H   0  0  0  0  0  0  0  0  0  0  0  0
  143.4518  135.1917  151.9244 H   0  0  0  0  0  0  0  0  0  0  0  0
  146.5537  135.9992  154.1248 H   0  0  0  0  0  0  0  0  0  0  0  0
  145.4614  134.6545  153.9507 H   0  0  0  0  0  0  0  0  0  0  0  0
  148.5131  134.6637  153.6706 H   0  0  0  0  0  0  0  0  0  0  0  0
  147.6064  133.9773  154.9966 H   0  0  0  0  0  0  0  0  0  0  0  0
  148.3857  132.2300  153.3718 H   0  0  0  0  0  0  0  0  0  0  0  0
  146.6455  132.2496  153.5270 H   0  0  0  0  0  0  0  0  0  0  0  0
  148.2956  133.5533  151.3102 H   0  0  0  0  0  0  0  0  0  0  0  0
  147.2713  132.1560  151.1282 H   0  0  0  0  0  0  0  0  0  0  0  0
  146.3088  134.2507  150.2787 H   0  0  0  0  0  0  0  0  0  0  0  0
  144.7865  132.4171  150.9069 H   0  0  0  0  0  0  0  0  0  0  0  0
  143.9913  133.9488  151.1978 H   0  0  0  0  0  0  0  0  0  0  0  0
  144.6387  133.0264  152.5444 H   0  0  0  0  0  0  0  0  0  0  0  0
  147.1890  135.7011  151.8370 H   0  0  0  0  0  0  0  0  0  0  0  0
  1  2  1  0  0  0  0
  1 21  1  0  0  0  0
  1 22  1  0  0  0  0
  1 23  1  0  0  0  0
  2 20  1  0  0  0  0
  2  3  2  0  0  0  0
  3  4  1  0  0  0  0
  3 24  1  0  0  0  0
  4  5  1  0  0  0  0
  4 19  2  0  0  0  0
  5  6  1  0  0  0  0
  5 25  1  0  0  0  0
  6  7  2  0  0  0  0
  6  8  1  0  0  0  0
  8  9  1  0  0  0  0
  8 26  1  0  0  0  0
  9 10  1  0  0  0  0
  9 27  1  0  0  0  0
  9 28  1  0  0  0  0
 10 11  1  0  0  0  0
 10 12  1  0  0  0  0
 10 29  1  0  0  0  0
 11 30  1  0  0  0  0
 11 31  1  0  0  0  0
 11 32  1  0  0  0  0
 12 17  1  0  0  0  0
 12 13  1  0  0  0  0
 12 45  1  0  0  0  0
 13 14  1  0  0  0  0
 13 33  1  0  0  0  0
 13 34  1  0  0  0  0
 14 15  1  0  0  0  0
 14 35  1  0  0  0  0
 14 36  1  0  0  0  0
 15 16  1  0  0  0  0
 15 37  1  0  0  0  0
 15 38  1  0  0  0  0
 16 17  1  0  0  0  0
 16 39  1  0  0  0  0
 16 40  1  0  0  0  0
 17 18  1  0  0  0  0
 17 41  1  0  0  0  0
 18 42  1  0  0  0  0
 18 43  1  0  0  0  0
 18 44  1  0  0  0  0
 19 20  1  0  0  0  0
M  CHG  1  12   1
M  END
> <s_m_source_file>
AV-unprocessed.smi

> <i_m_source_file_index>
1978

> <i_lp_mmshare_version>
43012

> <i_f3d_flags>
0

> <s_epik_input>
W0NIM11jMVtjSF1jKG5vMSlbTkhdQyg9TylbTkhdW0NIMl1bQ0BIXShbQ0gzXSlOMltDSDJdW0NIMl1bQ0gyXVtDSDJdW0NASF0yW0NIM10=

> <s_epik_cmdline>
J2VwaWtfcHl0aG9uJywgJy1waCcsICc3LjAnLCAnLXRuJywgJzgnLCAnLW1hJywgJzIwMCcsICctbWV0YWxfYmluZGluZycsICctaW1hZScsICc8aW5maWxlLm1hZT4nLCAnLW9tYWUnLCAnPG91dGZpbGUubWFlPic=

> <r_epik_Ionization_Penalty>
0.00265971

> <r_epik_Ionization_Penalty_Charging>
0.00262393

> <r_epik_Ionization_Penalty_Neutral>
3.57846e-05

> <r_epik_State_Penalty>
0.00182566

> <r_epik_Charging_Adjusted_Penalty>
0.00444959

> <i_epik_Tot_Q>
1

> <i_epik_Tot_abs_Q>
1

> <r_epik_Metal_State_Penalty>
0.0216344

> <b_epik_Metal_Only>
0

> <s_lp_Force_Field>
OPLS_2005

> <r_lp_Energy>
24.7796

> <b_lp_Chiralities_Consistent>
1

> <s_lp_Variant>
AV-unprocessed.smi:1978-1

> <Gold.Version>
5.8.1

> <Gold.Id.Protein>
6NUR|6NUR_protein|mol2

> <Gold.PLP.Fitness>
43.3638

> <Gold.PLP.PLP>
-33.6418

> <Gold.PLP.part.hbond>
-5.9743

> <Gold.PLP.part.metal>
0.0000

> <Gold.PLP.part.buried>
-0.7626

> <Gold.PLP.part.nonpolar>
-26.6814

> <Gold.PLP.part.repulsive>
0.4489

> <Gold.PLP.ligand.clash>
0.0000

> <Gold.PLP.ligand.torsion>
0.9951

> <Gold.PLP.Chemscore.Hbond>
3.8640

> <Gold.PLP.Chemscore.CHOScore>
0.0000

> <Gold.PLP.Chemscore.Metal>
0.0000

> <Gold.Chemscore.Hbonds>
donor molecule, donor type, donor heavy atom, donor atom, acceptor molecule, acceptor atom, score
      L1  H     5    25       P1  7948  0.86
      L1  H     8    26       P1  7948  0.98
      L1  H    12    45       P1  7948  2.00

> <Gold.PLP.Chemscore.Internal.Correction>
0.1201

> <Gold.Rescore>
     Score         DG    S(hbond)    S(metal)    S(lipo)     H(rot)  DE(clash)    DE(int)     intcor
     16.13     -18.73       2.82        0.00      66.49       1.55       0.09       2.51       ----

> <Gold.Chemscore.Fitness>
16.1285

> <Gold.Chemscore.DG>
-18.7305

> <Gold.Chemscore.ZeroCoef>
-5.4800

> <Gold.Chemscore.Hbond>
2.8240

> <Gold.Chemscore.Metal>
0.0000

> <Gold.Chemscore.Lipo>
66.4921

> <Gold.Chemscore.Internal_Hbond>
0.0000

> <Gold.Chemscore.DEClash>
0.0876

> <Gold.Chemscore.DEInternal>
2.5145

> <Gold.Chemscore.Rot>
1.5474

> <Gold.Chemscore.Internal.Correction>
   9.000000E+99

> <Gold.Chemscore.Hbonds>
donor molecule, donor type, donor heavy atom, donor atom, acceptor molecule, acceptor atom, score
      L1  H     5    25       P1  7948  0.76
      L1  H     8    26       P1  7948  0.91
      L1  H    12    45       P1  7948  1.00

> <Gold.Chemscore.Hbond.Weighted>
-9.4322

> <Gold.Chemscore.Metal.Weighted>
-0.0000

> <Gold.Chemscore.Lipo.Weighted>
-7.7796

> <Gold.Chemscore.Internal_Hbond.Weighted>
0.0000

> <Gold.Chemscore.DEClash.Weighted>
0.0876

> <Gold.Chemscore.DEInternal.Weighted>
2.5145

> <Gold.Chemscore.Rot.Weighted>
3.9612

> <Gold.Chemscore.Internal.Correction.Weighted>
   9.000000E+99

> <Gold.Protein.RotatedTorsions>
[ 6907 6896 6895 6894 ] final   84.64 input  -60.11 | X-H torsion
[ 7974 7965 7964 7962 ] final    1.72 input  175.53 | X-H torsion
[ 8008 7997 7996 7995 ] final   61.10 input   59.86 | X-H torsion
[ 10167 10162 10161 10158 ] final  127.78 input  -65.29 | X-H torsion
[ 10718 10713 10712 10709 ] final  173.47 input   66.30 | X-H torsion
[ 10763 10752 10751 10750 ] final   85.61 input  -60.55 | X-H torsion
[ 11005 11000 10999 10996 ] final  131.72 input  -57.11 | X-H torsion

> <Gold.Protein.ActiveResidues>
 VAL166  LYS551  ARG553  GLY616  TRP617  ASP618  TYR619  PRO620  LYS621  CYS622 
 ASP623  PHE694  ASN695  SER759  ASP760  ASP761  ALA762  ILE779  LEU786  VAL792 
 PHE793  MET794  SER795  GLU796  ALA797  LYS798  CYS799  TRP800  GLU811  SER814 

> <Gold.Protein.RotatedAtoms>
  152.5357  134.2709  159.8970 H   0  0  0  0  0  0  0  0  0  0  0  0  # atno 6907 bound_to 6896
  151.2666  133.4269  159.2626 H   0  0  0  0  0  0  0  0  0  0  0  0  # atno 6908 bound_to 6896
  151.0405  134.9619  159.8216 H   0  0  0  0  0  0  0  0  0  0  0  0  # atno 6909 bound_to 6896
  146.2441  140.0944  142.8350 H   0  0  0  0  0  0  0  0  0  0  0  0  # atno 7974 bound_to 7965
  155.5930  140.3493  155.4572 H   0  0  0  0  0  0  0  0  0  0  0  0  # atno 8008 bound_to 7997
  156.0287  140.1269  157.0306 H   0  0  0  0  0  0  0  0  0  0  0  0  # atno 8009 bound_to 7997
  154.4343  140.1048  156.6054 H   0  0  0  0  0  0  0  0  0  0  0  0  # atno 8010 bound_to 7997
  139.5560  144.6849  151.4180 H   0  0  0  0  0  0  0  0  0  0  0  0  # atno 10167 bound_to 10162
  156.9638  131.0069  151.2921 H   0  0  0  0  0  0  0  0  0  0  0  0  # atno 10718 bound_to 10713
  153.1491  135.4611  154.9610 H   0  0  0  0  0  0  0  0  0  0  0  0  # atno 10763 bound_to 10752
  154.7810  135.3188  154.7992 H   0  0  0  0  0  0  0  0  0  0  0  0  # atno 10764 bound_to 10752
  153.8500  135.6922  153.4847 H   0  0  0  0  0  0  0  0  0  0  0  0  # atno 10765 bound_to 10752
  139.9747  134.9567  156.9478 H   0  0  0  0  0  0  0  0  0  0  0  0  # atno 11005 bound_to 11000
  145.0622  140.9096  143.4932 LP  0  0  0  0  0  0  0  0  0  0  0  0  # atno 17320 bound_to 7965
  145.1062  139.2788  143.5661 LP  0  0  0  0  0  0  0  0  0  0  0  0  # atno 17321 bound_to 7965
  140.6833  143.8032  150.7151 LP  0  0  0  0  0  0  0  0  0  0  0  0  # atno 17342 bound_to 10162
  140.1492  143.4373  152.2143 LP  0  0  0  0  0  0  0  0  0  0  0  0  # atno 17343 bound_to 10162
  157.5640  130.8265  149.8303 LP  0  0  0  0  0  0  0  0  0  0  0  0  # atno 17370 bound_to 10713
  156.0311  130.3764  150.1685 LP  0  0  0  0  0  0  0  0  0  0  0  0  # atno 17371 bound_to 10713
  140.5220  134.0898  155.7294 LP  0  0  0  0  0  0  0  0  0  0  0  0  # atno 17394 bound_to 11000
  141.1425  133.9114  157.2294 LP  0  0  0  0  0  0  0  0  0  0  0  0  # atno 17395 bound_to 11000

$$$$
