AV-unprocessed.smi:612|AV-procd|sdf|3063|dock4
  -GOLD-   2262023583D 1   1.00000     0.00000
 Structure written by MMmdl.
 50 52  0  0  0  0  0  0  0  0  2 V2000
  154.7007  140.2990  160.5132 C   0  0  0  0  0  0  0  0  0  0  0  0
  153.6520  141.2728  160.1993 N   0  0  0  0  0  0  0  0  0  0  0  0
  153.4161  142.2968  161.1319 C   0  0  0  0  0  0  0  0  0  0  0  0
  152.4750  143.2289  160.9294 C   0  0  0  0  0  0  0  0  0  0  0  0
  151.6938  143.1642  159.7176 C   0  0  0  0  0  0  0  0  0  0  0  0
  151.9083  142.1873  158.8000 C   0  0  0  0  0  0  0  0  0  0  0  0
  151.1937  142.0413  157.5970 N   0  0  0  0  0  0  0  0  0  0  0  0
  149.9635  141.5389  157.3819 C   0  0  0  0  0  0  0  0  0  0  0  0
  149.1972  141.1104  158.2440 O   0  0  0  0  0  0  0  0  0  0  0  0
  149.6564  141.5754  156.0767 N   0  0  0  0  0  0  0  0  0  0  0  0
  148.3986  141.1278  155.4831 C   0  0  2  0  0  0  0  0  0  0  0  0
  148.2435  141.7076  154.0662 C   0  0  0  0  0  0  0  0  0  0  0  0
  146.8646  141.3602  153.4713 C   0  0  0  0  0  0  0  0  0  0  0  0
  145.7467  141.8103  154.3471 N   0  3  2  0  0  0  0  0  0  0  0  0
  145.5099  143.2854  154.3395 C   0  0  0  0  0  0  0  0  0  0  0  0
  144.1366  143.6937  154.8903 C   0  0  0  0  0  0  0  0  0  0  0  0
  143.9002  145.1087  154.3555 C   0  0  0  0  0  0  0  0  0  0  0  0
  144.7268  145.2192  153.0675 C   0  0  0  0  0  0  0  0  0  0  0  0
  145.4862  143.8948  152.9302 C   0  0  0  0  0  0  0  0  0  0  0  0
  145.8719  141.2094  155.7042 C   0  0  0  0  0  0  0  0  0  0  0  0
  147.2170  141.5591  156.3683 C   0  0  0  0  0  0  0  0  0  0  0  0
  152.9433  141.1611  159.0364 C   0  0  0  0  0  0  0  0  0  0  0  0
  153.1676  140.2475  158.2382 O   0  0  0  0  0  0  0  0  0  0  0  0
  155.2091  140.5149  161.4536 H   0  0  0  0  0  0  0  0  0  0  0  0
  155.4606  140.2867  159.7304 H   0  0  0  0  0  0  0  0  0  0  0  0
  154.2787  139.2962  160.5941 H   0  0  0  0  0  0  0  0  0  0  0  0
  154.0402  142.2767  162.0134 H   0  0  0  0  0  0  0  0  0  0  0  0
  152.3044  144.0098  161.6557 H   0  0  0  0  0  0  0  0  0  0  0  0
  150.9332  143.9160  159.5889 H   0  0  0  0  0  0  0  0  0  0  0  0
  151.6779  142.3944  156.7843 H   0  0  0  0  0  0  0  0  0  0  0  0
  150.3491  141.9463  155.4426 H   0  0  0  0  0  0  0  0  0  0  0  0
  148.3789  140.0391  155.4082 H   0  0  0  0  0  0  0  0  0  0  0  0
  148.3790  142.7897  154.0841 H   0  0  0  0  0  0  0  0  0  0  0  0
  149.0288  141.3149  153.4191 H   0  0  0  0  0  0  0  0  0  0  0  0
  146.7688  141.7667  152.4652 H   0  0  0  0  0  0  0  0  0  0  0  0
  146.7898  140.2782  153.3549 H   0  0  0  0  0  0  0  0  0  0  0  0
  146.2798  143.7906  154.9236 H   0  0  0  0  0  0  0  0  0  0  0  0
  143.3644  143.0263  154.5040 H   0  0  0  0  0  0  0  0  0  0  0  0
  144.0893  143.6641  155.9793 H   0  0  0  0  0  0  0  0  0  0  0  0
  142.8410  145.3024  154.1831 H   0  0  0  0  0  0  0  0  0  0  0  0
  144.2518  145.8434  155.0810 H   0  0  0  0  0  0  0  0  0  0  0  0
  144.0969  145.4027  152.1963 H   0  0  0  0  0  0  0  0  0  0  0  0
  145.4249  146.0535  153.1456 H   0  0  0  0  0  0  0  0  0  0  0  0
  146.4844  144.0447  152.5175 H   0  0  0  0  0  0  0  0  0  0  0  0
  144.9418  143.2385  152.2495 H   0  0  0  0  0  0  0  0  0  0  0  0
  145.0407  141.4986  156.3459 H   0  0  0  0  0  0  0  0  0  0  0  0
  145.7955  140.1259  155.6036 H   0  0  0  0  0  0  0  0  0  0  0  0
  147.2841  141.0659  157.3388 H   0  0  0  0  0  0  0  0  0  0  0  0
  147.2657  142.6301  156.5683 H   0  0  0  0  0  0  0  0  0  0  0  0
  144.9087  141.4110  153.9482 H   0  0  0  0  0  0  0  0  0  0  0  0
  1  2  1  0  0  0  0
  1 24  1  0  0  0  0
  1 25  1  0  0  0  0
  1 26  1  0  0  0  0
  2 22  1  0  0  0  0
  2  3  1  0  0  0  0
  3  4  2  0  0  0  0
  3 27  1  0  0  0  0
  4  5  1  0  0  0  0
  4 28  1  0  0  0  0
  5  6  2  0  0  0  0
  5 29  1  0  0  0  0
  6  7  1  0  0  0  0
  6 22  1  0  0  0  0
  7  8  1  0  0  0  0
  7 30  1  0  0  0  0
  8  9  2  0  0  0  0
  8 10  1  0  0  0  0
 10 11  1  0  0  0  0
 10 31  1  0  0  0  0
 11 21  1  0  0  0  0
 11 12  1  0  0  0  0
 11 32  1  0  0  0  0
 12 13  1  0  0  0  0
 12 33  1  0  0  0  0
 12 34  1  0  0  0  0
 13 14  1  0  0  0  0
 13 35  1  0  0  0  0
 13 36  1  0  0  0  0
 14 15  1  0  0  0  0
 14 20  1  0  0  0  0
 14 50  1  0  0  0  0
 15 19  1  0  0  0  0
 15 16  1  0  0  0  0
 15 37  1  0  0  0  0
 16 17  1  0  0  0  0
 16 38  1  0  0  0  0
 16 39  1  0  0  0  0
 17 18  1  0  0  0  0
 17 40  1  0  0  0  0
 17 41  1  0  0  0  0
 18 19  1  0  0  0  0
 18 42  1  0  0  0  0
 18 43  1  0  0  0  0
 19 44  1  0  0  0  0
 19 45  1  0  0  0  0
 20 21  1  0  0  0  0
 20 46  1  0  0  0  0
 20 47  1  0  0  0  0
 21 48  1  0  0  0  0
 21 49  1  0  0  0  0
 22 23  2  0  0  0  0
M  CHG  1  14   1
M  END
> <s_m_source_file>
AV-unprocessed.smi

> <i_m_source_file_index>
612

> <i_lp_mmshare_version>
43012

> <i_f3d_flags>
0

> <s_epik_input>
W0NIM11uMVtjSF1bY0hdW2NIXWMoYzE9TylbTkhdQyg9TylbTkhdW0NIXTJbQ0gyXVtDSDJdTihbQ0gyXVtDSDJdMilbQ0hdM1tDSDJdW0NIMl1bQ0gyXVtDSDJdMw==

> <s_epik_cmdline>
J2VwaWtfcHl0aG9uJywgJy1waCcsICc3LjAnLCAnLXRuJywgJzgnLCAnLW1hJywgJzIwMCcsICctbWV0YWxfYmluZGluZycsICctaW1hZScsICc8aW5maWxlLm1hZT4nLCAnLW9tYWUnLCAnPG91dGZpbGUubWFlPic=

> <r_lp_tautomer_probability>
1

> <r_epik_Ionization_Penalty>
0.00200366

> <r_epik_Ionization_Penalty_Charging>
0.00198522

> <r_epik_Ionization_Penalty_Neutral>
1.84356e-05

> <r_epik_State_Penalty>
0.00135242

> <r_epik_Charging_Adjusted_Penalty>
0.00333764

> <i_epik_Tot_Q>
1

> <i_epik_Tot_abs_Q>
1

> <r_epik_Metal_State_Penalty>
-0

> <b_epik_Metal_Only>
0

> <s_lp_Force_Field>
OPLS_2005

> <r_lp_Energy>
52.136

> <b_lp_Chiralities_Consistent>
1

> <s_lp_Variant>
AV-unprocessed.smi:612-2

> <Gold.Version>
5.8.1

> <Gold.Id.Protein>
6NUR|6NUR_protein|mol2

> <Gold.PLP.Fitness>
52.2837

> <Gold.PLP.PLP>
-46.9720

> <Gold.PLP.part.hbond>
-1.9847

> <Gold.PLP.part.metal>
0.0000

> <Gold.PLP.part.buried>
-6.0075

> <Gold.PLP.part.nonpolar>
-39.0320

> <Gold.PLP.part.repulsive>
0.1732

> <Gold.PLP.ligand.clash>
0.0000

> <Gold.PLP.ligand.torsion>
1.1025

> <Gold.PLP.Chemscore.Hbond>
2.4870

> <Gold.PLP.Chemscore.CHOScore>
0.0000

> <Gold.PLP.Chemscore.Metal>
0.0000

> <Gold.Chemscore.Hbonds>
donor molecule, donor type, donor heavy atom, donor atom, acceptor molecule, acceptor atom, score
      L1  H    14    50       P1 10175  1.59
      P1  H  7997  8008       L1    23  0.94

> <Gold.PLP.Chemscore.Internal.Correction>
0.0558

> <Gold.Rescore>
     Score         DG    S(hbond)    S(metal)    S(lipo)     H(rot)  DE(clash)    DE(int)     intcor
     17.61     -20.49       1.70        0.00     106.26       1.21       0.46       2.42       ----

> <Gold.Chemscore.Fitness>
17.6137

> <Gold.Chemscore.DG>
-20.4929

> <Gold.Chemscore.ZeroCoef>
-5.4800

> <Gold.Chemscore.Hbond>
1.6966

> <Gold.Chemscore.Metal>
0.0000

> <Gold.Chemscore.Lipo>
106.2597

> <Gold.Chemscore.Internal_Hbond>
0.0000

> <Gold.Chemscore.DEClash>
0.4567

> <Gold.Chemscore.DEInternal>
2.4224

> <Gold.Chemscore.Rot>
1.2056

> <Gold.Chemscore.Internal.Correction>
   9.000000E+99

> <Gold.Chemscore.Hbonds>
donor molecule, donor type, donor heavy atom, donor atom, acceptor molecule, acceptor atom, score
      L1  H    14    50       P1 10175  0.27
      P1  H  7997  8008       L1    23  0.91

> <Gold.Chemscore.Hbond.Weighted>
-5.6667

> <Gold.Chemscore.Metal.Weighted>
-0.0000

> <Gold.Chemscore.Lipo.Weighted>
-12.4324

> <Gold.Chemscore.Internal_Hbond.Weighted>
0.0000

> <Gold.Chemscore.DEClash.Weighted>
0.4567

> <Gold.Chemscore.DEInternal.Weighted>
2.4224

> <Gold.Chemscore.Rot.Weighted>
3.0862

> <Gold.Chemscore.Internal.Correction.Weighted>
   9.000000E+99

> <Gold.Protein.RotatedTorsions>
[ 6907 6896 6895 6894 ] final   54.23 input  -60.11 | X-H torsion
[ 7974 7965 7964 7962 ] final   16.00 input  175.53 | X-H torsion
[ 8008 7997 7996 7995 ] final  -84.14 input   59.86 | X-H torsion
[ 10167 10162 10161 10158 ] final   -4.59 input  -65.29 | X-H torsion
[ 10718 10713 10712 10709 ] final  110.61 input   66.30 | X-H torsion
[ 10763 10752 10751 10750 ] final -139.03 input  -60.55 | X-H torsion
[ 11005 11000 10999 10996 ] final  -21.81 input  -57.11 | X-H torsion

> <Gold.Protein.ActiveResidues>
 VAL166  LYS551  ARG553  GLY616  TRP617  ASP618  TYR619  PRO620  LYS621  CYS622 
 ASP623  PHE694  ASN695  SER759  ASP760  ASP761  ALA762  ILE779  LEU786  VAL792 
 PHE793  MET794  SER795  GLU796  ALA797  LYS798  CYS799  TRP800  GLU811  SER814 

> <Gold.Protein.RotatedAtoms>
  152.3418  134.7124  160.0261 H   0  0  0  0  0  0  0  0  0  0  0  0  # atno 6907 bound_to 6896
  151.7506  133.3322  159.3398 H   0  0  0  0  0  0  0  0  0  0  0  0  # atno 6908 bound_to 6896
  150.7484  134.6128  159.6139 H   0  0  0  0  0  0  0  0  0  0  0  0  # atno 6909 bound_to 6896
  146.2262  139.8812  142.8570 H   0  0  0  0  0  0  0  0  0  0  0  0  # atno 7974 bound_to 7965
  154.6266  140.0609  156.9681 H   0  0  0  0  0  0  0  0  0  0  0  0  # atno 8008 bound_to 7997
  155.1732  140.3293  155.4370 H   0  0  0  0  0  0  0  0  0  0  0  0  # atno 8009 bound_to 7997
  156.2460  140.1910  156.6833 H   0  0  0  0  0  0  0  0  0  0  0  0  # atno 8010 bound_to 7997
  140.6933  143.6406  150.8439 H   0  0  0  0  0  0  0  0  0  0  0  0  # atno 10167 bound_to 10162
  157.6485  131.0936  150.6628 H   0  0  0  0  0  0  0  0  0  0  0  0  # atno 10718 bound_to 10713
  154.8620  135.3594  154.5481 H   0  0  0  0  0  0  0  0  0  0  0  0  # atno 10763 bound_to 10752
  153.6100  135.7010  153.5355 H   0  0  0  0  0  0  0  0  0  0  0  0  # atno 10764 bound_to 10752
  153.3217  135.4149  155.1383 H   0  0  0  0  0  0  0  0  0  0  0  0  # atno 10765 bound_to 10752
  140.8597  133.7797  156.0060 H   0  0  0  0  0  0  0  0  0  0  0  0  # atno 11005 bound_to 11000
  145.2511  141.0044  143.3881 LP  0  0  0  0  0  0  0  0  0  0  0  0  # atno 17320 bound_to 7965
  144.9374  139.4228  143.6465 LP  0  0  0  0  0  0  0  0  0  0  0  0  # atno 17321 bound_to 7965
  140.0122  143.5631  152.2834 LP  0  0  0  0  0  0  0  0  0  0  0  0  # atno 17342 bound_to 10162
  139.6359  144.7650  151.2440 LP  0  0  0  0  0  0  0  0  0  0  0  0  # atno 17343 bound_to 10162
  156.6942  130.4604  149.5591 LP  0  0  0  0  0  0  0  0  0  0  0  0  # atno 17370 bound_to 10713
  156.1841  130.6517  151.0985 LP  0  0  0  0  0  0  0  0  0  0  0  0  # atno 17371 bound_to 10713
  140.8697  134.2742  157.5197 LP  0  0  0  0  0  0  0  0  0  0  0  0  # atno 17394 bound_to 11000
  139.8706  134.9560  156.4225 LP  0  0  0  0  0  0  0  0  0  0  0  0  # atno 17395 bound_to 11000

$$$$
