AV-unprocessed.smi:2661|AV-procd|sdf|10316|dock1
  -GOLD-   2272014333D 1   1.00000     0.00000
 Structure written by MMmdl.
 44 46  0  0  0  0  0  0  0  0  1 V2000
  146.1456  131.2848  151.8980 C   0  0  0  0  0  0  0  0  0  0  0  0
  147.0147  131.9264  152.8751 N   0  0  0  0  0  0  0  0  0  0  0  0
  148.2078  131.2668  153.3665 C   0  0  0  0  0  0  0  0  0  0  0  0
  148.9821  132.3772  154.0865 C   0  0  0  0  0  0  0  0  0  0  0  0
  147.9576  133.4853  154.3902 C   0  0  1  0  0  0  0  0  0  0  0  0
  148.5409  134.7990  154.1247 N   0  0  0  0  0  0  0  0  0  0  0  0
  148.9128  135.6822  155.0625 C   0  0  0  0  0  0  0  0  0  0  0  0
  148.8246  135.4659  156.2707 O   0  0  0  0  0  0  0  0  0  0  0  0
  149.4013  136.8035  154.5052 N   0  0  0  0  0  0  0  0  0  0  0  0
  149.8989  137.9685  155.1496 C   0  0  0  0  0  0  0  0  0  0  0  0
  149.9401  137.9788  156.5570 C   0  0  0  0  0  0  0  0  0  0  0  0
  150.4386  139.1133  157.2240 C   0  0  0  0  0  0  0  0  0  0  0  0
  150.8949  140.2159  156.4638 C   0  0  0  0  0  0  0  0  0  0  0  0
  151.3925  141.3684  157.1104 N   0  0  0  0  0  0  0  0  0  0  0  0
  151.7779  141.1938  158.5089 C   0  0  0  0  0  0  0  0  0  0  0  0
  152.5779  142.4122  159.0016 C   0  0  0  0  0  0  0  0  0  0  0  0
  151.8305  143.6032  158.7784 O   0  0  0  0  0  0  0  0  0  0  0  0
  151.5668  143.8099  157.3946 C   0  0  0  0  0  0  0  0  0  0  0  0
  150.7266  142.6434  156.8480 C   0  0  0  0  0  0  0  0  0  0  0  0
  150.8774  140.1956  155.1085 N   0  0  0  0  0  0  0  0  0  0  0  0
  150.3958  139.1069  154.4720 C   0  0  0  0  0  0  0  0  0  0  0  0
  146.8558  133.1529  153.3828 C   0  0  0  0  0  0  0  0  0  0  0  0
  145.9396  133.9277  153.1081 O   0  0  0  0  0  0  0  0  0  0  0  0
  146.2247  131.7865  150.9330 H   0  0  0  0  0  0  0  0  0  0  0  0
  145.1050  131.3238  152.2219 H   0  0  0  0  0  0  0  0  0  0  0  0
  146.4162  130.2374  151.7605 H   0  0  0  0  0  0  0  0  0  0  0  0
  147.9200  130.4751  154.0598 H   0  0  0  0  0  0  0  0  0  0  0  0
  148.7890  130.8234  152.5571 H   0  0  0  0  0  0  0  0  0  0  0  0
  149.4691  132.0121  154.9914 H   0  0  0  0  0  0  0  0  0  0  0  0
  149.7686  132.7470  153.4259 H   0  0  0  0  0  0  0  0  0  0  0  0
  147.5686  133.3944  155.4059 H   0  0  0  0  0  0  0  0  0  0  0  0
  148.6513  135.0592  153.1559 H   0  0  0  0  0  0  0  0  0  0  0  0
  149.4778  136.8011  153.4987 H   0  0  0  0  0  0  0  0  0  0  0  0
  149.5915  137.1280  157.1242 H   0  0  0  0  0  0  0  0  0  0  0  0
  150.4781  139.1181  158.3031 H   0  0  0  0  0  0  0  0  0  0  0  0
  150.8753  141.0736  159.1097 H   0  0  0  0  0  0  0  0  0  0  0  0
  152.3769  140.2962  158.6549 H   0  0  0  0  0  0  0  0  0  0  0  0
  152.7848  142.3185  160.0677 H   0  0  0  0  0  0  0  0  0  0  0  0
  153.5424  142.4741  158.4947 H   0  0  0  0  0  0  0  0  0  0  0  0
  151.0285  144.7498  157.2716 H   0  0  0  0  0  0  0  0  0  0  0  0
  152.5046  143.9057  156.8447 H   0  0  0  0  0  0  0  0  0  0  0  0
  150.5768  142.7784  155.7761 H   0  0  0  0  0  0  0  0  0  0  0  0
  149.7420  142.6405  157.3178 H   0  0  0  0  0  0  0  0  0  0  0  0
  150.4367  139.1617  153.3957 H   0  0  0  0  0  0  0  0  0  0  0  0
  1  2  1  0  0  0  0
  1 24  1  0  0  0  0
  1 25  1  0  0  0  0
  1 26  1  0  0  0  0
  2 22  1  0  0  0  0
  2  3  1  0  0  0  0
  3  4  1  0  0  0  0
  3 27  1  0  0  0  0
  3 28  1  0  0  0  0
  4  5  1  0  0  0  0
  4 29  1  0  0  0  0
  4 30  1  0  0  0  0
  5  6  1  0  0  0  0
  5 22  1  0  0  0  0
  5 31  1  0  0  0  0
  6  7  1  0  0  0  0
  6 32  1  0  0  0  0
  7  8  2  0  0  0  0
  7  9  1  0  0  0  0
  9 10  1  0  0  0  0
  9 33  1  0  0  0  0
 10 21  1  0  0  0  0
 10 11  2  0  0  0  0
 11 12  1  0  0  0  0
 11 34  1  0  0  0  0
 12 13  2  0  0  0  0
 12 35  1  0  0  0  0
 13 14  1  0  0  0  0
 13 20  1  0  0  0  0
 14 19  1  0  0  0  0
 14 15  1  0  0  0  0
 15 16  1  0  0  0  0
 15 36  1  0  0  0  0
 15 37  1  0  0  0  0
 16 17  1  0  0  0  0
 16 38  1  0  0  0  0
 16 39  1  0  0  0  0
 17 18  1  0  0  0  0
 18 19  1  0  0  0  0
 18 40  1  0  0  0  0
 18 41  1  0  0  0  0
 19 42  1  0  0  0  0
 19 43  1  0  0  0  0
 20 21  2  0  0  0  0
 21 44  1  0  0  0  0
 22 23  2  0  0  0  0
M  END
> <s_m_source_file>
AV-unprocessed.smi

> <i_m_source_file_index>
2661

> <i_lp_mmshare_version>
43012

> <i_f3d_flags>
0

> <s_epik_input>
W0NIM11OMVtDSDJdW0NIMl1bQ0BIXShDMT1PKVtOSF1DKD1PKVtOSF1jMltjSF1bY0hdYyhuW2NIXTIpTjNbQ0gyXVtDSDJdT1tDSDJdW0NIMl0z

> <s_epik_cmdline>
J2VwaWtfcHl0aG9uJywgJy1waCcsICc3LjAnLCAnLXRuJywgJzgnLCAnLW1hJywgJzIwMCcsICctbWV0YWxfYmluZGluZycsICctaW1hZScsICc8aW5maWxlLm1hZT4nLCAnLW9tYWUnLCAnPG91dGZpbGUubWFlPic=

> <r_lp_tautomer_probability>
1

> <r_epik_Ionization_Penalty>
0.00172037

> <r_epik_Ionization_Penalty_Charging>
0

> <r_epik_Ionization_Penalty_Neutral>
0.00172037

> <r_epik_State_Penalty>
0.00114015

> <r_epik_Charging_Adjusted_Penalty>
0.00114015

> <i_epik_Tot_Q>
0

> <i_epik_Tot_abs_Q>
0

> <r_epik_Metal_State_Penalty>
-0

> <b_epik_Metal_Only>
0

> <s_lp_Force_Field>
OPLS_2005

> <r_lp_Energy>
30.3032

> <b_lp_Chiralities_Consistent>
1

> <s_lp_Variant>
AV-unprocessed.smi:2661-1

> <Gold.Version>
5.8.1

> <Gold.Id.Protein>
6NUR|6NUR_protein|mol2

> <Gold.PLP.Fitness>
43.1823

> <Gold.PLP.PLP>
-32.7902

> <Gold.PLP.part.hbond>
-3.0000

> <Gold.PLP.part.metal>
0.0000

> <Gold.PLP.part.buried>
-2.2727

> <Gold.PLP.part.nonpolar>
-27.0858

> <Gold.PLP.part.repulsive>
0.2232

> <Gold.PLP.ligand.clash>
0.0000

> <Gold.PLP.ligand.torsion>
0.4696

> <Gold.PLP.Chemscore.Hbond>
2.6500

> <Gold.PLP.Chemscore.CHOScore>
1.0000

> <Gold.PLP.Chemscore.Metal>
0.0000

> <Gold.Chemscore.Hbonds>
donor molecule, donor type, donor heavy atom, donor atom, acceptor molecule, acceptor atom, score
      L1  H     6    32       P1  7948  1.00
      L1  H     9    33       P1  7948  1.00
      P1  H  7989  7998       L1    20  0.60
      L1  C    21    44       P1  7957  1.00

> <Gold.PLP.Chemscore.Internal.Correction>
0.3813

> <Gold.Rescore>
     Score         DG    S(hbond)    S(metal)    S(lipo)     H(rot)  DE(clash)    DE(int)     intcor
     16.10     -17.82       1.88        0.00      79.30       1.26       0.05       1.66       ----

> <Gold.Chemscore.Fitness>
16.1042

> <Gold.Chemscore.DG>
-17.8157

> <Gold.Chemscore.ZeroCoef>
-5.4800

> <Gold.Chemscore.Hbond>
1.8841

> <Gold.Chemscore.Metal>
0.0000

> <Gold.Chemscore.Lipo>
79.2956

> <Gold.Chemscore.Internal_Hbond>
0.0000

> <Gold.Chemscore.DEClash>
0.0494

> <Gold.Chemscore.DEInternal>
1.6620

> <Gold.Chemscore.Rot>
1.2636

> <Gold.Chemscore.Internal.Correction>
   9.000000E+99

> <Gold.Chemscore.Hbonds>
donor molecule, donor type, donor heavy atom, donor atom, acceptor molecule, acceptor atom, score
      L1  H     6    32       P1  7948  0.59
      L1  H     9    33       P1  7948  0.83
      P1  H  7989  7998       L1    20  0.04

> <Gold.Chemscore.Hbond.Weighted>
-6.2929

> <Gold.Chemscore.Metal.Weighted>
-0.0000

> <Gold.Chemscore.Lipo.Weighted>
-9.2776

> <Gold.Chemscore.Internal_Hbond.Weighted>
0.0000

> <Gold.Chemscore.DEClash.Weighted>
0.0494

> <Gold.Chemscore.DEInternal.Weighted>
1.6620

> <Gold.Chemscore.Rot.Weighted>
3.2348

> <Gold.Chemscore.Internal.Correction.Weighted>
   9.000000E+99

> <Gold.Protein.RotatedTorsions>
[ 6907 6896 6895 6894 ] final -133.22 input  -60.11 | X-H torsion
[ 7974 7965 7964 7962 ] final  -71.27 input  175.53 | X-H torsion
[ 8008 7997 7996 7995 ] final -111.27 input   59.86 | X-H torsion
[ 10167 10162 10161 10158 ] final  139.00 input  -65.29 | X-H torsion
[ 10718 10713 10712 10709 ] final  -24.66 input   66.30 | X-H torsion
[ 10763 10752 10751 10750 ] final    2.87 input  -60.55 | X-H torsion
[ 11005 11000 10999 10996 ] final -135.11 input  -57.11 | X-H torsion

> <Gold.Protein.ActiveResidues>
 VAL166  LYS551  ARG553  GLY616  TRP617  ASP618  TYR619  PRO620  LYS621  CYS622 
 ASP623  PHE694  ASN695  SER759  ASP760  ASP761  ALA762  ILE779  LEU786  VAL792 
 PHE793  MET794  SER795  GLU796  ALA797  LYS798  CYS799  TRP800  GLU811  SER814 

> <Gold.Protein.RotatedAtoms>
  150.9714  133.6340  159.2737 H   0  0  0  0  0  0  0  0  0  0  0  0  # atno 6907 bound_to 6896
  151.3627  135.0906  159.9449 H   0  0  0  0  0  0  0  0  0  0  0  0  # atno 6908 bound_to 6896
  152.5184  133.9285  159.7623 H   0  0  0  0  0  0  0  0  0  0  0  0  # atno 6909 bound_to 6896
  145.6802  140.9190  143.0836 H   0  0  0  0  0  0  0  0  0  0  0  0  # atno 7974 bound_to 7965
  154.9873  140.0395  157.2304 H   0  0  0  0  0  0  0  0  0  0  0  0  # atno 8008 bound_to 7997
  154.7660  140.2793  155.6153 H   0  0  0  0  0  0  0  0  0  0  0  0  # atno 8009 bound_to 7997
  156.2912  140.2619  156.2451 H   0  0  0  0  0  0  0  0  0  0  0  0  # atno 8010 bound_to 7997
  139.5092  144.6320  151.5792 H   0  0  0  0  0  0  0  0  0  0  0  0  # atno 10167 bound_to 10162
  156.4746  130.4532  149.6848 H   0  0  0  0  0  0  0  0  0  0  0  0  # atno 10718 bound_to 10713
  153.2902  135.6948  153.7300 H   0  0  0  0  0  0  0  0  0  0  0  0  # atno 10763 bound_to 10752
  153.6254  135.3419  155.3025 H   0  0  0  0  0  0  0  0  0  0  0  0  # atno 10764 bound_to 10752
  154.8522  135.4396  154.1982 H   0  0  0  0  0  0  0  0  0  0  0  0  # atno 10765 bound_to 10752
  140.8929  134.1789  157.4515 H   0  0  0  0  0  0  0  0  0  0  0  0  # atno 11005 bound_to 11000
  144.7028  139.8686  143.7439 LP  0  0  0  0  0  0  0  0  0  0  0  0  # atno 17320 bound_to 7965
  146.0971  139.3964  143.0370 LP  0  0  0  0  0  0  0  0  0  0  0  0  # atno 17321 bound_to 7965
  140.6056  143.9529  150.6417 LP  0  0  0  0  0  0  0  0  0  0  0  0  # atno 17342 bound_to 10162
  140.2755  143.3425  152.1199 LP  0  0  0  0  0  0  0  0  0  0  0  0  # atno 17343 bound_to 10162
  156.3583  130.7468  151.2437 LP  0  0  0  0  0  0  0  0  0  0  0  0  # atno 17370 bound_to 10713
  157.7488  131.0357  150.4377 LP  0  0  0  0  0  0  0  0  0  0  0  0  # atno 17371 bound_to 10713
  139.8732  134.9866  156.5331 LP  0  0  0  0  0  0  0  0  0  0  0  0  # atno 17394 bound_to 11000
  140.8325  133.8268  155.8997 LP  0  0  0  0  0  0  0  0  0  0  0  0  # atno 17395 bound_to 11000

$$$$
