AV-unprocessed.smi:2252|AV-procd|sdf|9103|dock8
  -GOLD-   2272012303D 1   1.00000     0.00000
 Structure written by MMmdl.
 46 48  0  0  0  0  0  0  0  0  3 V2000
  153.0248  142.3368  160.0145 C   0  0  0  0  0  0  0  0  0  0  0  0
  152.1953  143.3407  159.3454 N   0  0  0  0  0  0  0  0  0  0  0  0
  152.0888  144.6666  159.6793 C   0  0  0  0  0  0  0  0  0  0  0  0
  151.2126  145.2275  158.7873 C   0  0  0  0  0  0  0  0  0  0  0  0
  150.8202  144.2216  157.9467 N   0  3  0  0  0  0  0  0  0  0  0  0
  151.4121  143.0708  158.2879 C   0  0  0  0  0  0  0  0  0  0  0  0
  151.2319  141.7616  157.5849 C   0  0  0  0  0  0  0  0  0  0  0  0
  149.7734  141.2748  157.6096 C   0  0  0  0  0  0  0  0  0  0  0  0
  149.6046  140.0246  156.8785 N   0  0  0  0  0  0  0  0  0  0  0  0
  149.9726  139.8224  155.6035 C   0  0  0  0  0  0  0  0  0  0  0  0
  150.4925  140.6944  154.9063 O   0  0  0  0  0  0  0  0  0  0  0  0
  149.7321  138.4173  155.0302 C   0  0  2  0  0  0  0  0  0  0  0  0
  151.0698  137.8697  154.4881 C   0  0  0  0  0  0  0  0  0  0  0  0
  152.1492  137.3685  155.4230 C   0  0  0  0  0  0  0  0  0  0  0  0
  152.3562  138.6505  154.6582 C   0  0  0  0  0  0  0  0  0  0  0  0
  148.6781  138.4236  153.9756 N   0  3  0  0  0  0  0  0  0  0  0  0
  147.3253  138.0389  154.4319 C   0  0  0  0  0  0  0  0  0  0  0  0
  146.3490  138.5818  153.3830 C   0  0  0  0  0  0  0  0  0  0  0  0
  147.1393  139.6215  152.5824 C   0  0  0  0  0  0  0  0  0  0  0  0
  148.5001  139.7136  153.2736 C   0  0  0  0  0  0  0  0  0  0  0  0
  153.6456  142.8206  160.7693 H   0  0  0  0  0  0  0  0  0  0  0  0
  153.6665  141.8473  159.2814 H   0  0  0  0  0  0  0  0  0  0  0  0
  152.3805  141.5999  160.4948 H   0  0  0  0  0  0  0  0  0  0  0  0
  152.6320  145.1034  160.5050 H   0  0  0  0  0  0  0  0  0  0  0  0
  150.8501  146.2405  158.6892 H   0  0  0  0  0  0  0  0  0  0  0  0
  151.5925  141.8783  156.5628 H   0  0  0  0  0  0  0  0  0  0  0  0
  151.8935  141.0496  158.0798 H   0  0  0  0  0  0  0  0  0  0  0  0
  149.4284  141.1507  158.6376 H   0  0  0  0  0  0  0  0  0  0  0  0
  149.1240  142.0216  157.1525 H   0  0  0  0  0  0  0  0  0  0  0  0
  149.1934  139.2530  157.3846 H   0  0  0  0  0  0  0  0  0  0  0  0
  149.3907  137.7694  155.8401 H   0  0  0  0  0  0  0  0  0  0  0  0
  150.9730  137.3386  153.5424 H   0  0  0  0  0  0  0  0  0  0  0  0
  151.9753  137.4496  156.4940 H   0  0  0  0  0  0  0  0  0  0  0  0
  152.7188  136.4967  155.1081 H   0  0  0  0  0  0  0  0  0  0  0  0
  153.0664  138.6350  153.8339 H   0  0  0  0  0  0  0  0  0  0  0  0
  152.3199  139.5793  155.2240 H   0  0  0  0  0  0  0  0  0  0  0  0
  147.2322  136.9597  154.5580 H   0  0  0  0  0  0  0  0  0  0  0  0
  147.1191  138.5099  155.3944 H   0  0  0  0  0  0  0  0  0  0  0  0
  146.0086  137.7827  152.7232 H   0  0  0  0  0  0  0  0  0  0  0  0
  145.4665  139.0160  153.8544 H   0  0  0  0  0  0  0  0  0  0  0  0
  147.2652  139.2763  151.5554 H   0  0  0  0  0  0  0  0  0  0  0  0
  146.6363  140.5885  152.5453 H   0  0  0  0  0  0  0  0  0  0  0  0
  148.4853  140.5258  154.0022 H   0  0  0  0  0  0  0  0  0  0  0  0
  149.3043  139.9126  152.5646 H   0  0  0  0  0  0  0  0  0  0  0  0
  148.9476  137.7480  153.2746 H   0  0  0  0  0  0  0  0  0  0  0  0
  150.1751  144.3308  157.1741 H   0  0  0  0  0  0  0  0  0  0  0  0
  1  2  1  0  0  0  0
  1 21  1  0  0  0  0
  1 22  1  0  0  0  0
  1 23  1  0  0  0  0
  2  6  1  0  0  0  0
  2  3  1  0  0  0  0
  3  4  2  0  0  0  0
  3 24  1  0  0  0  0
  4  5  1  0  0  0  0
  4 25  1  0  0  0  0
  5  6  2  0  0  0  0
  5 46  1  0  0  0  0
  6  7  1  0  0  0  0
  7  8  1  0  0  0  0
  7 26  1  0  0  0  0
  7 27  1  0  0  0  0
  8  9  1  0  0  0  0
  8 28  1  0  0  0  0
  8 29  1  0  0  0  0
  9 10  1  0  0  0  0
  9 30  1  0  0  0  0
 10 11  2  0  0  0  0
 10 12  1  0  0  0  0
 12 13  1  0  0  0  0
 12 16  1  0  0  0  0
 12 31  1  0  0  0  0
 13 15  1  0  0  0  0
 13 14  1  0  0  0  0
 13 32  1  0  0  0  0
 14 15  1  0  0  0  0
 14 33  1  0  0  0  0
 14 34  1  0  0  0  0
 15 35  1  0  0  0  0
 15 36  1  0  0  0  0
 16 20  1  0  0  0  0
 16 17  1  0  0  0  0
 16 45  1  0  0  0  0
 17 18  1  0  0  0  0
 17 37  1  0  0  0  0
 17 38  1  0  0  0  0
 18 19  1  0  0  0  0
 18 39  1  0  0  0  0
 18 40  1  0  0  0  0
 19 20  1  0  0  0  0
 19 41  1  0  0  0  0
 19 42  1  0  0  0  0
 20 43  1  0  0  0  0
 20 44  1  0  0  0  0
M  CHG  1   5   1
M  CHG  1  16   1
M  END
> <s_m_source_file>
AV-unprocessed.smi

> <i_m_source_file_index>
2252

> <i_lp_mmshare_version>
43012

> <i_f3d_flags>
0

> <s_epik_input>
W0NIM11uMVtjSF1bY0hdbmMxW0NIMl1bQ0gyXVtOSF1DKD1PKVtDQEhdKFtDSF0yW0NIMl1bQ0gyXTIpTjNbQ0gyXVtDSDJdW0NIMl1bQ0gyXTM=

> <s_epik_cmdline>
J2VwaWtfcHl0aG9uJywgJy1waCcsICc3LjAnLCAnLXRuJywgJzgnLCAnLW1hJywgJzIwMCcsICctbWV0YWxfYmluZGluZycsICctaW1hZScsICc8aW5maWxlLm1hZT4nLCAnLW9tYWUnLCAnPG91dGZpbGUubWFlPic=

> <r_lp_tautomer_probability>
1

> <r_epik_Ionization_Penalty>
0.116886

> <r_epik_Ionization_Penalty_Charging>
0.00955009

> <r_epik_Ionization_Penalty_Neutral>
0.107336

> <r_epik_State_Penalty>
0.0956868

> <r_epik_Charging_Adjusted_Penalty>
0.105237

> <i_epik_Tot_Q>
2

> <i_epik_Tot_abs_Q>
2

> <r_epik_Metal_State_Penalty>
0.438836

> <b_epik_Metal_Only>
0

> <s_lp_Force_Field>
OPLS_2005

> <r_lp_Energy>
40.5803

> <b_lp_Chiralities_Consistent>
1

> <s_lp_Variant>
AV-unprocessed.smi:2252-1

> <Gold.Version>
5.8.1

> <Gold.Id.Protein>
6NUR|6NUR_protein|mol2

> <Gold.PLP.Fitness>
49.0663

> <Gold.PLP.PLP>
-37.1930

> <Gold.PLP.part.hbond>
-3.0000

> <Gold.PLP.part.metal>
0.0000

> <Gold.PLP.part.buried>
2.6136

> <Gold.PLP.part.nonpolar>
-36.2383

> <Gold.PLP.part.repulsive>
0.1640

> <Gold.PLP.ligand.clash>
0.0000

> <Gold.PLP.ligand.torsion>
1.9949

> <Gold.PLP.Chemscore.Hbond>
4.8960

> <Gold.PLP.Chemscore.CHOScore>
0.0000

> <Gold.PLP.Chemscore.Metal>
0.0000

> <Gold.Chemscore.Hbonds>
donor molecule, donor type, donor heavy atom, donor atom, acceptor molecule, acceptor atom, score
      L1  H     5    46       P1  8028  2.00
      L1  H    16    45       P1  7948  1.89
      P1  H  7989  7998       L1    11  0.90

> <Gold.PLP.Chemscore.Internal.Correction>
1.1751

> <Gold.Rescore>
     Score         DG    S(hbond)    S(metal)    S(lipo)     H(rot)  DE(clash)    DE(int)     intcor
     13.84     -20.77       2.82        0.00      94.90       2.05       2.10       4.83       ----

> <Gold.Chemscore.Fitness>
13.8392

> <Gold.Chemscore.DG>
-20.7711

> <Gold.Chemscore.ZeroCoef>
-5.4800

> <Gold.Chemscore.Hbond>
2.8216

> <Gold.Chemscore.Metal>
0.0000

> <Gold.Chemscore.Lipo>
94.9030

> <Gold.Chemscore.Internal_Hbond>
0.0000

> <Gold.Chemscore.DEClash>
2.0987

> <Gold.Chemscore.DEInternal>
4.8332

> <Gold.Chemscore.Rot>
2.0456

> <Gold.Chemscore.Internal.Correction>
   9.000000E+99

> <Gold.Chemscore.Hbonds>
donor molecule, donor type, donor heavy atom, donor atom, acceptor molecule, acceptor atom, score
      L1  H     5    46       P1  8028  0.68
      L1  H    16    45       P1  7948  0.90
      P1  H  7989  7998       L1    11  0.88

> <Gold.Chemscore.Hbond.Weighted>
-9.4243

> <Gold.Chemscore.Metal.Weighted>
-0.0000

> <Gold.Chemscore.Lipo.Weighted>
-11.1037

> <Gold.Chemscore.Internal_Hbond.Weighted>
0.0000

> <Gold.Chemscore.DEClash.Weighted>
2.0987

> <Gold.Chemscore.DEInternal.Weighted>
4.8332

> <Gold.Chemscore.Rot.Weighted>
5.2368

> <Gold.Chemscore.Internal.Correction.Weighted>
   9.000000E+99

> <Gold.Protein.RotatedTorsions>
[ 6907 6896 6895 6894 ] final   53.48 input  -60.11 | X-H torsion
[ 7974 7965 7964 7962 ] final  -68.26 input  175.53 | X-H torsion
[ 8008 7997 7996 7995 ] final   18.05 input   59.86 | X-H torsion
[ 10167 10162 10161 10158 ] final  176.48 input  -65.29 | X-H torsion
[ 10718 10713 10712 10709 ] final  -42.49 input   66.30 | X-H torsion
[ 10763 10752 10751 10750 ] final  -94.59 input  -60.55 | X-H torsion
[ 11005 11000 10999 10996 ] final  -36.96 input  -57.11 | X-H torsion

> <Gold.Protein.ActiveResidues>
 VAL166  LYS551  ARG553  GLY616  TRP617  ASP618  TYR619  PRO620  LYS621  CYS622 
 ASP623  PHE694  ASN695  SER759  ASP760  ASP761  ALA762  ILE779  LEU786  VAL792 
 PHE793  MET794  SER795  GLU796  ALA797  LYS798  CYS799  TRP800  GLU811  SER814 

> <Gold.Protein.RotatedAtoms>
  152.3341  134.7221  160.0281 H   0  0  0  0  0  0  0  0  0  0  0  0  # atno 6907 bound_to 6896
  151.7627  133.3329  159.3430 H   0  0  0  0  0  0  0  0  0  0  0  0  # atno 6908 bound_to 6896
  150.7440  134.6023  159.6087 H   0  0  0  0  0  0  0  0  0  0  0  0  # atno 6909 bound_to 6896
  145.7188  140.9047  143.0641 H   0  0  0  0  0  0  0  0  0  0  0  0  # atno 7974 bound_to 7965
  154.9003  140.2999  155.5321 H   0  0  0  0  0  0  0  0  0  0  0  0  # atno 8008 bound_to 7997
  156.3018  140.2408  156.3965 H   0  0  0  0  0  0  0  0  0  0  0  0  # atno 8009 bound_to 7997
  154.8528  140.0408  157.1604 H   0  0  0  0  0  0  0  0  0  0  0  0  # atno 8010 bound_to 7997
  139.5216  144.2910  152.0463 H   0  0  0  0  0  0  0  0  0  0  0  0  # atno 10167 bound_to 10162
  156.2590  130.4195  149.8564 H   0  0  0  0  0  0  0  0  0  0  0  0  # atno 10718 bound_to 10713
  154.7069  135.5152  153.8609 H   0  0  0  0  0  0  0  0  0  0  0  0  # atno 10763 bound_to 10752
  153.0749  135.6613  154.0176 H   0  0  0  0  0  0  0  0  0  0  0  0  # atno 10764 bound_to 10752
  154.0025  135.3009  155.3380 H   0  0  0  0  0  0  0  0  0  0  0  0  # atno 10765 bound_to 10752
  140.9915  133.7002  156.1859 H   0  0  0  0  0  0  0  0  0  0  0  0  # atno 11005 bound_to 11000
  144.6922  139.9174  143.7466 LP  0  0  0  0  0  0  0  0  0  0  0  0  # atno 17320 bound_to 7965
  146.0645  139.3637  143.0561 LP  0  0  0  0  0  0  0  0  0  0  0  0  # atno 17321 bound_to 7965
  140.2362  144.4317  150.6279 LP  0  0  0  0  0  0  0  0  0  0  0  0  # atno 17342 bound_to 10162
  140.6322  143.2189  151.6471 LP  0  0  0  0  0  0  0  0  0  0  0  0  # atno 17343 bound_to 10162
  156.6086  130.8577  151.3449 LP  0  0  0  0  0  0  0  0  0  0  0  0  # atno 17370 bound_to 10713
  157.7243  130.9601  150.1569 LP  0  0  0  0  0  0  0  0  0  0  0  0  # atno 17371 bound_to 10713
  140.7032  134.4541  157.5585 LP  0  0  0  0  0  0  0  0  0  0  0  0  # atno 17394 bound_to 11000
  139.8994  134.8591  156.1959 LP  0  0  0  0  0  0  0  0  0  0  0  0  # atno 17395 bound_to 11000

$$$$
