AV-unprocessed.smi:3112|AV-procd|sdf|11838|dock8
  -GOLD-   2272017213D 1   1.00000     0.00000
 Structure written by MMmdl.
 37 37  0  0  0  0  0  0  0  0  2 V2000
  147.3767  141.5020  154.1825 C   0  0  0  0  0  0  0  0  0  0  0  0
  146.8312  140.9065  152.8771 C   0  0  0  0  0  0  0  0  0  0  0  0
  146.8824  139.3684  152.8373 C   0  0  2  0  0  0  0  0  0  0  0  0
  148.2269  138.9517  152.9747 O   0  0  0  0  0  0  0  0  0  0  0  0
  146.3354  138.8079  151.5136 C   0  0  0  0  0  0  0  0  0  0  0  0
  145.1774  137.9207  151.7516 N   0  3  0  0  0  0  0  0  0  0  0  0
  145.4928  136.4864  151.9523 C   0  0  1  0  0  0  0  0  0  0  0  0
  145.9773  136.2247  153.3919 C   0  0  0  0  0  0  0  0  0  0  0  0
  144.2814  135.5930  151.5751 C   0  0  2  0  0  0  0  0  0  0  0  0
  143.1447  135.6480  152.6135 C   0  0  0  0  0  0  0  0  0  0  0  0
  144.6590  134.2188  151.2573 N   0  0  0  0  0  0  0  0  0  0  0  0
  143.8401  133.1835  150.8534 C   0  0  0  0  0  0  0  0  0  0  0  0
  144.6309  132.0888  150.6526 C   0  0  0  0  0  0  0  0  0  0  0  0
  145.9386  132.5558  150.9590 C   0  0  0  0  0  0  0  0  0  0  0  0
  145.9533  133.8295  151.3165 N   0  0  0  0  0  0  0  0  0  0  0  0
  147.2847  142.5883  154.1797 H   0  0  0  0  0  0  0  0  0  0  0  0
  148.4307  141.2618  154.3223 H   0  0  0  0  0  0  0  0  0  0  0  0
  146.8288  141.1255  155.0468 H   0  0  0  0  0  0  0  0  0  0  0  0
  145.7973  141.2330  152.7600 H   0  0  0  0  0  0  0  0  0  0  0  0
  147.3773  141.3213  152.0287 H   0  0  0  0  0  0  0  0  0  0  0  0
  146.3031  138.9672  153.6705 H   0  0  0  0  0  0  0  0  0  0  0  0
  148.6858  139.1442  152.1707 H   0  0  0  0  0  0  0  0  0  0  0  0
  146.0121  139.6290  150.8726 H   0  0  0  0  0  0  0  0  0  0  0  0
  147.1229  138.2759  150.9798 H   0  0  0  0  0  0  0  0  0  0  0  0
  144.6651  138.2564  152.5551 H   0  0  0  0  0  0  0  0  0  0  0  0
  146.3052  136.2287  151.2710 H   0  0  0  0  0  0  0  0  0  0  0  0
  146.1496  135.1607  153.5570 H   0  0  0  0  0  0  0  0  0  0  0  0
  145.2481  136.5600  154.1301 H   0  0  0  0  0  0  0  0  0  0  0  0
  146.9171  136.7345  153.6018 H   0  0  0  0  0  0  0  0  0  0  0  0
  143.8643  136.0090  150.6565 H   0  0  0  0  0  0  0  0  0  0  0  0
  142.8131  136.6739  152.7755 H   0  0  0  0  0  0  0  0  0  0  0  0
  143.4506  135.2431  153.5785 H   0  0  0  0  0  0  0  0  0  0  0  0
  142.2808  135.0746  152.2758 H   0  0  0  0  0  0  0  0  0  0  0  0
  142.7730  133.3097  150.7425 H   0  0  0  0  0  0  0  0  0  0  0  0
  144.3223  131.1041  150.3341 H   0  0  0  0  0  0  0  0  0  0  0  0
  146.8713  132.0118  150.9307 H   0  0  0  0  0  0  0  0  0  0  0  0
  144.5744  137.9901  150.9446 H   0  0  0  0  0  0  0  0  0  0  0  0
  1  2  1  0  0  0  0
  1 16  1  0  0  0  0
  1 17  1  0  0  0  0
  1 18  1  0  0  0  0
  2  3  1  0  0  0  0
  2 19  1  0  0  0  0
  2 20  1  0  0  0  0
  3  4  1  0  0  0  0
  3  5  1  0  0  0  0
  3 21  1  0  0  0  0
  4 22  1  0  0  0  0
  5  6  1  0  0  0  0
  5 23  1  0  0  0  0
  5 24  1  0  0  0  0
  6  7  1  0  0  0  0
  6 25  1  0  0  0  0
  6 37  1  0  0  0  0
  7  8  1  0  0  0  0
  7  9  1  0  0  0  0
  7 26  1  0  0  0  0
  8 27  1  0  0  0  0
  8 28  1  0  0  0  0
  8 29  1  0  0  0  0
  9 10  1  0  0  0  0
  9 11  1  0  0  0  0
  9 30  1  0  0  0  0
 10 31  1  0  0  0  0
 10 32  1  0  0  0  0
 10 33  1  0  0  0  0
 11 15  1  0  0  0  0
 11 12  1  0  0  0  0
 12 13  2  0  0  0  0
 12 34  1  0  0  0  0
 13 14  1  0  0  0  0
 13 35  1  0  0  0  0
 14 15  2  0  0  0  0
 14 36  1  0  0  0  0
M  CHG  1   6   1
M  END
> <s_m_source_file>
AV-unprocessed.smi

> <i_m_source_file_index>
3112

> <i_lp_mmshare_version>
43012

> <i_f3d_flags>
0

> <s_epik_input>
W0NIM11bQ0gyXVtDQEhdKFtPSF0pW0NIMl1bTkhdW0NASF0oW0NIM10pW0NASF0oW0NIM10pbjFbY0hdW2NIXVtjSF1uMQ==

> <s_epik_cmdline>
J2VwaWtfcHl0aG9uJywgJy1waCcsICc3LjAnLCAnLXRuJywgJzgnLCAnLW1hJywgJzIwMCcsICctbWV0YWxfYmluZGluZycsICctaW1hZScsICc8aW5maWxlLm1hZT4nLCAnLW9tYWUnLCAnPG91dGZpbGUubWFlPic=

> <r_lp_tautomer_probability>
1

> <r_epik_Ionization_Penalty>
0.0154842

> <r_epik_Ionization_Penalty_Charging>
0.0154724

> <r_epik_Ionization_Penalty_Neutral>
1.17979e-05

> <r_epik_State_Penalty>
0.0121607

> <r_epik_Charging_Adjusted_Penalty>
0.0276331

> <i_epik_Tot_Q>
1

> <i_epik_Tot_abs_Q>
1

> <r_epik_Metal_State_Penalty>
0.0121863

> <b_epik_Metal_Only>
0

> <s_lp_Force_Field>
OPLS_2005

> <r_lp_Energy>
12.0711

> <b_lp_Chiralities_Consistent>
1

> <s_lp_Variant>
AV-unprocessed.smi:3112-3

> <Gold.Version>
5.8.1

> <Gold.Id.Protein>
6NUR|6NUR_protein|mol2

> <Gold.PLP.Fitness>
42.8883

> <Gold.PLP.PLP>
-33.6316

> <Gold.PLP.part.hbond>
-3.6205

> <Gold.PLP.part.metal>
0.0000

> <Gold.PLP.part.buried>
-4.2428

> <Gold.PLP.part.nonpolar>
-26.5326

> <Gold.PLP.part.repulsive>
0.2003

> <Gold.PLP.ligand.clash>
0.0000

> <Gold.PLP.ligand.torsion>
1.4852

> <Gold.PLP.Chemscore.Hbond>
2.0000

> <Gold.PLP.Chemscore.CHOScore>
2.0000

> <Gold.PLP.Chemscore.Metal>
0.0000

> <Gold.Chemscore.Hbonds>
donor molecule, donor type, donor heavy atom, donor atom, acceptor molecule, acceptor atom, score
      L1  H     4    22       P1  7957  1.00
      L1  H     6    25       P1 10175  0.05
      L1  H     6    37       P1 10171  0.83
      L1  C    12    34       P1 10186  1.00
      L1  C    14    36       P1 10747  1.00

> <Gold.PLP.Chemscore.Internal.Correction>
0.2271

> <Gold.Rescore>
     Score         DG    S(hbond)    S(metal)    S(lipo)     H(rot)  DE(clash)    DE(int)     intcor
     13.46     -15.11       1.97        0.00      78.61       2.41       0.12       1.52       ----

> <Gold.Chemscore.Fitness>
13.4604

> <Gold.Chemscore.DG>
-15.1058

> <Gold.Chemscore.ZeroCoef>
-5.4800

> <Gold.Chemscore.Hbond>
1.9745

> <Gold.Chemscore.Metal>
0.0000

> <Gold.Chemscore.Lipo>
78.6130

> <Gold.Chemscore.Internal_Hbond>
0.0000

> <Gold.Chemscore.DEClash>
0.1238

> <Gold.Chemscore.DEInternal>
1.5216

> <Gold.Chemscore.Rot>
2.4089

> <Gold.Chemscore.Internal.Correction>
   9.000000E+99

> <Gold.Chemscore.Hbonds>
donor molecule, donor type, donor heavy atom, donor atom, acceptor molecule, acceptor atom, score
      L1  H     4    22       P1  7957  0.98
      L1  H     6    25       P1 10175  0.04
      L1  H     6    37       P1 10171  0.80

> <Gold.Chemscore.Hbond.Weighted>
-6.5948

> <Gold.Chemscore.Metal.Weighted>
-0.0000

> <Gold.Chemscore.Lipo.Weighted>
-9.1977

> <Gold.Chemscore.Internal_Hbond.Weighted>
0.0000

> <Gold.Chemscore.DEClash.Weighted>
0.1238

> <Gold.Chemscore.DEInternal.Weighted>
1.5216

> <Gold.Chemscore.Rot.Weighted>
6.1667

> <Gold.Chemscore.Internal.Correction.Weighted>
   9.000000E+99

> <Gold.Protein.RotatedTorsions>
[ 6907 6896 6895 6894 ] final  -53.88 input  -60.11 | X-H torsion
[ 7974 7965 7964 7962 ] final  121.02 input  175.53 | X-H torsion
[ 8008 7997 7996 7995 ] final  -66.05 input   59.86 | X-H torsion
[ 10167 10162 10161 10158 ] final   14.98 input  -65.29 | X-H torsion
[ 10718 10713 10712 10709 ] final -134.40 input   66.30 | X-H torsion
[ 10763 10752 10751 10750 ] final  -10.44 input  -60.55 | X-H torsion
[ 11005 11000 10999 10996 ] final  155.91 input  -57.11 | X-H torsion

> <Gold.Protein.ActiveResidues>
 VAL166  LYS551  ARG553  GLY616  TRP617  ASP618  TYR619  PRO620  LYS621  CYS622 
 ASP623  PHE694  ASN695  SER759  ASP760  ASP761  ALA762  ILE779  LEU786  VAL792 
 PHE793  MET794  SER795  GLU796  ALA797  LYS798  CYS799  TRP800  GLU811  SER814 

> <Gold.Protein.RotatedAtoms>
  150.8387  134.7670  159.6914 H   0  0  0  0  0  0  0  0  0  0  0  0  # atno 6907 bound_to 6896
  152.4479  134.5453  159.9861 H   0  0  0  0  0  0  0  0  0  0  0  0  # atno 6908 bound_to 6896
  151.5598  133.3367  159.3004 H   0  0  0  0  0  0  0  0  0  0  0  0  # atno 6909 bound_to 6896
  145.1243  139.3368  143.4698 H   0  0  0  0  0  0  0  0  0  0  0  0  # atno 7974 bound_to 7965
  154.4710  140.0920  156.7144 H   0  0  0  0  0  0  0  0  0  0  0  0  # atno 8008 bound_to 7997
  155.4724  140.3465  155.4309 H   0  0  0  0  0  0  0  0  0  0  0  0  # atno 8009 bound_to 7997
  156.1039  140.1429  156.9419 H   0  0  0  0  0  0  0  0  0  0  0  0  # atno 8010 bound_to 7997
  140.5898  143.8817  150.6863 H   0  0  0  0  0  0  0  0  0  0  0  0  # atno 10167 bound_to 10162
  156.2550  130.7176  151.1089 H   0  0  0  0  0  0  0  0  0  0  0  0  # atno 10718 bound_to 10713
  153.4692  135.7016  153.6004 H   0  0  0  0  0  0  0  0  0  0  0  0  # atno 10763 bound_to 10752
  153.4265  135.3813  155.2144 H   0  0  0  0  0  0  0  0  0  0  0  0  # atno 10764 bound_to 10752
  154.8725  135.3940  154.4127 H   0  0  0  0  0  0  0  0  0  0  0  0  # atno 10765 bound_to 10752
  140.1626  134.8599  157.2593 H   0  0  0  0  0  0  0  0  0  0  0  0  # atno 11005 bound_to 11000
  146.3519  140.1215  142.8600 LP  0  0  0  0  0  0  0  0  0  0  0  0  # atno 17320 bound_to 7965
  145.0706  140.9152  143.4884 LP  0  0  0  0  0  0  0  0  0  0  0  0  # atno 17321 bound_to 7965
  140.2337  143.3716  152.1544 LP  0  0  0  0  0  0  0  0  0  0  0  0  # atno 17342 bound_to 10162
  139.5220  144.7054  151.5370 LP  0  0  0  0  0  0  0  0  0  0  0  0  # atno 17343 bound_to 10162
  157.7229  131.0669  150.6058 LP  0  0  0  0  0  0  0  0  0  0  0  0  # atno 17370 bound_to 10713
  156.6141  130.4388  149.5847 LP  0  0  0  0  0  0  0  0  0  0  0  0  # atno 17371 bound_to 10713
  140.2472  134.3726  155.7456 LP  0  0  0  0  0  0  0  0  0  0  0  0  # atno 17394 bound_to 11000
  141.2211  133.7297  156.8880 LP  0  0  0  0  0  0  0  0  0  0  0  0  # atno 17395 bound_to 11000

$$$$
