#       Name:                AV-unprocessed.smi:215
#       Creating user name   scv26
#       Creation time:       Thu Mar 26 20:04:03 2020


#       File generated by GOLD software.
#

@<TRIPOS>MOLECULE
AV-unprocessed.smi:215
    68    71     1
SMALL
NO_CHARGES


@<TRIPOS>ATOM
      1 ****        -1.1175   1.1146   2.3067 C.3            1 S1                 0.0000
      2 ****        -1.9662   1.0862   1.0132 C.3            1 S1                 0.0000
      3 ****        -3.3974   1.6366   1.1924 C.3            1 S1                 0.0000
      4 ****        -4.1103   1.1427   2.4087 N.4            1 S1                 1.0000
      5 ****        -4.2895  -0.3323   2.3843 C.3            1 S1                 0.0000
      6 ****        -5.3955   1.8444   2.6863 C.3            1 S1                 0.0000
      7 ****        -5.7905   1.7813   4.1722 C.3            1 S1                 0.0000
      8 ****        -4.8701   2.5174   4.9504 O.3            1 S1                 0.0000
      9 ****        -3.1661   3.1565   1.1180 C.3            1 S1                 0.0000
     10 ****        -1.9963   3.3097   0.1369 C.3            1 S1                 0.0000
     11 ****        -1.4108   1.9797   0.0063 N.pl3          1 S1                 0.0000
     12 ****        -0.2252   1.7749  -0.6303 C.ar           1 S1                 0.0000
     13 ****         0.3684   2.8389  -1.2333 N.ar           1 S1                 0.0000
     14 ****         1.5328   2.6998  -1.8720 C.ar           1 S1                 0.0000
     15 ****         2.2676   1.5995  -2.0326 N.ar           1 S1                 0.0000
     16 ****         1.6789   0.5206  -1.4421 C.ar           1 S1                 0.0000
     17 ****         0.4429   0.5167  -0.7305 C.ar           1 S1                 0.0000
     18 ****         0.1683  -0.7740  -0.2905 N.2            1 S1                 0.0000
     19 ****         1.1785  -1.4845  -0.7092 C.2            1 S1                 0.0000
     20 ****         2.1386  -0.7852  -1.4032 N.pl3          1 S1                 0.0000
     21 ****         3.3399  -1.3193  -1.9801 C.3            1 S1                 0.0000
     22 ****         3.2765  -2.4133  -3.0461 C.3            1 S1                 0.0000
     23 ****         4.6038  -2.9985  -2.5128 C.3            1 S1                 0.0000
     24 ****         4.6549  -4.5332  -2.4311 C.3            1 S1                 0.0000
     25 ****         4.5601  -5.1173  -3.7145 O.3            1 S1                 0.0000
     26 ****         5.8759  -2.4868  -3.2184 C.3            1 S1                 0.0000
     27 ****         7.0321  -2.7336  -2.4436 O.3            1 S1                 0.0000
     28 ****         4.2442  -2.2724  -1.1957 C.3            1 S1                 0.0000
     29 ****        -2.0263   0.0703   0.6258 H              1 S1                 0.0000
     30 ****        -3.9871   1.3493   0.3190 H              1 S1                 0.0000
     31 ****        -1.5297   0.4633   3.0765 H              1 S1                 0.0000
     32 ****        -1.0478   2.1177   2.7275 H              1 S1                 0.0000
     33 ****        -0.0995   0.7731   2.1190 H              1 S1                 0.0000
     34 ****        -4.9252  -0.6318   1.5502 H              1 S1                 0.0000
     35 ****        -4.7459  -0.6986   3.3025 H              1 S1                 0.0000
     36 ****        -3.3395  -0.8553   2.2826 H              1 S1                 0.0000
     37 ****        -5.3504   2.8966   2.4119 H              1 S1                 0.0000
     38 ****        -6.1833   1.4121   2.0675 H              1 S1                 0.0000
     39 ****        -6.7793   2.2192   4.3114 H              1 S1                 0.0000
     40 ****        -5.8485   0.7591   4.5436 H              1 S1                 0.0000
     41 ****        -4.9346   3.4308   4.7150 H              1 S1                 0.0000
     42 ****        -4.0436   3.7067   0.7776 H              1 S1                 0.0000
     43 ****        -2.8815   3.5493   2.0952 H              1 S1                 0.0000
     44 ****        -2.3526   3.6407  -0.8393 H              1 S1                 0.0000
     45 ****        -1.2707   4.0376   0.5025 H              1 S1                 0.0000
     46 ****         1.9332   3.5990  -2.3172 H              1 S1                 0.0000
     47 ****         1.2485  -2.5465  -0.5233 H              1 S1                 0.0000
     48 ****         3.9224  -0.4713  -2.3437 H              1 S1                 0.0000
     49 ****         2.4286  -3.0868  -2.9073 H              1 S1                 0.0000
     50 ****         3.3169  -2.0458  -4.0720 H              1 S1                 0.0000
     51 ****         5.5689  -4.8808  -1.9488 H              1 S1                 0.0000
     52 ****         3.8292  -4.9163  -1.8307 H              1 S1                 0.0000
     53 ****         4.5915  -6.0570  -3.6196 H              1 S1                 0.0000
     54 ****         6.0041  -2.9506  -4.1967 H              1 S1                 0.0000
     55 ****         5.8212  -1.4132  -3.3996 H              1 S1                 0.0000
     56 ****         7.7834  -2.4043  -2.9129 H              1 S1                 0.0000
     57 ****         5.0799  -1.7839  -0.6938 H              1 S1                 0.0000
     58 ****         3.6932  -2.9061  -0.4989 H              1 S1                 0.0000
     59 ****        -3.5041   1.3557   3.1886 H              1 S1                 0.0000
     60 ****        -3.9422   2.1893   4.7733 LP             1 S1                 0.0000
     61 ****        -5.0842   2.4043   5.9206 LP             1 S1                 0.0000
     62 ****        -0.0720   3.7360  -1.1982 LP             1 S1                 0.0000
     63 ****         3.1386   1.5691  -2.5231 LP             1 S1                 0.0000
     64 ****        -0.6259  -1.0870   0.2303 LP             1 S1                 0.0000
     65 ****         5.3238  -4.8100  -4.2822 LP             1 S1                 0.0000
     66 ****         3.6972  -4.8503  -4.1437 LP             1 S1                 0.0000
     67 ****         7.1333  -3.7169  -2.2924 LP             1 S1                 0.0000
     68 ****         6.9537  -2.2672  -1.5626 LP             1 S1                 0.0000
@<TRIPOS>BOND
    1    1    2 1     
    2    1   31 1     
    3    1   32 1     
    4    1   33 1     
    5    2   29 1     
    6    2   11 1     
    7    2    3 1     
    8    3   30 1     
    9    3    4 1     
   10    3    9 1     
   11    4    5 1     
   12    4    6 1     
   13    4   59 1     
   14    5   34 1     
   15    5   35 1     
   16    5   36 1     
   17    6    7 1     
   18    6   37 1     
   19    6   38 1     
   20    7    8 1     
   21    7   39 1     
   22    7   40 1     
   23    8   41 1     
   24    9   10 1     
   25    9   42 1     
   26    9   43 1     
   27   10   11 1     
   28   10   44 1     
   29   10   45 1     
   30   11   12 1     
   31   12   17 ar    
   32   12   13 ar    
   33   13   14 ar    
   34   14   15 ar    
   35   14   46 1     
   36   15   16 ar    
   37   16   20 1     
   38   16   17 ar    
   39   17   18 1     
   40   18   19 2     
   41   19   20 1     
   42   19   47 1     
   43   20   21 1     
   44   21   28 1     
   45   21   22 1     
   46   21   48 1     
   47   22   23 1     
   48   22   49 1     
   49   22   50 1     
   50   23   24 1     
   51   23   26 1     
   52   23   28 1     
   53   24   25 1     
   54   24   51 1     
   55   24   52 1     
   56   25   53 1     
   57   26   27 1     
   58   26   54 1     
   59   26   55 1     
   60   27   56 1     
   61   28   57 1     
   62   28   58 1     
   63    8   60 1     
   64    8   61 1     
   65   13   62 1     
   66   15   63 1     
   67   18   64 1     
   68   25   65 1     
   69   25   66 1     
   70   27   67 1     
   71   27   68 1     
@<TRIPOS>SUBSTRUCTURE
      1 S1             1
@<TRIPOS>SET
LONE_PAIRS      STATIC     ATOMS    <user>   **** ""
9 60 61 62 63 64 65 66 67 68
DONOR_HYDROGENS      STATIC     ATOMS    <user>   **** ""
4 59 41 53 56
ATOM$BLUE        STATIC     ATOMS    COLORGROUP SYSTEM
9 60 61 62 63 64 65 66 67 68
ATOM$RED        STATIC     ATOMS    COLORGROUP SYSTEM
4 59 41 53 56
