AV-unprocessed.smi:332|AV-procd|sdf|2354|dock8
  -GOLD-   2262022263D 1   1.00000     0.00000
 Structure written by MMmdl.
 42 44  0  0  0  0  0  0  0  0  1 V2000
  153.9210  141.6118  160.9042 C   0  0  0  0  0  0  0  0  0  0  0  0
  152.8701  141.4945  159.7896 C   0  0  2  0  0  0  0  0  0  0  0  0
  153.1952  140.3329  158.9628 N   0  0  0  0  0  0  0  0  0  0  0  0
  152.4230  139.2508  158.7762 C   0  0  0  0  0  0  0  0  0  0  0  0
  151.3086  139.1160  159.2835 O   0  0  0  0  0  0  0  0  0  0  0  0
  153.0023  138.1708  157.8515 C   0  0  0  0  0  0  0  0  0  0  0  0
  152.2281  137.9837  156.6131 N   0  0  0  0  0  0  0  0  0  0  0  0
  151.6812  136.7048  156.3859 C   0  0  0  0  0  0  0  0  0  0  0  0
  150.9601  136.4258  155.2885 C   0  0  0  0  0  0  0  0  0  0  0  0
  150.7493  137.4792  154.3241 C   0  0  0  0  0  0  0  0  0  0  0  0
  151.2712  138.7049  154.5297 C   0  0  0  0  0  0  0  0  0  0  0  0
  152.0616  139.0139  155.7271 C   0  0  0  0  0  0  0  0  0  0  0  0
  152.5430  140.1305  155.9220 O   0  0  0  0  0  0  0  0  0  0  0  0
  152.8006  142.7637  158.9054 C   0  0  1  0  0  0  0  0  0  0  0  0
  151.5554  142.8601  157.9927 C   0  0  0  0  0  0  0  0  0  0  0  0
  151.0375  144.2853  158.2597 C   0  0  1  0  0  0  0  0  0  0  0  0
  150.3690  144.3235  159.6461 C   0  0  0  0  0  0  0  0  0  0  0  0
  151.5725  144.2423  160.6024 C   0  0  0  0  0  0  0  0  0  0  0  0
  152.7710  144.1290  159.6374 C   0  0  2  0  0  0  0  0  0  0  0  0
  152.3278  145.0567  158.5102 C   0  0  0  0  0  0  0  0  0  0  0  0
  153.6833  142.4242  161.5908 H   0  0  0  0  0  0  0  0  0  0  0  0
  154.9149  141.7996  160.4966 H   0  0  0  0  0  0  0  0  0  0  0  0
  153.9703  140.6953  161.4933 H   0  0  0  0  0  0  0  0  0  0  0  0
  151.9026  141.3367  160.2665 H   0  0  0  0  0  0  0  0  0  0  0  0
  154.0901  140.3528  158.4954 H   0  0  0  0  0  0  0  0  0  0  0  0
  154.0335  138.4408  157.6201 H   0  0  0  0  0  0  0  0  0  0  0  0
  153.0705  137.2271  158.3962 H   0  0  0  0  0  0  0  0  0  0  0  0
  151.8905  135.9715  157.1513 H   0  0  0  0  0  0  0  0  0  0  0  0
  150.5518  135.4383  155.1297 H   0  0  0  0  0  0  0  0  0  0  0  0
  150.1718  137.2832  153.4327 H   0  0  0  0  0  0  0  0  0  0  0  0
  151.1046  139.4801  153.7963 H   0  0  0  0  0  0  0  0  0  0  0  0
  153.6839  142.7630  158.2632 H   0  0  0  0  0  0  0  0  0  0  0  0
  151.8381  142.7335  156.9470 H   0  0  0  0  0  0  0  0  0  0  0  0
  150.7958  142.1116  158.2211 H   0  0  0  0  0  0  0  0  0  0  0  0
  150.4095  144.6800  157.4606 H   0  0  0  0  0  0  0  0  0  0  0  0
  149.8251  145.2576  159.7923 H   0  0  0  0  0  0  0  0  0  0  0  0
  149.6669  143.5013  159.7905 H   0  0  0  0  0  0  0  0  0  0  0  0
  151.6465  145.1579  161.1909 H   0  0  0  0  0  0  0  0  0  0  0  0
  151.4997  143.4145  161.3063 H   0  0  0  0  0  0  0  0  0  0  0  0
  153.7239  144.4011  160.0922 H   0  0  0  0  0  0  0  0  0  0  0  0
  153.0048  145.0575  157.6538 H   0  0  0  0  0  0  0  0  0  0  0  0
  152.1607  146.0858  158.8340 H   0  0  0  0  0  0  0  0  0  0  0  0
  1  2  1  0  0  0  0
  1 21  1  0  0  0  0
  1 22  1  0  0  0  0
  1 23  1  0  0  0  0
  2  3  1  0  0  0  0
  2 14  1  0  0  0  0
  2 24  1  0  0  0  0
  3  4  1  0  0  0  0
  3 25  1  0  0  0  0
  4  5  2  0  0  0  0
  4  6  1  0  0  0  0
  6  7  1  0  0  0  0
  6 26  1  0  0  0  0
  6 27  1  0  0  0  0
  7 12  1  0  0  0  0
  7  8  1  0  0  0  0
  8  9  2  0  0  0  0
  8 28  1  0  0  0  0
  9 10  1  0  0  0  0
  9 29  1  0  0  0  0
 10 11  2  0  0  0  0
 10 30  1  0  0  0  0
 11 12  1  0  0  0  0
 11 31  1  0  0  0  0
 12 13  2  0  0  0  0
 14 19  1  0  0  0  0
 14 15  1  0  0  0  0
 14 32  1  0  0  0  0
 15 16  1  0  0  0  0
 15 33  1  0  0  0  0
 15 34  1  0  0  0  0
 16 20  1  0  0  0  0
 16 17  1  0  0  0  0
 16 35  1  0  0  0  0
 17 18  1  0  0  0  0
 17 36  1  0  0  0  0
 17 37  1  0  0  0  0
 18 19  1  0  0  0  0
 18 38  1  0  0  0  0
 18 39  1  0  0  0  0
 19 20  1  0  0  0  0
 19 40  1  0  0  0  0
 20 41  1  0  0  0  0
 20 42  1  0  0  0  0
M  END
> <s_m_source_file>
AV-unprocessed.smi

> <i_m_source_file_index>
332

> <i_lp_mmshare_version>
43012

> <i_f3d_flags>
0

> <s_epik_input>
W0NIMl0xW0NIMl1bQ0BIXShbQ0gyXTIpW0NAQEhdKFtDSDJdW0NAQEhdMTIpW0NASF0oW0NIM10pW05IXUMoPU8pW0NIMl1uM1tjSF1bY0hdW2NIXVtjSF1jMz1P

> <s_epik_cmdline>
J2VwaWtfcHl0aG9uJywgJy1waCcsICc3LjAnLCAnLXRuJywgJzgnLCAnLW1hJywgJzIwMCcsICctbWV0YWxfYmluZGluZycsICctaW1hZScsICc8aW5maWxlLm1hZT4nLCAnLW9tYWUnLCAnPG91dGZpbGUubWFlPic=

> <r_lp_tautomer_probability>
1

> <r_epik_Ionization_Penalty>
4.05802e-07

> <r_epik_Ionization_Penalty_Charging>
3.84175e-07

> <r_epik_Ionization_Penalty_Neutral>
2.16269e-08

> <r_epik_State_Penalty>
-0

> <r_epik_Charging_Adjusted_Penalty>
3.84175e-07

> <i_epik_Tot_Q>
0

> <i_epik_Tot_abs_Q>
0

> <r_epik_Metal_State_Penalty>
-0

> <b_epik_Metal_Only>
0

> <s_lp_Force_Field>
OPLS_2005

> <r_lp_Energy>
60.6012

> <b_lp_Chiralities_Consistent>
1

> <s_lp_Variant>
AV-unprocessed.smi:332-3

> <Gold.Version>
5.8.1

> <Gold.Id.Protein>
6NUR|6NUR_protein|mol2

> <Gold.PLP.Fitness>
44.9603

> <Gold.PLP.PLP>
-42.3459

> <Gold.PLP.part.hbond>
-1.5094

> <Gold.PLP.part.metal>
0.0000

> <Gold.PLP.part.buried>
-3.6450

> <Gold.PLP.part.nonpolar>
-37.2177

> <Gold.PLP.part.repulsive>
0.0950

> <Gold.PLP.ligand.clash>
0.0000

> <Gold.PLP.ligand.torsion>
0.2001

> <Gold.PLP.Chemscore.Hbond>
1.0000

> <Gold.PLP.Chemscore.CHOScore>
0.0000

> <Gold.PLP.Chemscore.Metal>
0.0000

> <Gold.Chemscore.Hbonds>
donor molecule, donor type, donor heavy atom, donor atom, acceptor molecule, acceptor atom, score
      P1  H  7997  8009       L1    13  1.00

> <Gold.PLP.Chemscore.Internal.Correction>
0.0146

> <Gold.Rescore>
     Score         DG    S(hbond)    S(metal)    S(lipo)     H(rot)  DE(clash)    DE(int)     intcor
     18.85     -20.08       1.00        0.00     130.01       1.54       0.13       1.09       ----

> <Gold.Chemscore.Fitness>
18.8530

> <Gold.Chemscore.DG>
-20.0807

> <Gold.Chemscore.ZeroCoef>
-5.4800

> <Gold.Chemscore.Hbond>
0.9975

> <Gold.Chemscore.Metal>
0.0000

> <Gold.Chemscore.Lipo>
130.0067

> <Gold.Chemscore.Internal_Hbond>
0.0000

> <Gold.Chemscore.DEClash>
0.1336

> <Gold.Chemscore.DEInternal>
1.0941

> <Gold.Chemscore.Rot>
1.5398

> <Gold.Chemscore.Internal.Correction>
   9.000000E+99

> <Gold.Chemscore.Hbonds>
donor molecule, donor type, donor heavy atom, donor atom, acceptor molecule, acceptor atom, score
      P1  H  7997  8009       L1    13  0.90

> <Gold.Chemscore.Hbond.Weighted>
-3.3318

> <Gold.Chemscore.Metal.Weighted>
-0.0000

> <Gold.Chemscore.Lipo.Weighted>
-15.2108

> <Gold.Chemscore.Internal_Hbond.Weighted>
0.0000

> <Gold.Chemscore.DEClash.Weighted>
0.1336

> <Gold.Chemscore.DEInternal.Weighted>
1.0941

> <Gold.Chemscore.Rot.Weighted>
3.9419

> <Gold.Chemscore.Internal.Correction.Weighted>
   9.000000E+99

> <Gold.Protein.RotatedTorsions>
[ 6907 6896 6895 6894 ] final   34.60 input  -60.11 | X-H torsion
[ 7974 7965 7964 7962 ] final   -1.57 input  175.53 | X-H torsion
[ 8008 7997 7996 7995 ] final -143.60 input   59.86 | X-H torsion
[ 10167 10162 10161 10158 ] final   85.87 input  -65.29 | X-H torsion
[ 10718 10713 10712 10709 ] final  -50.97 input   66.30 | X-H torsion
[ 10763 10752 10751 10750 ] final   68.59 input  -60.55 | X-H torsion
[ 11005 11000 10999 10996 ] final   90.72 input  -57.11 | X-H torsion

> <Gold.Protein.ActiveResidues>
 VAL166  LYS551  ARG553  GLY616  TRP617  ASP618  TYR619  PRO620  LYS621  CYS622 
 ASP623  PHE694  ASN695  SER759  ASP760  ASP761  ALA762  ILE779  LEU786  VAL792 
 PHE793  MET794  SER795  GLU796  ALA797  LYS798  CYS799  TRP800  GLU811  SER814 

> <Gold.Protein.RotatedAtoms>
  152.1047  134.9317  160.0568 H   0  0  0  0  0  0  0  0  0  0  0  0  # atno 6907 bound_to 6896
  152.0518  133.4017  159.4388 H   0  0  0  0  0  0  0  0  0  0  0  0  # atno 6908 bound_to 6896
  150.6841  134.3220  159.4834 H   0  0  0  0  0  0  0  0  0  0  0  0  # atno 6909 bound_to 6896
  146.2415  140.1440  142.8335 H   0  0  0  0  0  0  0  0  0  0  0  0  # atno 7974 bound_to 7965
  155.5132  140.0585  157.2920 H   0  0  0  0  0  0  0  0  0  0  0  0  # atno 8008 bound_to 7997
  154.4544  140.1965  156.0370 H   0  0  0  0  0  0  0  0  0  0  0  0  # atno 8009 bound_to 7997
  156.0770  140.3252  155.7650 H   0  0  0  0  0  0  0  0  0  0  0  0  # atno 8010 bound_to 7997
  139.8933  144.6373  150.8715 H   0  0  0  0  0  0  0  0  0  0  0  0  # atno 10167 bound_to 10162
  156.1752  130.4150  149.9587 H   0  0  0  0  0  0  0  0  0  0  0  0  # atno 10718 bound_to 10713
  153.0243  135.5241  154.7158 H   0  0  0  0  0  0  0  0  0  0  0  0  # atno 10763 bound_to 10752
  154.6227  135.2891  155.0309 H   0  0  0  0  0  0  0  0  0  0  0  0  # atno 10764 bound_to 10752
  154.1290  135.6596  153.4970 H   0  0  0  0  0  0  0  0  0  0  0  0  # atno 10765 bound_to 10752
  139.8851  134.8631  156.3325 H   0  0  0  0  0  0  0  0  0  0  0  0  # atno 11005 bound_to 11000
  145.0223  140.8804  143.5159 LP  0  0  0  0  0  0  0  0  0  0  0  0  # atno 17320 bound_to 7965
  145.1490  139.2526  143.5451 LP  0  0  0  0  0  0  0  0  0  0  0  0  # atno 17321 bound_to 7965
  140.7722  143.3493  151.2047 LP  0  0  0  0  0  0  0  0  0  0  0  0  # atno 17342 bound_to 10162
  139.7090  143.9407  152.2939 LP  0  0  0  0  0  0  0  0  0  0  0  0  # atno 17343 bound_to 10162
  156.7375  130.9066  151.3630 LP  0  0  0  0  0  0  0  0  0  0  0  0  # atno 17370 bound_to 10713
  157.6831  130.9159  150.0317 LP  0  0  0  0  0  0  0  0  0  0  0  0  # atno 17371 bound_to 10713
  140.9713  133.7325  156.0539 LP  0  0  0  0  0  0  0  0  0  0  0  0  # atno 17394 bound_to 11000
  140.7867  134.3664  157.5474 LP  0  0  0  0  0  0  0  0  0  0  0  0  # atno 17395 bound_to 11000

$$$$
