#       Name:                AV-unprocessed.smi:3185
#       Creating user name   scv26
#       Creation time:       Fri Mar 27 18:00:29 2020


#       File generated by GOLD software.
#

@<TRIPOS>MOLECULE
AV-unprocessed.smi:3185
    40    41     1
SMALL
NO_CHARGES


@<TRIPOS>ATOM
      1 ****        -3.0549   3.0624  -2.0117 N.1            1 S1                 0.0000
      2 ****        -3.2926   2.7468  -0.9247 C.1            1 S1                 0.0000
      3 ****        -3.5914   2.3421   0.4582 C.3            1 S1                 0.0000
      4 ****        -2.9372   1.0102   0.8513 C.3            1 S1                 0.0000
      5 ****        -1.4069   1.0384   0.7354 C.3            1 S1                 0.0000
      6 ****        -0.8254  -0.2842   1.0467 N.4            1 S1                 1.0000
      7 ****         0.6486  -0.3796   0.9220 C.3            1 S1                 0.0000
      8 ****         1.1897  -1.2155   2.0994 C.3            1 S1                 0.0000
      9 ****         2.7109  -1.4085   2.0194 C.3            1 S1                 0.0000
     10 ****         3.1114  -2.0575   0.6882 C.3            1 S1                 0.0000
     11 ****         2.6010  -1.2278  -0.4980 C.3            1 S1                 0.0000
     12 ****         1.0720  -1.0155  -0.4324 C.3            1 S1                 0.0000
     13 ****         0.6137  -0.2430  -1.5808 N.pl3          1 S1                 0.0000
     14 ****        -0.3100  -0.6074  -2.5390 C.2            1 S1                 0.0000
     15 ****        -0.4370   0.4408  -3.4045 C.2            1 S1                 0.0000
     16 ****         0.4635   1.4149  -2.8914 C.2            1 S1                 0.0000
     17 ****         1.0892   1.0043  -1.8004 N.2            1 S1                 0.0000
     18 ****        -3.2557   3.1409   1.1198 H              1 S1                 0.0000
     19 ****        -4.6749   2.2750   0.5588 H              1 S1                 0.0000
     20 ****        -3.2237   0.7556   1.8724 H              1 S1                 0.0000
     21 ****        -3.3357   0.2203   0.2133 H              1 S1                 0.0000
     22 ****        -1.1231   1.3376  -0.2711 H              1 S1                 0.0000
     23 ****        -0.9955   1.7834   1.4175 H              1 S1                 0.0000
     24 ****        -1.0646  -0.4941   2.0052 H              1 S1                 0.0000
     25 ****         1.0794   0.6201   1.0051 H              1 S1                 0.0000
     26 ****         0.9354  -0.7343   3.0447 H              1 S1                 0.0000
     27 ****         0.7054  -2.1932   2.1127 H              1 S1                 0.0000
     28 ****         3.2106  -0.4444   2.1238 H              1 S1                 0.0000
     29 ****         3.0520  -2.0260   2.8509 H              1 S1                 0.0000
     30 ****         4.1961  -2.1561   0.6336 H              1 S1                 0.0000
     31 ****         2.7050  -3.0683   0.6332 H              1 S1                 0.0000
     32 ****         3.1157  -0.2658  -0.5024 H              1 S1                 0.0000
     33 ****         2.8687  -1.7234  -1.4320 H              1 S1                 0.0000
     34 ****         0.6024  -1.9983  -0.5035 H              1 S1                 0.0000
     35 ****        -0.7984  -1.5707  -2.5249 H              1 S1                 0.0000
     36 ****        -1.0754   0.5029  -4.2734 H              1 S1                 0.0000
     37 ****         0.6773   2.4019  -3.2744 H              1 S1                 0.0000
     38 ****        -1.2460  -0.9847   0.4531 H              1 S1                 0.0000
     39 ****        -2.8494   3.3353  -2.9515 LP             1 S1                 0.0000
     40 ****         1.7641   1.5050  -1.2583 LP             1 S1                 0.0000
@<TRIPOS>BOND
    1    1    2 3     
    2    2    3 1     
    3    3    4 1     
    4    3   18 1     
    5    3   19 1     
    6    4    5 1     
    7    4   20 1     
    8    4   21 1     
    9    5    6 1     
   10    5   22 1     
   11    5   23 1     
   12    6    7 1     
   13    6   24 1     
   14    6   38 1     
   15    7   12 1     
   16    7    8 1     
   17    7   25 1     
   18    8    9 1     
   19    8   26 1     
   20    8   27 1     
   21    9   10 1     
   22    9   28 1     
   23    9   29 1     
   24   10   11 1     
   25   10   30 1     
   26   10   31 1     
   27   11   12 1     
   28   11   32 1     
   29   11   33 1     
   30   12   13 1     
   31   12   34 1     
   32   13   17 1     
   33   13   14 1     
   34   14   15 2     
   35   14   35 1     
   36   15   16 1     
   37   15   36 1     
   38   16   17 2     
   39   16   37 1     
   40    1   39 1     
   41   17   40 1     
@<TRIPOS>SUBSTRUCTURE
      1 S1             1
@<TRIPOS>SET
LONE_PAIRS      STATIC     ATOMS    <user>   **** ""
2 39 40
DONOR_HYDROGENS      STATIC     ATOMS    <user>   **** ""
2 24 38
ATOM$BLUE        STATIC     ATOMS    COLORGROUP SYSTEM
2 39 40
ATOM$RED        STATIC     ATOMS    COLORGROUP SYSTEM
2 24 38
