AV-unprocessed.smi:3343|AV-procd|sdf|12892|dock2
  -GOLD-   2272019303D 1   1.00000     0.00000
 Structure written by MMmdl.
 42 43  0  0  0  0  0  0  0  0  2 V2000
  151.3521  142.6969  157.4659 C   0  0  0  0  0  0  0  0  0  0  0  0
  151.2787  141.4700  158.3934 C   0  0  1  0  0  0  0  0  0  0  0  0
  151.7078  140.1741  157.6908 C   0  0  0  0  0  0  0  0  0  0  0  0
  152.3094  140.2125  156.6164 O   0  0  0  0  0  0  0  0  0  0  0  0
  151.4174  139.0291  158.3279 N   0  0  0  0  0  0  0  0  0  0  0  0
  151.8187  137.7021  157.8799 C   0  0  0  0  0  0  0  0  0  0  0  0
  150.5950  136.9020  157.3958 C   0  0  0  0  0  0  0  0  0  0  0  0
  150.7677  136.3835  156.0369 N   0  0  0  0  0  0  0  0  0  0  0  0
  149.5497  135.8432  155.4211 C   0  0  0  0  0  0  0  0  0  0  0  0
  148.5163  136.9447  155.1027 C   0  0  0  0  0  0  0  0  0  0  0  0
  149.1123  137.9736  154.2189 N   0  3  0  0  0  0  0  0  0  0  0  0
  148.1478  139.0272  153.8374 C   0  0  0  0  0  0  0  0  0  0  0  0
  150.3523  138.5218  154.8158 C   0  0  0  0  0  0  0  0  0  0  0  0
  151.3464  137.3842  155.1358 C   0  0  0  0  0  0  0  0  0  0  0  0
  152.0815  141.6649  159.5927 N   0  0  0  0  0  0  0  0  0  0  0  0
  153.1170  140.9718  160.0755 C   0  0  0  0  0  0  0  0  0  0  0  0
  153.5794  141.4306  161.2299 N   0  0  0  0  0  0  0  0  0  0  0  0
  152.7241  142.4793  161.4170 C   0  0  0  0  0  0  0  0  0  0  0  0
  151.8037  142.6594  160.4694 N   0  0  0  0  0  0  0  0  0  0  0  0
  150.7467  142.5510  156.5707 H   0  0  0  0  0  0  0  0  0  0  0  0
  152.3733  142.9066  157.1458 H   0  0  0  0  0  0  0  0  0  0  0  0
  150.9770  143.5870  157.9720 H   0  0  0  0  0  0  0  0  0  0  0  0
  150.2367  141.3550  158.6993 H   0  0  0  0  0  0  0  0  0  0  0  0
  150.9196  139.0858  159.2050 H   0  0  0  0  0  0  0  0  0  0  0  0
  152.5363  137.8179  157.0670 H   0  0  0  0  0  0  0  0  0  0  0  0
  152.3418  137.1941  158.6904 H   0  0  0  0  0  0  0  0  0  0  0  0
  150.3636  136.1014  158.0972 H   0  0  0  0  0  0  0  0  0  0  0  0
  149.7327  137.5704  157.4014 H   0  0  0  0  0  0  0  0  0  0  0  0
  149.8307  135.3359  154.4971 H   0  0  0  0  0  0  0  0  0  0  0  0
  149.1040  135.0773  156.0542 H   0  0  0  0  0  0  0  0  0  0  0  0
  147.6580  136.4973  154.6007 H   0  0  0  0  0  0  0  0  0  0  0  0
  148.1344  137.4040  156.0153 H   0  0  0  0  0  0  0  0  0  0  0  0
  147.8081  139.5827  154.7125 H   0  0  0  0  0  0  0  0  0  0  0  0
  147.2761  138.5914  153.3484 H   0  0  0  0  0  0  0  0  0  0  0  0
  148.6035  139.7315  153.1406 H   0  0  0  0  0  0  0  0  0  0  0  0
  150.8130  139.2142  154.1105 H   0  0  0  0  0  0  0  0  0  0  0  0
  150.1155  139.1013  155.7093 H   0  0  0  0  0  0  0  0  0  0  0  0
  152.2594  137.7902  155.5732 H   0  0  0  0  0  0  0  0  0  0  0  0
  151.6454  136.8898  154.2107 H   0  0  0  0  0  0  0  0  0  0  0  0
  153.5356  140.1102  159.5759 H   0  0  0  0  0  0  0  0  0  0  0  0
  152.7781  143.1259  162.2805 H   0  0  0  0  0  0  0  0  0  0  0  0
  149.3845  137.5025  153.3680 H   0  0  0  0  0  0  0  0  0  0  0  0
  1  2  1  0  0  0  0
  1 20  1  0  0  0  0
  1 21  1  0  0  0  0
  1 22  1  0  0  0  0
  2  3  1  0  0  0  0
  2 15  1  0  0  0  0
  2 23  1  0  0  0  0
  3  4  2  0  0  0  0
  3  5  1  0  0  0  0
  5  6  1  0  0  0  0
  5 24  1  0  0  0  0
  6  7  1  0  0  0  0
  6 25  1  0  0  0  0
  6 26  1  0  0  0  0
  7  8  1  0  0  0  0
  7 27  1  0  0  0  0
  7 28  1  0  0  0  0
  8 14  1  0  0  0  0
  8  9  1  0  0  0  0
  9 10  1  0  0  0  0
  9 29  1  0  0  0  0
  9 30  1  0  0  0  0
 10 11  1  0  0  0  0
 10 31  1  0  0  0  0
 10 32  1  0  0  0  0
 11 12  1  0  0  0  0
 11 13  1  0  0  0  0
 11 42  1  0  0  0  0
 12 33  1  0  0  0  0
 12 34  1  0  0  0  0
 12 35  1  0  0  0  0
 13 14  1  0  0  0  0
 13 36  1  0  0  0  0
 13 37  1  0  0  0  0
 14 38  1  0  0  0  0
 14 39  1  0  0  0  0
 15 19  1  0  0  0  0
 15 16  1  0  0  0  0
 16 17  2  0  0  0  0
 16 40  1  0  0  0  0
 17 18  1  0  0  0  0
 18 19  2  0  0  0  0
 18 41  1  0  0  0  0
M  CHG  1  11   1
M  END
> <s_m_source_file>
AV-unprocessed.smi

> <i_m_source_file_index>
3343

> <i_lp_mmshare_version>
43012

> <i_f3d_flags>
0

> <s_epik_input>
bjFbY0hdbltjSF1uMVtDQEhdKFtDSDNdKUMoPU8pW05IXVtDSDJdW0NIMl1OMltDSDJdW0NIMl1OKFtDSDNdKVtDSDJdW0NIMl0y

> <s_epik_cmdline>
J2VwaWtfcHl0aG9uJywgJy1waCcsICc3LjAnLCAnLXRuJywgJzgnLCAnLW1hJywgJzIwMCcsICctbWV0YWxfYmluZGluZycsICctaW1hZScsICc8aW5maWxlLm1hZT4nLCAnLW9tYWUnLCAnPG91dGZpbGUubWFlPic=

> <r_lp_tautomer_probability>
1

> <r_epik_Ionization_Penalty>
0.0359277

> <r_epik_Ionization_Penalty_Charging>
0.0358005

> <r_epik_Ionization_Penalty_Neutral>
0.000127293

> <r_epik_State_Penalty>
0.0476325

> <r_epik_Charging_Adjusted_Penalty>
0.0834329

> <i_epik_Tot_Q>
1

> <i_epik_Tot_abs_Q>
1

> <r_epik_Metal_State_Penalty>
0.0476323

> <b_epik_Metal_Only>
0

> <s_lp_Force_Field>
OPLS_2005

> <r_lp_Energy>
19.669

> <b_lp_Chiralities_Consistent>
1

> <s_lp_Variant>
AV-unprocessed.smi:3343-2

> <Gold.Version>
5.8.1

> <Gold.Id.Protein>
6NUR|6NUR_protein|mol2

> <Gold.PLP.Fitness>
35.8222

> <Gold.PLP.PLP>
-28.3229

> <Gold.PLP.part.hbond>
-2.4360

> <Gold.PLP.part.metal>
0.0000

> <Gold.PLP.part.buried>
-4.1179

> <Gold.PLP.part.nonpolar>
-21.1388

> <Gold.PLP.part.repulsive>
0.1637

> <Gold.PLP.ligand.clash>
0.0000

> <Gold.PLP.ligand.torsion>
0.8004

> <Gold.PLP.Chemscore.Hbond>
3.0000

> <Gold.PLP.Chemscore.CHOScore>
0.0000

> <Gold.PLP.Chemscore.Metal>
0.0000

> <Gold.Chemscore.Hbonds>
donor molecule, donor type, donor heavy atom, donor atom, acceptor molecule, acceptor atom, score
      L1  H    11    42       P1  7948  2.00
      P1  H  7997  8009       L1     4  0.94

> <Gold.PLP.Chemscore.Internal.Correction>
0.1001

> <Gold.Rescore>
     Score         DG    S(hbond)    S(metal)    S(lipo)     H(rot)  DE(clash)    DE(int)     intcor
     10.09     -10.88       1.98        0.00      47.06       2.63       0.03       0.76       ----

> <Gold.Chemscore.Fitness>
10.0888

> <Gold.Chemscore.DG>
-10.8769

> <Gold.Chemscore.ZeroCoef>
-5.4800

> <Gold.Chemscore.Hbond>
1.9814

> <Gold.Chemscore.Metal>
0.0000

> <Gold.Chemscore.Lipo>
47.0614

> <Gold.Chemscore.Internal_Hbond>
0.0000

> <Gold.Chemscore.DEClash>
0.0323

> <Gold.Chemscore.DEInternal>
0.7559

> <Gold.Chemscore.Rot>
2.6278

> <Gold.Chemscore.Internal.Correction>
   9.000000E+99

> <Gold.Chemscore.Hbonds>
donor molecule, donor type, donor heavy atom, donor atom, acceptor molecule, acceptor atom, score
      L1  H    11    42       P1  7948  0.89
      P1  H  7997  8009       L1     4  0.86

> <Gold.Chemscore.Hbond.Weighted>
-6.6178

> <Gold.Chemscore.Metal.Weighted>
-0.0000

> <Gold.Chemscore.Lipo.Weighted>
-5.5062

> <Gold.Chemscore.Internal_Hbond.Weighted>
0.0000

> <Gold.Chemscore.DEClash.Weighted>
0.0323

> <Gold.Chemscore.DEInternal.Weighted>
0.7559

> <Gold.Chemscore.Rot.Weighted>
6.7271

> <Gold.Chemscore.Internal.Correction.Weighted>
   9.000000E+99

> <Gold.Protein.RotatedTorsions>
[ 6907 6896 6895 6894 ] final  166.22 input  -60.11 | X-H torsion
[ 7974 7965 7964 7962 ] final  164.50 input  175.53 | X-H torsion
[ 8008 7997 7996 7995 ] final -157.91 input   59.86 | X-H torsion
[ 10167 10162 10161 10158 ] final  -48.32 input  -65.29 | X-H torsion
[ 10718 10713 10712 10709 ] final  -30.88 input   66.30 | X-H torsion
[ 10763 10752 10751 10750 ] final  -13.72 input  -60.55 | X-H torsion
[ 11005 11000 10999 10996 ] final -173.69 input  -57.11 | X-H torsion

> <Gold.Protein.ActiveResidues>
 VAL166  LYS551  ARG553  GLY616  TRP617  ASP618  TYR619  PRO620  LYS621  CYS622 
 ASP623  PHE694  ASN695  SER759  ASP760  ASP761  ALA762  ILE779  LEU786  VAL792 
 PHE793  MET794  SER795  GLU796  ALA797  LYS798  CYS799  TRP800  GLU811  SER814 

> <Gold.Protein.RotatedAtoms>
  151.8822  133.3498  159.3769 H   0  0  0  0  0  0  0  0  0  0  0  0  # atno 6907 bound_to 6896
  150.7124  134.5007  159.5569 H   0  0  0  0  0  0  0  0  0  0  0  0  # atno 6908 bound_to 6896
  152.2561  134.8083  160.0489 H   0  0  0  0  0  0  0  0  0  0  0  0  # atno 6909 bound_to 6896
  144.7542  139.8334  143.6355 H   0  0  0  0  0  0  0  0  0  0  0  0  # atno 7974 bound_to 7965
  155.7396  140.0812  157.2252 H   0  0  0  0  0  0  0  0  0  0  0  0  # atno 8008 bound_to 7997
  154.4023  140.1580  156.2656 H   0  0  0  0  0  0  0  0  0  0  0  0  # atno 8009 bound_to 7997
  155.9033  140.3408  155.6046 H   0  0  0  0  0  0  0  0  0  0  0  0  # atno 8010 bound_to 7997
  140.6736  143.2745  151.4054 H   0  0  0  0  0  0  0  0  0  0  0  0  # atno 10167 bound_to 10162
  156.3942  130.4378  149.7371 H   0  0  0  0  0  0  0  0  0  0  0  0  # atno 10718 bound_to 10713
  153.5175  135.7016  153.5748 H   0  0  0  0  0  0  0  0  0  0  0  0  # atno 10763 bound_to 10752
  153.3812  135.3920  155.1858 H   0  0  0  0  0  0  0  0  0  0  0  0  # atno 10764 bound_to 10752
  154.8697  135.3835  154.4661 H   0  0  0  0  0  0  0  0  0  0  0  0  # atno 10765 bound_to 10752
  140.4829  134.6058  157.4926 H   0  0  0  0  0  0  0  0  0  0  0  0  # atno 11005 bound_to 11000
  146.1533  139.4622  143.0035 LP  0  0  0  0  0  0  0  0  0  0  0  0  # atno 17320 bound_to 7965
  145.6835  141.0184  143.1593 LP  0  0  0  0  0  0  0  0  0  0  0  0  # atno 17321 bound_to 7965
  139.6016  144.1283  152.2204 LP  0  0  0  0  0  0  0  0  0  0  0  0  # atno 17342 bound_to 10162
  140.0669  144.5811  150.7221 LP  0  0  0  0  0  0  0  0  0  0  0  0  # atno 17343 bound_to 10162
  156.4413  130.7862  151.2883 LP  0  0  0  0  0  0  0  0  0  0  0  0  # atno 17370 bound_to 10713
  157.7500  131.0124  150.3383 LP  0  0  0  0  0  0  0  0  0  0  0  0  # atno 17371 bound_to 10713
  139.9815  134.7129  155.9851 LP  0  0  0  0  0  0  0  0  0  0  0  0  # atno 17394 bound_to 11000
  141.1522  133.6547  156.4049 LP  0  0  0  0  0  0  0  0  0  0  0  0  # atno 17395 bound_to 11000

$$$$
