AV-unprocessed.smi:1210|AV-procd|sdf|5077|dock8
  -GOLD-   22720 4123D 1   1.00000     0.00000
 Structure written by MMmdl.
 44 45  0  0  0  0  0  0  0  0  1 V2000
  152.3622  136.4332  156.5179 C   0  0  0  0  0  0  0  0  0  0  0  0
  150.9337  136.2075  156.9233 C   0  0  0  0  0  0  0  0  0  0  0  0
  150.6712  135.6194  158.0783 N   0  0  0  0  0  0  0  0  0  0  0  0
  149.2773  135.5632  158.1719 O   0  0  0  0  0  0  0  0  0  0  0  0
  148.7490  136.1289  157.0570 C   0  0  0  0  0  0  0  0  0  0  0  0
  147.2611  136.1721  156.9662 C   0  0  0  0  0  0  0  0  0  0  0  0
  149.7435  136.5585  156.2221 C   0  0  0  0  0  0  0  0  0  0  0  0
  149.6141  137.2426  154.8853 C   0  0  0  0  0  0  0  0  0  0  0  0
  150.0967  138.6886  154.9993 C   0  0  0  0  0  0  0  0  0  0  0  0
  150.9589  139.1132  154.2301 O   0  0  0  0  0  0  0  0  0  0  0  0
  149.5198  139.4376  155.9513 N   0  0  0  0  0  0  0  0  0  0  0  0
  149.7917  140.8493  156.1869 C   0  0  0  0  0  0  0  0  0  0  0  0
  151.2957  141.1003  156.4032 C   0  0  0  0  0  0  0  0  0  0  0  0
  151.5677  141.5828  157.7649 N   0  0  0  0  0  0  0  0  0  0  0  0
  150.8056  142.7690  158.1845 C   0  0  0  0  0  0  0  0  0  0  0  0
  151.7066  143.9898  158.4557 C   0  0  0  0  0  0  0  0  0  0  0  0
  152.3679  143.9836  159.8421 C   0  0  0  0  0  0  0  0  0  0  0  0
  153.3431  142.8206  160.0737 C   0  0  0  0  0  0  0  0  0  0  0  0
  152.6697  141.4406  159.9978 C   0  0  0  0  0  0  0  0  0  0  0  0
  152.4728  140.9574  158.5554 C   0  0  0  0  0  0  0  0  0  0  0  0
  153.1387  139.9959  158.1693 O   0  0  0  0  0  0  0  0  0  0  0  0
  152.6917  137.4335  156.7992 H   0  0  0  0  0  0  0  0  0  0  0  0
  152.4853  136.3350  155.4394 H   0  0  0  0  0  0  0  0  0  0  0  0
  153.0331  135.7160  156.9922 H   0  0  0  0  0  0  0  0  0  0  0  0
  146.9162  137.1901  156.7850 H   0  0  0  0  0  0  0  0  0  0  0  0
  146.7996  135.8183  157.8882 H   0  0  0  0  0  0  0  0  0  0  0  0
  146.9068  135.5442  156.1487 H   0  0  0  0  0  0  0  0  0  0  0  0
  150.1843  136.7195  154.1166 H   0  0  0  0  0  0  0  0  0  0  0  0
  148.5799  137.2498  154.5394 H   0  0  0  0  0  0  0  0  0  0  0  0
  148.8223  139.0038  156.5387 H   0  0  0  0  0  0  0  0  0  0  0  0
  149.4355  141.4043  155.3187 H   0  0  0  0  0  0  0  0  0  0  0  0
  149.2158  141.2078  157.0419 H   0  0  0  0  0  0  0  0  0  0  0  0
  151.8615  140.1917  156.1936 H   0  0  0  0  0  0  0  0  0  0  0  0
  151.6586  141.8239  155.6708 H   0  0  0  0  0  0  0  0  0  0  0  0
  150.0944  143.0525  157.4083 H   0  0  0  0  0  0  0  0  0  0  0  0
  150.1949  142.5347  159.0572 H   0  0  0  0  0  0  0  0  0  0  0  0
  152.4617  144.0834  157.6739 H   0  0  0  0  0  0  0  0  0  0  0  0
  151.0939  144.8891  158.3843 H   0  0  0  0  0  0  0  0  0  0  0  0
  152.9059  144.9222  159.9774 H   0  0  0  0  0  0  0  0  0  0  0  0
  151.5961  143.9695  160.6126 H   0  0  0  0  0  0  0  0  0  0  0  0
  154.1699  142.8801  159.3642 H   0  0  0  0  0  0  0  0  0  0  0  0
  153.7912  142.9370  161.0611 H   0  0  0  0  0  0  0  0  0  0  0  0
  153.3035  140.7148  160.5094 H   0  0  0  0  0  0  0  0  0  0  0  0
  151.7206  141.4337  160.5349 H   0  0  0  0  0  0  0  0  0  0  0  0
  1  2  1  0  0  0  0
  1 22  1  0  0  0  0
  1 23  1  0  0  0  0
  1 24  1  0  0  0  0
  2  7  1  0  0  0  0
  2  3  2  0  0  0  0
  3  4  1  0  0  0  0
  4  5  1  0  0  0  0
  5  6  1  0  0  0  0
  5  7  2  0  0  0  0
  6 25  1  0  0  0  0
  6 26  1  0  0  0  0
  6 27  1  0  0  0  0
  7  8  1  0  0  0  0
  8  9  1  0  0  0  0
  8 28  1  0  0  0  0
  8 29  1  0  0  0  0
  9 10  2  0  0  0  0
  9 11  1  0  0  0  0
 11 12  1  0  0  0  0
 11 30  1  0  0  0  0
 12 13  1  0  0  0  0
 12 31  1  0  0  0  0
 12 32  1  0  0  0  0
 13 14  1  0  0  0  0
 13 33  1  0  0  0  0
 13 34  1  0  0  0  0
 14 20  1  0  0  0  0
 14 15  1  0  0  0  0
 15 16  1  0  0  0  0
 15 35  1  0  0  0  0
 15 36  1  0  0  0  0
 16 17  1  0  0  0  0
 16 37  1  0  0  0  0
 16 38  1  0  0  0  0
 17 18  1  0  0  0  0
 17 39  1  0  0  0  0
 17 40  1  0  0  0  0
 18 19  1  0  0  0  0
 18 41  1  0  0  0  0
 18 42  1  0  0  0  0
 19 20  1  0  0  0  0
 19 43  1  0  0  0  0
 19 44  1  0  0  0  0
 20 21  2  0  0  0  0
M  END
> <s_m_source_file>
AV-unprocessed.smi

> <i_m_source_file_index>
1210

> <i_lp_mmshare_version>
43012

> <i_f3d_flags>
0

> <s_epik_input>
W0NIM11jMW5vYyhbQ0gzXSljMVtDSDJdQyg9TylbTkhdW0NIMl1bQ0gyXU4yW0NIMl1bQ0gyXVtDSDJdW0NIMl1bQ0gyXUMyPU8=

> <s_epik_cmdline>
J2VwaWtfcHl0aG9uJywgJy1waCcsICc3LjAnLCAnLXRuJywgJzgnLCAnLW1hJywgJzIwMCcsICctbWV0YWxfYmluZGluZycsICctaW1hZScsICc8aW5maWxlLm1hZT4nLCAnLW9tYWUnLCAnPG91dGZpbGUubWFlPic=

> <r_lp_tautomer_probability>
1

> <r_epik_Ionization_Penalty>
5.48219e-08

> <r_epik_Ionization_Penalty_Charging>
0

> <r_epik_Ionization_Penalty_Neutral>
5.48219e-08

> <r_epik_State_Penalty>
-0

> <r_epik_Charging_Adjusted_Penalty>
0

> <i_epik_Tot_Q>
0

> <i_epik_Tot_abs_Q>
0

> <r_epik_Metal_State_Penalty>
-0

> <b_epik_Metal_Only>
0

> <s_lp_Force_Field>
OPLS_2005

> <r_lp_Energy>
11.1007

> <b_lp_Chiralities_Consistent>
1

> <s_lp_Variant>
AV-unprocessed.smi:1210-1

> <Gold.Version>
5.8.1

> <Gold.Id.Protein>
6NUR|6NUR_protein|mol2

> <Gold.PLP.Fitness>
40.5302

> <Gold.PLP.PLP>
-32.6108

> <Gold.PLP.part.hbond>
-3.0000

> <Gold.PLP.part.metal>
0.0000

> <Gold.PLP.part.buried>
-3.7520

> <Gold.PLP.part.nonpolar>
-25.1672

> <Gold.PLP.part.repulsive>
0.2043

> <Gold.PLP.ligand.clash>
0.0000

> <Gold.PLP.ligand.torsion>
0.5177

> <Gold.PLP.Chemscore.Hbond>
2.9760

> <Gold.PLP.Chemscore.CHOScore>
0.0000

> <Gold.PLP.Chemscore.Metal>
0.0000

> <Gold.Chemscore.Hbonds>
donor molecule, donor type, donor heavy atom, donor atom, acceptor molecule, acceptor atom, score
      P1  H  6896  6908       L1     3  0.25
      P1  H  7989  7998       L1    10  1.00
      P1  H  7997  8008       L1    21  1.00

> <Gold.PLP.Chemscore.Internal.Correction>
0.0267

> <Gold.Rescore>
     Score         DG    S(hbond)    S(metal)    S(lipo)     H(rot)  DE(clash)    DE(int)     intcor
     18.28     -20.00       2.84        0.00      82.27       1.79       0.10       1.61       ----

> <Gold.Chemscore.Fitness>
18.2847

> <Gold.Chemscore.DG>
-19.9974

> <Gold.Chemscore.ZeroCoef>
-5.4800

> <Gold.Chemscore.Hbond>
2.8385

> <Gold.Chemscore.Metal>
0.0000

> <Gold.Chemscore.Lipo>
82.2664

> <Gold.Chemscore.Internal_Hbond>
0.0000

> <Gold.Chemscore.DEClash>
0.1036

> <Gold.Chemscore.DEInternal>
1.6091

> <Gold.Chemscore.Rot>
1.7923

> <Gold.Chemscore.Internal.Correction>
   9.000000E+99

> <Gold.Chemscore.Hbonds>
donor molecule, donor type, donor heavy atom, donor atom, acceptor molecule, acceptor atom, score
      P1  H  6896  6908       L1     3  0.01
      P1  H  7989  7998       L1    10  0.95
      P1  H  7997  8008       L1    21  0.97

> <Gold.Chemscore.Hbond.Weighted>
-9.4806

> <Gold.Chemscore.Metal.Weighted>
-0.0000

> <Gold.Chemscore.Lipo.Weighted>
-9.6252

> <Gold.Chemscore.Internal_Hbond.Weighted>
0.0000

> <Gold.Chemscore.DEClash.Weighted>
0.1036

> <Gold.Chemscore.DEInternal.Weighted>
1.6091

> <Gold.Chemscore.Rot.Weighted>
4.5884

> <Gold.Chemscore.Internal.Correction.Weighted>
   9.000000E+99

> <Gold.Protein.RotatedTorsions>
[ 6907 6896 6895 6894 ] final  178.80 input  -60.11 | X-H torsion
[ 7974 7965 7964 7962 ] final  -45.43 input  175.53 | X-H torsion
[ 8008 7997 7996 7995 ] final  -82.25 input   59.86 | X-H torsion
[ 10167 10162 10161 10158 ] final  -98.68 input  -65.29 | X-H torsion
[ 10718 10713 10712 10709 ] final  -94.47 input   66.30 | X-H torsion
[ 10763 10752 10751 10750 ] final  -62.57 input  -60.55 | X-H torsion
[ 11005 11000 10999 10996 ] final  128.15 input  -57.11 | X-H torsion

> <Gold.Protein.ActiveResidues>
 VAL166  LYS551  ARG553  GLY616  TRP617  ASP618  TYR619  PRO620  LYS621  CYS622 
 ASP623  PHE694  ASN695  SER759  ASP760  ASP761  ALA762  ILE779  LEU786  VAL792 
 PHE793  MET794  SER795  GLU796  ALA797  LYS798  CYS799  TRP800  GLU811  SER814 

> <Gold.Protein.RotatedAtoms>
  151.6819  133.3312  159.3221 H   0  0  0  0  0  0  0  0  0  0  0  0  # atno 6907 bound_to 6896
  150.7819  134.6773  159.6434 H   0  0  0  0  0  0  0  0  0  0  0  0  # atno 6908 bound_to 6896
  152.3878  134.6492  160.0171 H   0  0  0  0  0  0  0  0  0  0  0  0  # atno 6909 bound_to 6896
  145.9821  140.7272  142.9358 H   0  0  0  0  0  0  0  0  0  0  0  0  # atno 7974 bound_to 7965
  154.6066  140.0636  156.9439 H   0  0  0  0  0  0  0  0  0  0  0  0  # atno 8008 bound_to 7997
  155.2042  140.3317  155.4320 H   0  0  0  0  0  0  0  0  0  0  0  0  # atno 8009 bound_to 7997
  156.2351  140.1859  156.7123 H   0  0  0  0  0  0  0  0  0  0  0  0  # atno 8010 bound_to 7997
  140.2704  143.3347  152.0539 H   0  0  0  0  0  0  0  0  0  0  0  0  # atno 10167 bound_to 10162
  156.0028  130.5069  150.5932 H   0  0  0  0  0  0  0  0  0  0  0  0  # atno 10718 bound_to 10713
  154.3019  135.6233  153.5428 H   0  0  0  0  0  0  0  0  0  0  0  0  # atno 10763 bound_to 10752
  152.9839  135.5680  154.5275 H   0  0  0  0  0  0  0  0  0  0  0  0  # atno 10764 bound_to 10752
  154.4907  135.2867  155.1475 H   0  0  0  0  0  0  0  0  0  0  0  0  # atno 10765 bound_to 10752
  139.9545  134.9615  156.8959 H   0  0  0  0  0  0  0  0  0  0  0  0  # atno 11005 bound_to 11000
  144.6864  140.2927  143.7275 LP  0  0  0  0  0  0  0  0  0  0  0  0  # atno 17320 bound_to 7965
  145.7753  139.1872  143.2188 LP  0  0  0  0  0  0  0  0  0  0  0  0  # atno 17321 bound_to 7965
  139.4990  144.6660  151.6356 LP  0  0  0  0  0  0  0  0  0  0  0  0  # atno 17342 bound_to 10162
  140.5894  143.9807  150.6315 LP  0  0  0  0  0  0  0  0  0  0  0  0  # atno 17343 bound_to 10162
  157.3793  131.0778  151.1490 LP  0  0  0  0  0  0  0  0  0  0  0  0  # atno 17370 bound_to 10713
  157.2218  130.6485  149.5814 LP  0  0  0  0  0  0  0  0  0  0  0  0  # atno 17371 bound_to 10713
  140.5641  134.0506  155.7408 LP  0  0  0  0  0  0  0  0  0  0  0  0  # atno 17394 bound_to 11000
  141.1214  133.9455  157.2722 LP  0  0  0  0  0  0  0  0  0  0  0  0  # atno 17395 bound_to 11000

$$$$
