AV-unprocessed.smi:3032|AV-procd|sdf|11562|dock10
  -GOLD-   2272016533D 1   1.00000     0.00000
 Structure written by MMmdl.
 37 38  0  0  0  0  0  0  0  0  1 V2000
  152.9800  142.9612  162.0499 C   0  0  0  0  0  0  0  0  0  0  0  0
  151.9423  143.4030  161.0083 C   0  0  1  0  0  0  0  0  0  0  0  0
  152.1266  144.8827  160.6216 C   0  0  0  0  0  0  0  0  0  0  0  0
  151.0947  145.3234  159.5715 C   0  0  0  0  0  0  0  0  0  0  0  0
  151.1501  144.4253  158.3258 C   0  0  0  0  0  0  0  0  0  0  0  0
  150.9519  142.9413  158.6980 C   0  0  1  0  0  0  0  0  0  0  0  0
  151.0404  142.0424  157.4582 C   0  0  0  0  0  0  0  0  0  0  0  0
  151.8918  141.1546  157.3968 O   0  0  0  0  0  0  0  0  0  0  0  0
  150.1363  142.2654  156.4908 N   0  0  0  0  0  0  0  0  0  0  0  0
  149.9710  141.4589  155.2831 C   0  0  0  0  0  0  0  0  0  0  0  0
  148.6300  141.7332  154.5731 C   0  0  0  0  0  0  0  0  0  0  0  0
  148.1283  140.5812  153.7605 C   0  0  0  0  0  0  0  0  0  0  0  0
  148.8072  139.4346  153.6987 N   0  0  0  0  0  0  0  0  0  0  0  0
  147.9941  138.6650  152.9437 N   0  0  0  0  0  0  0  0  0  0  0  0
  146.9156  139.3740  152.6148 C   0  0  0  0  0  0  0  0  0  0  0  0
  146.9290  140.6078  153.1003 N   0  0  0  0  0  0  0  0  0  0  0  0
  151.9917  142.5090  159.7543 C   0  0  0  0  0  0  0  0  0  0  0  0
  153.9943  143.0386  161.6567 H   0  0  0  0  0  0  0  0  0  0  0  0
  152.8183  141.9255  162.3499 H   0  0  0  0  0  0  0  0  0  0  0  0
  152.9229  143.5772  162.9476 H   0  0  0  0  0  0  0  0  0  0  0  0
  150.9556  143.2937  161.4608 H   0  0  0  0  0  0  0  0  0  0  0  0
  152.0399  145.5142  161.5065 H   0  0  0  0  0  0  0  0  0  0  0  0
  153.1322  145.0388  160.2286 H   0  0  0  0  0  0  0  0  0  0  0  0
  150.0941  145.2888  160.0042 H   0  0  0  0  0  0  0  0  0  0  0  0
  151.2733  146.3612  159.2889 H   0  0  0  0  0  0  0  0  0  0  0  0
  150.3841  144.7402  157.6157 H   0  0  0  0  0  0  0  0  0  0  0  0
  152.1102  144.5650  157.8263 H   0  0  0  0  0  0  0  0  0  0  0  0
  149.9574  142.8299  159.1342 H   0  0  0  0  0  0  0  0  0  0  0  0
  149.4764  143.0174  156.6278 H   0  0  0  0  0  0  0  0  0  0  0  0
  150.7950  141.6845  154.6062 H   0  0  0  0  0  0  0  0  0  0  0  0
  150.0546  140.3958  155.5144 H   0  0  0  0  0  0  0  0  0  0  0  0
  147.8727  141.9911  155.3148 H   0  0  0  0  0  0  0  0  0  0  0  0
  148.7294  142.6067  153.9278 H   0  0  0  0  0  0  0  0  0  0  0  0
  146.1073  138.9814  152.0155 H   0  0  0  0  0  0  0  0  0  0  0  0
  152.9954  142.5421  159.3267 H   0  0  0  0  0  0  0  0  0  0  0  0
  151.8158  141.4710  160.0403 H   0  0  0  0  0  0  0  0  0  0  0  0
  148.2061  137.7089  152.6968 H   0  0  0  0  0  0  0  0  0  0  0  0
  1  2  1  0  0  0  0
  1 18  1  0  0  0  0
  1 19  1  0  0  0  0
  1 20  1  0  0  0  0
  2 17  1  0  0  0  0
  2  3  1  0  0  0  0
  2 21  1  0  0  0  0
  3  4  1  0  0  0  0
  3 22  1  0  0  0  0
  3 23  1  0  0  0  0
  4  5  1  0  0  0  0
  4 24  1  0  0  0  0
  4 25  1  0  0  0  0
  5  6  1  0  0  0  0
  5 26  1  0  0  0  0
  5 27  1  0  0  0  0
  6  7  1  0  0  0  0
  6 17  1  0  0  0  0
  6 28  1  0  0  0  0
  7  8  2  0  0  0  0
  7  9  1  0  0  0  0
  9 10  1  0  0  0  0
  9 29  1  0  0  0  0
 10 11  1  0  0  0  0
 10 30  1  0  0  0  0
 10 31  1  0  0  0  0
 11 32  1  0  0  0  0
 11 33  1  0  0  0  0
 11 12  1  0  0  0  0
 12 16  1  0  0  0  0
 12 13  2  0  0  0  0
 13 14  1  0  0  0  0
 14 15  1  0  0  0  0
 14 37  1  0  0  0  0
 15 16  2  0  0  0  0
 15 34  1  0  0  0  0
 17 35  1  0  0  0  0
 17 36  1  0  0  0  0
M  END
> <s_m_source_file>
AV-unprocessed.smi

> <i_m_source_file_index>
3032

> <i_lp_mmshare_version>
43012

> <i_f3d_flags>
0

> <s_epik_input>
W0NIM11bQ0BASF0xW0NIMl1bQ0gyXVtDSDJdW0NASF0oW0NIMl0xKUMoPU8pW05IXVtDSDJdW0NIMl1jMm5uW2NIXVtuSF0y

> <s_epik_cmdline>
J2VwaWtfcHl0aG9uJywgJy1waCcsICc3LjAnLCAnLXRuJywgJzgnLCAnLW1hJywgJzIwMCcsICctbWV0YWxfYmluZGluZycsICctaW1hZScsICc8aW5maWxlLm1hZT4nLCAnLW9tYWUnLCAnPG91dGZpbGUubWFlPic=

> <r_epik_Ionization_Penalty>
0.000752022

> <r_epik_Ionization_Penalty_Charging>
0

> <r_epik_Ionization_Penalty_Neutral>
0.000752022

> <r_epik_State_Penalty>
0.639926

> <r_epik_Charging_Adjusted_Penalty>
0.639926

> <i_epik_Tot_Q>
0

> <i_epik_Tot_abs_Q>
0

> <r_epik_Metal_State_Penalty>
0.76532

> <b_epik_Metal_Only>
0

> <s_lp_Force_Field>
OPLS_2005

> <r_lp_Energy>
8.74502

> <b_lp_Chiralities_Consistent>
1

> <s_lp_Variant>
AV-unprocessed.smi:3032-6

> <Gold.Version>
5.8.1

> <Gold.Id.Protein>
6NUR|6NUR_protein|mol2

> <Gold.PLP.Fitness>
45.0941

> <Gold.PLP.PLP>
-38.9867

> <Gold.PLP.part.hbond>
-3.0000

> <Gold.PLP.part.metal>
0.0000

> <Gold.PLP.part.buried>
-3.9563

> <Gold.PLP.part.nonpolar>
-33.2657

> <Gold.PLP.part.repulsive>
2.0927

> <Gold.PLP.ligand.clash>
0.0000

> <Gold.PLP.ligand.torsion>
0.2641

> <Gold.PLP.Chemscore.Hbond>
1.8720

> <Gold.PLP.Chemscore.CHOScore>
0.3336

> <Gold.PLP.Chemscore.Metal>
0.0000

> <Gold.Chemscore.Hbonds>
donor molecule, donor type, donor heavy atom, donor atom, acceptor molecule, acceptor atom, score
      L1  H     9    29       P1  8028  0.74
      L1  H    14    37       P1  7948  1.00
      L1  C    15    34       P1 10175  0.09

> <Gold.PLP.Chemscore.Internal.Correction>
0.0189

> <Gold.Rescore>
     Score         DG    S(hbond)    S(metal)    S(lipo)     H(rot)  DE(clash)    DE(int)     intcor
     15.63     -16.28       1.67        0.00      93.97       2.25       0.28       0.38       ----

> <Gold.Chemscore.Fitness>
15.6308

> <Gold.Chemscore.DG>
-16.2846

> <Gold.Chemscore.ZeroCoef>
-5.4800

> <Gold.Chemscore.Hbond>
1.6676

> <Gold.Chemscore.Metal>
0.0000

> <Gold.Chemscore.Lipo>
93.9747

> <Gold.Chemscore.Internal_Hbond>
0.0000

> <Gold.Chemscore.DEClash>
0.2750

> <Gold.Chemscore.DEInternal>
0.3788

> <Gold.Chemscore.Rot>
2.2501

> <Gold.Chemscore.Internal.Correction>
   9.000000E+99

> <Gold.Chemscore.Hbonds>
donor molecule, donor type, donor heavy atom, donor atom, acceptor molecule, acceptor atom, score
      L1  H     9    29       P1  8028  0.69
      L1  H    14    37       P1  7948  1.00

> <Gold.Chemscore.Hbond.Weighted>
-5.5699

> <Gold.Chemscore.Metal.Weighted>
-0.0000

> <Gold.Chemscore.Lipo.Weighted>
-10.9950

> <Gold.Chemscore.Internal_Hbond.Weighted>
0.0000

> <Gold.Chemscore.DEClash.Weighted>
0.2750

> <Gold.Chemscore.DEInternal.Weighted>
0.3788

> <Gold.Chemscore.Rot.Weighted>
5.7603

> <Gold.Chemscore.Internal.Correction.Weighted>
   9.000000E+99

> <Gold.Protein.RotatedTorsions>
[ 6907 6896 6895 6894 ] final  -97.28 input  -60.11 | X-H torsion
[ 7974 7965 7964 7962 ] final  116.40 input  175.53 | X-H torsion
[ 8008 7997 7996 7995 ] final  -60.17 input   59.86 | X-H torsion
[ 10167 10162 10161 10158 ] final   50.49 input  -65.29 | X-H torsion
[ 10718 10713 10712 10709 ] final  -76.52 input   66.30 | X-H torsion
[ 10763 10752 10751 10750 ] final   92.30 input  -60.55 | X-H torsion
[ 11005 11000 10999 10996 ] final   72.67 input  -57.11 | X-H torsion

> <Gold.Protein.ActiveResidues>
 VAL166  LYS551  ARG553  GLY616  TRP617  ASP618  TYR619  PRO620  LYS621  CYS622 
 ASP623  PHE694  ASN695  SER759  ASP760  ASP761  ALA762  ILE779  LEU786  VAL792 
 PHE793  MET794  SER795  GLU796  ALA797  LYS798  CYS799  TRP800  GLU811  SER814 

> <Gold.Protein.RotatedAtoms>
  150.7012  134.1372  159.4091 H   0  0  0  0  0  0  0  0  0  0  0  0  # atno 6907 bound_to 6896
  151.9357  135.0234  160.0541 H   0  0  0  0  0  0  0  0  0  0  0  0  # atno 6908 bound_to 6896
  152.2137  133.4895  159.5161 H   0  0  0  0  0  0  0  0  0  0  0  0  # atno 6909 bound_to 6896
  145.1801  139.3054  143.4422 H   0  0  0  0  0  0  0  0  0  0  0  0  # atno 7974 bound_to 7965
  154.4386  140.1045  156.6231 H   0  0  0  0  0  0  0  0  0  0  0  0  # atno 8008 bound_to 7997
  155.5685  140.3489  155.4490 H   0  0  0  0  0  0  0  0  0  0  0  0  # atno 8009 bound_to 7997
  156.0407  140.1281  157.0148 H   0  0  0  0  0  0  0  0  0  0  0  0  # atno 8010 bound_to 7997
  140.2719  144.3256  150.6288 H   0  0  0  0  0  0  0  0  0  0  0  0  # atno 10167 bound_to 10162
  156.0173  130.4467  150.3206 H   0  0  0  0  0  0  0  0  0  0  0  0  # atno 10718 bound_to 10713
  153.2176  135.4366  155.0452 H   0  0  0  0  0  0  0  0  0  0  0  0  # atno 10763 bound_to 10752
  154.8233  135.3348  154.6975 H   0  0  0  0  0  0  0  0  0  0  0  0  # atno 10764 bound_to 10752
  153.7409  135.7005  153.5023 H   0  0  0  0  0  0  0  0  0  0  0  0  # atno 10765 bound_to 10752
  139.9479  134.7279  156.0934 H   0  0  0  0  0  0  0  0  0  0  0  0  # atno 11005 bound_to 11000
  146.3454  140.1978  142.8589 LP  0  0  0  0  0  0  0  0  0  0  0  0  # atno 17320 bound_to 7965
  145.0145  140.8742  143.5204 LP  0  0  0  0  0  0  0  0  0  0  0  0  # atno 17321 bound_to 7965
  140.5883  143.2169  151.7301 LP  0  0  0  0  0  0  0  0  0  0  0  0  # atno 17342 bound_to 10162
  139.4986  144.3978  152.0213 LP  0  0  0  0  0  0  0  0  0  0  0  0  # atno 17343 bound_to 10162
  157.1306  131.0270  151.2971 LP  0  0  0  0  0  0  0  0  0  0  0  0  # atno 17370 bound_to 10713
  157.4554  130.7622  149.7188 LP  0  0  0  0  0  0  0  0  0  0  0  0  # atno 17371 bound_to 10713
  141.1134  133.6635  156.3035 LP  0  0  0  0  0  0  0  0  0  0  0  0  # atno 17394 bound_to 11000
  140.5790  134.5765  157.5475 LP  0  0  0  0  0  0  0  0  0  0  0  0  # atno 17395 bound_to 11000

$$$$
