AV-unprocessed.smi:2124|AV-procd|sdf|8673|dock10
  -GOLD-   2272011423D 1   1.00000     0.00000
 Structure written by MMmdl.
 46 48  0  0  0  0  0  0  0  0  2 V2000
  144.1084  144.8877  154.4689 C   0  0  0  0  0  0  0  0  0  0  0  0
  144.9696  143.8407  155.1423 C   0  0  0  0  0  0  0  0  0  0  0  0
  145.7792  143.1487  154.4350 N   0  0  0  0  0  0  0  0  0  0  0  0
  146.5813  142.1759  155.0552 C   0  0  0  0  0  0  0  0  0  0  0  0
  147.5171  141.4064  154.1392 C   0  0  0  0  0  0  0  0  0  0  0  0
  146.5093  141.9534  156.3989 C   0  0  0  0  0  0  0  0  0  0  0  0
  147.3603  140.9072  157.1178 C   0  0  0  0  0  0  0  0  0  0  0  0
  148.4390  141.4578  158.0533 C   0  0  0  0  0  0  0  0  0  0  0  0
  148.1368  142.2244  158.9679 O   0  0  0  0  0  0  0  0  0  0  0  0
  149.6956  141.0539  157.8083 N   0  0  0  0  0  0  0  0  0  0  0  0
  150.8864  141.4267  158.5703 C   0  0  1  0  0  0  0  0  0  0  0  0
  152.0520  140.5309  158.1243 C   0  0  0  0  0  0  0  0  0  0  0  0
  151.1850  142.9328  158.3711 C   0  0  1  0  0  0  0  0  0  0  0  0
  150.3147  143.8903  159.2183 C   0  0  0  0  0  0  0  0  0  0  0  0
  151.3521  144.8357  159.8511 C   0  0  1  0  0  0  0  0  0  0  0  0
  152.1011  144.0825  160.9655 C   0  0  0  0  0  0  0  0  0  0  0  0
  152.9993  143.1153  160.1734 C   0  0  0  0  0  0  0  0  0  0  0  0
  152.6183  143.4147  158.7087 C   0  0  2  0  0  0  0  0  0  0  0  0
  152.4145  144.9257  158.7619 C   0  0  0  0  0  0  0  0  0  0  0  0
  145.5601  142.7690  157.1778 C   0  0  0  0  0  0  0  0  0  0  0  0
  145.4461  142.6014  158.3915 O   0  0  0  0  0  0  0  0  0  0  0  0
  144.8248  143.6993  156.5042 N   0  5  0  0  0  0  0  0  0  0  0  0
  144.1269  144.7728  153.3843 H   0  0  0  0  0  0  0  0  0  0  0  0
  144.4702  145.8865  154.7150 H   0  0  0  0  0  0  0  0  0  0  0  0
  143.0732  144.8024  154.8008 H   0  0  0  0  0  0  0  0  0  0  0  0
  148.5559  141.5899  154.4131 H   0  0  0  0  0  0  0  0  0  0  0  0
  147.3874  141.7084  153.0994 H   0  0  0  0  0  0  0  0  0  0  0  0
  147.3235  140.3356  154.2021 H   0  0  0  0  0  0  0  0  0  0  0  0
  146.6928  140.2627  157.6909 H   0  0  0  0  0  0  0  0  0  0  0  0
  147.8399  140.2383  156.4030 H   0  0  0  0  0  0  0  0  0  0  0  0
  149.8384  140.4263  157.0303 H   0  0  0  0  0  0  0  0  0  0  0  0
  150.7107  141.2335  159.6286 H   0  0  0  0  0  0  0  0  0  0  0  0
  152.9494  140.7253  158.7114 H   0  0  0  0  0  0  0  0  0  0  0  0
  152.2980  140.6912  157.0743 H   0  0  0  0  0  0  0  0  0  0  0  0
  151.8052  139.4762  158.2517 H   0  0  0  0  0  0  0  0  0  0  0  0
  151.0077  143.1646  157.3190 H   0  0  0  0  0  0  0  0  0  0  0  0
  149.6187  144.4384  158.5819 H   0  0  0  0  0  0  0  0  0  0  0  0
  149.7282  143.3760  159.9803 H   0  0  0  0  0  0  0  0  0  0  0  0
  150.9358  145.7908  160.1724 H   0  0  0  0  0  0  0  0  0  0  0  0
  152.7061  144.7670  161.5614 H   0  0  0  0  0  0  0  0  0  0  0  0
  151.4226  143.5605  161.6414 H   0  0  0  0  0  0  0  0  0  0  0  0
  154.0497  143.3527  160.3461 H   0  0  0  0  0  0  0  0  0  0  0  0
  152.8556  142.0739  160.4578 H   0  0  0  0  0  0  0  0  0  0  0  0
  153.3692  143.0893  157.9884 H   0  0  0  0  0  0  0  0  0  0  0  0
  152.0419  145.3485  157.8271 H   0  0  0  0  0  0  0  0  0  0  0  0
  153.3060  145.4741  159.0716 H   0  0  0  0  0  0  0  0  0  0  0  0
  1  2  1  0  0  0  0
  1 23  1  0  0  0  0
  1 24  1  0  0  0  0
  1 25  1  0  0  0  0
  2 22  1  0  0  0  0
  2  3  2  0  0  0  0
  3  4  1  0  0  0  0
  4  5  1  0  0  0  0
  4  6  2  0  0  0  0
  5 26  1  0  0  0  0
  5 27  1  0  0  0  0
  5 28  1  0  0  0  0
  6  7  1  0  0  0  0
  6 20  1  0  0  0  0
  7  8  1  0  0  0  0
  7 29  1  0  0  0  0
  7 30  1  0  0  0  0
  8  9  2  0  0  0  0
  8 10  1  0  0  0  0
 10 11  1  0  0  0  0
 10 31  1  0  0  0  0
 11 12  1  0  0  0  0
 11 13  1  0  0  0  0
 11 32  1  0  0  0  0
 12 33  1  0  0  0  0
 12 34  1  0  0  0  0
 12 35  1  0  0  0  0
 13 18  1  0  0  0  0
 13 14  1  0  0  0  0
 13 36  1  0  0  0  0
 14 15  1  0  0  0  0
 14 37  1  0  0  0  0
 14 38  1  0  0  0  0
 15 19  1  0  0  0  0
 15 16  1  0  0  0  0
 15 39  1  0  0  0  0
 16 17  1  0  0  0  0
 16 40  1  0  0  0  0
 16 41  1  0  0  0  0
 17 18  1  0  0  0  0
 17 42  1  0  0  0  0
 17 43  1  0  0  0  0
 18 19  1  0  0  0  0
 18 44  1  0  0  0  0
 19 45  1  0  0  0  0
 19 46  1  0  0  0  0
 20 21  2  0  0  0  0
 20 22  1  0  0  0  0
M  CHG  1  22  -1
M  END
> <s_m_source_file>
AV-unprocessed.smi

> <i_m_source_file_index>
2124

> <i_lp_mmshare_version>
43012

> <i_f3d_flags>
0

> <s_epik_input>
W0NIM11jMW5jKFtDSDNdKWMoYyg9TylbbkhdMSlbQ0gyXUMoPU8pW05IXVtDQEhdKFtDSDNdKVtDQEhdKFtDSDJdW0NASF0yMylbQ0BIXShbQ0gyXTMpW0NIMl1bQ0gyXTI=

> <s_epik_cmdline>
J2VwaWtfcHl0aG9uJywgJy1waCcsICc3LjAnLCAnLXRuJywgJzgnLCAnLW1hJywgJzIwMCcsICctbWV0YWxfYmluZGluZycsICctaW1hZScsICc8aW5maWxlLm1hZT4nLCAnLW9tYWUnLCAnPG91dGZpbGUubWFlPic=

> <r_lp_tautomer_probability>
0.839158

> <r_epik_Ionization_Penalty>
6.63797

> <r_epik_Ionization_Penalty_Charging>
7.48558e-08

> <r_epik_Ionization_Penalty_Neutral>
6.63797

> <r_epik_State_Penalty>
4.49496

> <r_epik_Charging_Adjusted_Penalty>
4.49496

> <i_epik_Tot_Q>
-1

> <i_epik_Tot_abs_Q>
1

> <r_epik_Metal_State_Penalty>
0.841241

> <b_epik_Metal_Only>
1

> <s_lp_Force_Field>
OPLS_2005

> <r_lp_Energy>
55.5119

> <b_lp_Chiralities_Consistent>
1

> <s_lp_Variant>
AV-unprocessed.smi:2124-24

> <Gold.Version>
5.8.1

> <Gold.Id.Protein>
6NUR|6NUR_protein|mol2

> <Gold.PLP.Fitness>
44.4061

> <Gold.PLP.PLP>
-45.4643

> <Gold.PLP.part.hbond>
0.0000

> <Gold.PLP.part.metal>
0.0000

> <Gold.PLP.part.buried>
-7.5070

> <Gold.PLP.part.nonpolar>
-38.8691

> <Gold.PLP.part.repulsive>
0.6669

> <Gold.PLP.ligand.clash>
0.0000

> <Gold.PLP.ligand.torsion>
0.5390

> <Gold.PLP.Chemscore.Hbond>
0.0000

> <Gold.PLP.Chemscore.CHOScore>
0.0000

> <Gold.PLP.Chemscore.Metal>
0.0000

> <Gold.PLP.Chemscore.Internal.Correction>
0.0199

> <Gold.Rescore>
     Score         DG    S(hbond)    S(metal)    S(lipo)     H(rot)  DE(clash)    DE(int)     intcor
     12.13     -15.65       0.00        0.00     122.06       1.61       0.04       3.48       ----

> <Gold.Chemscore.Fitness>
12.1340

> <Gold.Chemscore.DG>
-15.6522

> <Gold.Chemscore.ZeroCoef>
-5.4800

> <Gold.Chemscore.Hbond>
0.0000

> <Gold.Chemscore.Metal>
0.0000

> <Gold.Chemscore.Lipo>
122.0612

> <Gold.Chemscore.Internal_Hbond>
0.0000

> <Gold.Chemscore.DEClash>
0.0424

> <Gold.Chemscore.DEInternal>
3.4758

> <Gold.Chemscore.Rot>
1.6051

> <Gold.Chemscore.Internal.Correction>
   9.000000E+99

> <Gold.Chemscore.Hbonds>
donor molecule, donor type, donor heavy atom, donor atom, acceptor molecule, acceptor atom, score
      P1  H  6933  6944       L1     9  0.01

> <Gold.Chemscore.Hbond.Weighted>
-0.0000

> <Gold.Chemscore.Metal.Weighted>
-0.0000

> <Gold.Chemscore.Lipo.Weighted>
-14.2812

> <Gold.Chemscore.Internal_Hbond.Weighted>
0.0000

> <Gold.Chemscore.DEClash.Weighted>
0.0424

> <Gold.Chemscore.DEInternal.Weighted>
3.4758

> <Gold.Chemscore.Rot.Weighted>
4.1090

> <Gold.Chemscore.Internal.Correction.Weighted>
   9.000000E+99

> <Gold.Protein.RotatedTorsions>
[ 6907 6896 6895 6894 ] final  136.15 input  -60.11 | X-H torsion
[ 7974 7965 7964 7962 ] final   96.28 input  175.53 | X-H torsion
[ 8008 7997 7996 7995 ] final   93.34 input   59.86 | X-H torsion
[ 10167 10162 10161 10158 ] final -166.60 input  -65.29 | X-H torsion
[ 10718 10713 10712 10709 ] final  110.07 input   66.30 | X-H torsion
[ 10763 10752 10751 10750 ] final  -97.62 input  -60.55 | X-H torsion
[ 11005 11000 10999 10996 ] final   82.32 input  -57.11 | X-H torsion

> <Gold.Protein.ActiveResidues>
 VAL166  LYS551  ARG553  GLY616  TRP617  ASP618  TYR619  PRO620  LYS621  CYS622 
 ASP623  PHE694  ASN695  SER759  ASP760  ASP761  ALA762  ILE779  LEU786  VAL792 
 PHE793  MET794  SER795  GLU796  ALA797  LYS798  CYS799  TRP800  GLU811  SER814 

> <Gold.Protein.RotatedAtoms>
  152.2925  133.5575  159.5566 H   0  0  0  0  0  0  0  0  0  0  0  0  # atno 6907 bound_to 6896
  150.7241  134.0408  159.3774 H   0  0  0  0  0  0  0  0  0  0  0  0  # atno 6908 bound_to 6896
  151.8313  135.0621  160.0488 H   0  0  0  0  0  0  0  0  0  0  0  0  # atno 6909 bound_to 6896
  145.4409  139.2301  143.3092 H   0  0  0  0  0  0  0  0  0  0  0  0  # atno 7974 bound_to 7965
  156.0456  140.3314  155.7293 H   0  0  0  0  0  0  0  0  0  0  0  0  # atno 8008 bound_to 7997
  155.5678  140.0625  157.2831 H   0  0  0  0  0  0  0  0  0  0  0  0  # atno 8009 bound_to 7997
  154.4412  140.1866  156.0837 H   0  0  0  0  0  0  0  0  0  0  0  0  # atno 8010 bound_to 7997
  139.6104  144.0827  152.1836 H   0  0  0  0  0  0  0  0  0  0  0  0  # atno 10167 bound_to 10162
  157.6512  131.0926  150.6547 H   0  0  0  0  0  0  0  0  0  0  0  0  # atno 10718 bound_to 10713
  154.7344  135.5040  153.9016 H   0  0  0  0  0  0  0  0  0  0  0  0  # atno 10763 bound_to 10752
  153.0980  135.6677  153.9734 H   0  0  0  0  0  0  0  0  0  0  0  0  # atno 10764 bound_to 10752
  153.9528  135.3056  155.3417 H   0  0  0  0  0  0  0  0  0  0  0  0  # atno 10765 bound_to 10752
  139.9067  134.8063  156.2159 H   0  0  0  0  0  0  0  0  0  0  0  0  # atno 11005 bound_to 11000
  146.2557  140.5157  142.8875 LP  0  0  0  0  0  0  0  0  0  0  0  0  # atno 17320 bound_to 7965
  144.8122  140.6405  143.6408 LP  0  0  0  0  0  0  0  0  0  0  0  0  # atno 17321 bound_to 7965
  140.0444  144.5982  150.7385 LP  0  0  0  0  0  0  0  0  0  0  0  0  # atno 17342 bound_to 10162
  140.7315  143.2695  151.3935 LP  0  0  0  0  0  0  0  0  0  0  0  0  # atno 17343 bound_to 10162
  156.6858  130.4580  149.5614 LP  0  0  0  0  0  0  0  0  0  0  0  0  # atno 17370 bound_to 10713
  156.1897  130.6552  151.1047 LP  0  0  0  0  0  0  0  0  0  0  0  0  # atno 17371 bound_to 10713
  141.0436  133.6925  156.1642 LP  0  0  0  0  0  0  0  0  0  0  0  0  # atno 17394 bound_to 11000
  140.6918  134.4658  157.5588 LP  0  0  0  0  0  0  0  0  0  0  0  0  # atno 17395 bound_to 11000

$$$$
