AV-unprocessed.smi:2734|AV-procd|sdf|10540|dock4
  -GOLD-   2272014583D 1   1.00000     0.00000
 Structure written by MMmdl.
 41 43  0  0  0  0  0  0  0  0  2 V2000
  152.5910  143.4429  160.7091 C   0  0  0  0  0  0  0  0  0  0  0  0
  152.3138  142.5272  159.5289 C   0  0  0  0  0  0  0  0  0  0  0  0
  151.3818  142.9477  158.5536 C   0  0  0  0  0  0  0  0  0  0  0  0
  151.1461  142.0867  157.4882 C   0  0  0  0  0  0  0  0  0  0  0  0
  150.2962  142.2072  156.3869 N   0  3  0  0  0  0  0  0  0  0  0  0
  150.4016  141.0956  155.6076 C   0  0  0  0  0  0  0  0  0  0  0  0
  151.3063  140.2664  156.1947 N   0  0  0  0  0  0  0  0  0  0  0  0
  151.7743  138.9404  155.7665 C   0  0  0  0  0  0  0  0  0  0  0  0
  150.9967  138.3876  154.5546 C   0  0  1  0  0  0  0  0  0  0  0  0
  151.5519  137.1312  154.2251 O   0  0  0  0  0  0  0  0  0  0  0  0
  149.4854  138.2286  154.8021 C   0  0  0  0  0  0  0  0  0  0  0  0
  149.0586  136.5996  155.4869 S   0  0  0  0  0  0  0  0  0  0  0  0
  149.6788  136.8024  157.1289 C   0  0  0  0  0  0  0  0  0  0  0  0
  150.5558  136.0182  157.7467 N   0  0  0  0  0  0  0  0  0  0  0  0
  150.7093  136.6019  158.9895 N   0  0  0  0  0  0  0  0  0  0  0  0
  149.9698  137.6664  159.1050 N   0  0  0  0  0  0  0  0  0  0  0  0
  149.3080  137.8083  157.9308 N   0  0  0  0  0  0  0  0  0  0  0  0
  148.3883  138.9080  157.7170 C   0  0  0  0  0  0  0  0  0  0  0  0
  151.8022  140.8461  157.3695 C   0  0  0  0  0  0  0  0  0  0  0  0
  152.7267  140.4189  158.3204 C   0  0  0  0  0  0  0  0  0  0  0  0
  152.9792  141.2794  159.4123 C   0  0  0  0  0  0  0  0  0  0  0  0
  153.9808  140.8364  160.4652 C   0  0  0  0  0  0  0  0  0  0  0  0
  151.9251  144.3062  160.7087 H   0  0  0  0  0  0  0  0  0  0  0  0
  153.6168  143.8106  160.6726 H   0  0  0  0  0  0  0  0  0  0  0  0
  152.4455  142.9136  161.6511 H   0  0  0  0  0  0  0  0  0  0  0  0
  150.8720  143.8968  158.6349 H   0  0  0  0  0  0  0  0  0  0  0  0
  149.8618  140.9045  154.6912 H   0  0  0  0  0  0  0  0  0  0  0  0
  152.8310  139.0408  155.5146 H   0  0  0  0  0  0  0  0  0  0  0  0
  151.7288  138.2531  156.6115 H   0  0  0  0  0  0  0  0  0  0  0  0
  151.1485  139.0533  153.7042 H   0  0  0  0  0  0  0  0  0  0  0  0
  151.2285  136.8740  153.3747 H   0  0  0  0  0  0  0  0  0  0  0  0
  149.1291  139.0072  155.4776 H   0  0  0  0  0  0  0  0  0  0  0  0
  148.9420  138.3382  153.8641 H   0  0  0  0  0  0  0  0  0  0  0  0
  148.7385  139.5218  156.8869 H   0  0  0  0  0  0  0  0  0  0  0  0
  148.3177  139.5287  158.6111 H   0  0  0  0  0  0  0  0  0  0  0  0
  147.3987  138.5168  157.4793 H   0  0  0  0  0  0  0  0  0  0  0  0
  153.2305  139.4675  158.2386 H   0  0  0  0  0  0  0  0  0  0  0  0
  154.4664  139.9009  160.1859 H   0  0  0  0  0  0  0  0  0  0  0  0
  153.4833  140.6815  161.4228 H   0  0  0  0  0  0  0  0  0  0  0  0
  154.7599  141.5875  160.5961 H   0  0  0  0  0  0  0  0  0  0  0  0
  149.6863  142.9880  156.1811 H   0  0  0  0  0  0  0  0  0  0  0  0
  1  2  1  0  0  0  0
  1 23  1  0  0  0  0
  1 24  1  0  0  0  0
  1 25  1  0  0  0  0
  2 21  1  0  0  0  0
  2  3  2  0  0  0  0
  3  4  1  0  0  0  0
  3 26  1  0  0  0  0
  4 19  2  0  0  0  0
  4  5  1  0  0  0  0
  5  6  2  0  0  0  0
  5 41  1  0  0  0  0
  6  7  1  0  0  0  0
  6 27  1  0  0  0  0
  7  8  1  0  0  0  0
  7 19  1  0  0  0  0
  8  9  1  0  0  0  0
  8 28  1  0  0  0  0
  8 29  1  0  0  0  0
  9 10  1  0  0  0  0
  9 11  1  0  0  0  0
  9 30  1  0  0  0  0
 10 31  1  0  0  0  0
 11 12  1  0  0  0  0
 11 32  1  0  0  0  0
 11 33  1  0  0  0  0
 12 13  1  0  0  0  0
 13 17  1  0  0  0  0
 13 14  2  0  0  0  0
 14 15  1  0  0  0  0
 15 16  2  0  0  0  0
 16 17  1  0  0  0  0
 17 18  1  0  0  0  0
 18 34  1  0  0  0  0
 18 35  1  0  0  0  0
 18 36  1  0  0  0  0
 19 20  1  0  0  0  0
 20 21  2  0  0  0  0
 20 37  1  0  0  0  0
 21 22  1  0  0  0  0
 22 38  1  0  0  0  0
 22 39  1  0  0  0  0
 22 40  1  0  0  0  0
M  CHG  1   5   1
M  END
> <s_m_source_file>
AV-unprocessed.smi

> <i_m_source_file_index>
2734

> <i_lp_mmshare_version>
43012

> <i_f3d_flags>
0

> <s_epik_input>
W0NIM11jKFtjSF0xKWMoW0NIM10pW2NIXWMoYzEyKW4oW2NIXW4yKVtDSDJdW0NASF0oW09IXSlbQ0gyXVNjM25ubm4zW0NIM10=

> <s_epik_cmdline>
J2VwaWtfcHl0aG9uJywgJy1waCcsICc3LjAnLCAnLXRuJywgJzgnLCAnLW1hJywgJzIwMCcsICctbWV0YWxfYmluZGluZycsICctaW1hZScsICc8aW5maWxlLm1hZT4nLCAnLW9tYWUnLCAnPG91dGZpbGUubWFlPic=

> <r_lp_tautomer_probability>
1

> <r_epik_Ionization_Penalty>
1.07429

> <r_epik_Ionization_Penalty_Charging>
1.07429

> <r_epik_Ionization_Penalty_Neutral>
3.30514e-06

> <r_epik_State_Penalty>
1.12915

> <r_epik_Charging_Adjusted_Penalty>
2.20344

> <i_epik_Tot_Q>
1

> <i_epik_Tot_abs_Q>
1

> <r_epik_Metal_State_Penalty>
1.22002

> <b_epik_Metal_Only>
0

> <s_lp_Force_Field>
OPLS_2005

> <r_lp_Energy>
15.3116

> <b_lp_Chiralities_Consistent>
1

> <s_lp_Variant>
AV-unprocessed.smi:2734-4

> <Gold.Version>
5.8.1

> <Gold.Id.Protein>
6NUR|6NUR_protein|mol2

> <Gold.PLP.Fitness>
55.0644

> <Gold.PLP.PLP>
-41.2410

> <Gold.PLP.part.hbond>
-4.8008

> <Gold.PLP.part.metal>
0.0000

> <Gold.PLP.part.buried>
-5.6159

> <Gold.PLP.part.nonpolar>
-30.5860

> <Gold.PLP.part.repulsive>
0.0791

> <Gold.PLP.ligand.clash>
0.0000

> <Gold.PLP.ligand.torsion>
0.4648

> <Gold.PLP.Chemscore.Hbond>
4.8913

> <Gold.PLP.Chemscore.CHOScore>
0.0000

> <Gold.PLP.Chemscore.Metal>
0.0000

> <Gold.Chemscore.Hbonds>
donor molecule, donor type, donor heavy atom, donor atom, acceptor molecule, acceptor atom, score
      L1  H     5    41       P1  8028  2.00
      L1  H    10    31       P1  7949  0.88
      P1  H  6896  6907       L1    15  0.75
      P1  H 10752 10765       L1    10  0.84

> <Gold.PLP.Chemscore.Internal.Correction>
0.0793

> <Gold.Rescore>
     Score         DG    S(hbond)    S(metal)    S(lipo)     H(rot)  DE(clash)    DE(int)     intcor
     18.05     -18.62       2.81        0.00      95.87       2.92       0.03       0.54       ----

> <Gold.Chemscore.Fitness>
18.0473

> <Gold.Chemscore.DG>
-18.6237

> <Gold.Chemscore.ZeroCoef>
-5.4800

> <Gold.Chemscore.Hbond>
2.8123

> <Gold.Chemscore.Metal>
0.0000

> <Gold.Chemscore.Lipo>
95.8665

> <Gold.Chemscore.Internal_Hbond>
0.0000

> <Gold.Chemscore.DEClash>
0.0314

> <Gold.Chemscore.DEInternal>
0.5450

> <Gold.Chemscore.Rot>
2.9164

> <Gold.Chemscore.Internal.Correction>
   9.000000E+99

> <Gold.Chemscore.Hbonds>
donor molecule, donor type, donor heavy atom, donor atom, acceptor molecule, acceptor atom, score
      L1  H     5    41       P1  8028  0.98
      L1  H    10    31       P1  7949  0.50
      P1  H  6896  6907       L1    15  0.09
      P1  H 10752 10765       L1    10  0.13

> <Gold.Chemscore.Hbond.Weighted>
-9.3932

> <Gold.Chemscore.Metal.Weighted>
-0.0000

> <Gold.Chemscore.Lipo.Weighted>
-11.2164

> <Gold.Chemscore.Internal_Hbond.Weighted>
0.0000

> <Gold.Chemscore.DEClash.Weighted>
0.0314

> <Gold.Chemscore.DEInternal.Weighted>
0.5450

> <Gold.Chemscore.Rot.Weighted>
7.4660

> <Gold.Chemscore.Internal.Correction.Weighted>
   9.000000E+99

> <Gold.Protein.RotatedTorsions>
[ 6907 6896 6895 6894 ] final  -28.67 input  -60.11 | X-H torsion
[ 7974 7965 7964 7962 ] final  142.89 input  175.53 | X-H torsion
[ 8008 7997 7996 7995 ] final  -14.32 input   59.86 | X-H torsion
[ 10167 10162 10161 10158 ] final  -59.31 input  -65.29 | X-H torsion
[ 10718 10713 10712 10709 ] final  -47.96 input   66.30 | X-H torsion
[ 10763 10752 10751 10750 ] final  170.01 input  -60.55 | X-H torsion
[ 11005 11000 10999 10996 ] final -111.54 input  -57.11 | X-H torsion

> <Gold.Protein.ActiveResidues>
 VAL166  LYS551  ARG553  GLY616  TRP617  ASP618  TYR619  PRO620  LYS621  CYS622 
 ASP623  PHE694  ASN695  SER759  ASP760  ASP761  ALA762  ILE779  LEU786  VAL792 
 PHE793  MET794  SER795  GLU796  ALA797  LYS798  CYS799  TRP800  GLU811  SER814 

> <Gold.Protein.RotatedAtoms>
  151.1298  135.0124  159.8576 H   0  0  0  0  0  0  0  0  0  0  0  0  # atno 6907 bound_to 6896
  152.5450  134.1624  159.8573 H   0  0  0  0  0  0  0  0  0  0  0  0  # atno 6908 bound_to 6896
  151.1689  133.4751  159.2627 H   0  0  0  0  0  0  0  0  0  0  0  0  # atno 6909 bound_to 6896
  144.8968  139.5479  143.5772 H   0  0  0  0  0  0  0  0  0  0  0  0  # atno 7974 bound_to 7965
  154.5220  140.2226  155.8959 H   0  0  0  0  0  0  0  0  0  0  0  0  # atno 8008 bound_to 7997
  156.1672  140.3129  155.8874 H   0  0  0  0  0  0  0  0  0  0  0  0  # atno 8009 bound_to 7997
  155.3632  140.0462  157.3037 H   0  0  0  0  0  0  0  0  0  0  0  0  # atno 8010 bound_to 7997
  140.6143  143.2397  151.5634 H   0  0  0  0  0  0  0  0  0  0  0  0  # atno 10167 bound_to 10162
  156.2033  130.4157  149.9211 H   0  0  0  0  0  0  0  0  0  0  0  0  # atno 10718 bound_to 10713
  154.3914  135.2754  155.2152 H   0  0  0  0  0  0  0  0  0  0  0  0  # atno 10763 bound_to 10752
  154.4217  135.5998  153.6017 H   0  0  0  0  0  0  0  0  0  0  0  0  # atno 10764 bound_to 10752
  152.9832  135.5974  154.4169 H   0  0  0  0  0  0  0  0  0  0  0  0  # atno 10765 bound_to 10752
  141.0728  133.9351  157.2451 H   0  0  0  0  0  0  0  0  0  0  0  0  # atno 11005 bound_to 11000
  146.3086  139.7665  142.9037 LP  0  0  0  0  0  0  0  0  0  0  0  0  # atno 17320 bound_to 7965
  145.3686  141.0339  143.3244 LP  0  0  0  0  0  0  0  0  0  0  0  0  # atno 17321 bound_to 7965
  139.5386  144.2711  152.1304 LP  0  0  0  0  0  0  0  0  0  0  0  0  # atno 17342 bound_to 10162
  140.1916  144.4746  150.6476 LP  0  0  0  0  0  0  0  0  0  0  0  0  # atno 17343 bound_to 10162
  156.6913  130.8897  151.3588 LP  0  0  0  0  0  0  0  0  0  0  0  0  # atno 17370 bound_to 10713
  157.6998  130.9321  150.0752 LP  0  0  0  0  0  0  0  0  0  0  0  0  # atno 17371 bound_to 10713
  139.9541  135.0169  156.9077 LP  0  0  0  0  0  0  0  0  0  0  0  0  # atno 17394 bound_to 11000
  140.5637  134.0510  155.7407 LP  0  0  0  0  0  0  0  0  0  0  0  0  # atno 17395 bound_to 11000

$$$$
