AV-unprocessed.smi:737|AV-procd|sdf|3537|dock4
  -GOLD-   22720 0533D 1   1.00000     0.00000
 Structure written by MMmdl.
 45 47  0  0  0  0  0  0  0  0  1 V2000
  150.3062  134.8993  154.7892 C   0  0  0  0  0  0  0  0  0  0  0  0
  150.0494  136.1941  154.1798 N   0  0  0  0  0  0  0  0  0  0  0  0
  150.7902  137.3225  154.5577 C   0  0  0  0  0  0  0  0  0  0  0  0
  152.0680  137.1802  154.9801 N   0  0  0  0  0  0  0  0  0  0  0  0
  152.7402  138.2857  155.3264 C   0  0  0  0  0  0  0  0  0  0  0  0
  152.3290  139.5633  155.3179 N   0  0  0  0  0  0  0  0  0  0  0  0
  151.0641  139.7149  154.9027 C   0  0  0  0  0  0  0  0  0  0  0  0
  150.3836  140.9156  154.7928 N   0  0  0  0  0  0  0  0  0  0  0  0
  149.1953  140.5137  154.3489 C   0  0  0  0  0  0  0  0  0  0  0  0
  149.0185  139.1923  154.1543 N   0  0  0  0  0  0  0  0  0  0  0  0
  147.8075  138.5448  153.6800 C   0  0  0  0  0  0  0  0  0  0  0  0
  146.5846  138.8528  154.5683 C   0  0  1  0  0  0  0  0  0  0  0  0
  145.9383  140.0515  154.1873 O   0  0  0  0  0  0  0  0  0  0  0  0
  145.5493  137.7183  154.5971 C   0  0  0  0  0  0  0  0  0  0  0  0
  144.5249  137.9807  153.6477 O   0  0  0  0  0  0  0  0  0  0  0  0
  143.6359  136.9493  153.4934 C   0  0  0  0  0  0  0  0  0  0  0  0
  142.2961  137.1143  153.9147 C   0  0  0  0  0  0  0  0  0  0  0  0
  141.8396  138.4228  154.5322 C   0  0  0  0  0  0  0  0  0  0  0  0
  141.3768  136.0564  153.7595 C   0  0  0  0  0  0  0  0  0  0  0  0
  141.7912  134.8347  153.1978 C   0  0  0  0  0  0  0  0  0  0  0  0
  143.1286  134.6629  152.7953 C   0  0  0  0  0  0  0  0  0  0  0  0
  144.0572  135.7133  152.9465 C   0  0  0  0  0  0  0  0  0  0  0  0
  145.4990  135.4972  152.5242 C   0  0  0  0  0  0  0  0  0  0  0  0
  150.2389  138.6190  154.5081 C   0  0  0  0  0  0  0  0  0  0  0  0
  149.6419  134.1490  154.3603 H   0  0  0  0  0  0  0  0  0  0  0  0
  150.1294  134.9367  155.8647 H   0  0  0  0  0  0  0  0  0  0  0  0
  151.3352  134.5848  154.6124 H   0  0  0  0  0  0  0  0  0  0  0  0
  149.3716  136.2602  153.4338 H   0  0  0  0  0  0  0  0  0  0  0  0
  153.7555  138.1266  155.6586 H   0  0  0  0  0  0  0  0  0  0  0  0
  148.4042  141.2229  154.1530 H   0  0  0  0  0  0  0  0  0  0  0  0
  147.6330  138.8464  152.6479 H   0  0  0  0  0  0  0  0  0  0  0  0
  147.9821  137.4685  153.6521 H   0  0  0  0  0  0  0  0  0  0  0  0
  146.9338  139.0121  155.5893 H   0  0  0  0  0  0  0  0  0  0  0  0
  145.2246  139.8370  153.6061 H   0  0  0  0  0  0  0  0  0  0  0  0
  146.0403  136.7782  154.3411 H   0  0  0  0  0  0  0  0  0  0  0  0
  145.1391  137.5971  155.6007 H   0  0  0  0  0  0  0  0  0  0  0  0
  140.8862  138.3045  155.0479 H   0  0  0  0  0  0  0  0  0  0  0  0
  141.7179  139.1825  153.7604 H   0  0  0  0  0  0  0  0  0  0  0  0
  142.5700  138.7825  155.2576 H   0  0  0  0  0  0  0  0  0  0  0  0
  140.3500  136.1772  154.0728 H   0  0  0  0  0  0  0  0  0  0  0  0
  141.0843  134.0264  153.0814 H   0  0  0  0  0  0  0  0  0  0  0  0
  143.4408  133.7188  152.3732 H   0  0  0  0  0  0  0  0  0  0  0  0
  145.7709  134.4437  152.5952 H   0  0  0  0  0  0  0  0  0  0  0  0
  146.1851  136.0599  153.1579 H   0  0  0  0  0  0  0  0  0  0  0  0
  145.6422  135.8165  151.4922 H   0  0  0  0  0  0  0  0  0  0  0  0
  1  2  1  0  0  0  0
  1 25  1  0  0  0  0
  1 26  1  0  0  0  0
  1 27  1  0  0  0  0
  2  3  1  0  0  0  0
  2 28  1  0  0  0  0
  3 24  1  0  0  0  0
  3  4  2  0  0  0  0
  4  5  1  0  0  0  0
  5  6  2  0  0  0  0
  5 29  1  0  0  0  0
  6  7  1  0  0  0  0
  7 24  2  0  0  0  0
  7  8  1  0  0  0  0
  8  9  2  0  0  0  0
  9 10  1  0  0  0  0
  9 30  1  0  0  0  0
 10 11  1  0  0  0  0
 10 24  1  0  0  0  0
 11 12  1  0  0  0  0
 11 31  1  0  0  0  0
 11 32  1  0  0  0  0
 12 13  1  0  0  0  0
 12 14  1  0  0  0  0
 12 33  1  0  0  0  0
 13 34  1  0  0  0  0
 14 15  1  0  0  0  0
 14 35  1  0  0  0  0
 14 36  1  0  0  0  0
 15 16  1  0  0  0  0
 16 22  1  0  0  0  0
 16 17  2  0  0  0  0
 17 18  1  0  0  0  0
 17 19  1  0  0  0  0
 18 37  1  0  0  0  0
 18 38  1  0  0  0  0
 18 39  1  0  0  0  0
 19 20  2  0  0  0  0
 19 40  1  0  0  0  0
 20 21  1  0  0  0  0
 20 41  1  0  0  0  0
 21 22  2  0  0  0  0
 21 42  1  0  0  0  0
 22 23  1  0  0  0  0
 23 43  1  0  0  0  0
 23 44  1  0  0  0  0
 23 45  1  0  0  0  0
M  END
> <s_m_source_file>
AV-unprocessed.smi

> <i_m_source_file_index>
737

> <i_lp_mmshare_version>
43012

> <i_f3d_flags>
0

> <s_epik_input>
bjFbY0hdbmMoW05IXVtDSDNdKWMoYzEyKW4oW2NIXW4yKVtDSDJdW0NASF0oW09IXSlbQ0gyXU9jM2MoW0NIM10pW2NIXVtjSF1bY0hdYzNbQ0gzXQ==

> <s_epik_cmdline>
J2VwaWtfcHl0aG9uJywgJy1waCcsICc3LjAnLCAnLXRuJywgJzgnLCAnLW1hJywgJzIwMCcsICctbWV0YWxfYmluZGluZycsICctaW1hZScsICc8aW5maWxlLm1hZT4nLCAnLW9tYWUnLCAnPG91dGZpbGUubWFlPic=

> <r_lp_tautomer_probability>
1

> <r_epik_Ionization_Penalty>
0.0070961

> <r_epik_Ionization_Penalty_Charging>
0

> <r_epik_Ionization_Penalty_Neutral>
0.0070961

> <r_epik_State_Penalty>
-0

> <r_epik_Charging_Adjusted_Penalty>
0

> <i_epik_Tot_Q>
0

> <i_epik_Tot_abs_Q>
0

> <r_epik_Metal_State_Penalty>
-0

> <b_epik_Metal_Only>
0

> <s_lp_Force_Field>
OPLS_2005

> <r_lp_Energy>
18.2804

> <b_lp_Chiralities_Consistent>
1

> <s_lp_Variant>
AV-unprocessed.smi:737-2

> <Gold.Version>
5.8.1

> <Gold.Id.Protein>
6NUR|6NUR_protein|mol2

> <Gold.PLP.Fitness>
43.7261

> <Gold.PLP.PLP>
-36.1678

> <Gold.PLP.part.hbond>
-4.8689

> <Gold.PLP.part.metal>
0.0000

> <Gold.PLP.part.buried>
-3.9795

> <Gold.PLP.part.nonpolar>
-29.0875

> <Gold.PLP.part.repulsive>
1.7753

> <Gold.PLP.ligand.clash>
0.0000

> <Gold.PLP.ligand.torsion>
1.0322

> <Gold.PLP.Chemscore.Hbond>
3.1346

> <Gold.PLP.Chemscore.CHOScore>
0.0000

> <Gold.PLP.Chemscore.Metal>
0.0000

> <Gold.Chemscore.Hbonds>
donor molecule, donor type, donor heavy atom, donor atom, acceptor molecule, acceptor atom, score
      L1  H     2    28       P1  7948  1.00
      L1  H    13    34       P1 10175  0.96
      P1  H  7997  8010       L1     6  0.16
      P1  H 10752 10763       L1     4  0.86

> <Gold.PLP.Chemscore.Internal.Correction>
0.2191

> <Gold.Rescore>
     Score         DG    S(hbond)    S(metal)    S(lipo)     H(rot)  DE(clash)    DE(int)     intcor
     10.44     -12.94       2.55        0.00      54.65       2.91       1.20       1.30       ----

> <Gold.Chemscore.Fitness>
10.4418

> <Gold.Chemscore.DG>
-12.9388

> <Gold.Chemscore.ZeroCoef>
-5.4800

> <Gold.Chemscore.Hbond>
2.5468

> <Gold.Chemscore.Metal>
0.0000

> <Gold.Chemscore.Lipo>
54.6454

> <Gold.Chemscore.Internal_Hbond>
0.0000

> <Gold.Chemscore.DEClash>
1.1959

> <Gold.Chemscore.DEInternal>
1.3012

> <Gold.Chemscore.Rot>
2.9067

> <Gold.Chemscore.Internal.Correction>
   9.000000E+99

> <Gold.Chemscore.Hbonds>
donor molecule, donor type, donor heavy atom, donor atom, acceptor molecule, acceptor atom, score
      L1  H     2    28       P1  7948  0.69
      L1  H    13    34       P1 10175  0.87
      P1  H 10752 10763       L1     4  0.81

> <Gold.Chemscore.Hbond.Weighted>
-8.5065

> <Gold.Chemscore.Metal.Weighted>
-0.0000

> <Gold.Chemscore.Lipo.Weighted>
-6.3935

> <Gold.Chemscore.Internal_Hbond.Weighted>
0.0000

> <Gold.Chemscore.DEClash.Weighted>
1.1959

> <Gold.Chemscore.DEInternal.Weighted>
1.3012

> <Gold.Chemscore.Rot.Weighted>
7.4412

> <Gold.Chemscore.Internal.Correction.Weighted>
   9.000000E+99

> <Gold.Protein.RotatedTorsions>
[ 6907 6896 6895 6894 ] final   88.89 input  -60.11 | X-H torsion
[ 7974 7965 7964 7962 ] final   82.78 input  175.53 | X-H torsion
[ 8008 7997 7996 7995 ] final   87.60 input   59.86 | X-H torsion
[ 10167 10162 10161 10158 ] final  -13.94 input  -65.29 | X-H torsion
[ 10718 10713 10712 10709 ] final   68.71 input   66.30 | X-H torsion
[ 10763 10752 10751 10750 ] final   62.83 input  -60.55 | X-H torsion
[ 11005 11000 10999 10996 ] final -102.62 input  -57.11 | X-H torsion

> <Gold.Protein.ActiveResidues>
 VAL166  LYS551  ARG553  GLY616  TRP617  ASP618  TYR619  PRO620  LYS621  CYS622 
 ASP623  PHE694  ASN695  SER759  ASP760  ASP761  ALA762  ILE779  LEU786  VAL792 
 PHE793  MET794  SER795  GLU796  ALA797  LYS798  CYS799  TRP800  GLU811  SER814 

> <Gold.Protein.RotatedAtoms>
  152.5430  134.2052  159.8727 H   0  0  0  0  0  0  0  0  0  0  0  0  # atno 6907 bound_to 6896
  151.2038  133.4588  159.2604 H   0  0  0  0  0  0  0  0  0  0  0  0  # atno 6908 bound_to 6896
  151.0963  134.9959  159.8483 H   0  0  0  0  0  0  0  0  0  0  0  0  # atno 6909 bound_to 6896
  145.6206  139.2385  143.2141 H   0  0  0  0  0  0  0  0  0  0  0  0  # atno 7974 bound_to 7965
  155.9774  140.3380  155.6631 H   0  0  0  0  0  0  0  0  0  0  0  0  # atno 8008 bound_to 7997
  155.6594  140.0714  157.2577 H   0  0  0  0  0  0  0  0  0  0  0  0  # atno 8009 bound_to 7997
  154.4182  140.1711  156.1748 H   0  0  0  0  0  0  0  0  0  0  0  0  # atno 8010 bound_to 7997
  140.7192  143.5374  150.9449 H   0  0  0  0  0  0  0  0  0  0  0  0  # atno 10167 bound_to 10162
  157.6305  130.9388  150.0415 H   0  0  0  0  0  0  0  0  0  0  0  0  # atno 10718 bound_to 10713
  152.9996  135.5451  154.6255 H   0  0  0  0  0  0  0  0  0  0  0  0  # atno 10763 bound_to 10752
  154.5544  135.2829  155.0980 H   0  0  0  0  0  0  0  0  0  0  0  0  # atno 10764 bound_to 10752
  154.2207  135.6451  153.5196 H   0  0  0  0  0  0  0  0  0  0  0  0  # atno 10765 bound_to 10752
  141.1181  133.8573  157.1383 H   0  0  0  0  0  0  0  0  0  0  0  0  # atno 11005 bound_to 11000
  146.1434  140.7026  142.9356 LP  0  0  0  0  0  0  0  0  0  0  0  0  # atno 17320 bound_to 7965
  144.7233  140.4443  143.6992 LP  0  0  0  0  0  0  0  0  0  0  0  0  # atno 17321 bound_to 7965
  139.9095  143.6737  152.3117 LP  0  0  0  0  0  0  0  0  0  0  0  0  # atno 17342 bound_to 10162
  139.7115  144.7619  151.1104 LP  0  0  0  0  0  0  0  0  0  0  0  0  # atno 17343 bound_to 10162
  156.1505  130.3642  149.9445 LP  0  0  0  0  0  0  0  0  0  0  0  0  # atno 17370 bound_to 10713
  156.7466  130.9099  151.3635 LP  0  0  0  0  0  0  0  0  0  0  0  0  # atno 17371 bound_to 10713
  140.0118  134.9985  157.0410 LP  0  0  0  0  0  0  0  0  0  0  0  0  # atno 17394 bound_to 11000
  140.4587  134.1507  155.7189 LP  0  0  0  0  0  0  0  0  0  0  0  0  # atno 17395 bound_to 11000

$$$$
