AV-unprocessed.smi:516|AV-procd|sdf|2786|dock6
  -GOLD-   2262023263D 1   1.00000     0.00000
 Structure written by MMmdl.
 43 45  0  0  0  0  0  0  0  0  2 V2000
  147.3031  141.9635  154.1954 C   0  0  0  0  0  0  0  0  0  0  0  0
  147.6169  140.7203  154.7977 O   0  0  0  0  0  0  0  0  0  0  0  0
  148.9589  140.3294  154.5627 C   0  0  0  0  0  0  0  0  0  0  0  0
  149.8944  141.2939  155.3051 C   0  0  0  0  0  0  0  0  0  0  0  0
  150.6372  140.6225  156.3662 N   0  0  0  0  0  0  0  0  0  0  0  0
  150.6901  140.9652  157.6805 C   0  0  0  0  0  0  0  0  0  0  0  0
  149.9597  142.1434  158.2552 C   0  0  0  0  0  0  0  0  0  0  0  0
  150.8387  143.1624  158.8252 N   0  0  0  0  0  0  0  0  0  0  0  0
  151.6951  143.7607  157.8093 C   0  0  0  0  0  0  0  0  0  0  0  0
  152.6392  144.8151  158.4124 C   0  0  0  0  0  0  0  0  0  0  0  0
  151.8750  145.8112  159.0850 O   0  0  0  0  0  0  0  0  0  0  0  0
  151.0515  145.2715  160.1144 C   0  0  0  0  0  0  0  0  0  0  0  0
  150.1033  144.2167  159.5190 C   0  0  0  0  0  0  0  0  0  0  0  0
  151.4566  140.1653  158.4264 N   0  0  0  0  0  0  0  0  0  0  0  0
  151.9324  139.2421  157.5074 C   0  0  0  0  0  0  0  0  0  0  0  0
  151.4556  139.4955  156.2609 C   0  0  0  0  0  0  0  0  0  0  0  0
  151.7918  138.6869  155.0703 C   0  0  0  0  0  0  0  0  0  0  0  0
  151.3326  138.9653  153.9643 O   0  0  0  0  0  0  0  0  0  0  0  0
  152.6390  137.6525  155.3734 N   0  5  0  0  0  0  0  0  0  0  0  0
  153.1472  137.3580  156.6215 C   0  0  0  0  0  0  0  0  0  0  0  0
  153.9076  136.4060  156.7985 O   0  0  0  0  0  0  0  0  0  0  0  0
  152.8047  138.1381  157.6975 N   0  0  0  0  0  0  0  0  0  0  0  0
  153.3010  137.8922  159.0549 C   0  0  0  0  0  0  0  0  0  0  0  0
  146.2634  142.2178  154.4002 H   0  0  0  0  0  0  0  0  0  0  0  0
  147.4326  141.9215  153.1132 H   0  0  0  0  0  0  0  0  0  0  0  0
  147.9298  142.7629  154.5929 H   0  0  0  0  0  0  0  0  0  0  0  0
  149.1163  139.3060  154.9058 H   0  0  0  0  0  0  0  0  0  0  0  0
  149.1661  140.3486  153.4923 H   0  0  0  0  0  0  0  0  0  0  0  0
  150.5948  141.7437  154.6024 H   0  0  0  0  0  0  0  0  0  0  0  0
  149.3330  142.1248  155.7315 H   0  0  0  0  0  0  0  0  0  0  0  0
  149.3505  142.5784  157.4622 H   0  0  0  0  0  0  0  0  0  0  0  0
  149.2599  141.7891  159.0137 H   0  0  0  0  0  0  0  0  0  0  0  0
  152.2859  142.9855  157.3202 H   0  0  0  0  0  0  0  0  0  0  0  0
  151.0827  144.2236  157.0339 H   0  0  0  0  0  0  0  0  0  0  0  0
  153.3392  144.3517  159.1096 H   0  0  0  0  0  0  0  0  0  0  0  0
  153.2319  145.2877  157.6292 H   0  0  0  0  0  0  0  0  0  0  0  0
  151.6747  144.8316  160.8949 H   0  0  0  0  0  0  0  0  0  0  0  0
  150.4806  146.0774  160.5755 H   0  0  0  0  0  0  0  0  0  0  0  0
  149.4100  144.7005  158.8294 H   0  0  0  0  0  0  0  0  0  0  0  0
  149.4998  143.7914  160.3214 H   0  0  0  0  0  0  0  0  0  0  0  0
  153.9392  137.0134  159.1495 H   0  0  0  0  0  0  0  0  0  0  0  0
  152.4617  137.7565  159.7377 H   0  0  0  0  0  0  0  0  0  0  0  0
  153.8768  138.7515  159.3997 H   0  0  0  0  0  0  0  0  0  0  0  0
  1  2  1  0  0  0  0
  1 24  1  0  0  0  0
  1 25  1  0  0  0  0
  1 26  1  0  0  0  0
  2  3  1  0  0  0  0
  3  4  1  0  0  0  0
  3 27  1  0  0  0  0
  3 28  1  0  0  0  0
  4  5  1  0  0  0  0
  4 29  1  0  0  0  0
  4 30  1  0  0  0  0
  5 16  1  0  0  0  0
  5  6  1  0  0  0  0
  6  7  1  0  0  0  0
  6 14  2  0  0  0  0
  7  8  1  0  0  0  0
  7 31  1  0  0  0  0
  7 32  1  0  0  0  0
  8 13  1  0  0  0  0
  8  9  1  0  0  0  0
  9 10  1  0  0  0  0
  9 33  1  0  0  0  0
  9 34  1  0  0  0  0
 10 11  1  0  0  0  0
 10 35  1  0  0  0  0
 10 36  1  0  0  0  0
 11 12  1  0  0  0  0
 12 13  1  0  0  0  0
 12 37  1  0  0  0  0
 12 38  1  0  0  0  0
 13 39  1  0  0  0  0
 13 40  1  0  0  0  0
 14 15  1  0  0  0  0
 15 22  1  0  0  0  0
 15 16  2  0  0  0  0
 16 17  1  0  0  0  0
 17 18  2  0  0  0  0
 17 19  1  0  0  0  0
 19 20  1  0  0  0  0
 20 21  2  0  0  0  0
 20 22  1  0  0  0  0
 22 23  1  0  0  0  0
 23 41  1  0  0  0  0
 23 42  1  0  0  0  0
 23 43  1  0  0  0  0
M  CHG  1  19  -1
M  END
> <s_m_source_file>
AV-unprocessed.smi

> <i_m_source_file_index>
516

> <i_lp_mmshare_version>
43012

> <i_f3d_flags>
0

> <s_epik_input>
W0NIM11uMWMoPU8pW25IXWMoPU8pYyhjMTIpbihbQ0gyXVtDSDJdT1tDSDNdKWMobjIpW0NIMl1OM1tDSDJdW0NIMl1PW0NIMl1bQ0gyXTM=

> <s_epik_cmdline>
J2VwaWtfcHl0aG9uJywgJy1waCcsICc3LjAnLCAnLXRuJywgJzgnLCAnLW1hJywgJzIwMCcsICctbWV0YWxfYmluZGluZycsICctaW1hZScsICc8aW5maWxlLm1hZT4nLCAnLW9tYWUnLCAnPG91dGZpbGUubWFlPic=

> <r_epik_Ionization_Penalty>
4.87269

> <r_epik_Ionization_Penalty_Charging>
0.0382909

> <r_epik_Ionization_Penalty_Neutral>
4.8344

> <r_epik_State_Penalty>
4.82423

> <r_epik_Charging_Adjusted_Penalty>
4.86252

> <i_epik_Tot_Q>
-1

> <i_epik_Tot_abs_Q>
1

> <r_epik_Metal_State_Penalty>
1.05282

> <b_epik_Metal_Only>
1

> <s_lp_Force_Field>
OPLS_2005

> <r_lp_Energy>
45.4303

> <b_lp_Chiralities_Consistent>
1

> <s_lp_Variant>
AV-unprocessed.smi:516-3

> <Gold.Version>
5.8.1

> <Gold.Id.Protein>
6NUR|6NUR_protein|mol2

> <Gold.PLP.Fitness>
44.7360

> <Gold.PLP.PLP>
-39.3832

> <Gold.PLP.part.hbond>
-4.0000

> <Gold.PLP.part.metal>
0.0000

> <Gold.PLP.part.buried>
-4.8881

> <Gold.PLP.part.nonpolar>
-32.4924

> <Gold.PLP.part.repulsive>
0.5427

> <Gold.PLP.ligand.clash>
0.0000

> <Gold.PLP.ligand.torsion>
0.4254

> <Gold.PLP.Chemscore.Hbond>
2.0650

> <Gold.PLP.Chemscore.CHOScore>
0.0000

> <Gold.PLP.Chemscore.Metal>
0.0000

> <Gold.Chemscore.Hbonds>
donor molecule, donor type, donor heavy atom, donor atom, acceptor molecule, acceptor atom, score
      P1  H  7989  7998       L1    18  0.98
      P1  H 10752 10763       L1    21  0.72
      P1  H 10752 10765       L1    19  0.34

> <Gold.PLP.Chemscore.Internal.Correction>
0.0086

> <Gold.Rescore>
     Score         DG    S(hbond)    S(metal)    S(lipo)     H(rot)  DE(clash)    DE(int)     intcor
     13.00     -15.34       1.75        0.00      78.15       2.00       0.68       1.66       ----

> <Gold.Chemscore.Fitness>
12.9977

> <Gold.Chemscore.DG>
-15.3390

> <Gold.Chemscore.ZeroCoef>
-5.4800

> <Gold.Chemscore.Hbond>
1.7510

> <Gold.Chemscore.Metal>
0.0000

> <Gold.Chemscore.Lipo>
78.1491

> <Gold.Chemscore.Internal_Hbond>
0.0000

> <Gold.Chemscore.DEClash>
0.6833

> <Gold.Chemscore.DEInternal>
1.6580

> <Gold.Chemscore.Rot>
2.0050

> <Gold.Chemscore.Internal.Correction>
   9.000000E+99

> <Gold.Chemscore.Hbonds>
donor molecule, donor type, donor heavy atom, donor atom, acceptor molecule, acceptor atom, score
      P1  H  7989  7998       L1    18  0.78
      P1  H 10752 10763       L1    21  0.68
      P1  H 10752 10765       L1    19  0.04

> <Gold.Chemscore.Hbond.Weighted>
-5.8483

> <Gold.Chemscore.Metal.Weighted>
-0.0000

> <Gold.Chemscore.Lipo.Weighted>
-9.1434

> <Gold.Chemscore.Internal_Hbond.Weighted>
0.0000

> <Gold.Chemscore.DEClash.Weighted>
0.6833

> <Gold.Chemscore.DEInternal.Weighted>
1.6580

> <Gold.Chemscore.Rot.Weighted>
5.1327

> <Gold.Chemscore.Internal.Correction.Weighted>
   9.000000E+99

> <Gold.Protein.RotatedTorsions>
[ 6907 6896 6895 6894 ] final  132.84 input  -60.11 | X-H torsion
[ 7974 7965 7964 7962 ] final  -57.10 input  175.53 | X-H torsion
[ 8008 7997 7996 7995 ] final   57.46 input   59.86 | X-H torsion
[ 10167 10162 10161 10158 ] final  -51.86 input  -65.29 | X-H torsion
[ 10718 10713 10712 10709 ] final -122.69 input   66.30 | X-H torsion
[ 10763 10752 10751 10750 ] final  162.07 input  -60.55 | X-H torsion
[ 11005 11000 10999 10996 ] final -163.78 input  -57.11 | X-H torsion

> <Gold.Protein.ActiveResidues>
 VAL166  LYS551  ARG553  GLY616  TRP617  ASP618  TYR619  PRO620  LYS621  CYS622 
 ASP623  PHE694  ASN695  SER759  ASP760  ASP761  ALA762  ILE779  LEU786  VAL792 
 PHE793  MET794  SER795  GLU796  ALA797  LYS798  CYS799  TRP800  GLU811  SER814 

> <Gold.Protein.RotatedAtoms>
  152.3283  133.5929  159.5791 H   0  0  0  0  0  0  0  0  0  0  0  0  # atno 6907 bound_to 6896
  150.7409  133.9907  159.3615 H   0  0  0  0  0  0  0  0  0  0  0  0  # atno 6908 bound_to 6896
  151.7785  135.0768  160.0421 H   0  0  0  0  0  0  0  0  0  0  0  0  # atno 6909 bound_to 6896
  145.8550  140.8326  142.9966 H   0  0  0  0  0  0  0  0  0  0  0  0  # atno 7974 bound_to 7965
  155.5341  140.3483  155.4432 H   0  0  0  0  0  0  0  0  0  0  0  0  # atno 8008 bound_to 7997
  156.0698  140.1360  156.9869 H   0  0  0  0  0  0  0  0  0  0  0  0  # atno 8009 bound_to 7997
  154.4522  140.0968  156.6626 H   0  0  0  0  0  0  0  0  0  0  0  0  # atno 8010 bound_to 7997
  140.6567  143.2604  151.4564 H   0  0  0  0  0  0  0  0  0  0  0  0  # atno 10167 bound_to 10162
  156.1440  130.6486  150.9813 H   0  0  0  0  0  0  0  0  0  0  0  0  # atno 10718 bound_to 10713
  154.2727  135.2765  155.2731 H   0  0  0  0  0  0  0  0  0  0  0  0  # atno 10763 bound_to 10752
  154.5287  135.5735  153.6744 H   0  0  0  0  0  0  0  0  0  0  0  0  # atno 10764 bound_to 10752
  152.9942  135.6222  154.2882 H   0  0  0  0  0  0  0  0  0  0  0  0  # atno 10765 bound_to 10752
  140.5943  134.5012  157.5197 H   0  0  0  0  0  0  0  0  0  0  0  0  # atno 11005 bound_to 11000
  144.6728  140.1009  143.7460 LP  0  0  0  0  0  0  0  0  0  0  0  0  # atno 17320 bound_to 7965
  145.9314  139.2609  143.1323 LP  0  0  0  0  0  0  0  0  0  0  0  0  # atno 17321 bound_to 7965
  139.5791  144.1750  152.1944 LP  0  0  0  0  0  0  0  0  0  0  0  0  # atno 17342 bound_to 10162
  140.1070  144.5490  150.6950 LP  0  0  0  0  0  0  0  0  0  0  0  0  # atno 17343 bound_to 10162
  157.6600  131.0882  150.7860 LP  0  0  0  0  0  0  0  0  0  0  0  0  # atno 17370 bound_to 10713
  156.7933  130.4897  149.5381 LP  0  0  0  0  0  0  0  0  0  0  0  0  # atno 17371 bound_to 10713
  139.9260  134.8055  156.1067 LP  0  0  0  0  0  0  0  0  0  0  0  0  # atno 17394 bound_to 11000
  141.0914  133.6713  156.2549 LP  0  0  0  0  0  0  0  0  0  0  0  0  # atno 17395 bound_to 11000

$$$$
