AV-unprocessed.smi:605|AV-procd|sdf|3039|dock9
  -GOLD-   2262023553D 1   1.00000     0.00000
 Structure written by MMmdl.
 35 36  0  0  0  0  0  0  0  0  1 V2000
  146.5843  139.8253  151.6799 C   0  0  0  0  0  0  0  0  0  0  0  0
  147.0909  138.8779  152.7774 C   0  0  0  0  0  0  0  0  0  0  0  0
  145.9642  138.0929  153.4643 C   0  0  0  0  0  0  0  0  0  0  0  0
  147.9738  139.5769  153.7640 C   0  0  0  0  0  0  0  0  0  0  0  0
  148.8283  138.9281  154.5660 N   0  0  0  0  0  0  0  0  0  0  0  0
  149.5390  139.7902  155.3876 N   0  0  0  0  0  0  0  0  0  0  0  0
  149.1977  141.0713  155.1891 C   0  0  0  0  0  0  0  0  0  0  0  0
  149.7737  142.1787  155.8777 N   0  0  0  0  0  0  0  0  0  0  0  0
  150.7745  142.2512  156.7814 C   0  0  0  0  0  0  0  0  0  0  0  0
  151.3745  141.2393  157.1397 O   0  0  0  0  0  0  0  0  0  0  0  0
  151.0720  143.4779  157.2407 N   0  0  0  0  0  0  0  0  0  0  0  0
  152.1105  143.8100  158.2128 C   0  0  0  0  0  0  0  0  0  0  0  0
  151.9069  143.0200  159.5211 C   0  0  0  0  0  0  0  0  0  0  0  0
  151.8959  144.0548  160.6490 C   0  0  0  0  0  0  0  0  0  0  0  0
  151.4012  145.3368  159.9867 C   0  0  0  0  0  0  0  0  0  0  0  0
  152.0290  145.2987  158.5941 C   0  0  0  0  0  0  0  0  0  0  0  0
  147.9788  141.3272  153.9518 S   0  0  0  0  0  0  0  0  0  0  0  0
  147.4151  140.2955  151.1530 H   0  0  0  0  0  0  0  0  0  0  0  0
  145.9618  140.6182  152.0960 H   0  0  0  0  0  0  0  0  0  0  0  0
  145.9870  139.2887  150.9424 H   0  0  0  0  0  0  0  0  0  0  0  0
  147.7165  138.1382  152.2761 H   0  0  0  0  0  0  0  0  0  0  0  0
  146.3669  137.3690  154.1734 H   0  0  0  0  0  0  0  0  0  0  0  0
  145.3676  137.5439  152.7354 H   0  0  0  0  0  0  0  0  0  0  0  0
  145.2932  138.7568  154.0103 H   0  0  0  0  0  0  0  0  0  0  0  0
  149.3691  143.0714  155.6353 H   0  0  0  0  0  0  0  0  0  0  0  0
  150.5255  144.2507  156.8874 H   0  0  0  0  0  0  0  0  0  0  0  0
  153.1037  143.6046  157.8102 H   0  0  0  0  0  0  0  0  0  0  0  0
  150.9516  142.4924  159.5104 H   0  0  0  0  0  0  0  0  0  0  0  0
  152.6843  142.2700  159.6705 H   0  0  0  0  0  0  0  0  0  0  0  0
  151.2744  143.7504  161.4917 H   0  0  0  0  0  0  0  0  0  0  0  0
  152.9105  144.2040  161.0205 H   0  0  0  0  0  0  0  0  0  0  0  0
  150.3140  145.3117  159.9013 H   0  0  0  0  0  0  0  0  0  0  0  0
  151.6729  146.2322  160.5462 H   0  0  0  0  0  0  0  0  0  0  0  0
  153.0375  145.7112  158.6461 H   0  0  0  0  0  0  0  0  0  0  0  0
  151.4748  145.9018  157.8735 H   0  0  0  0  0  0  0  0  0  0  0  0
  1  2  1  0  0  0  0
  1 18  1  0  0  0  0
  1 19  1  0  0  0  0
  1 20  1  0  0  0  0
  2  3  1  0  0  0  0
  2  4  1  0  0  0  0
  2 21  1  0  0  0  0
  3 22  1  0  0  0  0
  3 23  1  0  0  0  0
  3 24  1  0  0  0  0
  4 17  1  0  0  0  0
  4  5  2  0  0  0  0
  5  6  1  0  0  0  0
  6  7  2  0  0  0  0
  7  8  1  0  0  0  0
  7 17  1  0  0  0  0
  8  9  1  0  0  0  0
  8 25  1  0  0  0  0
  9 10  2  0  0  0  0
  9 11  1  0  0  0  0
 11 12  1  0  0  0  0
 11 26  1  0  0  0  0
 12 16  1  0  0  0  0
 12 13  1  0  0  0  0
 12 27  1  0  0  0  0
 13 14  1  0  0  0  0
 13 28  1  0  0  0  0
 13 29  1  0  0  0  0
 14 15  1  0  0  0  0
 14 30  1  0  0  0  0
 14 31  1  0  0  0  0
 15 16  1  0  0  0  0
 15 32  1  0  0  0  0
 15 33  1  0  0  0  0
 16 34  1  0  0  0  0
 16 35  1  0  0  0  0
M  END
> <s_m_source_file>
AV-unprocessed.smi

> <i_m_source_file_index>
605

> <i_lp_mmshare_version>
43012

> <i_f3d_flags>
0

> <s_epik_input>
W0NIM11bQ0hdKFtDSDNdKWMxbm5jKHMxKVtOSF1DKD1PKVtOSF1bQ0hdMltDSDJdW0NIMl1bQ0gyXVtDSDJdMg==

> <s_epik_cmdline>
J2VwaWtfcHl0aG9uJywgJy1waCcsICc3LjAnLCAnLXRuJywgJzgnLCAnLW1hJywgJzIwMCcsICctbWV0YWxfYmluZGluZycsICctaW1hZScsICc8aW5maWxlLm1hZT4nLCAnLW9tYWUnLCAnPG91dGZpbGUubWFlPic=

> <r_lp_tautomer_probability>
1

> <r_epik_Ionization_Penalty>
0.000375049

> <r_epik_Ionization_Penalty_Charging>
0

> <r_epik_Ionization_Penalty_Neutral>
0.000375049

> <r_epik_State_Penalty>
-0

> <r_epik_Charging_Adjusted_Penalty>
0

> <i_epik_Tot_Q>
0

> <i_epik_Tot_abs_Q>
0

> <r_epik_Metal_State_Penalty>
0.186879

> <b_epik_Metal_Only>
0

> <s_lp_Force_Field>
OPLS_2005

> <r_lp_Energy>
14.8416

> <b_lp_Chiralities_Consistent>
1

> <s_lp_Variant>
AV-unprocessed.smi:605-1

> <Gold.Version>
5.8.1

> <Gold.Id.Protein>
6NUR|6NUR_protein|mol2

> <Gold.PLP.Fitness>
41.3799

> <Gold.PLP.PLP>
-36.7199

> <Gold.PLP.part.hbond>
-2.0000

> <Gold.PLP.part.metal>
0.0000

> <Gold.PLP.part.buried>
-1.9901

> <Gold.PLP.part.nonpolar>
-34.5459

> <Gold.PLP.part.repulsive>
0.3320

> <Gold.PLP.ligand.clash>
0.0000

> <Gold.PLP.ligand.torsion>
0.4112

> <Gold.PLP.Chemscore.Hbond>
1.8008

> <Gold.PLP.Chemscore.CHOScore>
0.0000

> <Gold.PLP.Chemscore.Metal>
0.0000

> <Gold.Chemscore.Hbonds>
donor molecule, donor type, donor heavy atom, donor atom, acceptor molecule, acceptor atom, score
      L1  H     8    25       P1  8028  1.00
      L1  H    11    26       P1  8028  0.79

> <Gold.PLP.Chemscore.Internal.Correction>
0.0800

> <Gold.Rescore>
     Score         DG    S(hbond)    S(metal)    S(lipo)     H(rot)  DE(clash)    DE(int)     intcor
     16.48     -20.14       1.86        0.00      98.31       1.20       1.46       2.20       ----

> <Gold.Chemscore.Fitness>
16.4808

> <Gold.Chemscore.DG>
-20.1371

> <Gold.Chemscore.ZeroCoef>
-5.4800

> <Gold.Chemscore.Hbond>
1.8621

> <Gold.Chemscore.Metal>
0.0000

> <Gold.Chemscore.Lipo>
98.3101

> <Gold.Chemscore.Internal_Hbond>
0.0000

> <Gold.Chemscore.DEClash>
1.4606

> <Gold.Chemscore.DEInternal>
2.1958

> <Gold.Chemscore.Rot>
1.1971

> <Gold.Chemscore.Internal.Correction>
   9.000000E+99

> <Gold.Chemscore.Hbonds>
donor molecule, donor type, donor heavy atom, donor atom, acceptor molecule, acceptor atom, score
      L1  H     8    25       P1  8028  1.00
      L1  H    11    26       P1  8028  0.72

> <Gold.Chemscore.Hbond.Weighted>
-6.2195

> <Gold.Chemscore.Metal.Weighted>
-0.0000

> <Gold.Chemscore.Lipo.Weighted>
-11.5023

> <Gold.Chemscore.Internal_Hbond.Weighted>
0.0000

> <Gold.Chemscore.DEClash.Weighted>
1.4606

> <Gold.Chemscore.DEInternal.Weighted>
2.1958

> <Gold.Chemscore.Rot.Weighted>
3.0647

> <Gold.Chemscore.Internal.Correction.Weighted>
   9.000000E+99

> <Gold.Protein.RotatedTorsions>
[ 6907 6896 6895 6894 ] final   63.38 input  -60.11 | X-H torsion
[ 7974 7965 7964 7962 ] final -152.08 input  175.53 | X-H torsion
[ 8008 7997 7996 7995 ] final  101.33 input   59.86 | X-H torsion
[ 10167 10162 10161 10158 ] final  136.83 input  -65.29 | X-H torsion
[ 10718 10713 10712 10709 ] final  153.07 input   66.30 | X-H torsion
[ 10763 10752 10751 10750 ] final -159.25 input  -60.55 | X-H torsion
[ 11005 11000 10999 10996 ] final   28.04 input  -57.11 | X-H torsion

> <Gold.Protein.ActiveResidues>
 VAL166  LYS551  ARG553  GLY616  TRP617  ASP618  TYR619  PRO620  LYS621  CYS622 
 ASP623  PHE694  ASN695  SER759  ASP760  ASP761  ALA762  ILE779  LEU786  VAL792 
 PHE793  MET794  SER795  GLU796  ALA797  LYS798  CYS799  TRP800  GLU811  SER814 

> <Gold.Protein.RotatedAtoms>
  152.4248  134.5888  159.9968 H   0  0  0  0  0  0  0  0  0  0  0  0  # atno 6907 bound_to 6896
  151.6028  133.3349  159.3059 H   0  0  0  0  0  0  0  0  0  0  0  0  # atno 6908 bound_to 6896
  150.8137  134.7344  159.6776 H   0  0  0  0  0  0  0  0  0  0  0  0  # atno 6909 bound_to 6896
  144.7814  140.4711  143.5837 H   0  0  0  0  0  0  0  0  0  0  0  0  # atno 7974 bound_to 7965
  156.1289  140.3199  155.8319 H   0  0  0  0  0  0  0  0  0  0  0  0  # atno 8008 bound_to 7997
  155.4368  140.0522  157.3031 H   0  0  0  0  0  0  0  0  0  0  0  0  # atno 8009 bound_to 7997
  154.4884  140.2082  155.9617 H   0  0  0  0  0  0  0  0  0  0  0  0  # atno 8010 bound_to 7997
  139.5165  144.6443  151.5483 H   0  0  0  0  0  0  0  0  0  0  0  0  # atno 10167 bound_to 10162
  157.2495  131.0776  151.1739 H   0  0  0  0  0  0  0  0  0  0  0  0  # atno 10718 bound_to 10713
  154.7490  135.3087  154.8592 H   0  0  0  0  0  0  0  0  0  0  0  0  # atno 10763 bound_to 10752
  153.9385  135.6777  153.4749 H   0  0  0  0  0  0  0  0  0  0  0  0  # atno 10764 bound_to 10752
  153.1086  135.4877  154.8923 H   0  0  0  0  0  0  0  0  0  0  0  0  # atno 10765 bound_to 10752
  140.3199  134.2555  155.7719 H   0  0  0  0  0  0  0  0  0  0  0  0  # atno 11005 bound_to 11000
  145.6040  139.1506  143.3113 LP  0  0  0  0  0  0  0  0  0  0  0  0  # atno 17320 bound_to 7965
  146.2024  140.6160  142.9096 LP  0  0  0  0  0  0  0  0  0  0  0  0  # atno 17321 bound_to 7965
  140.6222  143.9237  150.6535 LP  0  0  0  0  0  0  0  0  0  0  0  0  # atno 17342 bound_to 10162
  140.2514  143.3590  152.1402 LP  0  0  0  0  0  0  0  0  0  0  0  0  # atno 17343 bound_to 10162
  157.3293  130.6977  149.6315 LP  0  0  0  0  0  0  0  0  0  0  0  0  # atno 17370 bound_to 10713
  155.9667  130.4312  150.4910 LP  0  0  0  0  0  0  0  0  0  0  0  0  # atno 17371 bound_to 10713
  141.2089  133.7764  157.0030 LP  0  0  0  0  0  0  0  0  0  0  0  0  # atno 17394 bound_to 11000
  140.0951  134.9569  157.1837 LP  0  0  0  0  0  0  0  0  0  0  0  0  # atno 17395 bound_to 11000

$$$$
