#       Name:                AV-unprocessed.smi:956
#       Creating user name   scv26
#       Creation time:       Fri Mar 27 02:17:26 2020


#       File generated by GOLD software.
#

@<TRIPOS>MOLECULE
AV-unprocessed.smi:956
    46    47     1
SMALL
NO_CHARGES


@<TRIPOS>ATOM
      1 ****        -4.7321   2.7422  -1.5362 C.3            1 S1                 0.0000
      2 ****        -3.0437   2.2613  -0.9385 S.o            1 S1                 0.0000
      3 ****        -2.0461   3.2361  -1.5668 O.2            1 S1                 0.0000
      4 ****        -3.2945   2.8996   0.7550 C.2            1 S1                 0.0000
      5 ****        -3.3978   4.1982   1.0534 N.2            1 S1                 0.0000
      6 ****        -3.5759   4.2356   2.4235 N.2            1 S1                 0.0000
      7 ****        -3.5591   2.9561   2.8030 C.2            1 S1                 0.0000
      8 ****        -3.3899   2.0686   1.8097 N.pl3          1 S1                 0.0000
      9 ****        -3.3183   0.6203   1.8877 C.3            1 S1                 0.0000
     10 ****        -1.8774   0.1601   2.1062 C.2            1 S1                 0.0000
     11 ****        -1.4401   0.0308   3.2491 O.2            1 S1                 0.0000
     12 ****        -1.1492  -0.0744   1.0051 N.am           1 S1                 0.0000
     13 ****         0.2449  -0.4927   1.0149 C.3            1 S1                 0.0000
     14 ****         0.7538  -0.7048  -0.4200 C.3            1 S1                 0.0000
     15 ****         2.2513  -1.0652  -0.5092 C.3            1 S1                 0.0000
     16 ****         2.7398  -1.0091  -1.9721 C.3            1 S1                 0.0000
     17 ****         4.2326  -1.3562  -2.0926 C.3            1 S1                 0.0000
     18 ****         4.5341  -2.7324  -1.4816 C.3            1 S1                 0.0000
     19 ****         4.0601  -2.8006  -0.0224 C.3            1 S1                 0.0000
     20 ****         2.5676  -2.4504   0.0983 C.3            1 S1                 0.0000
     21 ****        -5.4715   2.6394  -0.7416 H              1 S1                 0.0000
     22 ****        -5.0302   2.1029  -2.3666 H              1 S1                 0.0000
     23 ****        -4.7312   3.7771  -1.8786 H              1 S1                 0.0000
     24 ****        -3.6711   2.6585   3.8353 H              1 S1                 0.0000
     25 ****        -3.9420   0.2813   2.7160 H              1 S1                 0.0000
     26 ****        -3.7317   0.1825   0.9785 H              1 S1                 0.0000
     27 ****        -1.5829   0.0598   0.1032 H              1 S1                 0.0000
     28 ****         0.8441   0.2679   1.5176 H              1 S1                 0.0000
     29 ****         0.3320  -1.4118   1.5948 H              1 S1                 0.0000
     30 ****         0.1605  -1.4772  -0.9113 H              1 S1                 0.0000
     31 ****         0.5796   0.2131  -0.9840 H              1 S1                 0.0000
     32 ****         2.8093  -0.3139   0.0520 H              1 S1                 0.0000
     33 ****         2.1572  -1.7014  -2.5815 H              1 S1                 0.0000
     34 ****         2.5666  -0.0153  -2.3864 H              1 S1                 0.0000
     35 ****         4.5341  -1.3412  -3.1402 H              1 S1                 0.0000
     36 ****         4.8278  -0.5934  -1.5889 H              1 S1                 0.0000
     37 ****         4.0377  -3.5091  -2.0647 H              1 S1                 0.0000
     38 ****         5.6034  -2.9385  -1.5367 H              1 S1                 0.0000
     39 ****         4.2412  -3.7974   0.3804 H              1 S1                 0.0000
     40 ****         4.6473  -2.1109   0.5852 H              1 S1                 0.0000
     41 ****         2.2870  -2.4807   1.1508 H              1 S1                 0.0000
     42 ****         1.9734  -3.2165  -0.4014 H              1 S1                 0.0000
     43 ****        -3.3555   4.9735   0.4232 LP             1 S1                 0.0000
     44 ****        -3.6917   5.0428   3.0024 LP             1 S1                 0.0000
     45 ****        -2.0275   0.2268   4.0344 LP             1 S1                 0.0000
     46 ****        -0.4974  -0.2702   3.3927 LP             1 S1                 0.0000
@<TRIPOS>BOND
    1    1    2 1     
    2    1   21 1     
    3    1   22 1     
    4    1   23 1     
    5    2    3 2     
    6    2    4 1     
    7    4    8 1     
    8    4    5 2     
    9    5    6 1     
   10    6    7 2     
   11    7    8 1     
   12    7   24 1     
   13    8    9 1     
   14    9   10 1     
   15    9   25 1     
   16    9   26 1     
   17   10   11 2     
   18   10   12 am    
   19   12   13 1     
   20   12   27 1     
   21   13   14 1     
   22   13   28 1     
   23   13   29 1     
   24   14   15 1     
   25   14   30 1     
   26   14   31 1     
   27   15   20 1     
   28   15   16 1     
   29   15   32 1     
   30   16   17 1     
   31   16   33 1     
   32   16   34 1     
   33   17   18 1     
   34   17   35 1     
   35   17   36 1     
   36   18   19 1     
   37   18   37 1     
   38   18   38 1     
   39   19   20 1     
   40   19   39 1     
   41   19   40 1     
   42   20   41 1     
   43   20   42 1     
   44    5   43 1     
   45    6   44 1     
   46   11   45 1     
   47   11   46 1     
@<TRIPOS>SUBSTRUCTURE
      1 S1             1
@<TRIPOS>SET
LONE_PAIRS      STATIC     ATOMS    <user>   **** ""
5 3 43 44 45 46
DONOR_HYDROGENS      STATIC     ATOMS    <user>   **** ""
1 27
ATOM$BLUE        STATIC     ATOMS    COLORGROUP SYSTEM
5 3 43 44 45 46
ATOM$RED        STATIC     ATOMS    COLORGROUP SYSTEM
1 27
