#       Name:                AV-unprocessed.smi:547
#       Creating user name   scv26
#       Creation time:       Thu Mar 26 23:38:34 2020


#       File generated by GOLD software.
#

@<TRIPOS>MOLECULE
AV-unprocessed.smi:547
    42    43     1
SMALL
NO_CHARGES


@<TRIPOS>ATOM
      1 ****        -0.1022   2.2831  -1.6194 O.2            1 S1                 0.0000
      2 ****         0.6313   1.3180  -1.8349 C.2            1 S1                 0.0000
      3 ****         2.1582   1.4889  -1.8069 C.3            1 S1                 0.0000
      4 ****         2.8024   1.4612  -0.4731 N.am           1 S1                 0.0000
      5 ****         1.9645   1.4918   0.6365 N.2            1 S1                 0.0000
      6 ****         2.4675   1.4556   1.8214 C.2            1 S1                 0.0000
      7 ****         3.8927   1.3890   2.0491 C.2            1 S1                 0.0000
      8 ****         4.5114   1.3420   3.6624 Cl             1 S1                 0.0000
      9 ****         4.7066   1.3683   0.9644 C.2            1 S1                 0.0000
     10 ****         6.4246   1.2940   1.1580 Cl             1 S1                 0.0000
     11 ****         4.1678   1.4086  -0.4028 C.2            1 S1                 0.0000
     12 ****         4.8795   1.3969  -1.4082 O.2            1 S1                 0.0000
     13 ****         0.1744   0.0844  -2.0976 N.am           1 S1                 0.0000
     14 ****        -1.2286  -0.3145  -2.0704 C.3            1 S1                 0.0000
     15 ****        -1.7839  -0.4258  -0.6326 C.3            1 S1                 0.0000
     16 ****        -0.9698  -1.3996   0.2497 C.3            1 S1                 0.0000
     17 ****        -1.5466  -1.4919   1.6713 C.3            1 S1                 0.0000
     18 ****        -3.0281  -1.8963   1.6458 C.3            1 S1                 0.0000
     19 ****        -3.8481  -0.9320   0.7754 C.3            1 S1                 0.0000
     20 ****        -3.2704  -0.8357  -0.6464 C.3            1 S1                 0.0000
     21 ****         2.5948   0.7144  -2.4410 H              1 S1                 0.0000
     22 ****         2.3968   2.4404  -2.2848 H              1 S1                 0.0000
     23 ****         1.8445   1.4735   2.7157 H              1 S1                 0.0000
     24 ****         0.8515  -0.6426  -2.2776 H              1 S1                 0.0000
     25 ****        -1.8203   0.3938  -2.6530 H              1 S1                 0.0000
     26 ****        -1.3135  -1.2761  -2.5773 H              1 S1                 0.0000
     27 ****        -1.7249   0.5624  -0.1737 H              1 S1                 0.0000
     28 ****        -0.9616  -2.3907  -0.2060 H              1 S1                 0.0000
     29 ****         0.0710  -1.0811   0.3134 H              1 S1                 0.0000
     30 ****        -0.9747  -2.2104   2.2590 H              1 S1                 0.0000
     31 ****        -1.4386  -0.5284   2.1716 H              1 S1                 0.0000
     32 ****        -3.1237  -2.9111   1.2579 H              1 S1                 0.0000
     33 ****        -3.4271  -1.9140   2.6604 H              1 S1                 0.0000
     34 ****        -4.8865  -1.2616   0.7329 H              1 S1                 0.0000
     35 ****        -3.8568   0.0575   1.2343 H              1 S1                 0.0000
     36 ****        -3.8501  -0.1160  -1.2257 H              1 S1                 0.0000
     37 ****        -3.3830  -1.7974  -1.1491 H              1 S1                 0.0000
     38 ****         0.2954   3.1800  -1.4257 LP             1 S1                 0.0000
     39 ****        -1.0956   2.1701  -1.6380 LP             1 S1                 0.0000
     40 ****         0.9732   1.5419   0.5145 LP             1 S1                 0.0000
     41 ****         4.4622   1.4264  -2.3165 LP             1 S1                 0.0000
     42 ****         5.8745   1.3580  -1.3160 LP             1 S1                 0.0000
@<TRIPOS>BOND
    1    1    2 2     
    2    2    3 1     
    3    2   13 am    
    4    3    4 1     
    5    3   21 1     
    6    3   22 1     
    7    4   11 am    
    8    4    5 1     
    9    5    6 2     
   10    6    7 1     
   11    6   23 1     
   12    7    8 1     
   13    7    9 2     
   14    9   10 1     
   15    9   11 1     
   16   11   12 2     
   17   13   14 1     
   18   13   24 1     
   19   14   15 1     
   20   14   25 1     
   21   14   26 1     
   22   15   20 1     
   23   15   16 1     
   24   15   27 1     
   25   16   17 1     
   26   16   28 1     
   27   16   29 1     
   28   17   18 1     
   29   17   30 1     
   30   17   31 1     
   31   18   19 1     
   32   18   32 1     
   33   18   33 1     
   34   19   20 1     
   35   19   34 1     
   36   19   35 1     
   37   20   36 1     
   38   20   37 1     
   39    1   38 1     
   40    1   39 1     
   41    5   40 1     
   42   12   41 1     
   43   12   42 1     
@<TRIPOS>SUBSTRUCTURE
      1 S1             1
@<TRIPOS>SET
LONE_PAIRS      STATIC     ATOMS    <user>   **** ""
5 38 39 40 41 42
DONOR_HYDROGENS      STATIC     ATOMS    <user>   **** ""
1 24
ATOM$BLUE        STATIC     ATOMS    COLORGROUP SYSTEM
5 38 39 40 41 42
ATOM$RED        STATIC     ATOMS    COLORGROUP SYSTEM
1 24
