#       Name:                AV-unprocessed.smi:481
#       Creating user name   scv26
#       Creation time:       Thu Mar 26 23:11:00 2020


#       File generated by GOLD software.
#

@<TRIPOS>MOLECULE
AV-unprocessed.smi:481
    51    53     1
SMALL
NO_CHARGES


@<TRIPOS>ATOM
      1 ****        -5.5683  -0.0386  -0.5500 C.3            1 S1                 0.0000
      2 ****        -4.7209   1.0648  -0.8305 O.3            1 S1                 0.0000
      3 ****        -3.4114   0.6962  -1.2402 C.3            1 S1                 0.0000
      4 ****        -2.5404   0.2553  -0.0513 C.3            1 S1                 0.0000
      5 ****        -1.1828  -0.0694  -0.4765 N.pl3          1 S1                 0.0000
      6 ****        -0.0940   0.7405  -0.4589 C.2            1 S1                 0.0000
      7 ****        -0.2212   2.0574   0.0049 N.pl3          1 S1                 0.0000
      8 ****        -1.3815   2.5547   0.4352 N.2            1 S1                 0.0000
      9 ****        -2.3557   2.8200  -0.3740 C.2            1 S1                 0.0000
     10 ****        -2.3394   2.7608  -1.8511 C.ar           1 S1                 0.0000
     11 ****        -1.2409   3.2130  -2.6202 C.ar           1 S1                 0.0000
     12 ****        -1.2735   3.1361  -4.0258 C.ar           1 S1                 0.0000
     13 ****        -2.4080   2.6175  -4.6772 C.ar           1 S1                 0.0000
     14 ****        -3.5126   2.1821  -3.9216 C.ar           1 S1                 0.0000
     15 ****        -3.4795   2.2588  -2.5156 C.ar           1 S1                 0.0000
     16 ****         1.0285   0.1655  -0.9047 N.2            1 S1                 0.0000
     17 ****         0.6137  -1.1155  -1.2358 C.2            1 S1                 0.0000
     18 ****        -0.7145  -1.2786  -0.9964 C.2            1 S1                 0.0000
     19 ****        -1.4541  -2.5303  -1.2662 C.2            1 S1                 0.0000
     20 ****        -2.6611  -2.6134  -1.0467 O.2            1 S1                 0.0000
     21 ****        -0.6398  -3.5117  -1.7694 N.pl3          1 S1                -1.0000
     22 ****         0.7106  -3.3934  -2.0223 C.2            1 S1                 0.0000
     23 ****         1.3708  -4.3275  -2.4790 O.2            1 S1                 0.0000
     24 ****         1.3513  -2.2097  -1.7641 N.am           1 S1                 0.0000
     25 ****         2.7858  -2.0546  -2.0216 C.3            1 S1                 0.0000
     26 ****        -6.5693   0.3240  -0.3173 H              1 S1                 0.0000
     27 ****        -5.2188  -0.6116   0.3084 H              1 S1                 0.0000
     28 ****        -5.6472  -0.7076  -1.4078 H              1 S1                 0.0000
     29 ****        -3.4523  -0.0743  -2.0115 H              1 S1                 0.0000
     30 ****        -2.9577   1.5716  -1.7055 H              1 S1                 0.0000
     31 ****        -2.5099   1.0434   0.7009 H              1 S1                 0.0000
     32 ****        -2.9607  -0.6103   0.4574 H              1 S1                 0.0000
     33 ****         0.6334   2.4244   0.3986 H              1 S1                 0.0000
     34 ****        -3.3033   3.1112   0.0796 H              1 S1                 0.0000
     35 ****        -0.3653   3.6252  -2.1409 H              1 S1                 0.0000
     36 ****        -0.4277   3.4774  -4.6040 H              1 S1                 0.0000
     37 ****        -2.4324   2.5575  -5.7554 H              1 S1                 0.0000
     38 ****        -4.3856   1.7871  -4.4200 H              1 S1                 0.0000
     39 ****        -4.3339   1.9172  -1.9489 H              1 S1                 0.0000
     40 ****         3.0009  -2.2031  -3.0805 H              1 S1                 0.0000
     41 ****         3.3590  -2.7862  -1.4505 H              1 S1                 0.0000
     42 ****         3.1574  -1.0673  -1.7485 H              1 S1                 0.0000
     43 ****        -4.6467   1.6228  -0.0039 LP             1 S1                 0.0000
     44 ****        -5.1389   1.6050  -1.5609 LP             1 S1                 0.0000
     45 ****        -1.5023   2.7277   1.4126 LP             1 S1                 0.0000
     46 ****         1.9432   0.5625  -0.9806 LP             1 S1                 0.0000
     47 ****        -3.1579  -1.8268  -0.6800 LP             1 S1                 0.0000
     48 ****        -3.1459  -3.4675  -1.2349 LP             1 S1                 0.0000
     49 ****        -1.0641  -4.3943  -1.9716 LP             1 S1                 0.0000
     50 ****         0.9288  -5.2023  -2.6769 LP             1 S1                 0.0000
     51 ****         2.3488  -4.2110  -2.6518 LP             1 S1                 0.0000
@<TRIPOS>BOND
    1    1    2 1     
    2    1   26 1     
    3    1   27 1     
    4    1   28 1     
    5    2    3 1     
    6    3    4 1     
    7    3   29 1     
    8    3   30 1     
    9    4    5 1     
   10    4   31 1     
   11    4   32 1     
   12    5   18 1     
   13    5    6 1     
   14    6    7 1     
   15    6   16 2     
   16    7    8 1     
   17    7   33 1     
   18    8    9 2     
   19    9   10 1     
   20    9   34 1     
   21   10   15 ar    
   22   10   11 ar    
   23   11   12 ar    
   24   11   35 1     
   25   12   13 ar    
   26   12   36 1     
   27   13   14 ar    
   28   13   37 1     
   29   14   15 ar    
   30   14   38 1     
   31   15   39 1     
   32   16   17 1     
   33   17   24 1     
   34   17   18 2     
   35   18   19 1     
   36   19   20 2     
   37   19   21 1     
   38   21   22 1     
   39   22   23 2     
   40   22   24 am    
   41   24   25 1     
   42   25   40 1     
   43   25   41 1     
   44   25   42 1     
   45    2   43 1     
   46    2   44 1     
   47    8   45 1     
   48   16   46 1     
   49   20   47 1     
   50   20   48 1     
   51   21   49 1     
   52   23   50 1     
   53   23   51 1     
@<TRIPOS>SUBSTRUCTURE
      1 S1             1
@<TRIPOS>SET
LONE_PAIRS      STATIC     ATOMS    <user>   **** ""
9 43 44 45 46 47 48 49 50 51
DONOR_HYDROGENS      STATIC     ATOMS    <user>   **** ""
1 33
ATOM$BLUE        STATIC     ATOMS    COLORGROUP SYSTEM
9 43 44 45 46 47 48 49 50 51
ATOM$RED        STATIC     ATOMS    COLORGROUP SYSTEM
1 33
