AV-unprocessed.smi:900|AV-procd|sdf|4089|dock4
  -GOLD-   22720 1573D 1   1.00000     0.00000
 Structure written by MMmdl.
 33 34  0  0  0  0  0  0  0  0  1 V2000
  146.9576  140.9434  153.1464 C   0  0  0  0  0  0  0  0  0  0  0  0
  148.1835  140.1754  153.2993 N   0  0  0  0  0  0  0  0  0  0  0  0
  148.4369  139.3541  154.3291 C   0  0  0  0  0  0  0  0  0  0  0  0
  147.6408  139.1543  155.2463 O   0  0  0  0  0  0  0  0  0  0  0  0
  149.7947  138.6490  154.3262 C   0  0  0  0  0  0  0  0  0  0  0  0
  150.7143  139.2789  155.3226 C   0  0  0  0  0  0  0  0  0  0  0  0
  151.9774  139.5552  155.0189 N   0  0  0  0  0  0  0  0  0  0  0  0
  152.4845  140.1005  156.2069 O   0  0  0  0  0  0  0  0  0  0  0  0
  151.4502  140.1082  157.0813 C   0  0  0  0  0  0  0  0  0  0  0  0
  151.6908  140.5788  158.4775 C   0  0  0  0  0  0  0  0  0  0  0  0
  152.2895  141.9951  158.5380 C   0  0  0  0  0  0  0  0  0  0  0  0
  152.3895  142.5863  159.9479 C   0  0  0  0  0  0  0  0  0  0  0  0
  152.5125  144.0992  159.7367 C   0  0  0  0  0  0  0  0  0  0  0  0
  151.9213  144.3905  158.3485 C   0  0  0  0  0  0  0  0  0  0  0  0
  151.4695  143.0409  157.7798 C   0  0  0  0  0  0  0  0  0  0  0  0
  150.3233  139.6013  156.5873 N   0  0  0  0  0  0  0  0  0  0  0  0
  146.9564  141.4529  152.1828 H   0  0  0  0  0  0  0  0  0  0  0  0
  146.8756  141.6964  153.9310 H   0  0  0  0  0  0  0  0  0  0  0  0
  146.0805  140.2962  153.1910 H   0  0  0  0  0  0  0  0  0  0  0  0
  148.8908  140.2862  152.5867 H   0  0  0  0  0  0  0  0  0  0  0  0
  149.6626  137.5915  154.5611 H   0  0  0  0  0  0  0  0  0  0  0  0
  150.2392  138.6989  153.3312 H   0  0  0  0  0  0  0  0  0  0  0  0
  150.7424  140.5552  159.0153 H   0  0  0  0  0  0  0  0  0  0  0  0
  152.3480  139.8666  158.9779 H   0  0  0  0  0  0  0  0  0  0  0  0
  153.2911  141.9744  158.1045 H   0  0  0  0  0  0  0  0  0  0  0  0
  151.4770  142.3714  160.5058 H   0  0  0  0  0  0  0  0  0  0  0  0
  153.2262  142.1779  160.5159 H   0  0  0  0  0  0  0  0  0  0  0  0
  152.0001  144.6534  160.5237 H   0  0  0  0  0  0  0  0  0  0  0  0
  153.5617  144.3965  159.7589 H   0  0  0  0  0  0  0  0  0  0  0  0
  151.0925  145.0976  158.3982 H   0  0  0  0  0  0  0  0  0  0  0  0
  152.6864  144.8309  157.7078 H   0  0  0  0  0  0  0  0  0  0  0  0
  151.6078  142.9774  156.7001 H   0  0  0  0  0  0  0  0  0  0  0  0
  150.4073  142.8997  157.9847 H   0  0  0  0  0  0  0  0  0  0  0  0
  1  2  1  0  0  0  0
  1 17  1  0  0  0  0
  1 18  1  0  0  0  0
  1 19  1  0  0  0  0
  2  3  1  0  0  0  0
  2 20  1  0  0  0  0
  3  4  2  0  0  0  0
  3  5  1  0  0  0  0
  5  6  1  0  0  0  0
  5 21  1  0  0  0  0
  5 22  1  0  0  0  0
  6 16  1  0  0  0  0
  6  7  2  0  0  0  0
  7  8  1  0  0  0  0
  8  9  1  0  0  0  0
  9 10  1  0  0  0  0
  9 16  2  0  0  0  0
 10 11  1  0  0  0  0
 10 23  1  0  0  0  0
 10 24  1  0  0  0  0
 11 15  1  0  0  0  0
 11 12  1  0  0  0  0
 11 25  1  0  0  0  0
 12 13  1  0  0  0  0
 12 26  1  0  0  0  0
 12 27  1  0  0  0  0
 13 14  1  0  0  0  0
 13 28  1  0  0  0  0
 13 29  1  0  0  0  0
 14 15  1  0  0  0  0
 14 30  1  0  0  0  0
 14 31  1  0  0  0  0
 15 32  1  0  0  0  0
 15 33  1  0  0  0  0
M  END
> <s_m_source_file>
AV-unprocessed.smi

> <i_m_source_file_index>
900

> <i_lp_mmshare_version>
43012

> <i_f3d_flags>
0

> <s_epik_input>
W0NIM11bTkhdQyg9TylbQ0gyXWMxbm9jKG4xKVtDSDJdW0NIXTJbQ0gyXVtDSDJdW0NIMl1bQ0gyXTI=

> <s_epik_cmdline>
J2VwaWtfcHl0aG9uJywgJy1waCcsICc3LjAnLCAnLXRuJywgJzgnLCAnLW1hJywgJzIwMCcsICctbWV0YWxfYmluZGluZycsICctaW1hZScsICc8aW5maWxlLm1hZT4nLCAnLW9tYWUnLCAnPG91dGZpbGUubWFlPic=

> <r_lp_tautomer_probability>
1

> <r_epik_Ionization_Penalty>
1.02915e-07

> <r_epik_Ionization_Penalty_Charging>
0

> <r_epik_Ionization_Penalty_Neutral>
1.02915e-07

> <r_epik_State_Penalty>
-0

> <r_epik_Charging_Adjusted_Penalty>
0

> <i_epik_Tot_Q>
0

> <i_epik_Tot_abs_Q>
0

> <r_epik_Metal_State_Penalty>
-0

> <b_epik_Metal_Only>
0

> <s_lp_Force_Field>
OPLS_2005

> <r_lp_Energy>
19.3932

> <b_lp_Chiralities_Consistent>
1

> <s_lp_Variant>
AV-unprocessed.smi:900-1

> <Gold.Version>
5.8.1

> <Gold.Id.Protein>
6NUR|6NUR_protein|mol2

> <Gold.PLP.Fitness>
40.0211

> <Gold.PLP.PLP>
-32.2539

> <Gold.PLP.part.hbond>
-2.9717

> <Gold.PLP.part.metal>
0.0000

> <Gold.PLP.part.buried>
-3.9411

> <Gold.PLP.part.nonpolar>
-26.0358

> <Gold.PLP.part.repulsive>
0.1887

> <Gold.PLP.ligand.clash>
0.0000

> <Gold.PLP.ligand.torsion>
0.4479

> <Gold.PLP.Chemscore.Hbond>
2.8816

> <Gold.PLP.Chemscore.CHOScore>
0.0000

> <Gold.PLP.Chemscore.Metal>
0.0000

> <Gold.Chemscore.Hbonds>
donor molecule, donor type, donor heavy atom, donor atom, acceptor molecule, acceptor atom, score
      L1  H     2    20       P1  7957  1.00
      P1  H  7989  7998       L1     7  0.90
      P1  H  7997  8010       L1     8  1.00

> <Gold.PLP.Chemscore.Internal.Correction>
0.0183

> <Gold.Rescore>
     Score         DG    S(hbond)    S(metal)    S(lipo)     H(rot)  DE(clash)    DE(int)     intcor
     17.12     -17.69       2.33        0.00      78.77       1.87       0.06       0.51       ----

> <Gold.Chemscore.Fitness>
17.1154

> <Gold.Chemscore.DG>
-17.6887

> <Gold.Chemscore.ZeroCoef>
-5.4800

> <Gold.Chemscore.Hbond>
2.3312

> <Gold.Chemscore.Metal>
0.0000

> <Gold.Chemscore.Lipo>
78.7733

> <Gold.Chemscore.Internal_Hbond>
0.0000

> <Gold.Chemscore.DEClash>
0.0624

> <Gold.Chemscore.DEInternal>
0.5109

> <Gold.Chemscore.Rot>
1.8727

> <Gold.Chemscore.Internal.Correction>
   9.000000E+99

> <Gold.Chemscore.Hbonds>
donor molecule, donor type, donor heavy atom, donor atom, acceptor molecule, acceptor atom, score
      L1  H     2    20       P1  7957  0.97
      P1  H  7989  7998       L1     7  0.17
      P1  H  7997  8010       L1     8  0.81

> <Gold.Chemscore.Hbond.Weighted>
-7.7862

> <Gold.Chemscore.Metal.Weighted>
-0.0000

> <Gold.Chemscore.Lipo.Weighted>
-9.2165

> <Gold.Chemscore.Internal_Hbond.Weighted>
0.0000

> <Gold.Chemscore.DEClash.Weighted>
0.0624

> <Gold.Chemscore.DEInternal.Weighted>
0.5109

> <Gold.Chemscore.Rot.Weighted>
4.7940

> <Gold.Chemscore.Internal.Correction.Weighted>
   9.000000E+99

> <Gold.Protein.RotatedTorsions>
[ 6907 6896 6895 6894 ] final -164.32 input  -60.11 | X-H torsion
[ 7974 7965 7964 7962 ] final -158.44 input  175.53 | X-H torsion
[ 8008 7997 7996 7995 ] final   84.48 input   59.86 | X-H torsion
[ 10167 10162 10161 10158 ] final  177.47 input  -65.29 | X-H torsion
[ 10718 10713 10712 10709 ] final -147.12 input   66.30 | X-H torsion
[ 10763 10752 10751 10750 ] final  -41.33 input  -60.55 | X-H torsion
[ 11005 11000 10999 10996 ] final  -27.55 input  -57.11 | X-H torsion

> <Gold.Protein.ActiveResidues>
 VAL166  LYS551  ARG553  GLY616  TRP617  ASP618  TYR619  PRO620  LYS621  CYS622 
 ASP623  PHE694  ASN695  SER759  ASP760  ASP761  ALA762  ILE779  LEU786  VAL792 
 PHE793  MET794  SER795  GLU796  ALA797  LYS798  CYS799  TRP800  GLU811  SER814 

> <Gold.Protein.RotatedAtoms>
  151.4099  133.3730  159.2742 H   0  0  0  0  0  0  0  0  0  0  0  0  # atno 6907 bound_to 6896
  150.9371  134.8784  159.7599 H   0  0  0  0  0  0  0  0  0  0  0  0  # atno 6908 bound_to 6896
  152.5054  134.4047  159.9480 H   0  0  0  0  0  0  0  0  0  0  0  0  # atno 6909 bound_to 6896
  144.7505  140.3826  143.6051 H   0  0  0  0  0  0  0  0  0  0  0  0  # atno 7974 bound_to 7965
  155.9376  140.3410  155.6300 H   0  0  0  0  0  0  0  0  0  0  0  0  # atno 8008 bound_to 7997
  155.7080  140.0768  157.2401 H   0  0  0  0  0  0  0  0  0  0  0  0  # atno 8009 bound_to 7997
  154.4096  140.1628  156.2252 H   0  0  0  0  0  0  0  0  0  0  0  0  # atno 8010 bound_to 7997
  139.5254  144.2794  152.0559 H   0  0  0  0  0  0  0  0  0  0  0  0  # atno 10167 bound_to 10162
  156.4035  130.7945  151.2158 H   0  0  0  0  0  0  0  0  0  0  0  0  # atno 10718 bound_to 10713
  153.9606  135.6740  153.4745 H   0  0  0  0  0  0  0  0  0  0  0  0  # atno 10763 bound_to 10752
  153.0840  135.4908  154.8556 H   0  0  0  0  0  0  0  0  0  0  0  0  # atno 10764 bound_to 10752
  154.7274  135.3130  154.8907 H   0  0  0  0  0  0  0  0  0  0  0  0  # atno 10765 bound_to 10752
  140.9129  133.7449  156.0695 H   0  0  0  0  0  0  0  0  0  0  0  0  # atno 11005 bound_to 11000
  145.6961  139.1650  143.2619 LP  0  0  0  0  0  0  0  0  0  0  0  0  # atno 17320 bound_to 7965
  146.1449  140.7007  142.9349 LP  0  0  0  0  0  0  0  0  0  0  0  0  # atno 17321 bound_to 7965
  140.2250  144.4427  150.6325 LP  0  0  0  0  0  0  0  0  0  0  0  0  # atno 17342 bound_to 10162
  140.6393  143.2200  151.6325 LP  0  0  0  0  0  0  0  0  0  0  0  0  # atno 17343 bound_to 10162
  157.7505  131.0279  150.4028 LP  0  0  0  0  0  0  0  0  0  0  0  0  # atno 17370 bound_to 10713
  156.4312  130.3972  149.6759 LP  0  0  0  0  0  0  0  0  0  0  0  0  # atno 17371 bound_to 10713
  140.8087  134.3425  157.5418 LP  0  0  0  0  0  0  0  0  0  0  0  0  # atno 17394 bound_to 11000
  139.8761  134.9241  156.3341 LP  0  0  0  0  0  0  0  0  0  0  0  0  # atno 17395 bound_to 11000

$$$$
