AV-unprocessed.smi:1003|AV-procd|sdf|4360|dock8
  -GOLD-   22720 2263D 1   1.00000     0.00000
 Structure written by MMmdl.
 43 44  0  0  0  0  0  0  0  0  1 V2000
  149.0201  134.7148  163.8846 C   0  0  0  0  0  0  0  0  0  0  0  0
  148.4638  136.0128  163.2886 C   0  0  0  0  0  0  0  0  0  0  0  0
  148.4686  135.9968  161.7882 C   0  0  0  0  0  0  0  0  0  0  0  0
  149.0466  137.0638  161.0938 N   0  0  0  0  0  0  0  0  0  0  0  0
  148.9814  136.9129  159.7696 C   0  0  0  0  0  0  0  0  0  0  0  0
  149.4962  137.9206  158.7983 C   0  0  0  0  0  0  0  0  0  0  0  0
  151.0098  138.1487  158.9385 C   0  0  0  0  0  0  0  0  0  0  0  0
  151.3365  139.5689  158.9825 N   0  0  0  0  0  0  0  0  0  0  0  0
  152.2564  140.1715  158.2133 C   0  0  0  0  0  0  0  0  0  0  0  0
  152.9295  139.5725  157.3735 O   0  0  0  0  0  0  0  0  0  0  0  0
  152.4482  141.6790  158.4274 C   0  0  0  0  0  0  0  0  0  0  0  0
  152.9222  141.9782  159.8660 C   0  0  0  0  0  0  0  0  0  0  0  0
  153.1010  143.4882  160.0940 C   0  0  0  0  0  0  0  0  0  0  0  0
  151.8077  144.2558  159.7773 C   0  0  0  0  0  0  0  0  0  0  0  0
  151.3221  143.9600  158.3496 C   0  0  0  0  0  0  0  0  0  0  0  0
  151.1452  142.4495  158.1233 C   0  0  0  0  0  0  0  0  0  0  0  0
  148.1607  135.4372  159.2820 S   0  0  0  0  0  0  0  0  0  0  0  0
  147.9378  135.0312  160.9644 C   0  0  0  0  0  0  0  0  0  0  0  0
  147.2406  133.7717  161.3587 C   0  0  0  0  0  0  0  0  0  0  0  0
  149.0069  134.7502  164.9740 H   0  0  0  0  0  0  0  0  0  0  0  0
  150.0502  134.5477  163.5687 H   0  0  0  0  0  0  0  0  0  0  0  0
  148.4291  133.8532  163.5724 H   0  0  0  0  0  0  0  0  0  0  0  0
  147.4488  136.1674  163.6560 H   0  0  0  0  0  0  0  0  0  0  0  0
  149.0442  136.8573  163.6610 H   0  0  0  0  0  0  0  0  0  0  0  0
  149.2585  137.5870  157.7873 H   0  0  0  0  0  0  0  0  0  0  0  0
  148.9541  138.8541  158.9535 H   0  0  0  0  0  0  0  0  0  0  0  0
  151.3917  137.6491  159.8306 H   0  0  0  0  0  0  0  0  0  0  0  0
  151.5317  137.7078  158.0886 H   0  0  0  0  0  0  0  0  0  0  0  0
  150.8273  140.1348  159.6460 H   0  0  0  0  0  0  0  0  0  0  0  0
  153.2185  142.0289  157.7372 H   0  0  0  0  0  0  0  0  0  0  0  0
  152.2019  141.5905  160.5885 H   0  0  0  0  0  0  0  0  0  0  0  0
  153.8642  141.4657  160.0658 H   0  0  0  0  0  0  0  0  0  0  0  0
  153.4007  143.6753  161.1254 H   0  0  0  0  0  0  0  0  0  0  0  0
  153.9102  143.8602  159.4645 H   0  0  0  0  0  0  0  0  0  0  0  0
  151.0327  143.9755  160.4921 H   0  0  0  0  0  0  0  0  0  0  0  0
  151.9703  145.3268  159.9016 H   0  0  0  0  0  0  0  0  0  0  0  0
  150.3803  144.4767  158.1631 H   0  0  0  0  0  0  0  0  0  0  0  0
  152.0398  144.3559  157.6299 H   0  0  0  0  0  0  0  0  0  0  0  0
  150.8341  142.2702  157.0934 H   0  0  0  0  0  0  0  0  0  0  0  0
  150.3347  142.0850  158.7568 H   0  0  0  0  0  0  0  0  0  0  0  0
  146.5118  133.9613  162.1470 H   0  0  0  0  0  0  0  0  0  0  0  0
  147.9546  133.0353  161.7276 H   0  0  0  0  0  0  0  0  0  0  0  0
  146.7103  133.3327  160.5132 H   0  0  0  0  0  0  0  0  0  0  0  0
  1  2  1  0  0  0  0
  1 20  1  0  0  0  0
  1 21  1  0  0  0  0
  1 22  1  0  0  0  0
  2  3  1  0  0  0  0
  2 23  1  0  0  0  0
  2 24  1  0  0  0  0
  3 18  2  0  0  0  0
  3  4  1  0  0  0  0
  4  5  2  0  0  0  0
  5  6  1  0  0  0  0
  5 17  1  0  0  0  0
  6  7  1  0  0  0  0
  6 25  1  0  0  0  0
  6 26  1  0  0  0  0
  7  8  1  0  0  0  0
  7 27  1  0  0  0  0
  7 28  1  0  0  0  0
  8  9  1  0  0  0  0
  8 29  1  0  0  0  0
  9 10  2  0  0  0  0
  9 11  1  0  0  0  0
 11 16  1  0  0  0  0
 11 12  1  0  0  0  0
 11 30  1  0  0  0  0
 12 13  1  0  0  0  0
 12 31  1  0  0  0  0
 12 32  1  0  0  0  0
 13 14  1  0  0  0  0
 13 33  1  0  0  0  0
 13 34  1  0  0  0  0
 14 15  1  0  0  0  0
 14 35  1  0  0  0  0
 14 36  1  0  0  0  0
 15 16  1  0  0  0  0
 15 37  1  0  0  0  0
 15 38  1  0  0  0  0
 16 39  1  0  0  0  0
 16 40  1  0  0  0  0
 17 18  1  0  0  0  0
 18 19  1  0  0  0  0
 19 41  1  0  0  0  0
 19 42  1  0  0  0  0
 19 43  1  0  0  0  0
M  END
> <s_m_source_file>
AV-unprocessed.smi

> <i_m_source_file_index>
1003

> <i_lp_mmshare_version>
43012

> <i_f3d_flags>
0

> <s_epik_input>
W0NIM11bQ0gyXWMxbmMoc2MxW0NIM10pW0NIMl1bQ0gyXVtOSF1DKD1PKVtDSF0yW0NIMl1bQ0gyXVtDSDJdW0NIMl1bQ0gyXTI=

> <s_epik_cmdline>
J2VwaWtfcHl0aG9uJywgJy1waCcsICc3LjAnLCAnLXRuJywgJzgnLCAnLW1hJywgJzIwMCcsICctbWV0YWxfYmluZGluZycsICctaW1hZScsICc8aW5maWxlLm1hZT4nLCAnLW9tYWUnLCAnPG91dGZpbGUubWFlPic=

> <r_epik_Ionization_Penalty>
0.00242092

> <r_epik_Ionization_Penalty_Charging>
0

> <r_epik_Ionization_Penalty_Neutral>
0.00242092

> <r_epik_State_Penalty>
0.00167523

> <r_epik_Charging_Adjusted_Penalty>
0.00167523

> <i_epik_Tot_Q>
0

> <i_epik_Tot_abs_Q>
0

> <r_epik_Metal_State_Penalty>
-0

> <b_epik_Metal_Only>
0

> <s_lp_Force_Field>
OPLS_2005

> <r_lp_Energy>
0.647585

> <b_lp_Chiralities_Consistent>
1

> <s_lp_Variant>
AV-unprocessed.smi:1003-1

> <Gold.Version>
5.8.1

> <Gold.Id.Protein>
6NUR|6NUR_protein|mol2

> <Gold.PLP.Fitness>
45.7088

> <Gold.PLP.PLP>
-40.8854

> <Gold.PLP.part.hbond>
-3.0000

> <Gold.PLP.part.metal>
0.0000

> <Gold.PLP.part.buried>
-5.4243

> <Gold.PLP.part.nonpolar>
-32.8190

> <Gold.PLP.part.repulsive>
0.1681

> <Gold.PLP.ligand.clash>
0.0000

> <Gold.PLP.ligand.torsion>
0.4487

> <Gold.PLP.Chemscore.Hbond>
1.8995

> <Gold.PLP.Chemscore.CHOScore>
0.0000

> <Gold.PLP.Chemscore.Metal>
0.0000

> <Gold.Chemscore.Hbonds>
donor molecule, donor type, donor heavy atom, donor atom, acceptor molecule, acceptor atom, score
      P1  H  6931  6943       L1     4  0.67
      P1  H  7997  8008       L1    10  1.00

> <Gold.PLP.Chemscore.Internal.Correction>
0.0224

> <Gold.Rescore>
     Score         DG    S(hbond)    S(metal)    S(lipo)     H(rot)  DE(clash)    DE(int)     intcor
     21.14     -21.92       1.97        0.00     114.95       1.40       0.34       0.44       ----

> <Gold.Chemscore.Fitness>
21.1447

> <Gold.Chemscore.DG>
-21.9214

> <Gold.Chemscore.ZeroCoef>
-5.4800

> <Gold.Chemscore.Hbond>
1.9680

> <Gold.Chemscore.Metal>
0.0000

> <Gold.Chemscore.Lipo>
114.9514

> <Gold.Chemscore.Internal_Hbond>
0.0000

> <Gold.Chemscore.DEClash>
0.3386

> <Gold.Chemscore.DEInternal>
0.4381

> <Gold.Chemscore.Rot>
1.3988

> <Gold.Chemscore.Internal.Correction>
   9.000000E+99

> <Gold.Chemscore.Hbonds>
donor molecule, donor type, donor heavy atom, donor atom, acceptor molecule, acceptor atom, score
      P1  H  6931  6943       L1     4  0.51
      P1  H  7997  8008       L1    10  1.00

> <Gold.Chemscore.Hbond.Weighted>
-6.5731

> <Gold.Chemscore.Metal.Weighted>
-0.0000

> <Gold.Chemscore.Lipo.Weighted>
-13.4493

> <Gold.Chemscore.Internal_Hbond.Weighted>
0.0000

> <Gold.Chemscore.DEClash.Weighted>
0.3386

> <Gold.Chemscore.DEInternal.Weighted>
0.4381

> <Gold.Chemscore.Rot.Weighted>
3.5810

> <Gold.Chemscore.Internal.Correction.Weighted>
   9.000000E+99

> <Gold.Protein.RotatedTorsions>
[ 6907 6896 6895 6894 ] final -111.80 input  -60.11 | X-H torsion
[ 7974 7965 7964 7962 ] final -113.42 input  175.53 | X-H torsion
[ 8008 7997 7996 7995 ] final  -65.49 input   59.86 | X-H torsion
[ 10167 10162 10161 10158 ] final   18.99 input  -65.29 | X-H torsion
[ 10718 10713 10712 10709 ] final  -73.45 input   66.30 | X-H torsion
[ 10763 10752 10751 10750 ] final  159.93 input  -60.55 | X-H torsion
[ 11005 11000 10999 10996 ] final  109.48 input  -57.11 | X-H torsion

> <Gold.Protein.ActiveResidues>
 VAL166  LYS551  ARG553  GLY616  TRP617  ASP618  TYR619  PRO620  LYS621  CYS622 
 ASP623  PHE694  ASN695  SER759  ASP760  ASP761  ALA762  ILE779  LEU786  VAL792 
 PHE793  MET794  SER795  GLU796  ALA797  LYS798  CYS799  TRP800  GLU811  SER814 

> <Gold.Protein.RotatedAtoms>
  150.7715  133.9182  159.3389 H   0  0  0  0  0  0  0  0  0  0  0  0  # atno 6907 bound_to 6896
  151.7067  135.0918  160.0270 H   0  0  0  0  0  0  0  0  0  0  0  0  # atno 6908 bound_to 6896
  152.3734  133.6411  159.6140 H   0  0  0  0  0  0  0  0  0  0  0  0  # atno 6909 bound_to 6896
  145.1322  140.8731  143.3751 H   0  0  0  0  0  0  0  0  0  0  0  0  # atno 7974 bound_to 7965
  154.4675  140.0932  156.7058 H   0  0  0  0  0  0  0  0  0  0  0  0  # atno 8008 bound_to 7997
  155.4817  140.3468  155.4322 H   0  0  0  0  0  0  0  0  0  0  0  0  # atno 8009 bound_to 7997
  156.0981  140.1415  156.9492 H   0  0  0  0  0  0  0  0  0  0  0  0  # atno 8010 bound_to 7997
  140.5612  143.9334  150.6644 H   0  0  0  0  0  0  0  0  0  0  0  0  # atno 10167 bound_to 10162
  156.0280  130.4394  150.2745 H   0  0  0  0  0  0  0  0  0  0  0  0  # atno 10718 bound_to 10713
  154.2394  135.2775  155.2859 H   0  0  0  0  0  0  0  0  0  0  0  0  # atno 10763 bound_to 10752
  154.5557  135.5662  153.6965 H   0  0  0  0  0  0  0  0  0  0  0  0  # atno 10764 bound_to 10752
  153.0003  135.6285  154.2538 H   0  0  0  0  0  0  0  0  0  0  0  0  # atno 10765 bound_to 10752
  139.8863  134.9459  156.6133 H   0  0  0  0  0  0  0  0  0  0  0  0  # atno 11005 bound_to 11000
  145.0623  139.3096  143.5874 LP  0  0  0  0  0  0  0  0  0  0  0  0  # atno 17320 bound_to 7965
  146.3513  140.0069  142.8671 LP  0  0  0  0  0  0  0  0  0  0  0  0  # atno 17321 bound_to 7965
  140.2785  143.3406  152.1173 LP  0  0  0  0  0  0  0  0  0  0  0  0  # atno 17342 bound_to 10162
  139.5071  144.6826  151.5970 LP  0  0  0  0  0  0  0  0  0  0  0  0  # atno 17343 bound_to 10162
  157.0848  131.0153  151.3143 LP  0  0  0  0  0  0  0  0  0  0  0  0  # atno 17370 bound_to 10713
  157.4900  130.7816  149.7498 LP  0  0  0  0  0  0  0  0  0  0  0  0  # atno 17371 bound_to 10713
  140.7795  133.8672  155.8556 LP  0  0  0  0  0  0  0  0  0  0  0  0  # atno 17394 bound_to 11000
  140.9772  134.1453  157.4525 LP  0  0  0  0  0  0  0  0  0  0  0  0  # atno 17395 bound_to 11000

$$$$
