AV-unprocessed.smi:1791|AV-procd|sdf|7220|dock6
  -GOLD-   22720 8463D 1   1.00000     0.00000
 Structure written by MMmdl.
 38 39  0  0  0  0  0  0  0  0  1 V2000
  152.1087  138.8494  154.7028 C   0  0  0  0  0  0  0  0  0  0  0  0
  151.2623  139.9938  154.7062 O   0  0  0  0  0  0  0  0  0  0  0  0
  149.9159  139.8140  154.4636 C   0  0  0  0  0  0  0  0  0  0  0  0
  149.0680  140.9387  154.4996 C   0  0  0  0  0  0  0  0  0  0  0  0
  147.6936  140.7648  154.2476 C   0  0  0  0  0  0  0  0  0  0  0  0
  147.2104  139.4661  153.9591 C   0  0  0  0  0  0  0  0  0  0  0  0
  145.8477  139.1565  153.7005 N   0  0  0  0  0  0  0  0  0  0  0  0
  145.1423  138.0844  154.0994 C   0  0  0  0  0  0  0  0  0  0  0  0
  145.5824  137.1543  154.7743 O   0  0  0  0  0  0  0  0  0  0  0  0
  143.8702  138.1648  153.6835 N   0  0  0  0  0  0  0  0  0  0  0  0
  142.8125  137.1917  153.9548 C   0  0  2  0  0  0  0  0  0  0  0  0
  143.2880  135.7900  153.5469 C   0  0  0  0  0  0  0  0  0  0  0  0
  141.5048  137.5906  153.2408 C   0  0  1  0  0  0  0  0  0  0  0  0
  140.2958  136.6989  153.5362 C   0  0  0  0  0  0  0  0  0  0  0  0
  139.1515  137.6280  153.2018 C   0  0  0  0  0  0  0  0  0  0  0  0
  139.6736  138.9649  153.7212 C   0  0  0  0  0  0  0  0  0  0  0  0
  141.0932  138.9074  153.6041 O   0  0  0  0  0  0  0  0  0  0  0  0
  148.1386  138.4048  153.9646 C   0  0  0  0  0  0  0  0  0  0  0  0
  149.4572  138.5647  154.2041 N   0  0  0  0  0  0  0  0  0  0  0  0
  153.1350  139.1595  154.8984 H   0  0  0  0  0  0  0  0  0  0  0  0
  152.0945  138.3454  153.7352 H   0  0  0  0  0  0  0  0  0  0  0  0
  151.8233  138.1399  155.4809 H   0  0  0  0  0  0  0  0  0  0  0  0
  149.4648  141.9187  154.7197 H   0  0  0  0  0  0  0  0  0  0  0  0
  147.0431  141.6242  154.2928 H   0  0  0  0  0  0  0  0  0  0  0  0
  145.3277  139.8715  153.2133 H   0  0  0  0  0  0  0  0  0  0  0  0
  143.6021  138.9734  153.1417 H   0  0  0  0  0  0  0  0  0  0  0  0
  142.6002  137.1580  155.0248 H   0  0  0  0  0  0  0  0  0  0  0  0
  142.5291  135.0393  153.7682 H   0  0  0  0  0  0  0  0  0  0  0  0
  144.1934  135.5105  154.0866 H   0  0  0  0  0  0  0  0  0  0  0  0
  143.5067  135.7375  152.4798 H   0  0  0  0  0  0  0  0  0  0  0  0
  141.6682  137.5919  152.1618 H   0  0  0  0  0  0  0  0  0  0  0  0
  140.2898  135.7826  152.9452 H   0  0  0  0  0  0  0  0  0  0  0  0
  140.2476  136.4239  154.5902 H   0  0  0  0  0  0  0  0  0  0  0  0
  139.0103  137.6732  152.1210 H   0  0  0  0  0  0  0  0  0  0  0  0
  138.2076  137.3309  153.6595 H   0  0  0  0  0  0  0  0  0  0  0  0
  139.2632  139.8120  153.1716 H   0  0  0  0  0  0  0  0  0  0  0  0
  139.4197  139.0892  154.7747 H   0  0  0  0  0  0  0  0  0  0  0  0
  147.8162  137.3934  153.7638 H   0  0  0  0  0  0  0  0  0  0  0  0
  1  2  1  0  0  0  0
  1 20  1  0  0  0  0
  1 21  1  0  0  0  0
  1 22  1  0  0  0  0
  2  3  1  0  0  0  0
  3 19  1  0  0  0  0
  3  4  2  0  0  0  0
  4  5  1  0  0  0  0
  4 23  1  0  0  0  0
  5  6  2  0  0  0  0
  5 24  1  0  0  0  0
  6  7  1  0  0  0  0
  6 18  1  0  0  0  0
  7  8  1  0  0  0  0
  7 25  1  0  0  0  0
  8  9  2  0  0  0  0
  8 10  1  0  0  0  0
 10 11  1  0  0  0  0
 10 26  1  0  0  0  0
 11 12  1  0  0  0  0
 11 13  1  0  0  0  0
 11 27  1  0  0  0  0
 12 28  1  0  0  0  0
 12 29  1  0  0  0  0
 12 30  1  0  0  0  0
 13 17  1  0  0  0  0
 13 14  1  0  0  0  0
 13 31  1  0  0  0  0
 14 15  1  0  0  0  0
 14 32  1  0  0  0  0
 14 33  1  0  0  0  0
 15 16  1  0  0  0  0
 15 34  1  0  0  0  0
 15 35  1  0  0  0  0
 16 17  1  0  0  0  0
 16 36  1  0  0  0  0
 16 37  1  0  0  0  0
 18 19  2  0  0  0  0
 18 38  1  0  0  0  0
M  END
> <s_m_source_file>
AV-unprocessed.smi

> <i_m_source_file_index>
1791

> <i_lp_mmshare_version>
43012

> <i_f3d_flags>
0

> <s_epik_input>
W0NIM11PYzFbY0hdW2NIXWMoW2NIXW4xKVtOSF1DKD1PKVtOSF1bQ0BIXShbQ0gzXSlbQ0BASF0yW0NIMl1bQ0gyXVtDSDJdTzI=

> <s_epik_cmdline>
J2VwaWtfcHl0aG9uJywgJy1waCcsICc3LjAnLCAnLXRuJywgJzgnLCAnLW1hJywgJzIwMCcsICctbWV0YWxfYmluZGluZycsICctaW1hZScsICc8aW5maWxlLm1hZT4nLCAnLW9tYWUnLCAnPG91dGZpbGUubWFlPic=

> <r_lp_tautomer_probability>
1

> <r_epik_Ionization_Penalty>
9.18737e-05

> <r_epik_Ionization_Penalty_Charging>
0

> <r_epik_Ionization_Penalty_Neutral>
9.18737e-05

> <r_epik_State_Penalty>
-0

> <r_epik_Charging_Adjusted_Penalty>
0

> <i_epik_Tot_Q>
0

> <i_epik_Tot_abs_Q>
0

> <r_epik_Metal_State_Penalty>
-0

> <b_epik_Metal_Only>
0

> <s_lp_Force_Field>
OPLS_2005

> <r_lp_Energy>
21.9226

> <b_lp_Chiralities_Consistent>
1

> <s_lp_Variant>
AV-unprocessed.smi:1791-3

> <Gold.Version>
5.8.1

> <Gold.Id.Protein>
6NUR|6NUR_protein|mol2

> <Gold.PLP.Fitness>
40.0955

> <Gold.PLP.PLP>
-29.6247

> <Gold.PLP.part.hbond>
-2.9910

> <Gold.PLP.part.metal>
0.0000

> <Gold.PLP.part.buried>
-4.1947

> <Gold.PLP.part.nonpolar>
-23.5727

> <Gold.PLP.part.repulsive>
0.5989

> <Gold.PLP.ligand.clash>
0.0000

> <Gold.PLP.ligand.torsion>
0.3357

> <Gold.PLP.Chemscore.Hbond>
2.9920

> <Gold.PLP.Chemscore.CHOScore>
0.7142

> <Gold.PLP.Chemscore.Metal>
0.0000

> <Gold.Chemscore.Hbonds>
donor molecule, donor type, donor heavy atom, donor atom, acceptor molecule, acceptor atom, score
      L1  H     7    25       P1 10175  0.99
      L1  H    10    26       P1 10175  1.00
      P1  H  7989  7998       L1     2  1.00
      L1  C    18    38       P1  7948  0.71

> <Gold.PLP.Chemscore.Internal.Correction>
0.0235

> <Gold.Rescore>
     Score         DG    S(hbond)    S(metal)    S(lipo)     H(rot)  DE(clash)    DE(int)     intcor
     15.55     -17.07       2.29        0.00      65.97       1.47       0.03       1.50       ----

> <Gold.Chemscore.Fitness>
15.5473

> <Gold.Chemscore.DG>
-17.0730

> <Gold.Chemscore.ZeroCoef>
-5.4800

> <Gold.Chemscore.Hbond>
2.2862

> <Gold.Chemscore.Metal>
0.0000

> <Gold.Chemscore.Lipo>
65.9685

> <Gold.Chemscore.Internal_Hbond>
0.0000

> <Gold.Chemscore.DEClash>
0.0284

> <Gold.Chemscore.DEInternal>
1.4973

> <Gold.Chemscore.Rot>
1.4693

> <Gold.Chemscore.Internal.Correction>
   9.000000E+99

> <Gold.Chemscore.Hbonds>
donor molecule, donor type, donor heavy atom, donor atom, acceptor molecule, acceptor atom, score
      L1  H     7    25       P1 10175  0.93
      L1  H    10    26       P1 10175  0.99
      P1  H  7989  7998       L1     2  0.16

> <Gold.Chemscore.Hbond.Weighted>
-7.6360

> <Gold.Chemscore.Metal.Weighted>
-0.0000

> <Gold.Chemscore.Lipo.Weighted>
-7.7183

> <Gold.Chemscore.Internal_Hbond.Weighted>
0.0000

> <Gold.Chemscore.DEClash.Weighted>
0.0284

> <Gold.Chemscore.DEInternal.Weighted>
1.4973

> <Gold.Chemscore.Rot.Weighted>
3.7613

> <Gold.Chemscore.Internal.Correction.Weighted>
   9.000000E+99

> <Gold.Protein.RotatedTorsions>
[ 6907 6896 6895 6894 ] final -156.83 input  -60.11 | X-H torsion
[ 7974 7965 7964 7962 ] final   87.68 input  175.53 | X-H torsion
[ 8008 7997 7996 7995 ] final   65.96 input   59.86 | X-H torsion
[ 10167 10162 10161 10158 ] final   10.24 input  -65.29 | X-H torsion
[ 10718 10713 10712 10709 ] final  -80.09 input   66.30 | X-H torsion
[ 10763 10752 10751 10750 ] final -102.75 input  -60.55 | X-H torsion
[ 11005 11000 10999 10996 ] final   31.90 input  -57.11 | X-H torsion

> <Gold.Protein.ActiveResidues>
 VAL166  LYS551  ARG553  GLY616  TRP617  ASP618  TYR619  PRO620  LYS621  CYS622 
 ASP623  PHE694  ASN695  SER759  ASP760  ASP761  ALA762  ILE779  LEU786  VAL792 
 PHE793  MET794  SER795  GLU796  ALA797  LYS798  CYS799  TRP800  GLU811  SER814 

> <Gold.Protein.RotatedAtoms>
  151.2936  133.4154  159.2634 H   0  0  0  0  0  0  0  0  0  0  0  0  # atno 6907 bound_to 6896
  151.0256  134.9502  159.8093 H   0  0  0  0  0  0  0  0  0  0  0  0  # atno 6908 bound_to 6896
  152.5334  134.2898  159.9091 H   0  0  0  0  0  0  0  0  0  0  0  0  # atno 6909 bound_to 6896
  145.5558  139.2299  143.2487 H   0  0  0  0  0  0  0  0  0  0  0  0  # atno 7974 bound_to 7965
  155.6699  140.3497  155.4814 H   0  0  0  0  0  0  0  0  0  0  0  0  # atno 8008 bound_to 7997
  155.9697  140.1153  157.0846 H   0  0  0  0  0  0  0  0  0  0  0  0  # atno 8009 bound_to 7997
  154.4163  140.1159  156.5276 H   0  0  0  0  0  0  0  0  0  0  0  0  # atno 8010 bound_to 7997
  140.6206  143.8212  150.7171 H   0  0  0  0  0  0  0  0  0  0  0  0  # atno 10167 bound_to 10162
  156.0078  130.4564  150.3747 H   0  0  0  0  0  0  0  0  0  0  0  0  # atno 10718 bound_to 10713
  154.7757  135.4849  153.9738 H   0  0  0  0  0  0  0  0  0  0  0  0  # atno 10763 bound_to 10752
  153.1425  135.6775  153.9012 H   0  0  0  0  0  0  0  0  0  0  0  0  # atno 10764 bound_to 10752
  153.8682  135.3147  155.3419 H   0  0  0  0  0  0  0  0  0  0  0  0  # atno 10765 bound_to 10752
  140.2791  134.2993  155.7805 H   0  0  0  0  0  0  0  0  0  0  0  0  # atno 11005 bound_to 11000
  146.1885  140.6382  142.9156 LP  0  0  0  0  0  0  0  0  0  0  0  0  # atno 17320 bound_to 7965
  144.7507  140.5183  143.6804 LP  0  0  0  0  0  0  0  0  0  0  0  0  # atno 17321 bound_to 7965
  140.1802  143.4121  152.1939 LP  0  0  0  0  0  0  0  0  0  0  0  0  # atno 17342 bound_to 10162
  139.5435  144.7278  151.4656 LP  0  0  0  0  0  0  0  0  0  0  0  0  # atno 17343 bound_to 10162
  157.1830  131.0397  151.2739 LP  0  0  0  0  0  0  0  0  0  0  0  0  # atno 17370 bound_to 10713
  157.4129  130.7395  149.6853 LP  0  0  0  0  0  0  0  0  0  0  0  0  # atno 17371 bound_to 10713
  141.2165  133.7514  156.9453 LP  0  0  0  0  0  0  0  0  0  0  0  0  # atno 17394 bound_to 11000
  140.1300  134.9362  157.2324 LP  0  0  0  0  0  0  0  0  0  0  0  0  # atno 17395 bound_to 11000

$$$$
