#       Name:                AV-unprocessed.smi:1240
#       Creating user name   scv26
#       Creation time:       Fri Mar 27 04:28:21 2020


#       File generated by GOLD software.
#

@<TRIPOS>MOLECULE
AV-unprocessed.smi:1240
    55    57     1
SMALL
NO_CHARGES


@<TRIPOS>ATOM
      1 ****        -1.4627   0.7792   1.8385 O.2            1 S1                 0.0000
      2 ****        -1.7490   1.2174   0.7245 C.2            1 S1                 0.0000
      3 ****        -1.6430   0.4959  -0.4004 N.am           1 S1                 0.0000
      4 ****        -1.1684  -0.8838  -0.4695 C.3            1 S1                 0.0000
      5 ****         0.3744  -1.0238  -0.2728 C.3            1 S1                 0.0000
      6 ****         1.1056  -0.0698  -1.2790 C.3            1 S1                 0.0000
      7 ****         2.6212  -0.0912  -1.3817 C.3            1 S1                 0.0000
      8 ****         2.8485   0.7243  -2.6484 C.3            1 S1                 0.0000
      9 ****         1.7693   0.3743  -3.5081 O.3            1 S1                 0.0000
     10 ****         0.7297  -0.2473  -2.7555 C.3            1 S1                 0.0000
     11 ****         0.8884  -2.4172  -0.2913 N.3            1 S1                 0.0000
     12 ****         2.0473  -2.5813   0.5966 C.3            1 S1                 0.0000
     13 ****         2.6548  -3.9906   0.5067 C.3            1 S1                 0.0000
     14 ****         1.6634  -4.9514   0.8488 O.3            1 S1                 0.0000
     15 ****         0.5132  -4.8653   0.0164 C.3            1 S1                 0.0000
     16 ****        -0.0826  -3.4477   0.0905 C.3            1 S1                 0.0000
     17 ****        -2.1795   2.4635   0.4620 N.am           1 S1                 0.0000
     18 ****        -2.3970   3.5382   1.3665 C.ar           1 S1                 0.0000
     19 ****        -2.4324   4.8442   0.8356 C.ar           1 S1                 0.0000
     20 ****        -2.6599   5.9267   1.7086 C.ar           1 S1                 0.0000
     21 ****        -2.8566   5.7802   3.0355 N.ar           1 S1                 0.0000
     22 ****        -2.8369   4.5284   3.5401 C.ar           1 S1                 0.0000
     23 ****        -2.6175   3.3783   2.7559 C.ar           1 S1                 0.0000
     24 ****        -1.8971   0.9335  -1.2740 H              1 S1                 0.0000
     25 ****        -1.7151  -1.4456   0.2889 H              1 S1                 0.0000
     26 ****        -1.4720  -1.2958  -1.4320 H              1 S1                 0.0000
     27 ****         0.5708  -0.6281   0.7247 H              1 S1                 0.0000
     28 ****         0.8478   0.9539  -1.0032 H              1 S1                 0.0000
     29 ****         3.1244   0.3271  -0.5096 H              1 S1                 0.0000
     30 ****         2.9947  -1.0989  -1.5630 H              1 S1                 0.0000
     31 ****         2.7946   1.7918  -2.4316 H              1 S1                 0.0000
     32 ****         3.8133   0.5193  -3.1129 H              1 S1                 0.0000
     33 ****         0.6932  -1.3044  -3.0221 H              1 S1                 0.0000
     34 ****        -0.2365   0.1956  -2.9981 H              1 S1                 0.0000
     35 ****         2.8258  -1.8524   0.3965 H              1 S1                 0.0000
     36 ****         1.7419  -2.3989   1.6283 H              1 S1                 0.0000
     37 ****         3.0367  -4.1852  -0.4966 H              1 S1                 0.0000
     38 ****         3.4944  -4.0867   1.1953 H              1 S1                 0.0000
     39 ****         0.7817  -5.1161  -1.0110 H              1 S1                 0.0000
     40 ****        -0.2195  -5.6025   0.3446 H              1 S1                 0.0000
     41 ****        -0.4506  -3.2604   1.1006 H              1 S1                 0.0000
     42 ****        -0.9444  -3.4231  -0.5759 H              1 S1                 0.0000
     43 ****        -2.3042   2.6905  -0.5134 H              1 S1                 0.0000
     44 ****        -2.2822   5.0194  -0.2197 H              1 S1                 0.0000
     45 ****        -2.6860   6.9377   1.3295 H              1 S1                 0.0000
     46 ****        -3.0084   4.4388   4.6026 H              1 S1                 0.0000
     47 ****        -2.6351   2.4095   3.2305 H              1 S1                 0.0000
     48 ****        -1.1319  -0.1594   1.9368 LP             1 S1                 0.0000
     49 ****        -1.5608   1.3618   2.6454 LP             1 S1                 0.0000
     50 ****         2.0961  -0.2601  -4.2086 LP             1 S1                 0.0000
     51 ****         1.4133   1.1998  -3.9459 LP             1 S1                 0.0000
     52 ****         1.1288  -2.5528  -1.2524 LP             1 S1                 0.0000
     53 ****         1.3850  -4.8014   1.7975 LP             1 S1                 0.0000
     54 ****         2.0578  -5.8658   0.7578 LP             1 S1                 0.0000
     55 ****        -3.0118   6.5726   3.6254 LP             1 S1                 0.0000
@<TRIPOS>BOND
    1    1    2 2     
    2    2    3 am    
    3    2   17 am    
    4    3    4 1     
    5    3   24 1     
    6    4    5 1     
    7    4   25 1     
    8    4   26 1     
    9    5    6 1     
   10    5   11 1     
   11    5   27 1     
   12    6   10 1     
   13    6    7 1     
   14    6   28 1     
   15    7    8 1     
   16    7   29 1     
   17    7   30 1     
   18    8    9 1     
   19    8   31 1     
   20    8   32 1     
   21    9   10 1     
   22   10   33 1     
   23   10   34 1     
   24   11   16 1     
   25   11   12 1     
   26   12   13 1     
   27   12   35 1     
   28   12   36 1     
   29   13   14 1     
   30   13   37 1     
   31   13   38 1     
   32   14   15 1     
   33   15   16 1     
   34   15   39 1     
   35   15   40 1     
   36   16   41 1     
   37   16   42 1     
   38   17   18 1     
   39   17   43 1     
   40   18   23 ar    
   41   18   19 ar    
   42   19   20 ar    
   43   19   44 1     
   44   20   21 ar    
   45   20   45 1     
   46   21   22 ar    
   47   22   23 ar    
   48   22   46 1     
   49   23   47 1     
   50    1   48 1     
   51    1   49 1     
   52    9   50 1     
   53    9   51 1     
   54   11   52 1     
   55   14   53 1     
   56   14   54 1     
   57   21   55 1     
@<TRIPOS>SUBSTRUCTURE
      1 S1             1
@<TRIPOS>SET
LONE_PAIRS      STATIC     ATOMS    <user>   **** ""
8 48 49 50 51 52 53 54 55
DONOR_HYDROGENS      STATIC     ATOMS    <user>   **** ""
2 24 43
ATOM$BLUE        STATIC     ATOMS    COLORGROUP SYSTEM
8 48 49 50 51 52 53 54 55
ATOM$RED        STATIC     ATOMS    COLORGROUP SYSTEM
2 24 43
