AV-unprocessed.smi:2507|AV-procd|sdf|9863|dock7
  -GOLD-   2272013493D 1   1.00000     0.00000
 Structure written by MMmdl.
 44 45  0  0  0  0  0  0  0  0  1 V2000
  143.6619  132.6733  148.9159 C   0  0  0  0  0  0  0  0  0  0  0  0
  144.0624  133.3916  150.2095 C   0  0  0  0  0  0  0  0  0  0  0  0
  145.0718  132.6069  151.0022 C   0  0  0  0  0  0  0  0  0  0  0  0
  145.0226  131.2814  151.0065 N   0  0  0  0  0  0  0  0  0  0  0  0
  146.0503  130.8895  151.7966 N   0  0  0  0  0  0  0  0  0  0  0  0
  146.2780  129.4772  152.0147 C   0  0  0  0  0  0  0  0  0  0  0  0
  146.7600  131.9598  152.3009 C   0  0  0  0  0  0  0  0  0  0  0  0
  146.1486  133.0758  151.8033 C   0  0  0  0  0  0  0  0  0  0  0  0
  146.4751  134.4412  152.0089 N   0  0  0  0  0  0  0  0  0  0  0  0
  145.6270  135.4598  152.2254 C   0  0  0  0  0  0  0  0  0  0  0  0
  144.4026  135.3582  152.3066 O   0  0  0  0  0  0  0  0  0  0  0  0
  146.2815  136.6223  152.3444 N   0  0  0  0  0  0  0  0  0  0  0  0
  145.6380  137.9078  152.5789 C   0  0  0  0  0  0  0  0  0  0  0  0
  146.6240  139.0598  152.3355 C   0  0  0  0  0  0  0  0  0  0  0  0
  147.2273  139.6134  153.6365 C   0  0  2  0  0  0  0  0  0  0  0  0
  147.3970  141.1446  153.5891 C   0  0  0  0  0  0  0  0  0  0  0  0
  148.0718  141.6520  154.8687 C   0  0  0  0  0  0  0  0  0  0  0  0
  149.3755  140.8827  155.1059 C   0  0  0  0  0  0  0  0  0  0  0  0
  149.1171  139.3681  155.0687 C   0  0  0  0  0  0  0  0  0  0  0  0
  148.5048  139.0100  153.8337 O   0  0  0  0  0  0  0  0  0  0  0  0
  142.9366  133.2617  148.3539 H   0  0  0  0  0  0  0  0  0  0  0  0
  143.2101  131.7036  149.1275 H   0  0  0  0  0  0  0  0  0  0  0  0
  144.5274  132.5080  148.2734 H   0  0  0  0  0  0  0  0  0  0  0  0
  144.4623  134.3760  149.9653 H   0  0  0  0  0  0  0  0  0  0  0  0
  143.1724  133.5715  150.8136 H   0  0  0  0  0  0  0  0  0  0  0  0
  147.1776  129.3316  152.6133 H   0  0  0  0  0  0  0  0  0  0  0  0
  146.4044  128.9701  151.0576 H   0  0  0  0  0  0  0  0  0  0  0  0
  145.4270  129.0442  152.5414 H   0  0  0  0  0  0  0  0  0  0  0  0
  147.6123  131.8276  152.9508 H   0  0  0  0  0  0  0  0  0  0  0  0
  147.4581  134.6679  151.9722 H   0  0  0  0  0  0  0  0  0  0  0  0
  147.2880  136.6186  152.2675 H   0  0  0  0  0  0  0  0  0  0  0  0
  144.7757  138.0114  151.9181 H   0  0  0  0  0  0  0  0  0  0  0  0
  145.2652  137.9368  153.6038 H   0  0  0  0  0  0  0  0  0  0  0  0
  147.4254  138.7283  151.6736 H   0  0  0  0  0  0  0  0  0  0  0  0
  146.1053  139.8636  151.8113 H   0  0  0  0  0  0  0  0  0  0  0  0
  146.5721  139.3492  154.4687 H   0  0  0  0  0  0  0  0  0  0  0  0
  148.0008  141.4219  152.7241 H   0  0  0  0  0  0  0  0  0  0  0  0
  146.4286  141.6297  153.4627 H   0  0  0  0  0  0  0  0  0  0  0  0
  148.2681  142.7221  154.7975 H   0  0  0  0  0  0  0  0  0  0  0  0
  147.4020  141.5108  155.7179 H   0  0  0  0  0  0  0  0  0  0  0  0
  150.1019  141.1469  154.3366 H   0  0  0  0  0  0  0  0  0  0  0  0
  149.8140  141.1679  156.0625 H   0  0  0  0  0  0  0  0  0  0  0  0
  150.0575  138.8253  155.1650 H   0  0  0  0  0  0  0  0  0  0  0  0
  148.4850  139.0593  155.9025 H   0  0  0  0  0  0  0  0  0  0  0  0
  1  2  1  0  0  0  0
  1 21  1  0  0  0  0
  1 22  1  0  0  0  0
  1 23  1  0  0  0  0
  2  3  1  0  0  0  0
  2 24  1  0  0  0  0
  2 25  1  0  0  0  0
  3  8  1  0  0  0  0
  3  4  2  0  0  0  0
  4  5  1  0  0  0  0
  5  6  1  0  0  0  0
  5  7  1  0  0  0  0
  6 26  1  0  0  0  0
  6 27  1  0  0  0  0
  6 28  1  0  0  0  0
  7  8  2  0  0  0  0
  7 29  1  0  0  0  0
  8  9  1  0  0  0  0
  9 10  1  0  0  0  0
  9 30  1  0  0  0  0
 10 11  2  0  0  0  0
 10 12  1  0  0  0  0
 12 13  1  0  0  0  0
 12 31  1  0  0  0  0
 13 14  1  0  0  0  0
 13 32  1  0  0  0  0
 13 33  1  0  0  0  0
 14 15  1  0  0  0  0
 14 34  1  0  0  0  0
 14 35  1  0  0  0  0
 15 20  1  0  0  0  0
 15 16  1  0  0  0  0
 15 36  1  0  0  0  0
 16 17  1  0  0  0  0
 16 37  1  0  0  0  0
 16 38  1  0  0  0  0
 17 18  1  0  0  0  0
 17 39  1  0  0  0  0
 17 40  1  0  0  0  0
 18 19  1  0  0  0  0
 18 41  1  0  0  0  0
 18 42  1  0  0  0  0
 19 20  1  0  0  0  0
 19 43  1  0  0  0  0
 19 44  1  0  0  0  0
M  END
> <s_m_source_file>
AV-unprocessed.smi

> <i_m_source_file_index>
2507

> <i_lp_mmshare_version>
43012

> <i_f3d_flags>
0

> <s_epik_input>
W0NIM11bQ0gyXWMxbm4oW0NIM10pW2NIXWMxW05IXUMoPU8pW05IXVtDSDJdW0NIMl1bQ0BASF0yW0NIMl1bQ0gyXVtDSDJdW0NIMl1PMg==

> <s_epik_cmdline>
J2VwaWtfcHl0aG9uJywgJy1waCcsICc3LjAnLCAnLXRuJywgJzgnLCAnLW1hJywgJzIwMCcsICctbWV0YWxfYmluZGluZycsICctaW1hZScsICc8aW5maWxlLm1hZT4nLCAnLW9tYWUnLCAnPG91dGZpbGUubWFlPic=

> <r_lp_tautomer_probability>
1

> <r_epik_Ionization_Penalty>
0.00072031

> <r_epik_Ionization_Penalty_Charging>
0

> <r_epik_Ionization_Penalty_Neutral>
0.00072031

> <r_epik_State_Penalty>
-0

> <r_epik_Charging_Adjusted_Penalty>
0

> <i_epik_Tot_Q>
0

> <i_epik_Tot_abs_Q>
0

> <r_epik_Metal_State_Penalty>
-0

> <b_epik_Metal_Only>
0

> <s_lp_Force_Field>
OPLS_2005

> <r_lp_Energy>
7.60695

> <b_lp_Chiralities_Consistent>
1

> <s_lp_Variant>
AV-unprocessed.smi:2507-1

> <Gold.Version>
5.8.1

> <Gold.Id.Protein>
6NUR|6NUR_protein|mol2

> <Gold.PLP.Fitness>
40.9484

> <Gold.PLP.PLP>
-38.3669

> <Gold.PLP.part.hbond>
-2.0000

> <Gold.PLP.part.metal>
0.0000

> <Gold.PLP.part.buried>
-2.6807

> <Gold.PLP.part.nonpolar>
-34.4589

> <Gold.PLP.part.repulsive>
1.7999

> <Gold.PLP.ligand.clash>
0.0000

> <Gold.PLP.ligand.torsion>
1.5621

> <Gold.PLP.Chemscore.Hbond>
1.8882

> <Gold.PLP.Chemscore.CHOScore>
0.0000

> <Gold.PLP.Chemscore.Metal>
0.0000

> <Gold.Chemscore.Hbonds>
donor molecule, donor type, donor heavy atom, donor atom, acceptor molecule, acceptor atom, score
      L1  H     9    30       P1  7948  0.75
      L1  H    12    31       P1  7948  1.00

> <Gold.PLP.Chemscore.Internal.Correction>
0.0412

> <Gold.Rescore>
     Score         DG    S(hbond)    S(metal)    S(lipo)     H(rot)  DE(clash)    DE(int)     intcor
     16.48     -18.25       1.69        0.00      93.83       1.50       0.21       1.56       ----

> <Gold.Chemscore.Fitness>
16.4816

> <Gold.Chemscore.DG>
-18.2534

> <Gold.Chemscore.ZeroCoef>
-5.4800

> <Gold.Chemscore.Hbond>
1.6904

> <Gold.Chemscore.Metal>
0.0000

> <Gold.Chemscore.Lipo>
93.8303

> <Gold.Chemscore.Internal_Hbond>
0.0000

> <Gold.Chemscore.DEClash>
0.2083

> <Gold.Chemscore.DEInternal>
1.5634

> <Gold.Chemscore.Rot>
1.5042

> <Gold.Chemscore.Internal.Correction>
   9.000000E+99

> <Gold.Chemscore.Hbonds>
donor molecule, donor type, donor heavy atom, donor atom, acceptor molecule, acceptor atom, score
      L1  H     9    30       P1  7948  0.50
      L1  H    12    31       P1  7948  1.00

> <Gold.Chemscore.Hbond.Weighted>
-5.6459

> <Gold.Chemscore.Metal.Weighted>
-0.0000

> <Gold.Chemscore.Lipo.Weighted>
-10.9781

> <Gold.Chemscore.Internal_Hbond.Weighted>
0.0000

> <Gold.Chemscore.DEClash.Weighted>
0.2083

> <Gold.Chemscore.DEInternal.Weighted>
1.5634

> <Gold.Chemscore.Rot.Weighted>
3.8507

> <Gold.Chemscore.Internal.Correction.Weighted>
   9.000000E+99

> <Gold.Protein.RotatedTorsions>
[ 6907 6896 6895 6894 ] final -128.93 input  -60.11 | X-H torsion
[ 7974 7965 7964 7962 ] final  -80.00 input  175.53 | X-H torsion
[ 8008 7997 7996 7995 ] final -164.32 input   59.86 | X-H torsion
[ 10167 10162 10161 10158 ] final   11.64 input  -65.29 | X-H torsion
[ 10718 10713 10712 10709 ] final  100.78 input   66.30 | X-H torsion
[ 10763 10752 10751 10750 ] final  -88.82 input  -60.55 | X-H torsion
[ 11005 11000 10999 10996 ] final  154.39 input  -57.11 | X-H torsion

> <Gold.Protein.ActiveResidues>
 VAL166  LYS551  ARG553  GLY616  TRP617  ASP618  TYR619  PRO620  LYS621  CYS622 
 ASP623  PHE694  ASN695  SER759  ASP760  ASP761  ALA762  ILE779  LEU786  VAL792 
 PHE793  MET794  SER795  GLU796  ALA797  LYS798  CYS799  TRP800  GLU811  SER814 

> <Gold.Protein.RotatedAtoms>
  150.9232  133.6855  159.2827 H   0  0  0  0  0  0  0  0  0  0  0  0  # atno 6907 bound_to 6896
  151.4302  135.1007  159.9650 H   0  0  0  0  0  0  0  0  0  0  0  0  # atno 6908 bound_to 6896
  152.4990  133.8664  159.7331 H   0  0  0  0  0  0  0  0  0  0  0  0  # atno 6909 bound_to 6896
  145.5658  140.9474  143.1423 H   0  0  0  0  0  0  0  0  0  0  0  0  # atno 7974 bound_to 7965
  155.8339  140.0938  157.1776 H   0  0  0  0  0  0  0  0  0  0  0  0  # atno 8008 bound_to 7997
  154.3980  140.1414  156.3708 H   0  0  0  0  0  0  0  0  0  0  0  0  # atno 8009 bound_to 7997
  155.8136  140.3449  155.5475 H   0  0  0  0  0  0  0  0  0  0  0  0  # atno 8010 bound_to 7997
  140.6119  143.8389  150.7075 H   0  0  0  0  0  0  0  0  0  0  0  0  # atno 10167 bound_to 10162
  157.6846  131.0708  150.5152 H   0  0  0  0  0  0  0  0  0  0  0  0  # atno 10718 bound_to 10713
  154.6487  135.5363  153.7875 H   0  0  0  0  0  0  0  0  0  0  0  0  # atno 10763 bound_to 10752
  153.0373  135.6477  154.1050 H   0  0  0  0  0  0  0  0  0  0  0  0  # atno 10764 bound_to 10752
  154.0969  135.2936  155.3240 H   0  0  0  0  0  0  0  0  0  0  0  0  # atno 10765 bound_to 10752
  140.1485  134.8691  157.2424 H   0  0  0  0  0  0  0  0  0  0  0  0  # atno 11005 bound_to 11000
  144.7461  139.7316  143.7291 LP  0  0  0  0  0  0  0  0  0  0  0  0  # atno 17320 bound_to 7965
  146.1819  139.5016  142.9861 LP  0  0  0  0  0  0  0  0  0  0  0  0  # atno 17321 bound_to 7965
  140.1960  143.3998  152.1828 LP  0  0  0  0  0  0  0  0  0  0  0  0  # atno 17342 bound_to 10162
  139.5368  144.7217  151.4867 LP  0  0  0  0  0  0  0  0  0  0  0  0  # atno 17343 bound_to 10162
  156.5467  130.4221  149.6127 LP  0  0  0  0  0  0  0  0  0  0  0  0  # atno 17370 bound_to 10713
  156.2938  130.7139  151.1994 LP  0  0  0  0  0  0  0  0  0  0  0  0  # atno 17371 bound_to 10713
  140.2634  134.3545  155.7398 LP  0  0  0  0  0  0  0  0  0  0  0  0  # atno 17394 bound_to 11000
  141.2196  133.7382  156.9114 LP  0  0  0  0  0  0  0  0  0  0  0  0  # atno 17395 bound_to 11000

$$$$
