#       Name:                AV-unprocessed.smi:1534
#       Creating user name   scv26
#       Creation time:       Fri Mar 27 06:31:46 2020


#       File generated by GOLD software.
#

@<TRIPOS>MOLECULE
AV-unprocessed.smi:1534
    39    40     1
SMALL
NO_CHARGES


@<TRIPOS>ATOM
      1 ****        -0.4318   2.4055  -0.9771 O.2            1 S1                 0.0000
      2 ****        -0.8980   1.2724  -0.8756 C.2            1 S1                 0.0000
      3 ****        -0.1388   0.1706  -0.7481 N.am           1 S1                 0.0000
      4 ****         1.3186   0.1609  -0.7064 C.3            1 S1                 0.0000
      5 ****         1.8484   0.5780   0.6761 C.3            1 S1                 0.0000
      6 ****         3.3634   0.5823   0.7326 C.ar           1 S1                 0.0000
      7 ****         4.1162   1.7654   0.5681 C.ar           1 S1                 0.0000
      8 ****         5.5241   1.6999   0.6249 C.ar           1 S1                 0.0000
      9 ****         6.1488   0.4544   0.8436 C.ar           1 S1                 0.0000
     10 ****         5.3483  -0.6958   0.9990 C.ar           1 S1                 0.0000
     11 ****         4.0023  -0.5924   0.9374 N.pl3          1 S1                 1.0000
     12 ****        -2.2240   1.0481  -0.8719 N.am           1 S1                 0.0000
     13 ****        -3.3068   2.0253  -0.9911 C.3            1 S1                 0.0000
     14 ****        -4.6413   1.4285  -0.5069 C.3            1 S1                 0.0000
     15 ****        -5.7884   2.3339  -0.9741 C.3            1 S1                 0.0000
     16 ****        -5.2214   3.1162  -2.5323 S.o2           1 S1                 0.0000
     17 ****        -5.9025   2.4944  -3.6778 O.2            1 S1                 0.0000
     18 ****        -5.2146   4.5763  -2.3552 O.2            1 S1                 0.0000
     19 ****        -3.5035   2.4891  -2.4437 C.3            1 S1                 0.0000
     20 ****        -0.6050  -0.7218  -0.6716 H              1 S1                 0.0000
     21 ****         1.6577  -0.8464  -0.9498 H              1 S1                 0.0000
     22 ****         1.7152   0.8185  -1.4821 H              1 S1                 0.0000
     23 ****         1.4860   1.5733   0.9371 H              1 S1                 0.0000
     24 ****         1.4659  -0.0978   1.4425 H              1 S1                 0.0000
     25 ****         3.6229   2.7116   0.3979 H              1 S1                 0.0000
     26 ****         6.1173   2.5941   0.5009 H              1 S1                 0.0000
     27 ****         7.2258   0.3826   0.8902 H              1 S1                 0.0000
     28 ****         5.7408  -1.6876   1.1693 H              1 S1                 0.0000
     29 ****        -2.5140   0.0878  -0.7538 H              1 S1                 0.0000
     30 ****        -3.0926   2.8954  -0.3678 H              1 S1                 0.0000
     31 ****        -4.7757   0.4417  -0.9526 H              1 S1                 0.0000
     32 ****        -4.6564   1.2922   0.5750 H              1 S1                 0.0000
     33 ****        -6.7174   1.7889  -1.1418 H              1 S1                 0.0000
     34 ****        -5.9766   3.1262  -0.2491 H              1 S1                 0.0000
     35 ****        -2.8056   3.2686  -2.7492 H              1 S1                 0.0000
     36 ****        -3.4189   1.6535  -3.1394 H              1 S1                 0.0000
     37 ****         3.4429  -1.4381   1.0518 H              1 S1                 0.0000
     38 ****         0.5589   2.5413  -0.9670 LP             1 S1                 0.0000
     39 ****        -1.0433   3.1913  -1.0697 LP             1 S1                 0.0000
@<TRIPOS>BOND
    1    1    2 2     
    2    2    3 am    
    3    2   12 am    
    4    3    4 1     
    5    3   20 1     
    6    4    5 1     
    7    4   21 1     
    8    4   22 1     
    9    5    6 1     
   10    5   23 1     
   11    5   24 1     
   12    6   11 ar    
   13    6    7 ar    
   14    7    8 ar    
   15    7   25 1     
   16    8    9 ar    
   17    8   26 1     
   18    9   10 ar    
   19    9   27 1     
   20   10   11 ar    
   21   10   28 1     
   22   11   37 1     
   23   12   13 1     
   24   12   29 1     
   25   13   19 1     
   26   13   14 1     
   27   13   30 1     
   28   14   15 1     
   29   14   31 1     
   30   14   32 1     
   31   15   16 1     
   32   15   33 1     
   33   15   34 1     
   34   16   17 2     
   35   16   18 2     
   36   16   19 1     
   37   19   35 1     
   38   19   36 1     
   39    1   38 1     
   40    1   39 1     
@<TRIPOS>SUBSTRUCTURE
      1 S1             1
@<TRIPOS>SET
LONE_PAIRS      STATIC     ATOMS    <user>   **** ""
4 38 39 17 18
DONOR_HYDROGENS      STATIC     ATOMS    <user>   **** ""
3 20 37 29
ATOM$BLUE        STATIC     ATOMS    COLORGROUP SYSTEM
4 38 39 17 18
ATOM$RED        STATIC     ATOMS    COLORGROUP SYSTEM
3 20 37 29
