AV-unprocessed.smi:2100|AV-procd|sdf|8578|dock7
  -GOLD-   2272011313D 1   1.00000     0.00000
 Structure written by MMmdl.
 40 41  0  0  0  0  0  0  0  0  2 V2000
  148.8972  141.1444  154.5061 C   0  0  0  0  0  0  0  0  0  0  0  0
  148.7614  139.7271  153.9212 C   0  0  1  0  0  0  0  0  0  0  0  0
  150.1031  138.9783  153.8339 C   0  0  0  0  0  0  0  0  0  0  0  0
  150.5453  138.5088  155.1610 N   0  0  0  0  0  0  0  0  0  0  0  0
  152.1876  137.9696  155.3218 S   0  0  0  0  0  0  0  0  0  0  0  0
  152.1389  136.6414  155.9543 O   0  0  0  0  0  0  0  0  0  0  0  0
  152.7748  138.0703  153.9754 O   0  0  0  0  0  0  0  0  0  0  0  0
  152.6719  139.1281  156.3445 N   0  5  0  0  0  0  0  0  0  0  0  0
  151.7009  140.0674  156.8785 C   0  0  0  0  0  0  0  0  0  0  0  0
  152.0555  140.4197  158.3418 C   0  0  0  0  0  0  0  0  0  0  0  0
  151.8550  141.8857  158.7219 C   0  0  0  0  0  0  0  0  0  0  0  0
  152.2125  142.3507  160.0086 C   0  0  0  0  0  0  0  0  0  0  0  0
  152.0098  143.7088  160.3173 C   0  0  0  0  0  0  0  0  0  0  0  0
  151.4693  144.5550  159.3305 C   0  0  0  0  0  0  0  0  0  0  0  0
  151.1542  144.0016  158.0735 C   0  0  0  0  0  0  0  0  0  0  0  0
  151.3432  142.7003  157.7668 N   0  0  0  0  0  0  0  0  0  0  0  0
  149.5053  137.7482  155.8683 C   0  0  0  0  0  0  0  0  0  0  0  0
  148.1889  138.5440  155.9254 C   0  0  2  0  0  0  0  0  0  0  0  0
  147.0484  137.7166  156.5282 C   0  0  0  0  0  0  0  0  0  0  0  0
  147.7959  138.9415  154.6163 O   0  0  0  0  0  0  0  0  0  0  0  0
  149.5322  141.7634  153.8716 H   0  0  0  0  0  0  0  0  0  0  0  0
  149.3457  141.1399  155.4992 H   0  0  0  0  0  0  0  0  0  0  0  0
  147.9250  141.6320  154.5774 H   0  0  0  0  0  0  0  0  0  0  0  0
  148.3806  139.8421  152.9059 H   0  0  0  0  0  0  0  0  0  0  0  0
  149.9994  138.1121  153.1795 H   0  0  0  0  0  0  0  0  0  0  0  0
  150.8561  139.6205  153.3779 H   0  0  0  0  0  0  0  0  0  0  0  0
  151.6803  140.9847  156.2897 H   0  0  0  0  0  0  0  0  0  0  0  0
  150.6854  139.6712  156.8460 H   0  0  0  0  0  0  0  0  0  0  0  0
  151.4764  139.7948  159.0234 H   0  0  0  0  0  0  0  0  0  0  0  0
  153.0994  140.1609  158.5237 H   0  0  0  0  0  0  0  0  0  0  0  0
  152.6176  141.6745  160.7473 H   0  0  0  0  0  0  0  0  0  0  0  0
  152.2632  144.0938  161.2939 H   0  0  0  0  0  0  0  0  0  0  0  0
  151.2997  145.6022  159.5321 H   0  0  0  0  0  0  0  0  0  0  0  0
  150.7396  144.6215  157.2927 H   0  0  0  0  0  0  0  0  0  0  0  0
  149.3589  136.7952  155.3581 H   0  0  0  0  0  0  0  0  0  0  0  0
  149.8349  137.5226  156.8823 H   0  0  0  0  0  0  0  0  0  0  0  0
  148.3262  139.4269  156.5497 H   0  0  0  0  0  0  0  0  0  0  0  0
  147.2874  137.4016  157.5442 H   0  0  0  0  0  0  0  0  0  0  0  0
  146.8549  136.8217  155.9364 H   0  0  0  0  0  0  0  0  0  0  0  0
  146.1259  138.2960  156.5683 H   0  0  0  0  0  0  0  0  0  0  0  0
  1  2  1  0  0  0  0
  1 21  1  0  0  0  0
  1 22  1  0  0  0  0
  1 23  1  0  0  0  0
  2 20  1  0  0  0  0
  2  3  1  0  0  0  0
  2 24  1  0  0  0  0
  3  4  1  0  0  0  0
  3 25  1  0  0  0  0
  3 26  1  0  0  0  0
  4  5  1  0  0  0  0
  4 17  1  0  0  0  0
  5  6  2  0  0  0  0
  5  7  2  0  0  0  0
  5  8  1  0  0  0  0
  8  9  1  0  0  0  0
  9 10  1  0  0  0  0
  9 27  1  0  0  0  0
  9 28  1  0  0  0  0
 10 11  1  0  0  0  0
 10 29  1  0  0  0  0
 10 30  1  0  0  0  0
 11 16  1  0  0  0  0
 11 12  2  0  0  0  0
 12 13  1  0  0  0  0
 12 31  1  0  0  0  0
 13 14  2  0  0  0  0
 13 32  1  0  0  0  0
 14 15  1  0  0  0  0
 14 33  1  0  0  0  0
 15 16  2  0  0  0  0
 15 34  1  0  0  0  0
 17 18  1  0  0  0  0
 17 35  1  0  0  0  0
 17 36  1  0  0  0  0
 18 19  1  0  0  0  0
 18 20  1  0  0  0  0
 18 37  1  0  0  0  0
 19 38  1  0  0  0  0
 19 39  1  0  0  0  0
 19 40  1  0  0  0  0
M  CHG  1   8  -1
M  END
> <s_m_source_file>
AV-unprocessed.smi

> <i_m_source_file_index>
2100

> <i_lp_mmshare_version>
43012

> <i_f3d_flags>
0

> <s_epik_input>
W0NIM11bQ0BASF0xW0NIMl1OKFtDSDJdW0NASF0oTzEpW0NIM10pUyg9TykoPU8pW05IXVtDSDJdW0NIMl1jMltjSF1bY0hdW2NIXVtjSF1uMg==

> <s_epik_cmdline>
J2VwaWtfcHl0aG9uJywgJy1waCcsICc3LjAnLCAnLXRuJywgJzgnLCAnLW1hJywgJzIwMCcsICctbWV0YWxfYmluZGluZycsICctaW1hZScsICc8aW5maWxlLm1hZT4nLCAnLW9tYWUnLCAnPG91dGZpbGUubWFlPic=

> <r_epik_Ionization_Penalty>
1.27779

> <r_epik_Ionization_Penalty_Charging>
1.20871

> <r_epik_Ionization_Penalty_Neutral>
0.0690773

> <r_epik_State_Penalty>
1.64557

> <r_epik_Charging_Adjusted_Penalty>
2.85428

> <i_epik_Tot_Q>
-1

> <i_epik_Tot_abs_Q>
1

> <r_epik_Metal_State_Penalty>
0.643506

> <b_epik_Metal_Only>
0

> <s_lp_Force_Field>
OPLS_2005

> <r_lp_Energy>
10.0642

> <b_lp_Chiralities_Consistent>
1

> <s_lp_Variant>
AV-unprocessed.smi:2100-6

> <Gold.Version>
5.8.1

> <Gold.Id.Protein>
6NUR|6NUR_protein|mol2

> <Gold.PLP.Fitness>
46.0439

> <Gold.PLP.PLP>
-35.4762

> <Gold.PLP.part.hbond>
-3.0000

> <Gold.PLP.part.metal>
0.0000

> <Gold.PLP.part.buried>
-2.0761

> <Gold.PLP.part.nonpolar>
-30.6446

> <Gold.PLP.part.repulsive>
0.2433

> <Gold.PLP.ligand.clash>
0.0000

> <Gold.PLP.ligand.torsion>
1.4358

> <Gold.PLP.Chemscore.Hbond>
2.9672

> <Gold.PLP.Chemscore.CHOScore>
0.9966

> <Gold.PLP.Chemscore.Metal>
0.0000

> <Gold.Chemscore.Hbonds>
donor molecule, donor type, donor heavy atom, donor atom, acceptor molecule, acceptor atom, score
      P1  H  7997  8010       L1     8  2.00
      P1  H 10752 10764       L1     6  1.00
      L1  C    15    34       P1  8028  1.00

> <Gold.PLP.Chemscore.Internal.Correction>
1.5480

> <Gold.Rescore>
     Score         DG    S(hbond)    S(metal)    S(lipo)     H(rot)  DE(clash)    DE(int)     intcor
     14.99     -16.32       0.89        0.00      99.36       1.47       0.07       1.26       ----

> <Gold.Chemscore.Fitness>
14.9914

> <Gold.Chemscore.DG>
-16.3186

> <Gold.Chemscore.ZeroCoef>
-5.4800

> <Gold.Chemscore.Hbond>
0.8936

> <Gold.Chemscore.Metal>
0.0000

> <Gold.Chemscore.Lipo>
99.3602

> <Gold.Chemscore.Internal_Hbond>
0.0000

> <Gold.Chemscore.DEClash>
0.0657

> <Gold.Chemscore.DEInternal>
1.2615

> <Gold.Chemscore.Rot>
1.4731

> <Gold.Chemscore.Internal.Correction>
   9.000000E+99

> <Gold.Chemscore.Hbonds>
donor molecule, donor type, donor heavy atom, donor atom, acceptor molecule, acceptor atom, score
      P1  H  7997  8010       L1     8  0.53
      P1  H 10752 10764       L1     6  0.65

> <Gold.Chemscore.Hbond.Weighted>
-2.9846

> <Gold.Chemscore.Metal.Weighted>
-0.0000

> <Gold.Chemscore.Lipo.Weighted>
-11.6251

> <Gold.Chemscore.Internal_Hbond.Weighted>
0.0000

> <Gold.Chemscore.DEClash.Weighted>
0.0657

> <Gold.Chemscore.DEInternal.Weighted>
1.2615

> <Gold.Chemscore.Rot.Weighted>
3.7712

> <Gold.Chemscore.Internal.Correction.Weighted>
   9.000000E+99

> <Gold.Protein.RotatedTorsions>
[ 6907 6896 6895 6894 ] final   39.92 input  -60.11 | X-H torsion
[ 7974 7965 7964 7962 ] final -165.23 input  175.53 | X-H torsion
[ 8008 7997 7996 7995 ] final   89.44 input   59.86 | X-H torsion
[ 10167 10162 10161 10158 ] final  129.55 input  -65.29 | X-H torsion
[ 10718 10713 10712 10709 ] final  175.50 input   66.30 | X-H torsion
[ 10763 10752 10751 10750 ] final  -36.97 input  -60.55 | X-H torsion
[ 11005 11000 10999 10996 ] final  -39.56 input  -57.11 | X-H torsion

> <Gold.Protein.ActiveResidues>
 VAL166  LYS551  ARG553  GLY616  TRP617  ASP618  TYR619  PRO620  LYS621  CYS622 
 ASP623  PHE694  ASN695  SER759  ASP760  ASP761  ALA762  ILE779  LEU786  VAL792 
 PHE793  MET794  SER795  GLU796  ALA797  LYS798  CYS799  TRP800  GLU811  SER814 

> <Gold.Protein.RotatedAtoms>
  152.1758  134.8796  160.0530 H   0  0  0  0  0  0  0  0  0  0  0  0  # atno 6907 bound_to 6896
  151.9738  133.3730  159.4089 H   0  0  0  0  0  0  0  0  0  0  0  0  # atno 6908 bound_to 6896
  150.6909  134.4034  159.5173 H   0  0  0  0  0  0  0  0  0  0  0  0  # atno 6909 bound_to 6896
  144.7275  140.2844  143.6230 H   0  0  0  0  0  0  0  0  0  0  0  0  # atno 7974 bound_to 7965
  155.9999  140.3360  155.6836 H   0  0  0  0  0  0  0  0  0  0  0  0  # atno 8008 bound_to 7997
  155.6304  140.0684  157.2668 H   0  0  0  0  0  0  0  0  0  0  0  0  # atno 8009 bound_to 7997
  154.4246  140.1760  156.1454 H   0  0  0  0  0  0  0  0  0  0  0  0  # atno 8010 bound_to 7997
  139.5472  144.6783  151.4435 H   0  0  0  0  0  0  0  0  0  0  0  0  # atno 10167 bound_to 10162
  156.9339  130.9980  151.2982 H   0  0  0  0  0  0  0  0  0  0  0  0  # atno 10718 bound_to 10713
  153.8885  135.6814  153.4762 H   0  0  0  0  0  0  0  0  0  0  0  0  # atno 10763 bound_to 10752
  153.1194  135.4747  154.9168 H   0  0  0  0  0  0  0  0  0  0  0  0  # atno 10764 bound_to 10752
  154.7634  135.3217  154.8287 H   0  0  0  0  0  0  0  0  0  0  0  0  # atno 10765 bound_to 10752
  141.0111  133.6908  156.2203 H   0  0  0  0  0  0  0  0  0  0  0  0  # atno 11005 bound_to 11000
  145.7917  139.1930  143.2099 LP  0  0  0  0  0  0  0  0  0  0  0  0  # atno 17320 bound_to 7965
  146.0750  140.7827  142.9669 LP  0  0  0  0  0  0  0  0  0  0  0  0  # atno 17321 bound_to 7965
  140.6724  143.8264  150.7016 LP  0  0  0  0  0  0  0  0  0  0  0  0  # atno 17342 bound_to 10162
  140.1692  143.4209  152.2013 LP  0  0  0  0  0  0  0  0  0  0  0  0  # atno 17343 bound_to 10162
  157.5829  130.8389  149.8548 LP  0  0  0  0  0  0  0  0  0  0  0  0  # atno 17370 bound_to 10713
  156.0434  130.3733  150.1377 LP  0  0  0  0  0  0  0  0  0  0  0  0  # atno 17371 bound_to 10713
  140.6733  134.4845  157.5587 LP  0  0  0  0  0  0  0  0  0  0  0  0  # atno 17394 bound_to 11000
  139.9090  134.8386  156.1598 LP  0  0  0  0  0  0  0  0  0  0  0  0  # atno 17395 bound_to 11000

$$$$
