AV-unprocessed.smi:2732|AV-procd|sdf|10533|dock9
  -GOLD-   2272014583D 1   1.00000     0.00000
 Structure written by MMmdl.
 34 35  0  0  0  0  0  0  0  0  1 V2000
  150.4844  144.3790  158.6978 C   0  0  0  0  0  0  0  0  0  0  0  0
  151.6827  143.8055  157.9270 C   0  0  1  0  0  0  0  0  0  0  0  0
  152.7613  143.6716  158.8489 O   0  0  0  0  0  0  0  0  0  0  0  0
  152.4675  142.9280  160.0251 C   0  0  0  0  0  0  0  0  0  0  0  0
  153.7152  142.1889  160.4564 C   0  0  0  0  0  0  0  0  0  0  0  0
  153.7419  140.6773  160.4752 C   0  0  0  0  0  0  0  0  0  0  0  0
  153.7503  141.4453  161.7724 C   0  0  0  0  0  0  0  0  0  0  0  0
  151.3444  142.4424  157.3010 C   0  0  0  0  0  0  0  0  0  0  0  0
  151.8599  141.4226  157.7569 O   0  0  0  0  0  0  0  0  0  0  0  0
  150.4992  142.4792  156.2534 N   0  0  0  0  0  0  0  0  0  0  0  0
  149.9994  141.4183  155.4472 C   0  0  0  0  0  0  0  0  0  0  0  0
  150.6025  140.1435  155.3114 C   0  0  0  0  0  0  0  0  0  0  0  0
  149.9924  139.1867  154.4770 C   0  0  0  0  0  0  0  0  0  0  0  0
  148.8015  139.5339  153.8096 C   0  0  0  0  0  0  0  0  0  0  0  0
  148.1725  138.6126  152.9762 N   0  0  0  0  0  0  0  0  0  0  0  0
  148.2143  140.7419  153.9330 N   0  0  0  0  0  0  0  0  0  0  0  0
  148.8045  141.6543  154.7343 C   0  0  0  0  0  0  0  0  0  0  0  0
  149.6144  144.4926  158.0501 H   0  0  0  0  0  0  0  0  0  0  0  0
  150.7222  145.3623  159.1040 H   0  0  0  0  0  0  0  0  0  0  0  0
  150.1998  143.7388  159.5338 H   0  0  0  0  0  0  0  0  0  0  0  0
  151.9606  144.5171  157.1468 H   0  0  0  0  0  0  0  0  0  0  0  0
  152.1314  143.5737  160.8374 H   0  0  0  0  0  0  0  0  0  0  0  0
  151.6781  142.2024  159.8253 H   0  0  0  0  0  0  0  0  0  0  0  0
  154.6410  142.6747  160.1535 H   0  0  0  0  0  0  0  0  0  0  0  0
  152.8277  140.1491  160.2114 H   0  0  0  0  0  0  0  0  0  0  0  0
  154.6663  140.1876  160.1759 H   0  0  0  0  0  0  0  0  0  0  0  0
  154.6799  141.4705  162.3376 H   0  0  0  0  0  0  0  0  0  0  0  0
  152.8413  141.4318  162.3708 H   0  0  0  0  0  0  0  0  0  0  0  0
  150.1837  143.4005  155.9861 H   0  0  0  0  0  0  0  0  0  0  0  0
  151.5103  139.8695  155.8233 H   0  0  0  0  0  0  0  0  0  0  0  0
  150.4331  138.2079  154.3558 H   0  0  0  0  0  0  0  0  0  0  0  0
  148.5485  137.6868  152.8317 H   0  0  0  0  0  0  0  0  0  0  0  0
  147.3140  138.8400  152.4952 H   0  0  0  0  0  0  0  0  0  0  0  0
  148.3031  142.6084  154.8070 H   0  0  0  0  0  0  0  0  0  0  0  0
  1  2  1  0  0  0  0
  1 18  1  0  0  0  0
  1 19  1  0  0  0  0
  1 20  1  0  0  0  0
  2  3  1  0  0  0  0
  2  8  1  0  0  0  0
  2 21  1  0  0  0  0
  3  4  1  0  0  0  0
  4  5  1  0  0  0  0
  4 22  1  0  0  0  0
  4 23  1  0  0  0  0
  5  7  1  0  0  0  0
  5  6  1  0  0  0  0
  5 24  1  0  0  0  0
  6  7  1  0  0  0  0
  6 25  1  0  0  0  0
  6 26  1  0  0  0  0
  7 27  1  0  0  0  0
  7 28  1  0  0  0  0
  8  9  2  0  0  0  0
  8 10  1  0  0  0  0
 10 11  1  0  0  0  0
 10 29  1  0  0  0  0
 11 17  1  0  0  0  0
 11 12  2  0  0  0  0
 12 13  1  0  0  0  0
 12 30  1  0  0  0  0
 13 14  2  0  0  0  0
 13 31  1  0  0  0  0
 14 15  1  0  0  0  0
 14 16  1  0  0  0  0
 15 32  1  0  0  0  0
 15 33  1  0  0  0  0
 16 17  2  0  0  0  0
 17 34  1  0  0  0  0
M  END
> <s_m_source_file>
AV-unprocessed.smi

> <i_m_source_file_index>
2732

> <i_lp_mmshare_version>
43012

> <i_f3d_flags>
0

> <s_epik_input>
W0NIMl0xW0NIMl1bQ0hdMVtDSDJdT1tDQEBIXShbQ0gzXSlDKD1PKVtOSF1jMltjSF1bY0hdYyhbTkgyXSluW2NIXTI=

> <s_epik_cmdline>
J2VwaWtfcHl0aG9uJywgJy1waCcsICc3LjAnLCAnLXRuJywgJzgnLCAnLW1hJywgJzIwMCcsICctbWV0YWxfYmluZGluZycsICctaW1hZScsICc8aW5maWxlLm1hZT4nLCAnLW9tYWUnLCAnPG91dGZpbGUubWFlPic=

> <r_lp_tautomer_probability>
1

> <r_epik_Ionization_Penalty>
0.0764773

> <r_epik_Ionization_Penalty_Charging>
0

> <r_epik_Ionization_Penalty_Neutral>
0.0764773

> <r_epik_State_Penalty>
0.0673619

> <r_epik_Charging_Adjusted_Penalty>
0.0673619

> <i_epik_Tot_Q>
0

> <i_epik_Tot_abs_Q>
0

> <r_epik_Metal_State_Penalty>
0.0594329

> <b_epik_Metal_Only>
0

> <s_lp_Force_Field>
OPLS_2005

> <r_lp_Energy>
18.9716

> <b_lp_Chiralities_Consistent>
1

> <s_lp_Variant>
AV-unprocessed.smi:2732-2

> <Gold.Version>
5.8.1

> <Gold.Id.Protein>
6NUR|6NUR_protein|mol2

> <Gold.PLP.Fitness>
46.8618

> <Gold.PLP.PLP>
-39.1680

> <Gold.PLP.part.hbond>
-3.0000

> <Gold.PLP.part.metal>
0.0000

> <Gold.PLP.part.buried>
-2.2281

> <Gold.PLP.part.nonpolar>
-33.6011

> <Gold.PLP.part.repulsive>
0.2909

> <Gold.PLP.ligand.clash>
0.0000

> <Gold.PLP.ligand.torsion>
0.9376

> <Gold.PLP.Chemscore.Hbond>
2.0000

> <Gold.PLP.Chemscore.CHOScore>
1.0000

> <Gold.PLP.Chemscore.Metal>
0.0000

> <Gold.Chemscore.Hbonds>
donor molecule, donor type, donor heavy atom, donor atom, acceptor molecule, acceptor atom, score
      L1  H    10    29       P1  8028  1.00
      L1  H    15    32       P1  7948  1.00
      L1  C    17    34       P1  8028  1.00

> <Gold.PLP.Chemscore.Internal.Correction>
0.5689

> <Gold.Rescore>
     Score         DG    S(hbond)    S(metal)    S(lipo)     H(rot)  DE(clash)    DE(int)     intcor
     15.98     -18.46       1.96        0.00      92.74       1.72       0.32       2.16       ----

> <Gold.Chemscore.Fitness>
15.9813

> <Gold.Chemscore.DG>
-18.4612

> <Gold.Chemscore.ZeroCoef>
-5.4800

> <Gold.Chemscore.Hbond>
1.9589

> <Gold.Chemscore.Metal>
0.0000

> <Gold.Chemscore.Lipo>
92.7438

> <Gold.Chemscore.Internal_Hbond>
0.0000

> <Gold.Chemscore.DEClash>
0.3232

> <Gold.Chemscore.DEInternal>
2.1567

> <Gold.Chemscore.Rot>
1.7237

> <Gold.Chemscore.Internal.Correction>
   9.000000E+99

> <Gold.Chemscore.Hbonds>
donor molecule, donor type, donor heavy atom, donor atom, acceptor molecule, acceptor atom, score
      L1  H    10    29       P1  8028  0.98
      L1  H    15    32       P1  7948  0.98

> <Gold.Chemscore.Hbond.Weighted>
-6.5429

> <Gold.Chemscore.Metal.Weighted>
-0.0000

> <Gold.Chemscore.Lipo.Weighted>
-10.8510

> <Gold.Chemscore.Internal_Hbond.Weighted>
0.0000

> <Gold.Chemscore.DEClash.Weighted>
0.3232

> <Gold.Chemscore.DEInternal.Weighted>
2.1567

> <Gold.Chemscore.Rot.Weighted>
4.4127

> <Gold.Chemscore.Internal.Correction.Weighted>
   9.000000E+99

> <Gold.Protein.RotatedTorsions>
[ 6907 6896 6895 6894 ] final -152.43 input  -60.11 | X-H torsion
[ 7974 7965 7964 7962 ] final -100.33 input  175.53 | X-H torsion
[ 8008 7997 7996 7995 ] final -167.82 input   59.86 | X-H torsion
[ 10167 10162 10161 10158 ] final  -79.98 input  -65.29 | X-H torsion
[ 10718 10713 10712 10709 ] final -107.73 input   66.30 | X-H torsion
[ 10763 10752 10751 10750 ] final   67.31 input  -60.55 | X-H torsion
[ 11005 11000 10999 10996 ] final   39.11 input  -57.11 | X-H torsion

> <Gold.Protein.ActiveResidues>
 VAL166  LYS551  ARG553  GLY616  TRP617  ASP618  TYR619  PRO620  LYS621  CYS622 
 ASP623  PHE694  ASN695  SER759  ASP760  ASP761  ALA762  ILE779  LEU786  VAL792 
 PHE793  MET794  SER795  GLU796  ALA797  LYS798  CYS799  TRP800  GLU811  SER814 

> <Gold.Protein.RotatedAtoms>
  151.2277  133.4467  159.2602 H   0  0  0  0  0  0  0  0  0  0  0  0  # atno 6907 bound_to 6896
  151.0824  134.9867  159.8373 H   0  0  0  0  0  0  0  0  0  0  0  0  # atno 6908 bound_to 6896
  152.5426  134.2215  159.8842 H   0  0  0  0  0  0  0  0  0  0  0  0  # atno 6909 bound_to 6896
  145.2959  140.9365  143.2851 H   0  0  0  0  0  0  0  0  0  0  0  0  # atno 7974 bound_to 7965
  155.8829  140.1012  157.1472 H   0  0  0  0  0  0  0  0  0  0  0  0  # atno 8008 bound_to 7997
  154.4007  140.1325  156.4283 H   0  0  0  0  0  0  0  0  0  0  0  0  # atno 8009 bound_to 7997
  155.7622  140.3463  155.5206 H   0  0  0  0  0  0  0  0  0  0  0  0  # atno 8010 bound_to 7997
  140.4545  143.2472  151.8441 H   0  0  0  0  0  0  0  0  0  0  0  0  # atno 10167 bound_to 10162
  156.0451  130.5677  150.7862 H   0  0  0  0  0  0  0  0  0  0  0  0  # atno 10718 bound_to 10713
  153.0180  135.5288  154.6960 H   0  0  0  0  0  0  0  0  0  0  0  0  # atno 10763 bound_to 10752
  154.6082  135.2875  155.0464 H   0  0  0  0  0  0  0  0  0  0  0  0  # atno 10764 bound_to 10752
  154.1495  135.6565  153.5013 H   0  0  0  0  0  0  0  0  0  0  0  0  # atno 10765 bound_to 10752
  140.2060  134.3812  155.8072 H   0  0  0  0  0  0  0  0  0  0  0  0  # atno 11005 bound_to 11000
  144.9134  139.4500  143.6576 LP  0  0  0  0  0  0  0  0  0  0  0  0  # atno 17320 bound_to 7965
  146.3169  139.7954  142.8976 LP  0  0  0  0  0  0  0  0  0  0  0  0  # atno 17321 bound_to 7965
  139.4800  144.5081  151.8969 LP  0  0  0  0  0  0  0  0  0  0  0  0  # atno 17342 bound_to 10162
  140.4168  144.2296  150.5887 LP  0  0  0  0  0  0  0  0  0  0  0  0  # atno 17343 bound_to 10162
  157.5316  131.0937  150.9948 LP  0  0  0  0  0  0  0  0  0  0  0  0  # atno 17370 bound_to 10713
  157.0253  130.5690  149.5336 LP  0  0  0  0  0  0  0  0  0  0  0  0  # atno 17371 bound_to 10713
  141.2227  133.7118  156.8338 LP  0  0  0  0  0  0  0  0  0  0  0  0  # atno 17394 bound_to 11000
  140.2002  134.8902  157.3160 LP  0  0  0  0  0  0  0  0  0  0  0  0  # atno 17395 bound_to 11000

$$$$
