AV-unprocessed.smi:1484|AV-procd|sdf|5996|dock10
  -GOLD-   22720 6 93D 1   1.00000     0.00000
 Structure written by MMmdl.
 37 38  0  0  0  0  0  0  0  0  2 V2000
  152.9441  143.0129  162.5504 C   0  0  0  0  0  0  0  0  0  0  0  0
  152.3673  143.2773  161.1526 C   0  0  1  0  0  0  0  0  0  0  0  0
  152.0208  144.7662  160.9584 C   0  0  0  0  0  0  0  0  0  0  0  0
  151.4529  145.0389  159.5564 C   0  0  0  0  0  0  0  0  0  0  0  0
  152.4157  144.5528  158.4582 C   0  0  0  0  0  0  0  0  0  0  0  0
  152.7804  143.0655  158.6282 C   0  0  2  0  0  0  0  0  0  0  0  0
  151.6085  142.2399  158.3586 N   0  0  0  0  0  0  0  0  0  0  0  0
  151.5998  140.9462  157.9993 C   0  0  0  0  0  0  0  0  0  0  0  0
  152.6278  140.2935  157.8195 O   0  0  0  0  0  0  0  0  0  0  0  0
  150.2292  140.2692  157.8175 C   0  0  0  0  0  0  0  0  0  0  0  0
  149.5311  140.6365  156.5735 N   0  0  0  0  0  0  0  0  0  0  0  0
  148.1758  141.1399  156.7836 N   0  5  0  0  0  0  0  0  0  0  0  0
  147.4787  141.6279  155.7236 C   0  0  0  0  0  0  0  0  0  0  0  0
  146.3550  142.1131  155.8311 O   0  0  0  0  0  0  0  0  0  0  0  0
  148.0977  141.5627  154.4102 C   0  0  0  0  0  0  0  0  0  0  0  0
  149.3353  141.0573  154.2397 C   0  0  0  0  0  0  0  0  0  0  0  0
  150.1357  140.5626  155.3534 C   0  0  0  0  0  0  0  0  0  0  0  0
  151.2797  140.1317  155.2089 O   0  0  0  0  0  0  0  0  0  0  0  0
  153.3304  142.7972  160.0456 C   0  0  0  0  0  0  0  0  0  0  0  0
  153.8747  143.5595  162.7058 H   0  0  0  0  0  0  0  0  0  0  0  0
  153.1521  141.9523  162.6938 H   0  0  0  0  0  0  0  0  0  0  0  0
  152.2435  143.3184  163.3281 H   0  0  0  0  0  0  0  0  0  0  0  0
  151.4420  142.7043  161.0720 H   0  0  0  0  0  0  0  0  0  0  0  0
  151.2980  145.0815  161.7116 H   0  0  0  0  0  0  0  0  0  0  0  0
  152.9127  145.3751  161.1121 H   0  0  0  0  0  0  0  0  0  0  0  0
  150.4872  144.5420  159.4504 H   0  0  0  0  0  0  0  0  0  0  0  0
  151.2618  146.1054  159.4357 H   0  0  0  0  0  0  0  0  0  0  0  0
  151.9760  144.7230  157.4744 H   0  0  0  0  0  0  0  0  0  0  0  0
  153.3267  145.1514  158.4914 H   0  0  0  0  0  0  0  0  0  0  0  0
  153.5511  142.8178  157.8963 H   0  0  0  0  0  0  0  0  0  0  0  0
  150.7087  142.6794  158.4943 H   0  0  0  0  0  0  0  0  0  0  0  0
  150.3617  139.1875  157.8764 H   0  0  0  0  0  0  0  0  0  0  0  0
  149.6091  140.5294  158.6771 H   0  0  0  0  0  0  0  0  0  0  0  0
  147.5510  141.9226  153.5510 H   0  0  0  0  0  0  0  0  0  0  0  0
  149.7543  141.0252  153.2450 H   0  0  0  0  0  0  0  0  0  0  0  0
  154.2877  143.3084  160.1556 H   0  0  0  0  0  0  0  0  0  0  0  0
  153.5422  141.7344  160.1694 H   0  0  0  0  0  0  0  0  0  0  0  0
  1  2  1  0  0  0  0
  1 20  1  0  0  0  0
  1 21  1  0  0  0  0
  1 22  1  0  0  0  0
  2 19  1  0  0  0  0
  2  3  1  0  0  0  0
  2 23  1  0  0  0  0
  3  4  1  0  0  0  0
  3 24  1  0  0  0  0
  3 25  1  0  0  0  0
  4  5  1  0  0  0  0
  4 26  1  0  0  0  0
  4 27  1  0  0  0  0
  5  6  1  0  0  0  0
  5 28  1  0  0  0  0
  5 29  1  0  0  0  0
  6  7  1  0  0  0  0
  6 19  1  0  0  0  0
  6 30  1  0  0  0  0
  7  8  1  0  0  0  0
  7 31  1  0  0  0  0
  8  9  2  0  0  0  0
  8 10  1  0  0  0  0
 10 32  1  0  0  0  0
 10 33  1  0  0  0  0
 10 11  1  0  0  0  0
 11 12  1  0  0  0  0
 11 17  1  0  0  0  0
 12 13  1  0  0  0  0
 13 14  2  0  0  0  0
 13 15  1  0  0  0  0
 15 34  1  0  0  0  0
 15 16  2  0  0  0  0
 16 35  1  0  0  0  0
 16 17  1  0  0  0  0
 17 18  2  0  0  0  0
 19 36  1  0  0  0  0
 19 37  1  0  0  0  0
M  CHG  1  12  -1
M  END
> <s_m_source_file>
AV-unprocessed.smi

> <i_m_source_file_index>
1484

> <i_lp_mmshare_version>
43012

> <i_f3d_flags>
0

> <s_epik_input>
W0NIM11bQ0BASF0xW0NIMl1bQ0gyXVtDSDJdW0NASF0oW0NIMl0xKVtOSF1DKD1PKVtDSDJdbjJbbkhdYyg9TylbY0hdW2NIXWMyPU8=

> <s_epik_cmdline>
J2VwaWtfcHl0aG9uJywgJy1waCcsICc3LjAnLCAnLXRuJywgJzgnLCAnLW1hJywgJzIwMCcsICctbWV0YWxfYmluZGluZycsICctaW1hZScsICc8aW5maWxlLm1hZT4nLCAnLW9tYWUnLCAnPG91dGZpbGUubWFlPic=

> <r_lp_tautomer_probability>
1

> <r_epik_Ionization_Penalty>
0.101352

> <r_epik_Ionization_Penalty_Charging>
0.101352

> <r_epik_Ionization_Penalty_Neutral>
1.90469e-08

> <r_epik_State_Penalty>
0.0358555

> <r_epik_Charging_Adjusted_Penalty>
0.137208

> <i_epik_Tot_Q>
-1

> <i_epik_Tot_abs_Q>
1

> <r_epik_Metal_State_Penalty>
0.0358555

> <b_epik_Metal_Only>
0

> <s_lp_Force_Field>
OPLS_2005

> <r_lp_Energy>
21.3013

> <b_lp_Chiralities_Consistent>
1

> <s_lp_Variant>
AV-unprocessed.smi:1484-4

> <Gold.Version>
5.8.1

> <Gold.Id.Protein>
6NUR|6NUR_protein|mol2

> <Gold.PLP.Fitness>
48.9149

> <Gold.PLP.PLP>
-44.1910

> <Gold.PLP.part.hbond>
-2.0000

> <Gold.PLP.part.metal>
0.0000

> <Gold.PLP.part.buried>
-4.1395

> <Gold.PLP.part.nonpolar>
-37.2879

> <Gold.PLP.part.repulsive>
0.2914

> <Gold.PLP.ligand.clash>
0.0000

> <Gold.PLP.ligand.torsion>
0.5463

> <Gold.PLP.Chemscore.Hbond>
1.9357

> <Gold.PLP.Chemscore.CHOScore>
0.0000

> <Gold.PLP.Chemscore.Metal>
0.0000

> <Gold.Chemscore.Hbonds>
donor molecule, donor type, donor heavy atom, donor atom, acceptor molecule, acceptor atom, score
      P1  H  7989  7998       L1    18  0.95
      P1  H  7997  8008       L1     9  0.83

> <Gold.PLP.Chemscore.Internal.Correction>
0.0092

> <Gold.Rescore>
     Score         DG    S(hbond)    S(metal)    S(lipo)     H(rot)  DE(clash)    DE(int)     intcor
     18.25     -19.86       1.88        0.00     105.34       1.65       0.10       1.51       ----

> <Gold.Chemscore.Fitness>
18.2518

> <Gold.Chemscore.DG>
-19.8604

> <Gold.Chemscore.ZeroCoef>
-5.4800

> <Gold.Chemscore.Hbond>
1.8838

> <Gold.Chemscore.Metal>
0.0000

> <Gold.Chemscore.Lipo>
105.3426

> <Gold.Chemscore.Internal_Hbond>
0.0000

> <Gold.Chemscore.DEClash>
0.1027

> <Gold.Chemscore.DEInternal>
1.5059

> <Gold.Chemscore.Rot>
1.6549

> <Gold.Chemscore.Internal.Correction>
   9.000000E+99

> <Gold.Chemscore.Hbonds>
donor molecule, donor type, donor heavy atom, donor atom, acceptor molecule, acceptor atom, score
      P1  H  7989  7998       L1    18  0.21
      P1  H  7997  8008       L1     9  0.77

> <Gold.Chemscore.Hbond.Weighted>
-6.2918

> <Gold.Chemscore.Metal.Weighted>
-0.0000

> <Gold.Chemscore.Lipo.Weighted>
-12.3251

> <Gold.Chemscore.Internal_Hbond.Weighted>
0.0000

> <Gold.Chemscore.DEClash.Weighted>
0.1027

> <Gold.Chemscore.DEInternal.Weighted>
1.5059

> <Gold.Chemscore.Rot.Weighted>
4.2364

> <Gold.Chemscore.Internal.Correction.Weighted>
   9.000000E+99

> <Gold.Protein.RotatedTorsions>
[ 6907 6896 6895 6894 ] final  104.97 input  -60.11 | X-H torsion
[ 7974 7965 7964 7962 ] final   34.33 input  175.53 | X-H torsion
[ 8008 7997 7996 7995 ] final  -70.54 input   59.86 | X-H torsion
[ 10167 10162 10161 10158 ] final  124.58 input  -65.29 | X-H torsion
[ 10718 10713 10712 10709 ] final   19.00 input   66.30 | X-H torsion
[ 10763 10752 10751 10750 ] final -149.99 input  -60.55 | X-H torsion
[ 11005 11000 10999 10996 ] final -101.43 input  -57.11 | X-H torsion

> <Gold.Protein.ActiveResidues>
 VAL166  LYS551  ARG553  GLY616  TRP617  ASP618  TYR619  PRO620  LYS621  CYS622 
 ASP623  PHE694  ASN695  SER759  ASP760  ASP761  ALA762  ILE779  LEU786  VAL792 
 PHE793  MET794  SER795  GLU796  ALA797  LYS798  CYS799  TRP800  GLU811  SER814 

> <Gold.Protein.RotatedAtoms>
  152.5246  133.9598  159.7711 H   0  0  0  0  0  0  0  0  0  0  0  0  # atno 6907 bound_to 6896
  150.9891  133.6160  159.2718 H   0  0  0  0  0  0  0  0  0  0  0  0  # atno 6908 bound_to 6896
  151.3310  135.0847  159.9391 H   0  0  0  0  0  0  0  0  0  0  0  0  # atno 6909 bound_to 6896
  146.1360  139.6283  142.9195 H   0  0  0  0  0  0  0  0  0  0  0  0  # atno 7974 bound_to 7965
  154.5020  140.0832  156.7816 H   0  0  0  0  0  0  0  0  0  0  0  0  # atno 8008 bound_to 7997
  155.3982  140.3436  155.4237 H   0  0  0  0  0  0  0  0  0  0  0  0  # atno 8009 bound_to 7997
  156.1468  140.1546  156.8822 H   0  0  0  0  0  0  0  0  0  0  0  0  # atno 8010 bound_to 7997
  139.5734  144.6951  151.3718 H   0  0  0  0  0  0  0  0  0  0  0  0  # atno 10167 bound_to 10162
  157.1042  130.6481  149.5880 H   0  0  0  0  0  0  0  0  0  0  0  0  # atno 10718 bound_to 10713
  154.8145  135.3295  154.7213 H   0  0  0  0  0  0  0  0  0  0  0  0  # atno 10763 bound_to 10752
  153.7856  135.6915  153.4885 H   0  0  0  0  0  0  0  0  0  0  0  0  # atno 10764 bound_to 10752
  153.1951  135.4537  155.0144 H   0  0  0  0  0  0  0  0  0  0  0  0  # atno 10765 bound_to 10752
  141.1231  133.8478  157.1231 H   0  0  0  0  0  0  0  0  0  0  0  0  # atno 11005 bound_to 11000
  145.5154  141.0434  143.2464 LP  0  0  0  0  0  0  0  0  0  0  0  0  # atno 17320 bound_to 7965
  144.7740  139.6670  143.7182 LP  0  0  0  0  0  0  0  0  0  0  0  0  # atno 17321 bound_to 7965
  140.7017  143.7614  150.7415 LP  0  0  0  0  0  0  0  0  0  0  0  0  # atno 17342 bound_to 10162
  140.1127  143.4684  152.2360 LP  0  0  0  0  0  0  0  0  0  0  0  0  # atno 17343 bound_to 10162
  155.9866  130.4901  150.7086 LP  0  0  0  0  0  0  0  0  0  0  0  0  # atno 17370 bound_to 10713
  157.4615  131.0883  151.0741 LP  0  0  0  0  0  0  0  0  0  0  0  0  # atno 17371 bound_to 10713
  140.0205  134.9948  157.0581 LP  0  0  0  0  0  0  0  0  0  0  0  0  # atno 17394 bound_to 11000
  140.4448  134.1643  155.7176 LP  0  0  0  0  0  0  0  0  0  0  0  0  # atno 17395 bound_to 11000

$$$$
