AV-unprocessed.smi:72|AV-procd|sdf|678|dock3
  -GOLD-   2262016583D 1   1.00000     0.00000
 Structure written by MMmdl.
 29 30  0  0  0  0  0  0  0  0  1 V2000
  152.4321  135.7459  156.5445 N   0  0  0  0  0  0  0  0  0  0  0  0
  151.9265  136.8677  156.1729 C   0  0  0  0  0  0  0  0  0  0  0  0
  150.9347  137.0244  155.1925 N   0  0  0  0  0  0  0  0  0  0  0  0
  150.5262  138.2223  154.9069 C   0  0  0  0  0  0  0  0  0  0  0  0
  151.0642  139.4022  155.5651 N   0  0  0  0  0  0  0  0  0  0  0  0
  150.5667  140.7841  155.2091 C   0  0  1  0  0  0  0  0  0  0  0  0
  149.7030  140.6831  154.1158 O   0  0  0  0  0  0  0  0  0  0  0  0
  148.5551  141.4961  154.3338 C   0  0  1  0  0  0  0  0  0  0  0  0
  147.3728  140.9523  153.5171 C   0  0  0  0  0  0  0  0  0  0  0  0
  147.7416  139.7549  152.8669 O   0  0  0  0  0  0  0  0  0  0  0  0
  148.3581  141.3836  155.8467 C   0  0  2  0  0  0  0  0  0  0  0  0
  147.5430  142.4108  156.3795 O   0  0  0  0  0  0  0  0  0  0  0  0
  149.7881  141.4043  156.3803 C   0  0  2  0  0  0  0  0  0  0  0  0
  150.2490  142.7147  156.6534 O   0  0  0  0  0  0  0  0  0  0  0  0
  152.0426  139.2605  156.5787 C   0  0  0  0  0  0  0  0  0  0  0  0
  152.5016  140.2200  157.1979 O   0  0  0  0  0  0  0  0  0  0  0  0
  152.4385  137.9941  156.8322 N   0  0  0  0  0  0  0  0  0  0  0  0
  151.4365  141.3681  154.9041 H   0  0  0  0  0  0  0  0  0  0  0  0
  148.7850  142.5298  154.0670 H   0  0  0  0  0  0  0  0  0  0  0  0
  147.9053  140.4196  156.0835 H   0  0  0  0  0  0  0  0  0  0  0  0
  149.8901  140.8051  157.2863 H   0  0  0  0  0  0  0  0  0  0  0  0
  153.1251  135.8891  157.2642 H   0  0  0  0  0  0  0  0  0  0  0  0
  149.7554  138.4215  154.1613 H   0  0  0  0  0  0  0  0  0  0  0  0
  146.4974  140.7893  154.1466 H   0  0  0  0  0  0  0  0  0  0  0  0
  147.0885  141.6683  152.7455 H   0  0  0  0  0  0  0  0  0  0  0  0
  148.4228  139.9499  152.2416 H   0  0  0  0  0  0  0  0  0  0  0  0
  148.0538  143.2042  156.4284 H   0  0  0  0  0  0  0  0  0  0  0  0
  149.7261  143.3260  156.1575 H   0  0  0  0  0  0  0  0  0  0  0  0
  153.1407  137.8607  157.5449 H   0  0  0  0  0  0  0  0  0  0  0  0
  1  2  2  0  0  0  0
  1 22  1  0  0  0  0
  2 17  1  0  0  0  0
  2  3  1  0  0  0  0
  3  4  2  0  0  0  0
  4  5  1  0  0  0  0
  4 23  1  0  0  0  0
  5  6  1  0  0  0  0
  5 15  1  0  0  0  0
  6 18  1  0  0  0  0
  6 13  1  0  0  0  0
  6  7  1  0  0  0  0
  7  8  1  0  0  0  0
  8 19  1  0  0  0  0
  8  9  1  0  0  0  0
  8 11  1  0  0  0  0
  9 10  1  0  0  0  0
  9 24  1  0  0  0  0
  9 25  1  0  0  0  0
 10 26  1  0  0  0  0
 11 20  1  0  0  0  0
 11 12  1  0  0  0  0
 11 13  1  0  0  0  0
 12 27  1  0  0  0  0
 13 21  1  0  0  0  0
 13 14  1  0  0  0  0
 14 28  1  0  0  0  0
 15 16  2  0  0  0  0
 15 17  1  0  0  0  0
 17 29  1  0  0  0  0
M  END
> <s_m_source_file>
AV-unprocessed.smi

> <i_m_source_file_index>
72

> <i_lp_mmshare_version>
43012

> <i_f3d_flags>
0

> <s_epik_input>
W05IMl1jMW5bY0hdbihjKD1PKW4xKVtDQEBIXTJPW0NASF0oW0NIMl1bT0hdKVtDQEBIXShbT0hdKVtDQEhdMltPSF0=

> <s_epik_cmdline>
J2VwaWtfcHl0aG9uJywgJy1waCcsICc3LjAnLCAnLXRuJywgJzgnLCAnLW1hJywgJzIwMCcsICctbWV0YWxfYmluZGluZycsICctaW1hZScsICc8aW5maWxlLm1hZT4nLCAnLW9tYWUnLCAnPG91dGZpbGUubWFlPic=

> <r_lp_tautomer_probability>
7.17554e-07

> <r_epik_Ionization_Penalty>
0.0066451

> <r_epik_Ionization_Penalty_Charging>
0.00663793

> <r_epik_Ionization_Penalty_Neutral>
7.17052e-06

> <r_epik_State_Penalty>
0.419231

> <r_epik_Charging_Adjusted_Penalty>
0.425868

> <i_epik_Tot_Q>
0

> <i_epik_Tot_abs_Q>
0

> <r_epik_Metal_State_Penalty>
1.44144

> <b_epik_Metal_Only>
0

> <s_epik_Chemistry_Notes>
This compound contains an acetal/aminal-like group ( X-CH(R)-Y where X, Y are N, S, or O) that may be acid/base labile, releasing an aldehyde.

> <s_lp_Force_Field>
OPLS_2005

> <r_lp_Energy>
43.4665

> <b_lp_Chiralities_Consistent>
1

> <s_lp_Variant>
AV-unprocessed.smi:72-16

> <Gold.Version>
5.8.1

> <Gold.Id.Protein>
6NUR|6NUR_protein|mol2

> <Gold.PLP.Fitness>
37.4992

> <Gold.PLP.PLP>
-24.0908

> <Gold.PLP.part.hbond>
-5.9275

> <Gold.PLP.part.metal>
0.0000

> <Gold.PLP.part.buried>
-0.7187

> <Gold.PLP.part.nonpolar>
-16.8707

> <Gold.PLP.part.repulsive>
0.9864

> <Gold.PLP.ligand.clash>
0.0000

> <Gold.PLP.ligand.torsion>
0.8028

> <Gold.PLP.Chemscore.Hbond>
5.0000

> <Gold.PLP.Chemscore.CHOScore>
0.0000

> <Gold.PLP.Chemscore.Metal>
0.0000

> <Gold.Chemscore.Hbonds>
donor molecule, donor type, donor heavy atom, donor atom, acceptor molecule, acceptor atom, score
      L1  H    10    26       P1  7957  1.00
      L1  H    12    27       P1  8028  1.00
      L1  H    14    28       P1  8028  1.00
      P1  H  7997  8009       L1    16  1.00
      P1  H 10752 10763       L1     1  1.00

> <Gold.PLP.Chemscore.Internal.Correction>
0.0140

> <Gold.Rescore>
     Score         DG    S(hbond)    S(metal)    S(lipo)     H(rot)  DE(clash)    DE(int)     intcor
      7.38      -9.13       3.27        0.00      26.73       4.06       0.81       0.94       ----

> <Gold.Chemscore.Fitness>
7.3753

> <Gold.Chemscore.DG>
-9.1260

> <Gold.Chemscore.ZeroCoef>
-5.4800

> <Gold.Chemscore.Hbond>
3.2672

> <Gold.Chemscore.Metal>
0.0000

> <Gold.Chemscore.Lipo>
26.7273

> <Gold.Chemscore.Internal_Hbond>
0.0000

> <Gold.Chemscore.DEClash>
0.8097

> <Gold.Chemscore.DEInternal>
0.9410

> <Gold.Chemscore.Rot>
4.0600

> <Gold.Chemscore.Internal.Correction>
   9.000000E+99

> <Gold.Chemscore.Hbonds>
donor molecule, donor type, donor heavy atom, donor atom, acceptor molecule, acceptor atom, score
      L1  H    10    26       P1  7957  0.98
      L1  H    12    27       P1  8028  0.25
      L1  H    14    28       P1  8028  1.00
      P1  H  7997  8009       L1    16  0.28
      P1  H 10752 10763       L1     1  0.10

> <Gold.Chemscore.Hbond.Weighted>
-10.9125

> <Gold.Chemscore.Metal.Weighted>
-0.0000

> <Gold.Chemscore.Lipo.Weighted>
-3.1271

> <Gold.Chemscore.Internal_Hbond.Weighted>
0.0000

> <Gold.Chemscore.DEClash.Weighted>
0.8097

> <Gold.Chemscore.DEInternal.Weighted>
0.9410

> <Gold.Chemscore.Rot.Weighted>
10.3936

> <Gold.Chemscore.Internal.Correction.Weighted>
   9.000000E+99

> <Gold.Protein.RotatedTorsions>
[ 6907 6896 6895 6894 ] final -176.13 input  -60.11 | X-H torsion
[ 7974 7965 7964 7962 ] final    8.66 input  175.53 | X-H torsion
[ 8008 7997 7996 7995 ] final  176.30 input   59.86 | X-H torsion
[ 10167 10162 10161 10158 ] final  -40.51 input  -65.29 | X-H torsion
[ 10718 10713 10712 10709 ] final  130.84 input   66.30 | X-H torsion
[ 10763 10752 10751 10750 ] final  104.78 input  -60.55 | X-H torsion
[ 11005 11000 10999 10996 ] final   31.68 input  -57.11 | X-H torsion

> <Gold.Protein.ActiveResidues>
 VAL166  LYS551  ARG553  GLY616  TRP617  ASP618  TYR619  PRO620  LYS621  CYS622 
 ASP623  PHE694  ASN695  SER759  ASP760  ASP761  ALA762  ILE779  LEU786  VAL792 
 PHE793  MET794  SER795  GLU796  ALA797  LYS798  CYS799  TRP800  GLU811  SER814 

> <Gold.Protein.RotatedAtoms>
  151.5998  133.3357  159.3044 H   0  0  0  0  0  0  0  0  0  0  0  0  # atno 6907 bound_to 6896
  150.8214  134.7427  159.6787 H   0  0  0  0  0  0  0  0  0  0  0  0  # atno 6908 bound_to 6896
  152.4307  134.5788  159.9993 H   0  0  0  0  0  0  0  0  0  0  0  0  # atno 6909 bound_to 6896
  146.2413  139.9899  142.8427 H   0  0  0  0  0  0  0  0  0  0  0  0  # atno 7974 bound_to 7965
  156.0779  140.1387  156.9748 H   0  0  0  0  0  0  0  0  0  0  0  0  # atno 8008 bound_to 7997
  154.4568  140.0958  156.6831 H   0  0  0  0  0  0  0  0  0  0  0  0  # atno 8009 bound_to 7997
  155.5122  140.3454  155.4393 H   0  0  0  0  0  0  0  0  0  0  0  0  # atno 8010 bound_to 7997
  140.7032  143.3149  151.2935 H   0  0  0  0  0  0  0  0  0  0  0  0  # atno 10167 bound_to 10162
  157.5024  131.1094  150.9409 H   0  0  0  0  0  0  0  0  0  0  0  0  # atno 10718 bound_to 10713
  153.3706  135.3931  155.1785 H   0  0  0  0  0  0  0  0  0  0  0  0  # atno 10763 bound_to 10752
  154.8693  135.3701  154.4983 H   0  0  0  0  0  0  0  0  0  0  0  0  # atno 10764 bound_to 10752
  153.5450  135.7084  153.5679 H   0  0  0  0  0  0  0  0  0  0  0  0  # atno 10765 bound_to 10752
  140.2814  134.2969  155.7800 H   0  0  0  0  0  0  0  0  0  0  0  0  # atno 11005 bound_to 11000
  145.1513  140.9624  143.4431 LP  0  0  0  0  0  0  0  0  0  0  0  0  # atno 17320 bound_to 7965
  145.0203  139.3430  143.6076 LP  0  0  0  0  0  0  0  0  0  0  0  0  # atno 17321 bound_to 7965
  139.6584  144.0234  152.2675 LP  0  0  0  0  0  0  0  0  0  0  0  0  # atno 17342 bound_to 10162
  139.9793  144.6439  150.7915 LP  0  0  0  0  0  0  0  0  0  0  0  0  # atno 17343 bound_to 10162
  157.0075  130.5624  149.5317 LP  0  0  0  0  0  0  0  0  0  0  0  0  # atno 17370 bound_to 10713
  156.0237  130.5331  150.8347 LP  0  0  0  0  0  0  0  0  0  0  0  0  # atno 17371 bound_to 10713
  141.2162  133.7527  156.9485 LP  0  0  0  0  0  0  0  0  0  0  0  0  # atno 17394 bound_to 11000
  140.1280  134.9374  157.2297 LP  0  0  0  0  0  0  0  0  0  0  0  0  # atno 17395 bound_to 11000

$$$$
