AV-unprocessed.smi:165|AV-procd|sdf|1387|dock1
  -GOLD-   2262019123D 1   1.00000     0.00000
 Structure written by MMmdl.
 55 59  0  0  0  0  0  0  0  0  1 V2000
  142.9959  132.3327  149.8862 O   0  0  0  0  0  0  0  0  0  0  0  0
  143.8385  131.7149  150.8372 C   0  0  0  0  0  0  0  0  0  0  0  0
  145.2652  132.2911  150.8073 C   0  0  0  0  0  0  0  0  0  0  0  0
  145.8812  132.0615  149.4110 C   0  0  0  0  0  0  0  0  0  0  0  0
  145.0153  132.4620  148.3690 O   0  0  0  0  0  0  0  0  0  0  0  0
  145.3689  133.7532  151.2993 C   0  0  0  0  0  0  0  0  0  0  0  0
  146.6529  133.4012  152.0521 C   0  0  0  0  0  0  0  0  0  0  0  0
  146.9984  134.0519  153.2854 N   0  0  0  0  0  0  0  0  0  0  0  0
  146.3857  135.1635  153.8202 C   0  0  0  0  0  0  0  0  0  0  0  0
  146.8719  135.5760  154.9584 N   0  0  0  0  0  0  0  0  0  0  0  0
  147.8960  134.6784  155.2351 C   0  0  0  0  0  0  0  0  0  0  0  0
  148.8291  134.5425  156.3014 C   0  0  0  0  0  0  0  0  0  0  0  0
  148.8418  135.3788  157.3693 N   0  0  0  0  0  0  0  0  0  0  0  0
  149.9630  136.2994  157.5153 C   0  0  0  0  0  0  0  0  0  0  0  0
  149.6263  137.3654  158.5673 C   0  0  0  0  0  0  0  0  0  0  0  0
  149.2249  136.7436  159.7871 O   0  0  0  0  0  0  0  0  0  0  0  0
  148.1139  135.8409  159.6923 C   0  0  1  0  0  0  0  0  0  0  0  0
  147.9683  135.1739  161.0728 C   0  0  0  0  0  0  0  0  0  0  0  0
  147.4874  136.1814  162.1237 C   0  0  0  0  0  0  0  0  0  0  0  0
  146.2113  136.8853  161.6433 C   0  0  0  0  0  0  0  0  0  0  0  0
  146.4492  137.5065  160.3863 O   0  0  0  0  0  0  0  0  0  0  0  0
  146.7927  136.5830  159.3577 C   0  0  0  0  0  0  0  0  0  0  0  0
  148.4440  134.7664  158.6320 C   0  0  0  0  0  0  0  0  0  0  0  0
  149.7278  133.5251  156.2219 N   0  0  0  0  0  0  0  0  0  0  0  0
  149.7084  132.6894  155.1795 C   0  0  0  0  0  0  0  0  0  0  0  0
  148.8923  132.6913  154.1242 N   0  0  0  0  0  0  0  0  0  0  0  0
  147.9944  133.7163  154.1901 C   0  0  0  0  0  0  0  0  0  0  0  0
  146.1642  131.9525  152.0197 C   0  0  0  0  0  0  0  0  0  0  0  0
  142.1657  131.8814  149.8820 H   0  0  0  0  0  0  0  0  0  0  0  0
  143.3905  131.8150  151.8263 H   0  0  0  0  0  0  0  0  0  0  0  0
  143.8489  130.6477  150.6132 H   0  0  0  0  0  0  0  0  0  0  0  0
  146.8255  132.5967  149.3060 H   0  0  0  0  0  0  0  0  0  0  0  0
  146.1133  131.0079  149.2535 H   0  0  0  0  0  0  0  0  0  0  0  0
  145.2479  133.3388  148.1046 H   0  0  0  0  0  0  0  0  0  0  0  0
  145.5000  134.4945  150.5103 H   0  0  0  0  0  0  0  0  0  0  0  0
  144.5550  134.0414  151.9659 H   0  0  0  0  0  0  0  0  0  0  0  0
  147.5140  133.5137  151.3907 H   0  0  0  0  0  0  0  0  0  0  0  0
  145.5596  135.6654  153.3378 H   0  0  0  0  0  0  0  0  0  0  0  0
  150.8509  135.7435  157.8192 H   0  0  0  0  0  0  0  0  0  0  0  0
  150.1876  136.7810  156.5626 H   0  0  0  0  0  0  0  0  0  0  0  0
  150.5035  137.9816  158.7639 H   0  0  0  0  0  0  0  0  0  0  0  0
  148.8535  138.0425  158.2044 H   0  0  0  0  0  0  0  0  0  0  0  0
  147.2488  134.3563  161.0108 H   0  0  0  0  0  0  0  0  0  0  0  0
  148.9143  134.7293  161.3843 H   0  0  0  0  0  0  0  0  0  0  0  0
  147.3030  135.6753  163.0714 H   0  0  0  0  0  0  0  0  0  0  0  0
  148.2657  136.9223  162.3108 H   0  0  0  0  0  0  0  0  0  0  0  0
  145.3832  136.1796  161.5617 H   0  0  0  0  0  0  0  0  0  0  0  0
  145.9107  137.6478  162.3620 H   0  0  0  0  0  0  0  0  0  0  0  0
  146.8538  137.1166  158.4103 H   0  0  0  0  0  0  0  0  0  0  0  0
  145.9791  135.8655  159.2383 H   0  0  0  0  0  0  0  0  0  0  0  0
  147.5905  134.1009  158.5050 H   0  0  0  0  0  0  0  0  0  0  0  0
  149.2696  134.1436  158.9795 H   0  0  0  0  0  0  0  0  0  0  0  0
  150.4525  131.9068  155.1939 H   0  0  0  0  0  0  0  0  0  0  0  0
  145.5897  131.6737  152.9043 H   0  0  0  0  0  0  0  0  0  0  0  0
  146.9474  131.2200  151.8230 H   0  0  0  0  0  0  0  0  0  0  0  0
  1  2  1  0  0  0  0
  1 29  1  0  0  0  0
  2  3  1  0  0  0  0
  2 30  1  0  0  0  0
  2 31  1  0  0  0  0
  3 28  1  0  0  0  0
  3  4  1  0  0  0  0
  3  6  1  0  0  0  0
  4  5  1  0  0  0  0
  4 32  1  0  0  0  0
  4 33  1  0  0  0  0
  5 34  1  0  0  0  0
  6  7  1  0  0  0  0
  6 35  1  0  0  0  0
  6 36  1  0  0  0  0
  7  8  1  0  0  0  0
  7 28  1  0  0  0  0
  7 37  1  0  0  0  0
  8 27  1  0  0  0  0
  8  9  1  0  0  0  0
  9 10  2  0  0  0  0
  9 38  1  0  0  0  0
 10 11  1  0  0  0  0
 11 27  2  0  0  0  0
 11 12  1  0  0  0  0
 12 13  1  0  0  0  0
 12 24  2  0  0  0  0
 13 23  1  0  0  0  0
 13 14  1  0  0  0  0
 14 15  1  0  0  0  0
 14 39  1  0  0  0  0
 14 40  1  0  0  0  0
 15 16  1  0  0  0  0
 15 41  1  0  0  0  0
 15 42  1  0  0  0  0
 16 17  1  0  0  0  0
 17 22  1  0  0  0  0
 17 18  1  0  0  0  0
 17 23  1  0  0  0  0
 18 19  1  0  0  0  0
 18 43  1  0  0  0  0
 18 44  1  0  0  0  0
 19 20  1  0  0  0  0
 19 45  1  0  0  0  0
 19 46  1  0  0  0  0
 20 21  1  0  0  0  0
 20 47  1  0  0  0  0
 20 48  1  0  0  0  0
 21 22  1  0  0  0  0
 22 49  1  0  0  0  0
 22 50  1  0  0  0  0
 23 51  1  0  0  0  0
 23 52  1  0  0  0  0
 24 25  1  0  0  0  0
 25 26  2  0  0  0  0
 25 53  1  0  0  0  0
 26 27  1  0  0  0  0
 28 54  1  0  0  0  0
 28 55  1  0  0  0  0
M  END
> <s_m_source_file>
AV-unprocessed.smi

> <i_m_source_file_index>
165

> <i_lp_mmshare_version>
43012

> <i_f3d_flags>
0

> <s_epik_input>
W09IXVtDSDJdQzEoW0NIMl1bT0hdKVtDSDJdW0NIXShbQ0gyXTEpbihbY0hdbjIpYyhjMjMpbltjSF1uYzNOKFtDSDJdNClbQ0gyXVtDSDJdT1tDQEBdNDVbQ0gyXVtDSDJdW0NIMl1PW0NIMl01

> <s_epik_cmdline>
J2VwaWtfcHl0aG9uJywgJy1waCcsICc3LjAnLCAnLXRuJywgJzgnLCAnLW1hJywgJzIwMCcsICctbWV0YWxfYmluZGluZycsICctaW1hZScsICc8aW5maWxlLm1hZT4nLCAnLW9tYWUnLCAnPG91dGZpbGUubWFlPic=

> <r_lp_tautomer_probability>
1

> <r_epik_Ionization_Penalty>
0.00466923

> <r_epik_Ionization_Penalty_Charging>
0

> <r_epik_Ionization_Penalty_Neutral>
0.00466923

> <r_epik_State_Penalty>
0.0032353

> <r_epik_Charging_Adjusted_Penalty>
0.0032353

> <i_epik_Tot_Q>
0

> <i_epik_Tot_abs_Q>
0

> <r_epik_Metal_State_Penalty>
-0

> <b_epik_Metal_Only>
0

> <s_lp_Force_Field>
OPLS_2005

> <r_lp_Energy>
53.1571

> <b_lp_Chiralities_Consistent>
1

> <s_lp_Variant>
AV-unprocessed.smi:165-2

> <Gold.Version>
5.8.1

> <Gold.Id.Protein>
6NUR|6NUR_protein|mol2

> <Gold.PLP.Fitness>
48.8665

> <Gold.PLP.PLP>
-40.0215

> <Gold.PLP.part.hbond>
-5.2129

> <Gold.PLP.part.metal>
0.0000

> <Gold.PLP.part.buried>
-6.3439

> <Gold.PLP.part.nonpolar>
-28.1522

> <Gold.PLP.part.repulsive>
0.1602

> <Gold.PLP.ligand.clash>
0.0000

> <Gold.PLP.ligand.torsion>
0.4587

> <Gold.PLP.Chemscore.Hbond>
3.0000

> <Gold.PLP.Chemscore.CHOScore>
0.0000

> <Gold.PLP.Chemscore.Metal>
0.0000

> <Gold.Chemscore.Hbonds>
donor molecule, donor type, donor heavy atom, donor atom, acceptor molecule, acceptor atom, score
      L1  H     1    29       P1 10952  0.94
      L1  H     5    34       P1  7921  1.00
      P1  H  6934  6947       L1    21  1.00

> <Gold.PLP.Chemscore.Internal.Correction>
0.7624

> <Gold.Rescore>
     Score         DG    S(hbond)    S(metal)    S(lipo)     H(rot)  DE(clash)    DE(int)     intcor
     16.00     -16.51       2.60        0.00      88.77       3.14       0.05       0.46       ----

> <Gold.Chemscore.Fitness>
16.0036

> <Gold.Chemscore.DG>
-16.5130

> <Gold.Chemscore.ZeroCoef>
-5.4800

> <Gold.Chemscore.Hbond>
2.5966

> <Gold.Chemscore.Metal>
0.0000

> <Gold.Chemscore.Lipo>
88.7713

> <Gold.Chemscore.Internal_Hbond>
0.0000

> <Gold.Chemscore.DEClash>
0.0500

> <Gold.Chemscore.DEInternal>
0.4594

> <Gold.Chemscore.Rot>
3.1351

> <Gold.Chemscore.Internal.Correction>
   9.000000E+99

> <Gold.Chemscore.Hbonds>
donor molecule, donor type, donor heavy atom, donor atom, acceptor molecule, acceptor atom, score
      L1  H     1    29       P1 10952  0.87
      L1  H     5    34       P1  7921  0.26
      P1  H  6934  6947       L1    21  0.26

> <Gold.Chemscore.Hbond.Weighted>
-8.6727

> <Gold.Chemscore.Metal.Weighted>
-0.0000

> <Gold.Chemscore.Lipo.Weighted>
-10.3862

> <Gold.Chemscore.Internal_Hbond.Weighted>
0.0000

> <Gold.Chemscore.DEClash.Weighted>
0.0500

> <Gold.Chemscore.DEInternal.Weighted>
0.4594

> <Gold.Chemscore.Rot.Weighted>
8.0260

> <Gold.Chemscore.Internal.Correction.Weighted>
   9.000000E+99

> <Gold.Protein.RotatedTorsions>
[ 6907 6896 6895 6894 ] final  133.76 input  -60.11 | X-H torsion
[ 7974 7965 7964 7962 ] final  125.23 input  175.53 | X-H torsion
[ 8008 7997 7996 7995 ] final -147.89 input   59.86 | X-H torsion
[ 10167 10162 10161 10158 ] final   68.06 input  -65.29 | X-H torsion
[ 10718 10713 10712 10709 ] final -104.80 input   66.30 | X-H torsion
[ 10763 10752 10751 10750 ] final -115.12 input  -60.55 | X-H torsion
[ 11005 11000 10999 10996 ] final   11.19 input  -57.11 | X-H torsion

> <Gold.Protein.ActiveResidues>
 VAL166  LYS551  ARG553  GLY616  TRP617  ASP618  TYR619  PRO620  LYS621  CYS622 
 ASP623  PHE694  ASN695  SER759  ASP760  ASP761  ALA762  ILE779  LEU786  VAL792 
 PHE793  MET794  SER795  GLU796  ALA797  LYS798  CYS799  TRP800  GLU811  SER814 

> <Gold.Protein.RotatedAtoms>
  152.3185  133.5828  159.5728 H   0  0  0  0  0  0  0  0  0  0  0  0  # atno 6907 bound_to 6896
  150.7359  134.0047  159.3658 H   0  0  0  0  0  0  0  0  0  0  0  0  # atno 6908 bound_to 6896
  151.7933  135.0730  160.0441 H   0  0  0  0  0  0  0  0  0  0  0  0  # atno 6909 bound_to 6896
  145.0753  139.3698  143.4937 H   0  0  0  0  0  0  0  0  0  0  0  0  # atno 7974 bound_to 7965
  155.5828  140.0645  157.2779 H   0  0  0  0  0  0  0  0  0  0  0  0  # atno 8008 bound_to 7997
  154.4327  140.1849  156.1041 H   0  0  0  0  0  0  0  0  0  0  0  0  # atno 8009 bound_to 7997
  156.0292  140.3308  155.7125 H   0  0  0  0  0  0  0  0  0  0  0  0  # atno 8010 bound_to 7997
  140.0827  144.5057  150.7151 H   0  0  0  0  0  0  0  0  0  0  0  0  # atno 10167 bound_to 10162
  156.0319  130.5533  150.7449 H   0  0  0  0  0  0  0  0  0  0  0  0  # atno 10718 bound_to 10713
  154.8468  135.4393  154.1613 H   0  0  0  0  0  0  0  0  0  0  0  0  # atno 10763 bound_to 10752
  153.2749  135.6948  153.7449 H   0  0  0  0  0  0  0  0  0  0  0  0  # atno 10764 bound_to 10752
  153.6675  135.3424  155.3119 H   0  0  0  0  0  0  0  0  0  0  0  0  # atno 10765 bound_to 10752
  140.5060  134.0699  155.7805 H   0  0  0  0  0  0  0  0  0  0  0  0  # atno 11005 bound_to 11000
  146.3530  140.0517  142.8635 LP  0  0  0  0  0  0  0  0  0  0  0  0  # atno 17320 bound_to 7965
  145.1243  140.9481  143.4582 LP  0  0  0  0  0  0  0  0  0  0  0  0  # atno 17321 bound_to 7965
  140.7069  143.2475  151.4699 LP  0  0  0  0  0  0  0  0  0  0  0  0  # atno 17342 bound_to 10162
  139.5770  144.1796  152.1916 LP  0  0  0  0  0  0  0  0  0  0  0  0  # atno 17343 bound_to 10162
  157.5008  131.0918  151.0316 LP  0  0  0  0  0  0  0  0  0  0  0  0  # atno 17370 bound_to 10713
  157.0698  130.5859  149.5400 LP  0  0  0  0  0  0  0  0  0  0  0  0  # atno 17371 bound_to 10713
  141.1411  133.9137  157.2324 LP  0  0  0  0  0  0  0  0  0  0  0  0  # atno 17394 bound_to 11000
  139.9686  135.0135  156.9453 LP  0  0  0  0  0  0  0  0  0  0  0  0  # atno 17395 bound_to 11000

$$$$
