AV-unprocessed.smi:3285|AV-procd|sdf|12584|dock4
  -GOLD-   2272018503D 1   1.00000     0.00000
 Structure written by MMmdl.
 45 46  0  0  0  0  0  0  0  0  2 V2000
  148.8650  138.9960  155.6759 C   0  0  0  0  0  0  0  0  0  0  0  0
  150.2106  138.5265  155.2020 C   0  0  0  0  0  0  0  0  0  0  0  0
  150.3053  137.3646  154.5790 N   0  0  0  0  0  0  0  0  0  0  0  0
  151.6587  137.2042  154.2688 O   0  0  0  0  0  0  0  0  0  0  0  0
  152.3352  138.2891  154.7225 C   0  0  0  0  0  0  0  0  0  0  0  0
  153.8065  138.3005  154.4758 C   0  0  0  0  0  0  0  0  0  0  0  0
  151.4764  139.1704  155.3223 C   0  0  0  0  0  0  0  0  0  0  0  0
  151.7811  140.5043  155.9567 C   0  0  0  0  0  0  0  0  0  0  0  0
  150.5727  141.4522  155.9186 C   0  0  0  0  0  0  0  0  0  0  0  0
  150.9290  142.7962  156.4218 N   0  3  0  0  0  0  0  0  0  0  0  0
  150.9981  142.9294  157.8930 C   0  0  2  0  0  0  0  0  0  0  0  0
  151.2001  144.4058  158.2667 C   0  0  0  0  0  0  0  0  0  0  0  0
  151.2917  144.5862  159.7877 C   0  0  0  0  0  0  0  0  0  0  0  0
  152.4202  143.7349  160.4032 C   0  0  1  0  0  0  0  0  0  0  0  0
  152.4739  143.9616  161.9244 C   0  0  0  0  0  0  0  0  0  0  0  0
  152.2484  142.2409  160.0198 C   0  0  2  0  0  0  0  0  0  0  0  0
  153.3831  141.3506  160.5572 C   0  0  0  0  0  0  0  0  0  0  0  0
  152.1350  142.0766  158.4893 C   0  0  0  0  0  0  0  0  0  0  0  0
  148.8748  140.0580  155.9200 H   0  0  0  0  0  0  0  0  0  0  0  0
  148.5551  138.4536  156.5692 H   0  0  0  0  0  0  0  0  0  0  0  0
  148.1016  138.8425  154.9125 H   0  0  0  0  0  0  0  0  0  0  0  0
  154.2694  139.1997  154.8818 H   0  0  0  0  0  0  0  0  0  0  0  0
  154.0183  138.2670  153.4071 H   0  0  0  0  0  0  0  0  0  0  0  0
  154.2827  137.4376  154.9416 H   0  0  0  0  0  0  0  0  0  0  0  0
  152.0884  140.3690  156.9942 H   0  0  0  0  0  0  0  0  0  0  0  0
  152.6301  140.9827  155.4676 H   0  0  0  0  0  0  0  0  0  0  0  0
  150.1985  141.5319  154.8970 H   0  0  0  0  0  0  0  0  0  0  0  0
  149.7667  141.0368  156.5234 H   0  0  0  0  0  0  0  0  0  0  0  0
  151.8115  143.0810  156.0218 H   0  0  0  0  0  0  0  0  0  0  0  0
  150.0450  142.6015  158.3112 H   0  0  0  0  0  0  0  0  0  0  0  0
  152.1092  144.7886  157.8001 H   0  0  0  0  0  0  0  0  0  0  0  0
  150.3766  145.0062  157.8778 H   0  0  0  0  0  0  0  0  0  0  0  0
  151.4551  145.6404  160.0149 H   0  0  0  0  0  0  0  0  0  0  0  0
  150.3369  144.3191  160.2433 H   0  0  0  0  0  0  0  0  0  0  0  0
  153.3652  144.0866  159.9860 H   0  0  0  0  0  0  0  0  0  0  0  0
  151.5885  143.5590  162.4172 H   0  0  0  0  0  0  0  0  0  0  0  0
  152.5282  145.0250  162.1594 H   0  0  0  0  0  0  0  0  0  0  0  0
  153.3504  143.4948  162.3730 H   0  0  0  0  0  0  0  0  0  0  0  0
  151.3160  141.8836  160.4599 H   0  0  0  0  0  0  0  0  0  0  0  0
  154.3581  141.7000  160.2159 H   0  0  0  0  0  0  0  0  0  0  0  0
  153.2648  140.3201  160.2212 H   0  0  0  0  0  0  0  0  0  0  0  0
  153.3975  141.3264  161.6466 H   0  0  0  0  0  0  0  0  0  0  0  0
  151.9724  141.0240  158.2572 H   0  0  0  0  0  0  0  0  0  0  0  0
  153.0824  142.3504  158.0220 H   0  0  0  0  0  0  0  0  0  0  0  0
  150.2128  143.4296  156.0956 H   0  0  0  0  0  0  0  0  0  0  0  0
  1  2  1  0  0  0  0
  1 19  1  0  0  0  0
  1 20  1  0  0  0  0
  1 21  1  0  0  0  0
  2  7  1  0  0  0  0
  2  3  2  0  0  0  0
  3  4  1  0  0  0  0
  4  5  1  0  0  0  0
  5  6  1  0  0  0  0
  5  7  2  0  0  0  0
  6 22  1  0  0  0  0
  6 23  1  0  0  0  0
  6 24  1  0  0  0  0
  7  8  1  0  0  0  0
  8  9  1  0  0  0  0
  8 25  1  0  0  0  0
  8 26  1  0  0  0  0
  9 10  1  0  0  0  0
  9 27  1  0  0  0  0
  9 28  1  0  0  0  0
 10 11  1  0  0  0  0
 10 29  1  0  0  0  0
 10 45  1  0  0  0  0
 11 18  1  0  0  0  0
 11 12  1  0  0  0  0
 11 30  1  0  0  0  0
 12 13  1  0  0  0  0
 12 31  1  0  0  0  0
 12 32  1  0  0  0  0
 13 14  1  0  0  0  0
 13 33  1  0  0  0  0
 13 34  1  0  0  0  0
 14 15  1  0  0  0  0
 14 16  1  0  0  0  0
 14 35  1  0  0  0  0
 15 36  1  0  0  0  0
 15 37  1  0  0  0  0
 15 38  1  0  0  0  0
 16 17  1  0  0  0  0
 16 18  1  0  0  0  0
 16 39  1  0  0  0  0
 17 40  1  0  0  0  0
 17 41  1  0  0  0  0
 17 42  1  0  0  0  0
 18 43  1  0  0  0  0
 18 44  1  0  0  0  0
M  CHG  1  10   1
M  END
> <s_m_source_file>
AV-unprocessed.smi

> <i_m_source_file_index>
3285

> <i_lp_mmshare_version>
43012

> <i_f3d_flags>
0

> <s_epik_input>
W0NIM11jMW5vYyhbQ0gzXSljMVtDSDJdW0NIMl1bTkhdW0NAQEhdMltDSDJdW0NIMl1bQ0BASF0oW0NIM10pW0NAQEhdKFtDSDNdKVtDSDJdMg==

> <s_epik_cmdline>
J2VwaWtfcHl0aG9uJywgJy1waCcsICc3LjAnLCAnLXRuJywgJzgnLCAnLW1hJywgJzIwMCcsICctbWV0YWxfYmluZGluZycsICctaW1hZScsICc8aW5maWxlLm1hZT4nLCAnLW9tYWUnLCAnPG91dGZpbGUubWFlPic=

> <r_lp_tautomer_probability>
1

> <r_epik_Ionization_Penalty>
0.000204615

> <r_epik_Ionization_Penalty_Charging>
0.000204615

> <r_epik_Ionization_Penalty_Neutral>
9.28663e-11

> <r_epik_State_Penalty>
-0

> <r_epik_Charging_Adjusted_Penalty>
0.000204615

> <i_epik_Tot_Q>
1

> <i_epik_Tot_abs_Q>
1

> <r_epik_Metal_State_Penalty>
-0

> <b_epik_Metal_Only>
0

> <s_lp_Force_Field>
OPLS_2005

> <r_lp_Energy>
12.3139

> <b_lp_Chiralities_Consistent>
1

> <s_lp_Variant>
AV-unprocessed.smi:3285-5

> <Gold.Version>
5.8.1

> <Gold.Id.Protein>
6NUR|6NUR_protein|mol2

> <Gold.PLP.Fitness>
50.6258

> <Gold.PLP.PLP>
-42.5741

> <Gold.PLP.part.hbond>
-2.0000

> <Gold.PLP.part.metal>
0.0000

> <Gold.PLP.part.buried>
-5.5442

> <Gold.PLP.part.nonpolar>
-36.1528

> <Gold.PLP.part.repulsive>
0.7893

> <Gold.PLP.ligand.clash>
0.0000

> <Gold.PLP.ligand.torsion>
0.4753

> <Gold.PLP.Chemscore.Hbond>
3.0000

> <Gold.PLP.Chemscore.CHOScore>
0.0000

> <Gold.PLP.Chemscore.Metal>
0.0000

> <Gold.Chemscore.Hbonds>
donor molecule, donor type, donor heavy atom, donor atom, acceptor molecule, acceptor atom, score
      L1  H    10    45       P1  8028  2.00
      P1  H 10752 10765       L1     4  1.00

> <Gold.PLP.Chemscore.Internal.Correction>
0.0023

> <Gold.Rescore>
     Score         DG    S(hbond)    S(metal)    S(lipo)     H(rot)  DE(clash)    DE(int)     intcor
     21.38     -24.19       1.85        0.00     136.56       1.35       0.36       2.45       ----

> <Gold.Chemscore.Fitness>
21.3787

> <Gold.Chemscore.DG>
-24.1890

> <Gold.Chemscore.ZeroCoef>
-5.4800

> <Gold.Chemscore.Hbond>
1.8500

> <Gold.Chemscore.Metal>
0.0000

> <Gold.Chemscore.Lipo>
136.5556

> <Gold.Chemscore.Internal_Hbond>
0.0000

> <Gold.Chemscore.DEClash>
0.3564

> <Gold.Chemscore.DEInternal>
2.4539

> <Gold.Chemscore.Rot>
1.3465

> <Gold.Chemscore.Internal.Correction>
   9.000000E+99

> <Gold.Chemscore.Hbonds>
donor molecule, donor type, donor heavy atom, donor atom, acceptor molecule, acceptor atom, score
      L1  H    10    45       P1  8028  1.00
      P1  H 10752 10765       L1     4  0.54

> <Gold.Chemscore.Hbond.Weighted>
-6.1790

> <Gold.Chemscore.Metal.Weighted>
-0.0000

> <Gold.Chemscore.Lipo.Weighted>
-15.9770

> <Gold.Chemscore.Internal_Hbond.Weighted>
0.0000

> <Gold.Chemscore.DEClash.Weighted>
0.3564

> <Gold.Chemscore.DEInternal.Weighted>
2.4539

> <Gold.Chemscore.Rot.Weighted>
3.4470

> <Gold.Chemscore.Internal.Correction.Weighted>
   9.000000E+99

> <Gold.Protein.RotatedTorsions>
[ 6907 6896 6895 6894 ] final   35.88 input  -60.11 | X-H torsion
[ 7974 7965 7964 7962 ] final    1.40 input  175.53 | X-H torsion
[ 8008 7997 7996 7995 ] final   -7.47 input   59.86 | X-H torsion
[ 10167 10162 10161 10158 ] final  154.91 input  -65.29 | X-H torsion
[ 10718 10713 10712 10709 ] final  131.00 input   66.30 | X-H torsion
[ 10763 10752 10751 10750 ] final  147.39 input  -60.55 | X-H torsion
[ 11005 11000 10999 10996 ] final   63.26 input  -57.11 | X-H torsion

> <Gold.Protein.ActiveResidues>
 VAL166  LYS551  ARG553  GLY616  TRP617  ASP618  TYR619  PRO620  LYS621  CYS622 
 ASP623  PHE694  ASN695  SER759  ASP760  ASP761  ALA762  ILE779  LEU786  VAL792 
 PHE793  MET794  SER795  GLU796  ALA797  LYS798  CYS799  TRP800  GLU811  SER814 

> <Gold.Protein.RotatedAtoms>
  152.1222  134.9197  160.0562 H   0  0  0  0  0  0  0  0  0  0  0  0  # atno 6907 bound_to 6896
  152.0334  133.3942  159.4315 H   0  0  0  0  0  0  0  0  0  0  0  0  # atno 6908 bound_to 6896
  150.6850  134.3417  159.4914 H   0  0  0  0  0  0  0  0  0  0  0  0  # atno 6909 bound_to 6896
  146.2440  140.0993  142.8348 H   0  0  0  0  0  0  0  0  0  0  0  0  # atno 7974 bound_to 7965
  154.5835  140.2406  155.8020 H   0  0  0  0  0  0  0  0  0  0  0  0  # atno 8008 bound_to 7997
  156.2196  140.3001  155.9877 H   0  0  0  0  0  0  0  0  0  0  0  0  # atno 8009 bound_to 7997
  155.2499  140.0410  157.2976 H   0  0  0  0  0  0  0  0  0  0  0  0  # atno 8010 bound_to 7997
  139.4822  144.5145  151.7973 H   0  0  0  0  0  0  0  0  0  0  0  0  # atno 10167 bound_to 10162
  157.5009  131.1094  150.9428 H   0  0  0  0  0  0  0  0  0  0  0  0  # atno 10718 bound_to 10713
  154.0376  135.2892  155.3359 H   0  0  0  0  0  0  0  0  0  0  0  0  # atno 10763 bound_to 10752
  154.6949  135.5211  153.8448 H   0  0  0  0  0  0  0  0  0  0  0  0  # atno 10764 bound_to 10752
  153.0613  135.6615  154.0583 H   0  0  0  0  0  0  0  0  0  0  0  0  # atno 10765 bound_to 10752
  140.0037  134.6403  155.9890 H   0  0  0  0  0  0  0  0  0  0  0  0  # atno 11005 bound_to 11000
  145.0583  140.9068  143.4954 LP  0  0  0  0  0  0  0  0  0  0  0  0  # atno 17320 bound_to 7965
  145.1103  139.2761  143.5641 LP  0  0  0  0  0  0  0  0  0  0  0  0  # atno 17321 bound_to 7965
  140.4652  144.1666  150.5911 LP  0  0  0  0  0  0  0  0  0  0  0  0  # atno 17342 bound_to 10162
  140.4442  143.2513  151.9433 LP  0  0  0  0  0  0  0  0  0  0  0  0  # atno 17343 bound_to 10162
  157.0099  130.5632  149.5320 LP  0  0  0  0  0  0  0  0  0  0  0  0  # atno 17370 bound_to 10713
  156.0229  130.5323  150.8325 LP  0  0  0  0  0  0  0  0  0  0  0  0  # atno 17371 bound_to 10713
  141.1661  133.6537  156.4484 LP  0  0  0  0  0  0  0  0  0  0  0  0  # atno 17394 bound_to 11000
  140.4681  134.6779  157.5116 LP  0  0  0  0  0  0  0  0  0  0  0  0  # atno 17395 bound_to 11000

$$$$
