AV-unprocessed.smi:274|AV-procd|sdf|2061|dock3
  -GOLD-   2262021303D 1   1.00000     0.00000
 Structure written by MMmdl.
 50 53  0  0  0  0  0  0  0  0  1 V2000
  151.1345  143.8647  157.2568 C   0  0  0  0  0  0  0  0  0  0  0  0
  151.1923  143.1584  158.6269 C   0  0  0  0  0  0  0  0  0  0  0  0
  152.6687  142.9119  158.9977 C   0  0  0  0  0  0  0  0  0  0  0  0
  150.3191  141.8644  158.6556 C   0  0  1  0  0  0  0  0  0  0  0  0
  148.8257  142.1413  158.3451 C   0  0  0  0  0  0  0  0  0  0  0  0
  148.1044  142.6463  159.2028 O   0  0  0  0  0  0  0  0  0  0  0  0
  148.3294  141.7923  157.1440 N   0  0  0  0  0  0  0  0  0  0  0  0
  149.0572  141.1073  156.0756 C   0  0  0  0  0  0  0  0  0  0  0  0
  150.5780  141.0637  156.3063 C   0  0  0  0  0  0  0  0  0  0  0  0
  150.8735  140.8685  157.7233 N   0  0  0  0  0  0  0  0  0  0  0  0
  150.9487  139.5703  158.1138 C   0  0  0  0  0  0  0  0  0  0  0  0
  152.1589  138.9873  158.3241 N   0  0  0  0  0  0  0  0  0  0  0  0
  152.2328  137.7146  158.7245 C   0  0  0  0  0  0  0  0  0  0  0  0
  151.2394  136.8581  158.9700 N   0  0  0  0  0  0  0  0  0  0  0  0
  150.0230  137.4362  158.7552 C   0  0  0  0  0  0  0  0  0  0  0  0
  149.7901  138.7756  158.3343 C   0  0  0  0  0  0  0  0  0  0  0  0
  148.4244  139.0077  158.2224 N   0  0  0  0  0  0  0  0  0  0  0  0
  147.8807  137.8708  158.5612 C   0  0  0  0  0  0  0  0  0  0  0  0
  148.7674  136.8694  158.8887 N   0  0  0  0  0  0  0  0  0  0  0  0
  148.4394  135.5113  159.2937 C   0  0  0  0  0  0  0  0  0  0  0  0
  147.6863  135.4357  160.6425 C   0  0  2  0  0  0  0  0  0  0  0  0
  147.5037  134.0755  160.9955 O   0  0  0  0  0  0  0  0  0  0  0  0
  146.3222  136.1205  160.6353 C   0  0  0  0  0  0  0  0  0  0  0  0
  146.1902  136.6297  162.0638 C   0  0  0  0  0  0  0  0  0  0  0  0
  147.5044  137.0734  162.3538 O   0  0  0  0  0  0  0  0  0  0  0  0
  148.4272  136.1442  161.7943 C   0  0  0  0  0  0  0  0  0  0  0  0
  151.4707  143.2031  156.4579 H   0  0  0  0  0  0  0  0  0  0  0  0
  151.7714  144.7498  157.2427 H   0  0  0  0  0  0  0  0  0  0  0  0
  150.1268  144.2001  157.0102 H   0  0  0  0  0  0  0  0  0  0  0  0
  150.7987  143.8596  159.3635 H   0  0  0  0  0  0  0  0  0  0  0  0
  153.1157  142.1515  158.3565 H   0  0  0  0  0  0  0  0  0  0  0  0
  152.7848  142.5916  160.0324 H   0  0  0  0  0  0  0  0  0  0  0  0
  153.2583  143.8227  158.8891 H   0  0  0  0  0  0  0  0  0  0  0  0
  150.3684  141.4771  159.6750 H   0  0  0  0  0  0  0  0  0  0  0  0
  147.3533  141.9850  156.9720 H   0  0  0  0  0  0  0  0  0  0  0  0
  148.6710  140.0884  156.0290 H   0  0  0  0  0  0  0  0  0  0  0  0
  148.8290  141.5726  155.1167 H   0  0  0  0  0  0  0  0  0  0  0  0
  151.0296  140.2966  155.6765 H   0  0  0  0  0  0  0  0  0  0  0  0
  151.0242  142.0057  155.9879 H   0  0  0  0  0  0  0  0  0  0  0  0
  153.2306  137.3275  158.8697 H   0  0  0  0  0  0  0  0  0  0  0  0
  146.8099  137.7296  158.5760 H   0  0  0  0  0  0  0  0  0  0  0  0
  147.8474  135.0477  158.5032 H   0  0  0  0  0  0  0  0  0  0  0  0
  149.3686  134.9427  159.3516 H   0  0  0  0  0  0  0  0  0  0  0  0
  147.2476  134.0330  161.9041 H   0  0  0  0  0  0  0  0  0  0  0  0
  146.3333  136.9770  159.9599 H   0  0  0  0  0  0  0  0  0  0  0  0
  145.5019  135.4689  160.3314 H   0  0  0  0  0  0  0  0  0  0  0  0
  145.4615  137.4345  162.1612 H   0  0  0  0  0  0  0  0  0  0  0  0
  145.9128  135.8242  162.7454 H   0  0  0  0  0  0  0  0  0  0  0  0
  148.7532  135.4445  162.5658 H   0  0  0  0  0  0  0  0  0  0  0  0
  149.3105  136.6834  161.4506 H   0  0  0  0  0  0  0  0  0  0  0  0
  1  2  1  0  0  0  0
  1 27  1  0  0  0  0
  1 28  1  0  0  0  0
  1 29  1  0  0  0  0
  2  3  1  0  0  0  0
  2  4  1  0  0  0  0
  2 30  1  0  0  0  0
  3 31  1  0  0  0  0
  3 32  1  0  0  0  0
  3 33  1  0  0  0  0
  4 10  1  0  0  0  0
  4  5  1  0  0  0  0
  4 34  1  0  0  0  0
  5  6  2  0  0  0  0
  5  7  1  0  0  0  0
  7  8  1  0  0  0  0
  7 35  1  0  0  0  0
  8  9  1  0  0  0  0
  8 36  1  0  0  0  0
  8 37  1  0  0  0  0
  9 10  1  0  0  0  0
  9 38  1  0  0  0  0
  9 39  1  0  0  0  0
 10 11  1  0  0  0  0
 11 16  1  0  0  0  0
 11 12  2  0  0  0  0
 12 13  1  0  0  0  0
 13 14  2  0  0  0  0
 13 40  1  0  0  0  0
 14 15  1  0  0  0  0
 15 19  1  0  0  0  0
 15 16  2  0  0  0  0
 16 17  1  0  0  0  0
 17 18  2  0  0  0  0
 18 19  1  0  0  0  0
 18 41  1  0  0  0  0
 19 20  1  0  0  0  0
 20 21  1  0  0  0  0
 20 42  1  0  0  0  0
 20 43  1  0  0  0  0
 21 26  1  0  0  0  0
 21 22  1  0  0  0  0
 21 23  1  0  0  0  0
 22 44  1  0  0  0  0
 23 24  1  0  0  0  0
 23 45  1  0  0  0  0
 23 46  1  0  0  0  0
 24 25  1  0  0  0  0
 24 47  1  0  0  0  0
 24 48  1  0  0  0  0
 25 26  1  0  0  0  0
 26 49  1  0  0  0  0
 26 50  1  0  0  0  0
M  END
> <s_m_source_file>
AV-unprocessed.smi

> <i_m_source_file_index>
274

> <i_lp_mmshare_version>
43012

> <i_f3d_flags>
0

> <s_epik_input>
W0NIM11bQ0hdKFtDSDNdKVtDQEBIXTFDKD1PKVtOSF1bQ0gyXVtDSDJdTjFjKG5bY0hdbjIpYyhjMjMpbltjSF1uM1tDSDJdW0NAQF00KFtPSF0pW0NIMl1bQ0gyXU9bQ0gyXTQ=

> <s_epik_cmdline>
J2VwaWtfcHl0aG9uJywgJy1waCcsICc3LjAnLCAnLXRuJywgJzgnLCAnLW1hJywgJzIwMCcsICctbWV0YWxfYmluZGluZycsICctaW1hZScsICc8aW5maWxlLm1hZT4nLCAnLW9tYWUnLCAnPG91dGZpbGUubWFlPic=

> <r_lp_tautomer_probability>
1

> <r_epik_Ionization_Penalty>
0.000690079

> <r_epik_Ionization_Penalty_Charging>
0

> <r_epik_Ionization_Penalty_Neutral>
0.000690079

> <r_epik_State_Penalty>
0.000321372

> <r_epik_Charging_Adjusted_Penalty>
0.000321372

> <i_epik_Tot_Q>
0

> <i_epik_Tot_abs_Q>
0

> <r_epik_Metal_State_Penalty>
-0

> <b_epik_Metal_Only>
0

> <s_lp_Force_Field>
OPLS_2005

> <r_lp_Energy>
41.7848

> <b_lp_Chiralities_Consistent>
1

> <s_lp_Variant>
AV-unprocessed.smi:274-4

> <Gold.Version>
5.8.1

> <Gold.Id.Protein>
6NUR|6NUR_protein|mol2

> <Gold.PLP.Fitness>
42.4439

> <Gold.PLP.PLP>
-39.1566

> <Gold.PLP.part.hbond>
-4.3953

> <Gold.PLP.part.metal>
0.0000

> <Gold.PLP.part.buried>
-7.3419

> <Gold.PLP.part.nonpolar>
-28.5119

> <Gold.PLP.part.repulsive>
0.1574

> <Gold.PLP.ligand.clash>
0.0000

> <Gold.PLP.ligand.torsion>
1.4070

> <Gold.PLP.Chemscore.Hbond>
1.9200

> <Gold.PLP.Chemscore.CHOScore>
0.0000

> <Gold.PLP.Chemscore.Metal>
0.0000

> <Gold.Chemscore.Hbonds>
donor molecule, donor type, donor heavy atom, donor atom, acceptor molecule, acceptor atom, score
      P1  H  6896  6909       L1    14  0.96
      P1  H  6933  6944       L1     6  0.18
      P1  H  6934  6947       L1    25  0.01

> <Gold.PLP.Chemscore.Internal.Correction>
0.3413

> <Gold.Rescore>
     Score         DG    S(hbond)    S(metal)    S(lipo)     H(rot)  DE(clash)    DE(int)     intcor
     10.36     -13.72       1.36        0.00      78.34       2.14       0.21       3.15       ----

> <Gold.Chemscore.Fitness>
10.3614

> <Gold.Chemscore.DG>
-13.7177

> <Gold.Chemscore.ZeroCoef>
-5.4800

> <Gold.Chemscore.Hbond>
1.3647

> <Gold.Chemscore.Metal>
0.0000

> <Gold.Chemscore.Lipo>
78.3413

> <Gold.Chemscore.Internal_Hbond>
0.0000

> <Gold.Chemscore.DEClash>
0.2063

> <Gold.Chemscore.DEInternal>
3.1500

> <Gold.Chemscore.Rot>
2.1431

> <Gold.Chemscore.Internal.Correction>
   9.000000E+99

> <Gold.Chemscore.Hbonds>
donor molecule, donor type, donor heavy atom, donor atom, acceptor molecule, acceptor atom, score
      P1  H  6896  6909       L1    14  0.80
      P1  H  6933  6944       L1     6  0.17

> <Gold.Chemscore.Hbond.Weighted>
-4.5580

> <Gold.Chemscore.Metal.Weighted>
-0.0000

> <Gold.Chemscore.Lipo.Weighted>
-9.1659

> <Gold.Chemscore.Internal_Hbond.Weighted>
0.0000

> <Gold.Chemscore.DEClash.Weighted>
0.2063

> <Gold.Chemscore.DEInternal.Weighted>
3.1500

> <Gold.Chemscore.Rot.Weighted>
5.4863

> <Gold.Chemscore.Internal.Correction.Weighted>
   9.000000E+99

> <Gold.Protein.RotatedTorsions>
[ 6907 6896 6895 6894 ] final   93.14 input  -60.11 | X-H torsion
[ 7974 7965 7964 7962 ] final -167.70 input  175.53 | X-H torsion
[ 8008 7997 7996 7995 ] final   74.24 input   59.86 | X-H torsion
[ 10167 10162 10161 10158 ] final    0.88 input  -65.29 | X-H torsion
[ 10718 10713 10712 10709 ] final   31.05 input   66.30 | X-H torsion
[ 10763 10752 10751 10750 ] final  -42.86 input  -60.55 | X-H torsion
[ 11005 11000 10999 10996 ] final  144.84 input  -57.11 | X-H torsion

> <Gold.Protein.ActiveResidues>
 VAL166  LYS551  ARG553  GLY616  TRP617  ASP618  TYR619  PRO620  LYS621  CYS622 
 ASP623  PHE694  ASN695  SER759  ASP760  ASP761  ALA762  ILE779  LEU786  VAL792 
 PHE793  MET794  SER795  GLU796  ALA797  LYS798  CYS799  TRP800  GLU811  SER814 

> <Gold.Protein.RotatedAtoms>
  152.5453  134.1393  159.8471 H   0  0  0  0  0  0  0  0  0  0  0  0  # atno 6907 bound_to 6896
  151.1431  133.4951  159.2604 H   0  0  0  0  0  0  0  0  0  0  0  0  # atno 6908 bound_to 6896
  151.1552  135.0257  159.8740 H   0  0  0  0  0  0  0  0  0  0  0  0  # atno 6909 bound_to 6896
  144.7217  140.2479  143.6282 H   0  0  0  0  0  0  0  0  0  0  0  0  # atno 7974 bound_to 7965
  155.7954  140.3478  155.5373 H   0  0  0  0  0  0  0  0  0  0  0  0  # atno 8008 bound_to 7997
  155.8592  140.0968  157.1645 H   0  0  0  0  0  0  0  0  0  0  0  0  # atno 8009 bound_to 7997
  154.4011  140.1362  156.3926 H   0  0  0  0  0  0  0  0  0  0  0  0  # atno 8010 bound_to 7997
  140.6708  143.7052  150.7920 H   0  0  0  0  0  0  0  0  0  0  0  0  # atno 10167 bound_to 10162
  157.2675  130.7191  149.6486 H   0  0  0  0  0  0  0  0  0  0  0  0  # atno 10718 bound_to 10713
  153.9860  135.6711  153.4752 H   0  0  0  0  0  0  0  0  0  0  0  0  # atno 10763 bound_to 10752
  153.0726  135.4966  154.8334 H   0  0  0  0  0  0  0  0  0  0  0  0  # atno 10764 bound_to 10752
  154.7137  135.3102  154.9119 H   0  0  0  0  0  0  0  0  0  0  0  0  # atno 10765 bound_to 10752
  140.0664  134.9176  157.1272 H   0  0  0  0  0  0  0  0  0  0  0  0  # atno 11005 bound_to 11000
  145.8256  139.2063  143.1912 LP  0  0  0  0  0  0  0  0  0  0  0  0  # atno 17320 bound_to 7965
  146.0476  140.8102  142.9798 LP  0  0  0  0  0  0  0  0  0  0  0  0  # atno 17321 bound_to 7965
  140.0737  143.5036  152.2566 LP  0  0  0  0  0  0  0  0  0  0  0  0  # atno 17342 bound_to 10162
  139.5976  144.7572  151.3248 LP  0  0  0  0  0  0  0  0  0  0  0  0  # atno 17343 bound_to 10162
  155.9663  130.4378  150.5191 LP  0  0  0  0  0  0  0  0  0  0  0  0  # atno 17370 bound_to 10713
  157.3108  131.0663  151.2002 LP  0  0  0  0  0  0  0  0  0  0  0  0  # atno 17371 bound_to 10713
  140.3692  134.2409  155.7179 LP  0  0  0  0  0  0  0  0  0  0  0  0  # atno 17394 bound_to 11000
  141.1994  133.8011  157.0536 LP  0  0  0  0  0  0  0  0  0  0  0  0  # atno 17395 bound_to 11000

$$$$
