AV-unprocessed.smi:3148|AV-procd|sdf|11996|dock4
  -GOLD-   2272017403D 1   1.00000     0.00000
 Structure written by MMmdl.
 35 37  0  0  0  0  0  0  0  0  2 V2000
  151.3087  137.5102  154.6252 C   0  0  0  0  0  0  0  0  0  0  0  0
  151.6664  138.6426  155.4109 O   0  0  0  0  0  0  0  0  0  0  0  0
  150.8745  139.7694  155.3326 C   0  0  0  0  0  0  0  0  0  0  0  0
  149.7828  139.7902  154.4491 C   0  0  0  0  0  0  0  0  0  0  0  0
  149.0116  140.9679  154.4116 C   0  0  0  0  0  0  0  0  0  0  0  0
  147.8083  141.1131  153.5049 C   0  0  0  0  0  0  0  0  0  0  0  0
  149.3346  142.0179  155.2071 N   0  3  0  0  0  0  0  0  0  0  0  0
  150.3885  141.9335  156.0324 C   0  0  0  0  0  0  0  0  0  0  0  0
  150.6673  143.0301  156.8279 N   0  0  0  0  0  0  0  0  0  0  0  0
  151.7755  143.0928  157.7739 C   0  0  1  0  0  0  0  0  0  0  0  0
  152.5468  144.4135  157.7126 C   0  0  0  0  0  0  0  0  0  0  0  0
  152.5104  144.8667  159.1789 C   0  0  1  0  0  0  0  0  0  0  0  0
  151.1253  145.3979  159.5699 C   0  0  0  0  0  0  0  0  0  0  0  0
  150.3064  144.1103  159.6362 C   0  0  0  0  0  0  0  0  0  0  0  0
  151.3520  143.0478  159.2556 C   0  0  2  0  0  0  0  0  0  0  0  0
  152.5069  143.6166  159.8483 O   0  0  0  0  0  0  0  0  0  0  0  0
  151.1595  140.8401  156.1097 N   0  0  0  0  0  0  0  0  0  0  0  0
  152.0202  136.7050  154.8082 H   0  0  0  0  0  0  0  0  0  0  0  0
  151.3349  137.7398  153.5591 H   0  0  0  0  0  0  0  0  0  0  0  0
  150.3168  137.1393  154.8871 H   0  0  0  0  0  0  0  0  0  0  0  0
  149.5494  138.9376  153.8278 H   0  0  0  0  0  0  0  0  0  0  0  0
  147.7377  140.2774  152.8082 H   0  0  0  0  0  0  0  0  0  0  0  0
  147.8758  142.0339  152.9248 H   0  0  0  0  0  0  0  0  0  0  0  0
  146.8922  141.1442  154.0954 H   0  0  0  0  0  0  0  0  0  0  0  0
  149.9768  143.7656  156.8623 H   0  0  0  0  0  0  0  0  0  0  0  0
  152.4656  142.2731  157.5687 H   0  0  0  0  0  0  0  0  0  0  0  0
  153.5721  144.2369  157.3858 H   0  0  0  0  0  0  0  0  0  0  0  0
  152.1027  145.1543  157.0458 H   0  0  0  0  0  0  0  0  0  0  0  0
  153.3319  145.5264  159.4594 H   0  0  0  0  0  0  0  0  0  0  0  0
  151.1553  145.8829  160.5465 H   0  0  0  0  0  0  0  0  0  0  0  0
  150.7342  146.1130  158.8454 H   0  0  0  0  0  0  0  0  0  0  0  0
  149.9463  143.9441  160.6521 H   0  0  0  0  0  0  0  0  0  0  0  0
  149.4413  144.1202  158.9727 H   0  0  0  0  0  0  0  0  0  0  0  0
  151.1152  142.0474  159.6188 H   0  0  0  0  0  0  0  0  0  0  0  0
  148.7668  142.8648  155.1709 H   0  0  0  0  0  0  0  0  0  0  0  0
  1  2  1  0  0  0  0
  1 18  1  0  0  0  0
  1 19  1  0  0  0  0
  1 20  1  0  0  0  0
  2  3  1  0  0  0  0
  3 17  1  0  0  0  0
  3  4  2  0  0  0  0
  4  5  1  0  0  0  0
  4 21  1  0  0  0  0
  5  6  1  0  0  0  0
  5  7  2  0  0  0  0
  6 22  1  0  0  0  0
  6 23  1  0  0  0  0
  6 24  1  0  0  0  0
  7  8  1  0  0  0  0
  7 35  1  0  0  0  0
  8  9  1  0  0  0  0
  8 17  2  0  0  0  0
  9 10  1  0  0  0  0
  9 25  1  0  0  0  0
 10 15  1  0  0  0  0
 10 11  1  0  0  0  0
 10 26  1  0  0  0  0
 11 12  1  0  0  0  0
 11 27  1  0  0  0  0
 11 28  1  0  0  0  0
 12 16  1  0  0  0  0
 12 13  1  0  0  0  0
 12 29  1  0  0  0  0
 13 14  1  0  0  0  0
 13 30  1  0  0  0  0
 13 31  1  0  0  0  0
 14 15  1  0  0  0  0
 14 32  1  0  0  0  0
 14 33  1  0  0  0  0
 15 16  1  0  0  0  0
 15 34  1  0  0  0  0
M  CHG  1   7   1
M  END
> <s_m_source_file>
AV-unprocessed.smi

> <i_m_source_file_index>
3148

> <i_lp_mmshare_version>
43012

> <i_f3d_flags>
0

> <s_epik_input>
W0NIM11PYzFbY0hdYyhbQ0gzXSluYyhuMSlbTkhdW0NASF0oW0NIMl1bQ0BASF0yMylbQ0BASF0oTzMpW0NIMl1bQ0gyXTI=

> <s_epik_cmdline>
J2VwaWtfcHl0aG9uJywgJy1waCcsICc3LjAnLCAnLXRuJywgJzgnLCAnLW1hJywgJzIwMCcsICctbWV0YWxfYmluZGluZycsICctaW1hZScsICc8aW5maWxlLm1hZT4nLCAnLW9tYWUnLCAnPG91dGZpbGUubWFlPic=

> <r_lp_tautomer_probability>
0.999985

> <r_epik_Ionization_Penalty>
1.09461

> <r_epik_Ionization_Penalty_Charging>
1.0946

> <r_epik_Ionization_Penalty_Neutral>
6.69406e-06

> <r_epik_State_Penalty>
1.15119

> <r_epik_Charging_Adjusted_Penalty>
2.24579

> <i_epik_Tot_Q>
1

> <i_epik_Tot_abs_Q>
1

> <r_epik_Metal_State_Penalty>
1.2392

> <b_epik_Metal_Only>
0

> <s_lp_Force_Field>
OPLS_2005

> <r_lp_Energy>
36.3956

> <b_lp_Chiralities_Consistent>
1

> <s_lp_Variant>
AV-unprocessed.smi:3148-6

> <Gold.Version>
5.8.1

> <Gold.Id.Protein>
6NUR|6NUR_protein|mol2

> <Gold.PLP.Fitness>
48.0375

> <Gold.PLP.PLP>
-38.7859

> <Gold.PLP.part.hbond>
-2.0000

> <Gold.PLP.part.metal>
0.0000

> <Gold.PLP.part.buried>
-5.6200

> <Gold.PLP.part.nonpolar>
-30.5263

> <Gold.PLP.part.repulsive>
0.2655

> <Gold.PLP.ligand.clash>
0.0332

> <Gold.PLP.ligand.torsion>
0.1620

> <Gold.PLP.Chemscore.Hbond>
3.2000

> <Gold.PLP.Chemscore.CHOScore>
0.0000

> <Gold.PLP.Chemscore.Metal>
0.0000

> <Gold.Chemscore.Hbonds>
donor molecule, donor type, donor heavy atom, donor atom, acceptor molecule, acceptor atom, score
      L1  H     7    35       P1  8028  1.60
      L1  H     9    25       P1  8028  1.57

> <Gold.PLP.Chemscore.Internal.Correction>
0.0088

> <Gold.Rescore>
     Score         DG    S(hbond)    S(metal)    S(lipo)     H(rot)  DE(clash)    DE(int)     intcor
     17.71     -18.46       1.38        0.00      98.72       1.24       0.59       0.16       ----

> <Gold.Chemscore.Fitness>
17.7110

> <Gold.Chemscore.DG>
-18.4631

> <Gold.Chemscore.ZeroCoef>
-5.4800

> <Gold.Chemscore.Hbond>
1.3777

> <Gold.Chemscore.Metal>
0.0000

> <Gold.Chemscore.Lipo>
98.7166

> <Gold.Chemscore.Internal_Hbond>
0.0000

> <Gold.Chemscore.DEClash>
0.5917

> <Gold.Chemscore.DEInternal>
0.1605

> <Gold.Chemscore.Rot>
1.2376

> <Gold.Chemscore.Internal.Correction>
   9.000000E+99

> <Gold.Chemscore.Hbonds>
donor molecule, donor type, donor heavy atom, donor atom, acceptor molecule, acceptor atom, score
      L1  H     7    35       P1  8028  0.79
      L1  H     9    25       P1  8028  0.77

> <Gold.Chemscore.Hbond.Weighted>
-4.6014

> <Gold.Chemscore.Metal.Weighted>
-0.0000

> <Gold.Chemscore.Lipo.Weighted>
-11.5498

> <Gold.Chemscore.Internal_Hbond.Weighted>
0.0000

> <Gold.Chemscore.DEClash.Weighted>
0.5917

> <Gold.Chemscore.DEInternal.Weighted>
0.1605

> <Gold.Chemscore.Rot.Weighted>
3.1681

> <Gold.Chemscore.Internal.Correction.Weighted>
   9.000000E+99

> <Gold.Protein.RotatedTorsions>
[ 6907 6896 6895 6894 ] final   94.56 input  -60.11 | X-H torsion
[ 7974 7965 7964 7962 ] final   14.60 input  175.53 | X-H torsion
[ 8008 7997 7996 7995 ] final -155.30 input   59.86 | X-H torsion
[ 10167 10162 10161 10158 ] final  100.46 input  -65.29 | X-H torsion
[ 10718 10713 10712 10709 ] final  -53.16 input   66.30 | X-H torsion
[ 10763 10752 10751 10750 ] final  -37.62 input  -60.55 | X-H torsion
[ 11005 11000 10999 10996 ] final  -63.77 input  -57.11 | X-H torsion

> <Gold.Protein.ActiveResidues>
 VAL166  LYS551  ARG553  GLY616  TRP617  ASP618  TYR619  PRO620  LYS621  CYS622 
 ASP623  PHE694  ASN695  SER759  ASP760  ASP761  ALA762  ILE779  LEU786  VAL792 
 PHE793  MET794  SER795  GLU796  ALA797  LYS798  CYS799  TRP800  GLU811  SER814 

> <Gold.Protein.RotatedAtoms>
  152.5449  134.1175  159.8384 H   0  0  0  0  0  0  0  0  0  0  0  0  # atno 6907 bound_to 6896
  151.1235  133.5080  159.2608 H   0  0  0  0  0  0  0  0  0  0  0  0  # atno 6908 bound_to 6896
  151.1753  135.0346  159.8824 H   0  0  0  0  0  0  0  0  0  0  0  0  # atno 6909 bound_to 6896
  146.2301  139.9017  142.8538 H   0  0  0  0  0  0  0  0  0  0  0  0  # atno 7974 bound_to 7965
  155.6998  140.0765  157.2415 H   0  0  0  0  0  0  0  0  0  0  0  0  # atno 8008 bound_to 7997
  154.4075  140.1649  156.2231 H   0  0  0  0  0  0  0  0  0  0  0  0  # atno 8009 bound_to 7997
  155.9378  140.3386  155.6305 H   0  0  0  0  0  0  0  0  0  0  0  0  # atno 8010 bound_to 7997
  139.7525  144.6979  151.0411 H   0  0  0  0  0  0  0  0  0  0  0  0  # atno 10167 bound_to 10162
  156.1559  130.4150  149.9870 H   0  0  0  0  0  0  0  0  0  0  0  0  # atno 10718 bound_to 10713
  153.8993  135.6804  153.4756 H   0  0  0  0  0  0  0  0  0  0  0  0  # atno 10763 bound_to 10752
  153.1138  135.4771  154.9078 H   0  0  0  0  0  0  0  0  0  0  0  0  # atno 10764 bound_to 10752
  154.7583  135.3203  154.8381 H   0  0  0  0  0  0  0  0  0  0  0  0  # atno 10765 bound_to 10752
  141.1404  133.6656  156.5731 H   0  0  0  0  0  0  0  0  0  0  0  0  # atno 11005 bound_to 11000
  145.2316  140.9975  143.3987 LP  0  0  0  0  0  0  0  0  0  0  0  0  # atno 17320 bound_to 7965
  144.9525  139.4067  143.6395 LP  0  0  0  0  0  0  0  0  0  0  0  0  # atno 17321 bound_to 7965
  140.7799  143.4792  151.0041 LP  0  0  0  0  0  0  0  0  0  0  0  0  # atno 17342 bound_to 10162
  139.8479  143.7477  152.3179 LP  0  0  0  0  0  0  0  0  0  0  0  0  # atno 17343 bound_to 10162
  156.7714  130.9187  151.3644 LP  0  0  0  0  0  0  0  0  0  0  0  0  # atno 17370 bound_to 10713
  157.6694  130.9037  150.0006 LP  0  0  0  0  0  0  0  0  0  0  0  0  # atno 17371 bound_to 10713
  140.3897  134.7451  157.4714 LP  0  0  0  0  0  0  0  0  0  0  0  0  # atno 17394 bound_to 11000
  140.0575  134.6042  155.8788 LP  0  0  0  0  0  0  0  0  0  0  0  0  # atno 17395 bound_to 11000

$$$$
