AV-unprocessed.smi:3029|AV-procd|sdf|11525|dock2
  -GOLD-   2272016463D 1   1.00000     0.00000
 Structure written by MMmdl.
 42 43  0  0  0  0  0  0  0  0  4 V2000
  149.8014  140.1641  154.0014 O   0  0  0  0  0  0  0  0  0  0  0  0
  150.3229  139.2952  154.6996 C   0  0  0  0  0  0  0  0  0  0  0  0
  151.0557  138.1651  154.1198 C   0  0  0  0  0  0  0  0  0  0  0  0
  151.6053  137.2066  154.8913 C   0  0  0  0  0  0  0  0  0  0  0  0
  151.4856  137.2665  156.3350 C   0  0  0  0  0  0  0  0  0  0  0  0
  152.0462  136.2294  157.1723 N   0  3  0  0  0  0  0  0  0  0  0  0
  152.0582  136.3898  158.3891 O   0  0  0  0  0  0  0  0  0  0  0  0
  152.4885  135.2177  156.6386 O   0  5  0  0  0  0  0  0  0  0  0  0
  150.8220  138.3123  156.8658 C   0  0  0  0  0  0  0  0  0  0  0  0
  150.2475  139.3187  156.0647 N   0  0  0  0  0  0  0  0  0  0  0  0
  149.5244  140.3989  156.7556 C   0  0  0  0  0  0  0  0  0  0  0  0
  150.2052  141.7709  156.5818 C   0  0  0  0  0  0  0  0  0  0  0  0
  150.4074  142.4496  157.8804 N   0  3  0  0  0  0  0  0  0  0  0  0
  151.7659  142.3406  158.4574 C   0  0  2  0  0  0  0  0  0  0  0  0
  152.0957  140.8584  158.7436 C   0  0  0  0  0  0  0  0  0  0  0  0
  153.4708  140.6891  159.4005 C   0  0  0  0  0  0  0  0  0  0  0  0
  153.5592  141.5130  160.6887 C   0  0  0  0  0  0  0  0  0  0  0  0
  153.2675  142.9927  160.4079 C   0  0  0  0  0  0  0  0  0  0  0  0
  151.8864  143.2072  159.7445 C   0  0  1  0  0  0  0  0  0  0  0  0
  151.6459  144.7179  159.4898 C   0  0  0  0  0  0  0  0  0  0  0  0
  152.3743  145.1409  158.4565 F   0  0  0  0  0  0  0  0  0  0  0  0
  150.3615  144.9699  159.2378 F   0  0  0  0  0  0  0  0  0  0  0  0
  151.9856  145.4217  160.5694 F   0  0  0  0  0  0  0  0  0  0  0  0
  151.1574  138.1009  153.0463 H   0  0  0  0  0  0  0  0  0  0  0  0
  152.1371  136.3939  154.4185 H   0  0  0  0  0  0  0  0  0  0  0  0
  150.6730  138.4432  157.9279 H   0  0  0  0  0  0  0  0  0  0  0  0
  148.4974  140.4577  156.3918 H   0  0  0  0  0  0  0  0  0  0  0  0
  149.4296  140.1678  157.8181 H   0  0  0  0  0  0  0  0  0  0  0  0
  151.1638  141.6428  156.0791 H   0  0  0  0  0  0  0  0  0  0  0  0
  149.5931  142.4030  155.9375 H   0  0  0  0  0  0  0  0  0  0  0  0
  150.2300  143.4323  157.7266 H   0  0  0  0  0  0  0  0  0  0  0  0
  152.4819  142.7241  157.7287 H   0  0  0  0  0  0  0  0  0  0  0  0
  151.3318  140.4302  159.3944 H   0  0  0  0  0  0  0  0  0  0  0  0
  152.0743  140.2765  157.8220 H   0  0  0  0  0  0  0  0  0  0  0  0
  153.6520  139.6361  159.6187 H   0  0  0  0  0  0  0  0  0  0  0  0
  154.2527  141.0021  158.7073 H   0  0  0  0  0  0  0  0  0  0  0  0
  152.8492  141.1296  161.4229 H   0  0  0  0  0  0  0  0  0  0  0  0
  154.5502  141.4065  161.1308 H   0  0  0  0  0  0  0  0  0  0  0  0
  153.3241  143.5458  161.3457 H   0  0  0  0  0  0  0  0  0  0  0  0
  154.0516  143.3979  159.7669 H   0  0  0  0  0  0  0  0  0  0  0  0
  151.1289  142.8670  160.4529 H   0  0  0  0  0  0  0  0  0  0  0  0
  149.7328  142.1063  158.5493 H   0  0  0  0  0  0  0  0  0  0  0  0
  1  2  2  0  0  0  0
  2 10  1  0  0  0  0
  2  3  1  0  0  0  0
  3  4  2  0  0  0  0
  3 24  1  0  0  0  0
  4  5  1  0  0  0  0
  4 25  1  0  0  0  0
  5  6  1  0  0  0  0
  5  9  2  0  0  0  0
  6  7  2  0  0  0  0
  6  8  1  0  0  0  0
  9 10  1  0  0  0  0
  9 26  1  0  0  0  0
 10 11  1  0  0  0  0
 11 12  1  0  0  0  0
 11 27  1  0  0  0  0
 11 28  1  0  0  0  0
 12 13  1  0  0  0  0
 12 29  1  0  0  0  0
 12 30  1  0  0  0  0
 13 14  1  0  0  0  0
 13 31  1  0  0  0  0
 13 42  1  0  0  0  0
 14 19  1  0  0  0  0
 14 15  1  0  0  0  0
 14 32  1  0  0  0  0
 15 16  1  0  0  0  0
 15 33  1  0  0  0  0
 15 34  1  0  0  0  0
 16 17  1  0  0  0  0
 16 35  1  0  0  0  0
 16 36  1  0  0  0  0
 17 18  1  0  0  0  0
 17 37  1  0  0  0  0
 17 38  1  0  0  0  0
 18 19  1  0  0  0  0
 18 39  1  0  0  0  0
 18 40  1  0  0  0  0
 19 20  1  0  0  0  0
 19 41  1  0  0  0  0
 20 21  1  0  0  0  0
 20 22  1  0  0  0  0
 20 23  1  0  0  0  0
M  CHG  1   6   1
M  CHG  1   8  -1
M  CHG  1  13   1
M  END
> <s_m_source_file>
AV-unprocessed.smi

> <i_m_source_file_index>
3029

> <i_lp_mmshare_version>
43012

> <i_f3d_flags>
0

> <s_epik_input>
Tz1jMVtjSF1bY0hdYyhbTitdKD1PKVtPLV0pW2NIXW4xW0NIMl1bQ0gyXVtOSF1bQ0BASF0yW0NIMl1bQ0gyXVtDSDJdW0NIMl1bQ0BIXTJDKEYpKEYpRg==

> <s_epik_cmdline>
J2VwaWtfcHl0aG9uJywgJy1waCcsICc3LjAnLCAnLXRuJywgJzgnLCAnLW1hJywgJzIwMCcsICctbWV0YWxfYmluZGluZycsICctaW1hZScsICc8aW5maWxlLm1hZT4nLCAnLW9tYWUnLCAnPG91dGZpbGUubWFlPic=

> <r_lp_tautomer_probability>
1

> <r_epik_Ionization_Penalty>
0.037386

> <r_epik_Ionization_Penalty_Charging>
0.037386

> <r_epik_Ionization_Penalty_Neutral>
0

> <r_epik_State_Penalty>
0.0312892

> <r_epik_Charging_Adjusted_Penalty>
0.0686752

> <i_epik_Tot_Q>
1

> <i_epik_Tot_abs_Q>
3

> <r_epik_Metal_State_Penalty>
0.0312892

> <b_epik_Metal_Only>
0

> <s_lp_Force_Field>
OPLS_2005

> <r_lp_Energy>
38.6527

> <b_lp_Chiralities_Consistent>
1

> <s_lp_Variant>
AV-unprocessed.smi:3029-1

> <Gold.Version>
5.8.1

> <Gold.Id.Protein>
6NUR|6NUR_protein|mol2

> <Gold.PLP.Fitness>
49.7834

> <Gold.PLP.PLP>
-45.0738

> <Gold.PLP.part.hbond>
-3.0006

> <Gold.PLP.part.metal>
0.0000

> <Gold.PLP.part.buried>
-6.3599

> <Gold.PLP.part.nonpolar>
-38.6657

> <Gold.PLP.part.repulsive>
1.9002

> <Gold.PLP.ligand.clash>
0.0000

> <Gold.PLP.ligand.torsion>
0.9620

> <Gold.PLP.Chemscore.Hbond>
2.1936

> <Gold.PLP.Chemscore.CHOScore>
0.0000

> <Gold.PLP.Chemscore.Metal>
0.0000

> <Gold.Chemscore.Hbonds>
donor molecule, donor type, donor heavy atom, donor atom, acceptor molecule, acceptor atom, score
      P1  H  6896  6907       L1     7  0.49
      P1  H  7989  7998       L1     1  0.44
      P1  H 10752 10763       L1     8  1.00

> <Gold.PLP.Chemscore.Internal.Correction>
0.0528

> <Gold.Rescore>
     Score         DG    S(hbond)    S(metal)    S(lipo)     H(rot)  DE(clash)    DE(int)     intcor
     15.29     -18.72       1.76        0.00     104.65       1.90       1.25       2.19       ----

> <Gold.Chemscore.Fitness>
15.2942

> <Gold.Chemscore.DG>
-18.7249

> <Gold.Chemscore.ZeroCoef>
-5.4800

> <Gold.Chemscore.Hbond>
1.7587

> <Gold.Chemscore.Metal>
0.0000

> <Gold.Chemscore.Lipo>
104.6520

> <Gold.Chemscore.Internal_Hbond>
0.0000

> <Gold.Chemscore.DEClash>
1.2455

> <Gold.Chemscore.DEInternal>
2.1852

> <Gold.Chemscore.Rot>
1.9037

> <Gold.Chemscore.Internal.Correction>
   9.000000E+99

> <Gold.Chemscore.Hbonds>
donor molecule, donor type, donor heavy atom, donor atom, acceptor molecule, acceptor atom, score
      P1  H  6896  6907       L1     7  0.47
      P1  H  7989  7998       L1     1  0.02
      P1  H 10752 10763       L1     8  0.96

> <Gold.Chemscore.Hbond.Weighted>
-5.8741

> <Gold.Chemscore.Metal.Weighted>
-0.0000

> <Gold.Chemscore.Lipo.Weighted>
-12.2443

> <Gold.Chemscore.Internal_Hbond.Weighted>
0.0000

> <Gold.Chemscore.DEClash.Weighted>
1.2455

> <Gold.Chemscore.DEInternal.Weighted>
2.1852

> <Gold.Chemscore.Rot.Weighted>
4.8736

> <Gold.Chemscore.Internal.Correction.Weighted>
   9.000000E+99

> <Gold.Protein.RotatedTorsions>
[ 6907 6896 6895 6894 ] final    6.32 input  -60.11 | X-H torsion
[ 7974 7965 7964 7962 ] final  -60.90 input  175.53 | X-H torsion
[ 8008 7997 7996 7995 ] final -173.13 input   59.86 | X-H torsion
[ 10167 10162 10161 10158 ] final   33.13 input  -65.29 | X-H torsion
[ 10718 10713 10712 10709 ] final  159.69 input   66.30 | X-H torsion
[ 10763 10752 10751 10750 ] final  112.89 input  -60.55 | X-H torsion
[ 11005 11000 10999 10996 ] final -148.88 input  -57.11 | X-H torsion

> <Gold.Protein.ActiveResidues>
 VAL166  LYS551  ARG553  GLY616  TRP617  ASP618  TYR619  PRO620  LYS621  CYS622 
 ASP623  PHE694  ASN695  SER759  ASP760  ASP761  ALA762  ILE779  LEU786  VAL792 
 PHE793  MET794  SER795  GLU796  ALA797  LYS798  CYS799  TRP800  GLU811  SER814 

> <Gold.Protein.RotatedAtoms>
  151.6718  135.0975  160.0199 H   0  0  0  0  0  0  0  0  0  0  0  0  # atno 6907 bound_to 6896
  152.3887  133.6644  159.6228 H   0  0  0  0  0  0  0  0  0  0  0  0  # atno 6908 bound_to 6896
  150.7807  133.8908  159.3354 H   0  0  0  0  0  0  0  0  0  0  0  0  # atno 6909 bound_to 6896
  145.8100  140.8604  143.0187 H   0  0  0  0  0  0  0  0  0  0  0  0  # atno 7974 bound_to 7965
  155.9535  140.1131  157.0957 H   0  0  0  0  0  0  0  0  0  0  0  0  # atno 8008 bound_to 7997
  154.4115  140.1196  156.5150 H   0  0  0  0  0  0  0  0  0  0  0  0  # atno 8009 bound_to 7997
  155.6812  140.3473  155.4858 H   0  0  0  0  0  0  0  0  0  0  0  0  # atno 8010 bound_to 7997
  140.4435  144.1153  150.6178 H   0  0  0  0  0  0  0  0  0  0  0  0  # atno 10167 bound_to 10162
  157.1607  131.0586  151.2233 H   0  0  0  0  0  0  0  0  0  0  0  0  # atno 10718 bound_to 10713
  153.4844  135.3672  155.2459 H   0  0  0  0  0  0  0  0  0  0  0  0  # atno 10763 bound_to 10752
  154.8754  135.3962  154.3662 H   0  0  0  0  0  0  0  0  0  0  0  0  # atno 10764 bound_to 10752
  153.4271  135.7081  153.6320 H   0  0  0  0  0  0  0  0  0  0  0  0  # atno 10765 bound_to 10752
  140.7566  134.3346  157.5112 H   0  0  0  0  0  0  0  0  0  0  0  0  # atno 11005 bound_to 11000
  144.6758  140.0381  143.7481 LP  0  0  0  0  0  0  0  0  0  0  0  0  # atno 17320 bound_to 7965
  145.9788  139.2925  143.1055 LP  0  0  0  0  0  0  0  0  0  0  0  0  # atno 17321 bound_to 7965
  140.4291  143.2576  151.9619 LP  0  0  0  0  0  0  0  0  0  0  0  0  # atno 17342 bound_to 10162
  139.4791  144.5761  151.8010 LP  0  0  0  0  0  0  0  0  0  0  0  0  # atno 17343 bound_to 10162
  157.4135  130.7398  149.6857 LP  0  0  0  0  0  0  0  0  0  0  0  0  # atno 17370 bound_to 10713
  155.9754  130.4089  150.3850 LP  0  0  0  0  0  0  0  0  0  0  0  0  # atno 17371 bound_to 10713
  139.8778  134.9176  156.3182 LP  0  0  0  0  0  0  0  0  0  0  0  0  # atno 17394 bound_to 11000
  140.9702  133.7332  156.0523 LP  0  0  0  0  0  0  0  0  0  0  0  0  # atno 17395 bound_to 11000

$$$$
