AV-unprocessed.smi:1574|AV-procd|sdf|6336|dock7
  -GOLD-   22720 6553D 1   1.00000     0.00000
 Structure written by MMmdl.
 40 41  0  0  0  0  0  0  0  0  1 V2000
  153.1945  141.0120  160.3286 C   0  0  0  0  0  0  0  0  0  0  0  0
  152.3927  142.2459  159.8871 C   0  0  1  0  0  0  0  0  0  0  0  0
  153.3175  143.3733  159.3864 C   0  0  0  0  0  0  0  0  0  0  0  0
  152.5191  144.6256  158.9914 C   0  0  0  0  0  0  0  0  0  0  0  0
  151.4412  144.2954  157.9482 C   0  0  0  0  0  0  0  0  0  0  0  0
  150.5145  143.1705  158.4402 C   0  0  0  0  0  0  0  0  0  0  0  0
  151.3042  141.9106  158.8394 C   0  0  1  0  0  0  0  0  0  0  0  0
  151.9078  141.3922  157.6610 O   0  0  0  0  0  0  0  0  0  0  0  0
  150.9970  141.0273  156.6363 C   0  0  0  0  0  0  0  0  0  0  0  0
  151.5730  139.8399  155.8523 C   0  0  0  0  0  0  0  0  0  0  0  0
  151.1072  138.5669  156.3923 N   0  0  0  0  0  0  0  0  0  0  0  0
  151.3404  137.3620  155.8483 C   0  0  0  0  0  0  0  0  0  0  0  0
  151.9700  137.1952  154.8041 O   0  0  0  0  0  0  0  0  0  0  0  0
  150.7744  136.1555  156.5956 C   0  0  0  0  0  0  0  0  0  0  0  0
  150.0049  136.5805  157.7487 N   0  0  0  0  0  0  0  0  0  0  0  0
  148.8410  137.2276  157.8358 C   0  0  0  0  0  0  0  0  0  0  0  0
  148.4908  137.4359  159.0959 N   0  0  0  0  0  0  0  0  0  0  0  0
  149.5318  136.8661  159.8100 N   0  0  0  0  0  0  0  0  0  0  0  0
  150.4335  136.3571  159.0160 N   0  0  0  0  0  0  0  0  0  0  0  0
  153.7812  140.6016  159.5064 H   0  0  0  0  0  0  0  0  0  0  0  0
  152.5352  140.2254  160.6963 H   0  0  0  0  0  0  0  0  0  0  0  0
  153.8865  141.2639  161.1324 H   0  0  0  0  0  0  0  0  0  0  0  0
  151.8787  142.6180  160.7745 H   0  0  0  0  0  0  0  0  0  0  0  0
  154.0405  143.6332  160.1602 H   0  0  0  0  0  0  0  0  0  0  0  0
  153.8974  143.0256  158.5306 H   0  0  0  0  0  0  0  0  0  0  0  0
  152.0498  145.0540  159.8778 H   0  0  0  0  0  0  0  0  0  0  0  0
  153.1938  145.3872  158.5992 H   0  0  0  0  0  0  0  0  0  0  0  0
  150.8556  145.1873  157.7239 H   0  0  0  0  0  0  0  0  0  0  0  0
  151.9177  143.9974  157.0131 H   0  0  0  0  0  0  0  0  0  0  0  0
  149.9424  143.5251  159.2984 H   0  0  0  0  0  0  0  0  0  0  0  0
  149.7857  142.9241  157.6675 H   0  0  0  0  0  0  0  0  0  0  0  0
  150.6006  141.1916  159.2643 H   0  0  0  0  0  0  0  0  0  0  0  0
  150.0221  140.7661  157.0503 H   0  0  0  0  0  0  0  0  0  0  0  0
  150.8506  141.8785  155.9701 H   0  0  0  0  0  0  0  0  0  0  0  0
  151.2414  139.8973  154.8155 H   0  0  0  0  0  0  0  0  0  0  0  0
  152.6633  139.8820  155.8307 H   0  0  0  0  0  0  0  0  0  0  0  0
  150.5743  138.6042  157.2491 H   0  0  0  0  0  0  0  0  0  0  0  0
  150.1253  135.5808  155.9335 H   0  0  0  0  0  0  0  0  0  0  0  0
  151.5779  135.4904  156.9165 H   0  0  0  0  0  0  0  0  0  0  0  0
  148.2589  137.5462  156.9837 H   0  0  0  0  0  0  0  0  0  0  0  0
  1  2  1  0  0  0  0
  1 20  1  0  0  0  0
  1 21  1  0  0  0  0
  1 22  1  0  0  0  0
  2  7  1  0  0  0  0
  2  3  1  0  0  0  0
  2 23  1  0  0  0  0
  3  4  1  0  0  0  0
  3 24  1  0  0  0  0
  3 25  1  0  0  0  0
  4  5  1  0  0  0  0
  4 26  1  0  0  0  0
  4 27  1  0  0  0  0
  5  6  1  0  0  0  0
  5 28  1  0  0  0  0
  5 29  1  0  0  0  0
  6  7  1  0  0  0  0
  6 30  1  0  0  0  0
  6 31  1  0  0  0  0
  7  8  1  0  0  0  0
  7 32  1  0  0  0  0
  8  9  1  0  0  0  0
  9 10  1  0  0  0  0
  9 33  1  0  0  0  0
  9 34  1  0  0  0  0
 10 11  1  0  0  0  0
 10 35  1  0  0  0  0
 10 36  1  0  0  0  0
 11 12  1  0  0  0  0
 11 37  1  0  0  0  0
 12 13  2  0  0  0  0
 12 14  1  0  0  0  0
 14 15  1  0  0  0  0
 14 38  1  0  0  0  0
 14 39  1  0  0  0  0
 15 19  1  0  0  0  0
 15 16  1  0  0  0  0
 16 17  2  0  0  0  0
 16 40  1  0  0  0  0
 17 18  1  0  0  0  0
 18 19  2  0  0  0  0
M  END
> <s_m_source_file>
AV-unprocessed.smi

> <i_m_source_file_index>
1574

> <i_lp_mmshare_version>
43012

> <i_f3d_flags>
0

> <s_epik_input>
W0NIM11bQ0BASF0xW0NIMl1bQ0gyXVtDSDJdW0NIMl1bQ0BIXTFPW0NIMl1bQ0gyXVtOSF1DKD1PKVtDSDJdbjJbY0hdbm5uMg==

> <s_epik_cmdline>
J2VwaWtfcHl0aG9uJywgJy1waCcsICc3LjAnLCAnLXRuJywgJzgnLCAnLW1hJywgJzIwMCcsICctbWV0YWxfYmluZGluZycsICctaW1hZScsICc8aW5maWxlLm1hZT4nLCAnLW9tYWUnLCAnPG91dGZpbGUubWFlPic=

> <r_lp_tautomer_probability>
1

> <r_epik_Ionization_Penalty>
1.44269e-06

> <r_epik_Ionization_Penalty_Charging>
0

> <r_epik_Ionization_Penalty_Neutral>
1.44269e-06

> <r_epik_State_Penalty>
-0

> <r_epik_Charging_Adjusted_Penalty>
0

> <i_epik_Tot_Q>
0

> <i_epik_Tot_abs_Q>
0

> <r_epik_Metal_State_Penalty>
-0

> <b_epik_Metal_Only>
0

> <s_lp_Force_Field>
OPLS_2005

> <r_lp_Energy>
13.6049

> <b_lp_Chiralities_Consistent>
1

> <s_lp_Variant>
AV-unprocessed.smi:1574-2

> <Gold.Version>
5.8.1

> <Gold.Id.Protein>
6NUR|6NUR_protein|mol2

> <Gold.PLP.Fitness>
43.3564

> <Gold.PLP.PLP>
-36.3238

> <Gold.PLP.part.hbond>
-4.6695

> <Gold.PLP.part.metal>
0.0000

> <Gold.PLP.part.buried>
-4.0605

> <Gold.PLP.part.nonpolar>
-27.5695

> <Gold.PLP.part.repulsive>
0.0954

> <Gold.PLP.ligand.clash>
0.0000

> <Gold.PLP.ligand.torsion>
0.5254

> <Gold.PLP.Chemscore.Hbond>
2.6752

> <Gold.PLP.Chemscore.CHOScore>
0.0000

> <Gold.PLP.Chemscore.Metal>
0.0000

> <Gold.Chemscore.Hbonds>
donor molecule, donor type, donor heavy atom, donor atom, acceptor molecule, acceptor atom, score
      P1  H  6896  6909       L1    19  0.94
      P1  H 10752 10765       L1    13  0.94

> <Gold.PLP.Chemscore.Internal.Correction>
0.0577

> <Gold.Rescore>
     Score         DG    S(hbond)    S(metal)    S(lipo)     H(rot)  DE(clash)    DE(int)     intcor
     14.86     -15.58       1.98        0.00      93.35       2.90       0.03       0.70       ----

> <Gold.Chemscore.Fitness>
14.8559

> <Gold.Chemscore.DG>
-15.5836

> <Gold.Chemscore.ZeroCoef>
-5.4800

> <Gold.Chemscore.Hbond>
1.9815

> <Gold.Chemscore.Metal>
0.0000

> <Gold.Chemscore.Lipo>
93.3526

> <Gold.Chemscore.Internal_Hbond>
0.0000

> <Gold.Chemscore.DEClash>
0.0251

> <Gold.Chemscore.DEInternal>
0.7027

> <Gold.Chemscore.Rot>
2.9050

> <Gold.Chemscore.Internal.Correction>
   9.000000E+99

> <Gold.Chemscore.Hbonds>
donor molecule, donor type, donor heavy atom, donor atom, acceptor molecule, acceptor atom, score
      P1  H  6896  6909       L1    19  0.50
      P1  H 10752 10765       L1    13  0.90

> <Gold.Chemscore.Hbond.Weighted>
-6.6181

> <Gold.Chemscore.Metal.Weighted>
-0.0000

> <Gold.Chemscore.Lipo.Weighted>
-10.9222

> <Gold.Chemscore.Internal_Hbond.Weighted>
0.0000

> <Gold.Chemscore.DEClash.Weighted>
0.0251

> <Gold.Chemscore.DEInternal.Weighted>
0.7027

> <Gold.Chemscore.Rot.Weighted>
7.4367

> <Gold.Chemscore.Internal.Correction.Weighted>
   9.000000E+99

> <Gold.Protein.RotatedTorsions>
[ 6907 6896 6895 6894 ] final   64.72 input  -60.11 | X-H torsion
[ 7974 7965 7964 7962 ] final    9.08 input  175.53 | X-H torsion
[ 8008 7997 7996 7995 ] final    4.10 input   59.86 | X-H torsion
[ 10167 10162 10161 10158 ] final -100.76 input  -65.29 | X-H torsion
[ 10718 10713 10712 10709 ] final  153.54 input   66.30 | X-H torsion
[ 10763 10752 10751 10750 ] final  174.04 input  -60.55 | X-H torsion
[ 11005 11000 10999 10996 ] final  146.38 input  -57.11 | X-H torsion

> <Gold.Protein.ActiveResidues>
 VAL166  LYS551  ARG553  GLY616  TRP617  ASP618  TYR619  PRO620  LYS621  CYS622 
 ASP623  PHE694  ASN695  SER759  ASP760  ASP761  ALA762  ILE779  LEU786  VAL792 
 PHE793  MET794  SER795  GLU796  ALA797  LYS798  CYS799  TRP800  GLU811  SER814 

> <Gold.Protein.RotatedAtoms>
  152.4353  134.5698  159.9917 H   0  0  0  0  0  0  0  0  0  0  0  0  # atno 6907 bound_to 6896
  151.5810  133.3372  159.3016 H   0  0  0  0  0  0  0  0  0  0  0  0  # atno 6908 bound_to 6896
  150.8251  134.7512  159.6870 H   0  0  0  0  0  0  0  0  0  0  0  0  # atno 6909 bound_to 6896
  146.2408  139.9837  142.8433 H   0  0  0  0  0  0  0  0  0  0  0  0  # atno 7974 bound_to 7965
  154.7117  140.2694  155.6623 H   0  0  0  0  0  0  0  0  0  0  0  0  # atno 8008 bound_to 7997
  156.2797  140.2752  156.1685 H   0  0  0  0  0  0  0  0  0  0  0  0  # atno 8009 bound_to 7997
  155.0625  140.0371  157.2571 H   0  0  0  0  0  0  0  0  0  0  0  0  # atno 8010 bound_to 7997
  140.2485  143.3489  152.0737 H   0  0  0  0  0  0  0  0  0  0  0  0  # atno 10167 bound_to 10162
  157.2435  131.0764  151.1777 H   0  0  0  0  0  0  0  0  0  0  0  0  # atno 10718 bound_to 10713
  154.4484  135.2764  155.1798 H   0  0  0  0  0  0  0  0  0  0  0  0  # atno 10763 bound_to 10752
  154.3636  135.6124  153.5707 H   0  0  0  0  0  0  0  0  0  0  0  0  # atno 10764 bound_to 10752
  152.9845  135.5840  154.4824 H   0  0  0  0  0  0  0  0  0  0  0  0  # atno 10765 bound_to 10752
  140.0789  134.9109  157.1467 H   0  0  0  0  0  0  0  0  0  0  0  0  # atno 11005 bound_to 11000
  145.1568  140.9652  143.4401 LP  0  0  0  0  0  0  0  0  0  0  0  0  # atno 17320 bound_to 7965
  145.0154  139.3472  143.6099 LP  0  0  0  0  0  0  0  0  0  0  0  0  # atno 17321 bound_to 7965
  139.5054  144.6794  151.6047 LP  0  0  0  0  0  0  0  0  0  0  0  0  # atno 17342 bound_to 10162
  140.6059  143.9525  150.6418 LP  0  0  0  0  0  0  0  0  0  0  0  0  # atno 17343 bound_to 10162
  157.3354  130.7006  149.6349 LP  0  0  0  0  0  0  0  0  0  0  0  0  # atno 17370 bound_to 10713
  155.9669  130.4295  150.4836 LP  0  0  0  0  0  0  0  0  0  0  0  0  # atno 17371 bound_to 10713
  140.3517  134.2591  155.7197 LP  0  0  0  0  0  0  0  0  0  0  0  0  # atno 17394 bound_to 11000
  141.2039  133.7899  157.0313 LP  0  0  0  0  0  0  0  0  0  0  0  0  # atno 17395 bound_to 11000

$$$$
