AV-unprocessed.smi:3314|AV-procd|sdf|12741|dock3
  -GOLD-   2272019 83D 1   1.00000     0.00000
 Structure written by MMmdl.
 38 39  0  0  0  0  0  0  0  0  2 V2000
  153.3863  140.9341  159.7715 C   0  0  0  0  0  0  0  0  0  0  0  0
  152.5060  141.9325  159.0484 C   0  0  0  0  0  0  0  0  0  0  0  0
  152.4882  143.2888  159.4350 C   0  0  0  0  0  0  0  0  0  0  0  0
  151.6489  144.1862  158.7447 C   0  0  0  0  0  0  0  0  0  0  0  0
  151.5648  145.6547  159.1038 C   0  0  0  0  0  0  0  0  0  0  0  0
  150.8832  143.7368  157.7257 N   0  3  0  0  0  0  0  0  0  0  0  0
  150.8685  142.4505  157.3054 C   0  0  0  0  0  0  0  0  0  0  0  0
  149.9930  142.1371  156.2299 N   0  0  0  0  0  0  0  0  0  0  0  0
  150.0964  141.1650  155.3045 C   0  0  0  0  0  0  0  0  0  0  0  0
  151.0287  140.3640  155.2326 O   0  0  0  0  0  0  0  0  0  0  0  0
  148.9433  141.1060  154.2945 C   0  0  2  0  0  0  0  0  0  0  0  0
  147.8639  142.1872  154.5297 C   0  0  0  0  0  0  0  0  0  0  0  0
  146.7596  142.0564  153.5887 N   0  0  0  0  0  0  0  0  0  0  0  0
  145.7458  143.0774  153.8049 C   0  0  0  0  0  0  0  0  0  0  0  0
  146.1990  140.7151  153.6763 C   0  0  0  0  0  0  0  0  0  0  0  0
  147.2718  139.6364  153.4490 C   0  0  0  0  0  0  0  0  0  0  0  0
  148.3382  139.8159  154.3773 O   0  0  0  0  0  0  0  0  0  0  0  0
  151.6877  141.5091  157.9795 C   0  0  0  0  0  0  0  0  0  0  0  0
  153.9719  141.4138  160.5564 H   0  0  0  0  0  0  0  0  0  0  0  0
  154.0772  140.4628  159.0719 H   0  0  0  0  0  0  0  0  0  0  0  0
  152.7766  140.1550  160.2296 H   0  0  0  0  0  0  0  0  0  0  0  0
  153.1049  143.6354  160.2517 H   0  0  0  0  0  0  0  0  0  0  0  0
  152.2489  145.9002  159.9167 H   0  0  0  0  0  0  0  0  0  0  0  0
  150.5536  145.9107  159.4211 H   0  0  0  0  0  0  0  0  0  0  0  0
  151.8233  146.2728  158.2436 H   0  0  0  0  0  0  0  0  0  0  0  0
  149.2064  142.7601  156.1167 H   0  0  0  0  0  0  0  0  0  0  0  0
  149.3705  141.2319  153.2978 H   0  0  0  0  0  0  0  0  0  0  0  0
  147.4854  142.1146  155.5510 H   0  0  0  0  0  0  0  0  0  0  0  0
  148.3100  143.1778  154.4314 H   0  0  0  0  0  0  0  0  0  0  0  0
  144.9453  142.9881  153.0699 H   0  0  0  0  0  0  0  0  0  0  0  0
  146.1751  144.0751  153.7079 H   0  0  0  0  0  0  0  0  0  0  0  0
  145.3056  142.9917  154.7992 H   0  0  0  0  0  0  0  0  0  0  0  0
  145.7425  140.5685  154.6566 H   0  0  0  0  0  0  0  0  0  0  0  0
  145.4030  140.5972  152.9401 H   0  0  0  0  0  0  0  0  0  0  0  0
  146.8448  138.6426  153.5834 H   0  0  0  0  0  0  0  0  0  0  0  0
  147.6572  139.6845  152.4296 H   0  0  0  0  0  0  0  0  0  0  0  0
  151.6974  140.4651  157.7074 H   0  0  0  0  0  0  0  0  0  0  0  0
  150.2847  144.4097  157.2461 H   0  0  0  0  0  0  0  0  0  0  0  0
  1  2  1  0  0  0  0
  1 19  1  0  0  0  0
  1 20  1  0  0  0  0
  1 21  1  0  0  0  0
  2 18  1  0  0  0  0
  2  3  2  0  0  0  0
  3  4  1  0  0  0  0
  3 22  1  0  0  0  0
  4  5  1  0  0  0  0
  4  6  2  0  0  0  0
  5 23  1  0  0  0  0
  5 24  1  0  0  0  0
  5 25  1  0  0  0  0
  6  7  1  0  0  0  0
  6 38  1  0  0  0  0
  7  8  1  0  0  0  0
  7 18  2  0  0  0  0
  8  9  1  0  0  0  0
  8 26  1  0  0  0  0
  9 10  2  0  0  0  0
  9 11  1  0  0  0  0
 11 17  1  0  0  0  0
 11 12  1  0  0  0  0
 11 27  1  0  0  0  0
 12 13  1  0  0  0  0
 12 28  1  0  0  0  0
 12 29  1  0  0  0  0
 13 14  1  0  0  0  0
 13 15  1  0  0  0  0
 14 30  1  0  0  0  0
 14 31  1  0  0  0  0
 14 32  1  0  0  0  0
 15 16  1  0  0  0  0
 15 33  1  0  0  0  0
 15 34  1  0  0  0  0
 16 17  1  0  0  0  0
 16 35  1  0  0  0  0
 16 36  1  0  0  0  0
 18 37  1  0  0  0  0
M  CHG  1   6   1
M  END
> <s_m_source_file>
AV-unprocessed.smi

> <i_m_source_file_index>
3314

> <i_lp_mmshare_version>
43012

> <i_f3d_flags>
0

> <s_epik_input>
W0NIM11jMVtjSF1jKFtDSDNdKW5jKFtjSF0xKVtOSF1DKD1PKVtDQEBIXTJbQ0gyXU4oW0NIM10pW0NIMl1bQ0gyXU8y

> <s_epik_cmdline>
J2VwaWtfcHl0aG9uJywgJy1waCcsICc3LjAnLCAnLXRuJywgJzgnLCAnLW1hJywgJzIwMCcsICctbWV0YWxfYmluZGluZycsICctaW1hZScsICc8aW5maWxlLm1hZT4nLCAnLW9tYWUnLCAnPG91dGZpbGUubWFlPic=

> <r_epik_Ionization_Penalty>
2.57421

> <r_epik_Ionization_Penalty_Charging>
1.80498

> <r_epik_Ionization_Penalty_Neutral>
0.76923

> <r_epik_State_Penalty>
2.63884

> <r_epik_Charging_Adjusted_Penalty>
4.44382

> <i_epik_Tot_Q>
1

> <i_epik_Tot_abs_Q>
1

> <r_epik_Metal_State_Penalty>
6.15142

> <b_epik_Metal_Only>
0

> <s_lp_Force_Field>
OPLS_2005

> <r_lp_Energy>
30.3211

> <b_lp_Chiralities_Consistent>
1

> <s_lp_Variant>
AV-unprocessed.smi:3314-11

> <Gold.Version>
5.8.1

> <Gold.Id.Protein>
6NUR|6NUR_protein|mol2

> <Gold.PLP.Fitness>
43.7503

> <Gold.PLP.PLP>
-35.4488

> <Gold.PLP.part.hbond>
-3.0000

> <Gold.PLP.part.metal>
0.0000

> <Gold.PLP.part.buried>
2.6245

> <Gold.PLP.part.nonpolar>
-35.5368

> <Gold.PLP.part.repulsive>
0.4480

> <Gold.PLP.ligand.clash>
0.8996

> <Gold.PLP.ligand.torsion>
0.1697

> <Gold.PLP.Chemscore.Hbond>
3.1794

> <Gold.PLP.Chemscore.CHOScore>
0.0000

> <Gold.PLP.Chemscore.Metal>
0.0000

> <Gold.Chemscore.Hbonds>
donor molecule, donor type, donor heavy atom, donor atom, acceptor molecule, acceptor atom, score
      L1  H     6    38       P1  8028  1.53
      L1  H     8    26       P1  8028  0.75
      P1  H  7989  7998       L1    10  0.85

> <Gold.PLP.Chemscore.Internal.Correction>
0.0023

> <Gold.Rescore>
     Score         DG    S(hbond)    S(metal)    S(lipo)     H(rot)  DE(clash)    DE(int)     intcor
     16.36     -18.82       1.49        0.00      93.38       1.00       1.51       0.95       ----

> <Gold.Chemscore.Fitness>
16.3644

> <Gold.Chemscore.DG>
-18.8238

> <Gold.Chemscore.ZeroCoef>
-5.4800

> <Gold.Chemscore.Hbond>
1.4905

> <Gold.Chemscore.Metal>
0.0000

> <Gold.Chemscore.Lipo>
93.3808

> <Gold.Chemscore.Internal_Hbond>
0.0000

> <Gold.Chemscore.DEClash>
1.5072

> <Gold.Chemscore.DEInternal>
0.9521

> <Gold.Chemscore.Rot>
1.0000

> <Gold.Chemscore.Internal.Correction>
   9.000000E+99

> <Gold.Chemscore.Hbonds>
donor molecule, donor type, donor heavy atom, donor atom, acceptor molecule, acceptor atom, score
      L1  H     6    38       P1  8028  0.48
      L1  H     8    26       P1  8028  0.70
      P1  H  7989  7998       L1    10  0.14

> <Gold.Chemscore.Hbond.Weighted>
-4.9782

> <Gold.Chemscore.Metal.Weighted>
-0.0000

> <Gold.Chemscore.Lipo.Weighted>
-10.9256

> <Gold.Chemscore.Internal_Hbond.Weighted>
0.0000

> <Gold.Chemscore.DEClash.Weighted>
1.5072

> <Gold.Chemscore.DEInternal.Weighted>
0.9521

> <Gold.Chemscore.Rot.Weighted>
2.5600

> <Gold.Chemscore.Internal.Correction.Weighted>
   9.000000E+99

> <Gold.Protein.RotatedTorsions>
[ 6907 6896 6895 6894 ] final -116.81 input  -60.11 | X-H torsion
[ 7974 7965 7964 7962 ] final   62.50 input  175.53 | X-H torsion
[ 8008 7997 7996 7995 ] final  100.60 input   59.86 | X-H torsion
[ 10167 10162 10161 10158 ] final  164.88 input  -65.29 | X-H torsion
[ 10718 10713 10712 10709 ] final  -41.89 input   66.30 | X-H torsion
[ 10763 10752 10751 10750 ] final  -55.25 input  -60.55 | X-H torsion
[ 11005 11000 10999 10996 ] final   71.97 input  -57.11 | X-H torsion

> <Gold.Protein.ActiveResidues>
 VAL166  LYS551  ARG553  GLY616  TRP617  ASP618  TYR619  PRO620  LYS621  CYS622 
 ASP623  PHE694  ASN695  SER759  ASP760  ASP761  ALA762  ILE779  LEU786  VAL792 
 PHE793  MET794  SER795  GLU796  ALA797  LYS798  CYS799  TRP800  GLU811  SER814 

> <Gold.Protein.RotatedAtoms>
  150.8086  133.8465  159.3193 H   0  0  0  0  0  0  0  0  0  0  0  0  # atno 6907 bound_to 6896
  151.6257  135.1026  160.0120 H   0  0  0  0  0  0  0  0  0  0  0  0  # atno 6908 bound_to 6896
  152.4177  133.7025  159.6489 H   0  0  0  0  0  0  0  0  0  0  0  0  # atno 6909 bound_to 6896
  145.8726  139.3388  143.0753 H   0  0  0  0  0  0  0  0  0  0  0  0  # atno 7974 bound_to 7965
  156.1219  140.3210  155.8221 H   0  0  0  0  0  0  0  0  0  0  0  0  # atno 8008 bound_to 7997
  155.4489  140.0531  157.3020 H   0  0  0  0  0  0  0  0  0  0  0  0  # atno 8009 bound_to 7997
  154.4834  140.2062  155.9725 H   0  0  0  0  0  0  0  0  0  0  0  0  # atno 8010 bound_to 7997
  139.4896  144.4189  151.9210 H   0  0  0  0  0  0  0  0  0  0  0  0  # atno 10167 bound_to 10162
  156.2655  130.4201  149.8495 H   0  0  0  0  0  0  0  0  0  0  0  0  # atno 10718 bound_to 10713
  154.1877  135.6432  153.5051 H   0  0  0  0  0  0  0  0  0  0  0  0  # atno 10763 bound_to 10752
  153.0043  135.5421  154.6447 H   0  0  0  0  0  0  0  0  0  0  0  0  # atno 10764 bound_to 10752
  154.5828  135.2927  155.0688 H   0  0  0  0  0  0  0  0  0  0  0  0  # atno 10765 bound_to 10752
  139.9515  134.7218  156.0851 H   0  0  0  0  0  0  0  0  0  0  0  0  # atno 11005 bound_to 11000
  145.9118  140.9174  143.0450 LP  0  0  0  0  0  0  0  0  0  0  0  0  # atno 17320 bound_to 7965
  144.6726  140.1171  143.7452 LP  0  0  0  0  0  0  0  0  0  0  0  0  # atno 17321 bound_to 7965
  140.3633  144.2946  150.5930 LP  0  0  0  0  0  0  0  0  0  0  0  0  # atno 17342 bound_to 10162
  140.5384  143.2228  151.8126 LP  0  0  0  0  0  0  0  0  0  0  0  0  # atno 17343 bound_to 10162
  156.5995  130.8540  151.3428 LP  0  0  0  0  0  0  0  0  0  0  0  0  # atno 17370 bound_to 10713
  157.7266  130.9631  150.1662 LP  0  0  0  0  0  0  0  0  0  0  0  0  # atno 17371 bound_to 10713
  141.1179  133.6622  156.3140 LP  0  0  0  0  0  0  0  0  0  0  0  0  # atno 17394 bound_to 11000
  140.5707  134.5843  157.5457 LP  0  0  0  0  0  0  0  0  0  0  0  0  # atno 17395 bound_to 11000

$$$$
