AV-unprocessed.smi:3208|AV-procd|sdf|12265|dock5
  -GOLD-   2272018103D 1   1.00000     0.00000
 Structure written by MMmdl.
 29 29  0  0  0  0  0  0  0  0  2 V2000
  151.0709  142.2787  158.2227 C   0  0  0  0  0  0  0  0  0  0  0  0
  150.8183  140.9672  158.0974 C   0  0  0  0  0  0  0  0  0  0  0  0
  151.7480  139.8671  158.5589 C   0  0  0  0  0  0  0  0  0  0  0  0
  151.0023  138.7991  159.1286 O   0  0  0  0  0  0  0  0  0  0  0  0
  150.0319  138.2056  158.2680 C   0  0  1  0  0  0  0  0  0  0  0  0
  150.7333  137.8738  156.9438 C   0  0  0  0  0  0  0  0  0  0  0  0
  149.4456  136.9257  158.9030 C   0  0  0  0  0  0  0  0  0  0  0  0
  149.5620  135.8454  158.3250 O   0  0  0  0  0  0  0  0  0  0  0  0
  148.7129  137.1258  160.0626 N   0  0  0  0  0  0  0  0  0  0  0  0
  148.1462  136.1140  160.6609 C   0  0  0  0  0  0  0  0  0  0  0  0
  148.1779  134.8077  160.1363 N   0  0  0  0  0  0  0  0  0  0  0  0
  147.5875  133.7328  160.7656 C   0  0  0  0  0  0  0  0  0  0  0  0
  146.9336  133.8733  161.9201 C   0  0  0  0  0  0  0  0  0  0  0  0
  146.8442  135.1895  162.5196 C   0  0  0  0  0  0  0  0  0  0  0  0
  147.4258  136.3181  161.9299 C   0  0  0  0  0  0  0  0  0  0  0  0
  147.3255  137.4375  162.4832 O   0  5  0  0  0  0  0  0  0  0  0  0
  151.9852  142.6335  158.6759 H   0  0  0  0  0  0  0  0  0  0  0  0
  150.3638  143.0160  157.8720 H   0  0  0  0  0  0  0  0  0  0  0  0
  149.8939  140.6485  157.6382 H   0  0  0  0  0  0  0  0  0  0  0  0
  152.3465  139.5212  157.7155 H   0  0  0  0  0  0  0  0  0  0  0  0
  152.4320  140.2834  159.2994 H   0  0  0  0  0  0  0  0  0  0  0  0
  149.2461  138.9338  158.0611 H   0  0  0  0  0  0  0  0  0  0  0  0
  150.0385  137.4357  156.2263 H   0  0  0  0  0  0  0  0  0  0  0  0
  151.5524  137.1690  157.0913 H   0  0  0  0  0  0  0  0  0  0  0  0
  151.1490  138.7738  156.4904 H   0  0  0  0  0  0  0  0  0  0  0  0
  147.6996  132.7893  160.2523 H   0  0  0  0  0  0  0  0  0  0  0  0
  146.4768  133.0205  162.4002 H   0  0  0  0  0  0  0  0  0  0  0  0
  146.3076  135.2909  163.4520 H   0  0  0  0  0  0  0  0  0  0  0  0
  148.6431  134.6111  159.2632 H   0  0  0  0  0  0  0  0  0  0  0  0
  1  2  2  0  0  0  0
  1 17  1  0  0  0  0
  1 18  1  0  0  0  0
  2  3  1  0  0  0  0
  2 19  1  0  0  0  0
  3  4  1  0  0  0  0
  3 20  1  0  0  0  0
  3 21  1  0  0  0  0
  4  5  1  0  0  0  0
  5  6  1  0  0  0  0
  5  7  1  0  0  0  0
  5 22  1  0  0  0  0
  6 23  1  0  0  0  0
  6 24  1  0  0  0  0
  6 25  1  0  0  0  0
  7  8  2  0  0  0  0
  7  9  1  0  0  0  0
  9 10  2  0  0  0  0
 10 15  1  0  0  0  0
 10 11  1  0  0  0  0
 11 29  1  0  0  0  0
 11 12  1  0  0  0  0
 12 26  1  0  0  0  0
 12 13  2  0  0  0  0
 13 27  1  0  0  0  0
 13 14  1  0  0  0  0
 14 15  2  0  0  0  0
 14 28  1  0  0  0  0
 15 16  1  0  0  0  0
M  CHG  1  16  -1
M  END
> <s_m_source_file>
AV-unprocessed.smi

> <i_m_source_file_index>
3208

> <i_lp_mmshare_version>
43012

> <i_f3d_flags>
0

> <s_epik_input>
W0NIMl09W0NIXVtDSDJdT1tDQEhdKFtDSDNdKUMoPU8pW05IXWMxbltjSF1bY0hdW2NIXWMxW09IXQ==

> <s_epik_cmdline>
J2VwaWtfcHl0aG9uJywgJy1waCcsICc3LjAnLCAnLXRuJywgJzgnLCAnLW1hJywgJzIwMCcsICctbWV0YWxfYmluZGluZycsICctaW1hZScsICc8aW5maWxlLm1hZT4nLCAnLW9tYWUnLCAnPG91dGZpbGUubWFlPic=

> <r_epik_Ionization_Penalty>
0.613767

> <r_epik_Ionization_Penalty_Charging>
0.613767

> <r_epik_Ionization_Penalty_Neutral>
1.14324e-13

> <r_epik_State_Penalty>
1.22258

> <r_epik_Charging_Adjusted_Penalty>
1.83635

> <i_epik_Tot_Q>
-1

> <i_epik_Tot_abs_Q>
1

> <r_epik_Metal_State_Penalty>
1.18528

> <b_epik_Metal_Only>
0

> <s_lp_Force_Field>
OPLS_2005

> <r_lp_Energy>
40.4661

> <b_lp_Chiralities_Consistent>
1

> <s_lp_Variant>
AV-unprocessed.smi:3208-6

> <Gold.Version>
5.8.1

> <Gold.Id.Protein>
6NUR|6NUR_protein|mol2

> <Gold.PLP.Fitness>
39.2634

> <Gold.PLP.PLP>
-29.3498

> <Gold.PLP.part.hbond>
-4.0778

> <Gold.PLP.part.metal>
0.0000

> <Gold.PLP.part.buried>
-3.8750

> <Gold.PLP.part.nonpolar>
-20.6445

> <Gold.PLP.part.repulsive>
0.0925

> <Gold.PLP.ligand.clash>
0.0000

> <Gold.PLP.ligand.torsion>
0.2163

> <Gold.PLP.Chemscore.Hbond>
3.4320

> <Gold.PLP.Chemscore.CHOScore>
0.0000

> <Gold.PLP.Chemscore.Metal>
0.0000

> <Gold.Chemscore.Hbonds>
donor molecule, donor type, donor heavy atom, donor atom, acceptor molecule, acceptor atom, score
      P1  H  6896  6908       L1     8  0.88
      P1  H  6931  6943       L1    16  1.34
      P1  H  6934  6947       L1    16  0.56

> <Gold.PLP.Chemscore.Internal.Correction>
0.0502

> <Gold.Rescore>
     Score         DG    S(hbond)    S(metal)    S(lipo)     H(rot)  DE(clash)    DE(int)     intcor
     13.66     -13.95       1.92        0.00      53.81       1.65       0.03       0.26       ----

> <Gold.Chemscore.Fitness>
13.6598

> <Gold.Chemscore.DG>
-13.9501

> <Gold.Chemscore.ZeroCoef>
-5.4800

> <Gold.Chemscore.Hbond>
1.9181

> <Gold.Chemscore.Metal>
0.0000

> <Gold.Chemscore.Lipo>
53.8128

> <Gold.Chemscore.Internal_Hbond>
0.0000

> <Gold.Chemscore.DEClash>
0.0348

> <Gold.Chemscore.DEInternal>
0.2555

> <Gold.Chemscore.Rot>
1.6533

> <Gold.Chemscore.Internal.Correction>
   9.000000E+99

> <Gold.Chemscore.Hbonds>
donor molecule, donor type, donor heavy atom, donor atom, acceptor molecule, acceptor atom, score
      P1  H  6896  6908       L1     8  0.34
      P1  H  6931  6943       L1    16  0.20
      P1  H  6934  6947       L1    16  0.22

> <Gold.Chemscore.Hbond.Weighted>
-6.4064

> <Gold.Chemscore.Metal.Weighted>
-0.0000

> <Gold.Chemscore.Lipo.Weighted>
-6.2961

> <Gold.Chemscore.Internal_Hbond.Weighted>
0.0000

> <Gold.Chemscore.DEClash.Weighted>
0.0348

> <Gold.Chemscore.DEInternal.Weighted>
0.2555

> <Gold.Chemscore.Rot.Weighted>
4.2324

> <Gold.Chemscore.Internal.Correction.Weighted>
   9.000000E+99

> <Gold.Protein.RotatedTorsions>
[ 6907 6896 6895 6894 ] final -177.56 input  -60.11 | X-H torsion
[ 7974 7965 7964 7962 ] final  -74.03 input  175.53 | X-H torsion
[ 8008 7997 7996 7995 ] final  -33.06 input   59.86 | X-H torsion
[ 10167 10162 10161 10158 ] final  -26.27 input  -65.29 | X-H torsion
[ 10718 10713 10712 10709 ] final  -58.29 input   66.30 | X-H torsion
[ 10763 10752 10751 10750 ] final -148.33 input  -60.55 | X-H torsion
[ 11005 11000 10999 10996 ] final   -9.57 input  -57.11 | X-H torsion

> <Gold.Protein.ActiveResidues>
 VAL166  LYS551  ARG553  GLY616  TRP617  ASP618  TYR619  PRO620  LYS621  CYS622 
 ASP623  PHE694  ASN695  SER759  ASP760  ASP761  ALA762  ILE779  LEU786  VAL792 
 PHE793  MET794  SER795  GLU796  ALA797  LYS798  CYS799  TRP800  GLU811  SER814 

> <Gold.Protein.RotatedAtoms>
  151.6229  133.3337  159.3091 H   0  0  0  0  0  0  0  0  0  0  0  0  # atno 6907 bound_to 6896
  150.8096  134.7247  159.6687 H   0  0  0  0  0  0  0  0  0  0  0  0  # atno 6908 bound_to 6896
  152.4193  134.5990  160.0046 H   0  0  0  0  0  0  0  0  0  0  0  0  # atno 6909 bound_to 6896
  145.6444  140.9301  143.1018 H   0  0  0  0  0  0  0  0  0  0  0  0  # atno 7974 bound_to 7965
  154.4160  140.1721  156.1828 H   0  0  0  0  0  0  0  0  0  0  0  0  # atno 8008 bound_to 7997
  155.9668  140.3389  155.6516 H   0  0  0  0  0  0  0  0  0  0  0  0  # atno 8009 bound_to 7997
  155.6677  140.0708  157.2522 H   0  0  0  0  0  0  0  0  0  0  0  0  # atno 8010 bound_to 7997
  140.7283  143.4193  151.0978 H   0  0  0  0  0  0  0  0  0  0  0  0  # atno 10167 bound_to 10162
  156.1146  130.4171  150.0557 H   0  0  0  0  0  0  0  0  0  0  0  0  # atno 10718 bound_to 10713
  154.8238  135.3337  154.6958 H   0  0  0  0  0  0  0  0  0  0  0  0  # atno 10763 bound_to 10752
  153.7586  135.6934  153.4934 H   0  0  0  0  0  0  0  0  0  0  0  0  # atno 10764 bound_to 10752
  153.2126  135.4477  155.0346 H   0  0  0  0  0  0  0  0  0  0  0  0  # atno 10765 bound_to 10752
  140.7356  133.8713  155.8927 H   0  0  0  0  0  0  0  0  0  0  0  0  # atno 11005 bound_to 11000
  144.7145  139.8246  143.7403 LP  0  0  0  0  0  0  0  0  0  0  0  0  # atno 17320 bound_to 7965
  146.1255  139.4280  143.0202 LP  0  0  0  0  0  0  0  0  0  0  0  0  # atno 17321 bound_to 7965
  139.7836  143.8319  152.3141 LP  0  0  0  0  0  0  0  0  0  0  0  0  # atno 17342 bound_to 10162
  139.8279  144.7267  150.9488 LP  0  0  0  0  0  0  0  0  0  0  0  0  # atno 17343 bound_to 10162
  156.8512  130.9459  151.3625 LP  0  0  0  0  0  0  0  0  0  0  0  0  # atno 17370 bound_to 10713
  157.6329  130.8743  149.9306 LP  0  0  0  0  0  0  0  0  0  0  0  0  # atno 17371 bound_to 10713
  140.9882  134.1314  157.4432 LP  0  0  0  0  0  0  0  0  0  0  0  0  # atno 17394 bound_to 11000
  139.8817  135.0032  156.6174 LP  0  0  0  0  0  0  0  0  0  0  0  0  # atno 17395 bound_to 11000

$$$$
