AV-unprocessed.smi:502|AV-procd|sdf|2745|dock3
  -GOLD-   2262023203D 1   1.00000     0.00000
 Structure written by MMmdl.
 49 51  0  0  0  0  0  0  0  0  2 V2000
  149.9121  136.3254  158.4532 C   0  0  0  0  0  0  0  0  0  0  0  0
  151.0267  137.1328  157.7967 C   0  0  0  0  0  0  0  0  0  0  0  0
  151.6911  137.9260  158.4632 O   0  0  0  0  0  0  0  0  0  0  0  0
  151.2212  136.9217  156.4863 N   0  0  0  0  0  0  0  0  0  0  0  0
  152.2184  137.6035  155.6696 C   0  0  0  0  0  0  0  0  0  0  0  0
  151.6934  137.8984  154.2547 C   0  0  0  0  0  0  0  0  0  0  0  0
  150.4843  138.7764  154.2905 C   0  0  0  0  0  0  0  0  0  0  0  0
  149.3571  138.5987  153.5446 N   0  3  0  0  0  0  0  0  0  0  0  0
  148.4389  139.6112  153.8245 C   0  0  0  0  0  0  0  0  0  0  0  0
  147.1642  139.8512  153.3207 C   0  0  0  0  0  0  0  0  0  0  0  0
  146.4888  140.9837  153.8216 C   0  0  0  0  0  0  0  0  0  0  0  0
  147.0812  141.8255  154.7855 C   0  0  0  0  0  0  0  0  0  0  0  0
  148.3742  141.5715  155.2888 C   0  0  0  0  0  0  0  0  0  0  0  0
  149.0355  140.4509  154.7867 C   0  0  0  0  0  0  0  0  0  0  0  0
  150.2984  139.9030  155.0393 N   0  0  0  0  0  0  0  0  0  0  0  0
  151.1807  140.5697  156.0073 C   0  0  0  0  0  0  0  0  0  0  0  0
  150.7436  140.3225  157.4573 C   0  0  0  0  0  0  0  0  0  0  0  0
  151.7661  140.7957  158.3215 O   0  0  0  0  0  0  0  0  0  0  0  0
  151.7996  142.1415  158.6250 C   0  0  0  0  0  0  0  0  0  0  0  0
  151.0958  143.1317  157.8922 C   0  0  0  0  0  0  0  0  0  0  0  0
  151.1771  144.4880  158.2605 C   0  0  0  0  0  0  0  0  0  0  0  0
  151.9594  144.8739  159.3631 C   0  0  0  0  0  0  0  0  0  0  0  0
  152.6617  143.9016  160.0975 C   0  0  0  0  0  0  0  0  0  0  0  0
  152.5844  142.5411  159.7322 C   0  0  0  0  0  0  0  0  0  0  0  0
  153.3483  141.5056  160.5362 C   0  0  0  0  0  0  0  0  0  0  0  0
  150.1005  135.2569  158.3466 H   0  0  0  0  0  0  0  0  0  0  0  0
  148.9521  136.5555  157.9904 H   0  0  0  0  0  0  0  0  0  0  0  0
  149.8412  136.5550  159.5168 H   0  0  0  0  0  0  0  0  0  0  0  0
  150.6266  136.2517  156.0194 H   0  0  0  0  0  0  0  0  0  0  0  0
  152.4834  138.5334  156.1715 H   0  0  0  0  0  0  0  0  0  0  0  0
  153.1299  137.0050  155.6226 H   0  0  0  0  0  0  0  0  0  0  0  0
  152.4627  138.3929  153.6604 H   0  0  0  0  0  0  0  0  0  0  0  0
  151.4534  136.9709  153.7347 H   0  0  0  0  0  0  0  0  0  0  0  0
  146.7085  139.2078  152.5825 H   0  0  0  0  0  0  0  0  0  0  0  0
  145.4968  141.2116  153.4591 H   0  0  0  0  0  0  0  0  0  0  0  0
  146.5335  142.6844  155.1458 H   0  0  0  0  0  0  0  0  0  0  0  0
  148.8204  142.2228  156.0256 H   0  0  0  0  0  0  0  0  0  0  0  0
  152.2021  140.2248  155.8419 H   0  0  0  0  0  0  0  0  0  0  0  0
  151.1762  141.6381  155.7929 H   0  0  0  0  0  0  0  0  0  0  0  0
  149.8085  140.8466  157.6577 H   0  0  0  0  0  0  0  0  0  0  0  0
  150.5777  139.2570  157.6228 H   0  0  0  0  0  0  0  0  0  0  0  0
  150.4843  142.8778  157.0399 H   0  0  0  0  0  0  0  0  0  0  0  0
  150.6377  145.2335  157.6950 H   0  0  0  0  0  0  0  0  0  0  0  0
  152.0207  145.9145  159.6457 H   0  0  0  0  0  0  0  0  0  0  0  0
  153.2606  144.2055  160.9437 H   0  0  0  0  0  0  0  0  0  0  0  0
  153.8890  141.9624  161.3657 H   0  0  0  0  0  0  0  0  0  0  0  0
  154.0715  140.9923  159.9022 H   0  0  0  0  0  0  0  0  0  0  0  0
  152.6624  140.7641  160.9469 H   0  0  0  0  0  0  0  0  0  0  0  0
  149.2280  137.8365  152.8913 H   0  0  0  0  0  0  0  0  0  0  0  0
  1  2  1  0  0  0  0
  1 26  1  0  0  0  0
  1 27  1  0  0  0  0
  1 28  1  0  0  0  0
  2  3  2  0  0  0  0
  2  4  1  0  0  0  0
  4  5  1  0  0  0  0
  4 29  1  0  0  0  0
  5  6  1  0  0  0  0
  5 30  1  0  0  0  0
  5 31  1  0  0  0  0
  6  7  1  0  0  0  0
  6 32  1  0  0  0  0
  6 33  1  0  0  0  0
  7 15  1  0  0  0  0
  7  8  2  0  0  0  0
  8  9  1  0  0  0  0
  8 49  1  0  0  0  0
  9 14  2  0  0  0  0
  9 10  1  0  0  0  0
 10 11  2  0  0  0  0
 10 34  1  0  0  0  0
 11 12  1  0  0  0  0
 11 35  1  0  0  0  0
 12 13  2  0  0  0  0
 12 36  1  0  0  0  0
 13 14  1  0  0  0  0
 13 37  1  0  0  0  0
 14 15  1  0  0  0  0
 15 16  1  0  0  0  0
 16 17  1  0  0  0  0
 16 38  1  0  0  0  0
 16 39  1  0  0  0  0
 17 18  1  0  0  0  0
 17 40  1  0  0  0  0
 17 41  1  0  0  0  0
 18 19  1  0  0  0  0
 19 24  1  0  0  0  0
 19 20  2  0  0  0  0
 20 21  1  0  0  0  0
 20 42  1  0  0  0  0
 21 22  2  0  0  0  0
 21 43  1  0  0  0  0
 22 23  1  0  0  0  0
 22 44  1  0  0  0  0
 23 24  2  0  0  0  0
 23 45  1  0  0  0  0
 24 25  1  0  0  0  0
 25 46  1  0  0  0  0
 25 47  1  0  0  0  0
 25 48  1  0  0  0  0
M  CHG  1   8   1
M  END
> <s_m_source_file>
AV-unprocessed.smi

> <i_m_source_file_index>
502

> <i_lp_mmshare_version>
43012

> <i_f3d_flags>
0

> <s_epik_input>
W0NIM11DKD1PKVtOSF1bQ0gyXVtDSDJdYyhuMSluKGMoYzEyKVtjSF1bY0hdW2NIXVtjSF0yKVtDSDJdW0NIMl1PYzNbY0hdW2NIXVtjSF1bY0hdYzNbQ0gzXQ==

> <s_epik_cmdline>
J2VwaWtfcHl0aG9uJywgJy1waCcsICc3LjAnLCAnLXRuJywgJzgnLCAnLW1hJywgJzIwMCcsICctbWV0YWxfYmluZGluZycsICctaW1hZScsICc8aW5maWxlLm1hZT4nLCAnLW9tYWUnLCAnPG91dGZpbGUubWFlPic=

> <r_lp_tautomer_probability>
1

> <r_epik_Ionization_Penalty>
1.10789

> <r_epik_Ionization_Penalty_Charging>
1.10789

> <r_epik_Ionization_Penalty_Neutral>
3.05925e-07

> <r_epik_State_Penalty>
1.16562

> <r_epik_Charging_Adjusted_Penalty>
2.27351

> <i_epik_Tot_Q>
1

> <i_epik_Tot_abs_Q>
1

> <r_epik_Metal_State_Penalty>
1.2518

> <b_epik_Metal_Only>
0

> <s_lp_Force_Field>
OPLS_2005

> <r_lp_Energy>
20.1677

> <b_lp_Chiralities_Consistent>
1

> <s_lp_Variant>
AV-unprocessed.smi:502-2

> <Gold.Version>
5.8.1

> <Gold.Id.Protein>
6NUR|6NUR_protein|mol2

> <Gold.PLP.Fitness>
59.7915

> <Gold.PLP.PLP>
-55.4852

> <Gold.PLP.part.hbond>
-2.0000

> <Gold.PLP.part.metal>
0.0000

> <Gold.PLP.part.buried>
-0.0669

> <Gold.PLP.part.nonpolar>
-53.6369

> <Gold.PLP.part.repulsive>
0.1548

> <Gold.PLP.ligand.clash>
0.0000

> <Gold.PLP.ligand.torsion>
0.9033

> <Gold.PLP.Chemscore.Hbond>
2.0000

> <Gold.PLP.Chemscore.CHOScore>
0.0000

> <Gold.PLP.Chemscore.Metal>
0.0000

> <Gold.Chemscore.Hbonds>
donor molecule, donor type, donor heavy atom, donor atom, acceptor molecule, acceptor atom, score
      L1  H     8    49       P1  7948  2.00

> <Gold.PLP.Chemscore.Internal.Correction>
0.1130

> <Gold.Rescore>
     Score         DG    S(hbond)    S(metal)    S(lipo)     H(rot)  DE(clash)    DE(int)     intcor
     19.40     -19.89       1.00        0.00     142.43       2.18       0.07       0.43       ----

> <Gold.Chemscore.Fitness>
19.3974

> <Gold.Chemscore.DG>
-19.8904

> <Gold.Chemscore.ZeroCoef>
-5.4800

> <Gold.Chemscore.Hbond>
0.9954

> <Gold.Chemscore.Metal>
0.0000

> <Gold.Chemscore.Lipo>
142.4336

> <Gold.Chemscore.Internal_Hbond>
0.0000

> <Gold.Chemscore.DEClash>
0.0661

> <Gold.Chemscore.DEInternal>
0.4269

> <Gold.Chemscore.Rot>
2.1793

> <Gold.Chemscore.Internal.Correction>
   9.000000E+99

> <Gold.Chemscore.Hbonds>
donor molecule, donor type, donor heavy atom, donor atom, acceptor molecule, acceptor atom, score
      L1  H     8    49       P1  7948  0.98

> <Gold.Chemscore.Hbond.Weighted>
-3.3248

> <Gold.Chemscore.Metal.Weighted>
-0.0000

> <Gold.Chemscore.Lipo.Weighted>
-16.6647

> <Gold.Chemscore.Internal_Hbond.Weighted>
0.0000

> <Gold.Chemscore.DEClash.Weighted>
0.0661

> <Gold.Chemscore.DEInternal.Weighted>
0.4269

> <Gold.Chemscore.Rot.Weighted>
5.5791

> <Gold.Chemscore.Internal.Correction.Weighted>
   9.000000E+99

> <Gold.Protein.RotatedTorsions>
[ 6907 6896 6895 6894 ] final -158.37 input  -60.11 | X-H torsion
[ 7974 7965 7964 7962 ] final   21.02 input  175.53 | X-H torsion
[ 8008 7997 7996 7995 ] final   57.80 input   59.86 | X-H torsion
[ 10167 10162 10161 10158 ] final -168.57 input  -65.29 | X-H torsion
[ 10718 10713 10712 10709 ] final   20.04 input   66.30 | X-H torsion
[ 10763 10752 10751 10750 ] final  121.41 input  -60.55 | X-H torsion
[ 11005 11000 10999 10996 ] final   79.50 input  -57.11 | X-H torsion

> <Gold.Protein.ActiveResidues>
 VAL166  LYS551  ARG553  GLY616  TRP617  ASP618  TYR619  PRO620  LYS621  CYS622 
 ASP623  PHE694  ASN695  SER759  ASP760  ASP761  ALA762  ILE779  LEU786  VAL792 
 PHE793  MET794  SER795  GLU796  ALA797  LYS798  CYS799  TRP800  GLU811  SER814 

> <Gold.Protein.RotatedAtoms>
  151.3172  133.4055  159.2651 H   0  0  0  0  0  0  0  0  0  0  0  0  # atno 6907 bound_to 6896
  151.0065  134.9364  159.7993 H   0  0  0  0  0  0  0  0  0  0  0  0  # atno 6908 bound_to 6896
  152.5289  134.3137  159.9175 H   0  0  0  0  0  0  0  0  0  0  0  0  # atno 6909 bound_to 6896
  146.2088  139.8086  142.8705 H   0  0  0  0  0  0  0  0  0  0  0  0  # atno 7974 bound_to 7965
  155.5397  140.3484  155.4444 H   0  0  0  0  0  0  0  0  0  0  0  0  # atno 8008 bound_to 7997
  156.0660  140.1351  156.9912 H   0  0  0  0  0  0  0  0  0  0  0  0  # atno 8009 bound_to 7997
  154.4503  140.0975  156.6572 H   0  0  0  0  0  0  0  0  0  0  0  0  # atno 8010 bound_to 7997
  139.5977  144.1077  152.1708 H   0  0  0  0  0  0  0  0  0  0  0  0  # atno 10167 bound_to 10162
  157.1189  130.6541  149.5918 H   0  0  0  0  0  0  0  0  0  0  0  0  # atno 10718 bound_to 10713
  153.6136  135.3426  155.2987 H   0  0  0  0  0  0  0  0  0  0  0  0  # atno 10763 bound_to 10752
  154.8614  135.4256  154.2283 H   0  0  0  0  0  0  0  0  0  0  0  0  # atno 10764 bound_to 10752
  153.3139  135.7033  153.7163 H   0  0  0  0  0  0  0  0  0  0  0  0  # atno 10765 bound_to 10752
  139.9170  134.7848  156.1787 H   0  0  0  0  0  0  0  0  0  0  0  0  # atno 11005 bound_to 11000
  145.3219  141.0246  143.3495 LP  0  0  0  0  0  0  0  0  0  0  0  0  # atno 17320 bound_to 7965
  144.8860  139.4838  143.6700 LP  0  0  0  0  0  0  0  0  0  0  0  0  # atno 17321 bound_to 7965
  140.0666  144.5813  150.7223 LP  0  0  0  0  0  0  0  0  0  0  0  0  # atno 17342 bound_to 10162
  140.7225  143.2603  151.4231 LP  0  0  0  0  0  0  0  0  0  0  0  0  # atno 17343 bound_to 10162
  155.9833  130.4851  150.6925 LP  0  0  0  0  0  0  0  0  0  0  0  0  # atno 17370 bound_to 10713
  157.4493  131.0870  151.0862 LP  0  0  0  0  0  0  0  0  0  0  0  0  # atno 17371 bound_to 10713
  141.0655  133.6821  156.2037 LP  0  0  0  0  0  0  0  0  0  0  0  0  # atno 17394 bound_to 11000
  140.6591  134.4986  157.5582 LP  0  0  0  0  0  0  0  0  0  0  0  0  # atno 17395 bound_to 11000

$$$$
