#       Name:                AV-unprocessed.smi:821
#       Creating user name   scv26
#       Creation time:       Fri Mar 27 01:28:17 2020


#       File generated by GOLD software.
#

@<TRIPOS>MOLECULE
AV-unprocessed.smi:821
    51    52     1
SMALL
NO_CHARGES


@<TRIPOS>ATOM
      1 ****        -2.5801  -0.3937   1.0929 C.3            1 S1                 0.0000
      2 ****        -1.8214   0.0768  -0.1600 C.3            1 S1                 0.0000
      3 ****        -2.4182  -0.5449  -1.4417 C.3            1 S1                 0.0000
      4 ****        -2.4103   0.3205  -2.6215 N.3            1 S1                 0.0000
      5 ****        -1.0606   0.6207  -3.0941 C.3            1 S1                 0.0000
      6 ****        -1.0748   1.5033  -4.3545 C.3            1 S1                 0.0000
      7 ****        -1.8429   0.8722  -5.3736 O.3            1 S1                 0.0000
      8 ****        -3.1818   0.6103  -4.9670 C.3            1 S1                 0.0000
      9 ****        -3.1726  -0.2791  -3.7120 C.3            1 S1                 0.0000
     10 ****        -0.4151  -0.3008  -0.0402 N.am           1 S1                 0.0000
     11 ****         0.5187   0.3787   0.6426 C.2            1 S1                 0.0000
     12 ****         0.2893   1.4313   1.2390 O.2            1 S1                 0.0000
     13 ****         1.9327  -0.2170   0.6313 C.3            1 S1                 0.0000
     14 ****         2.6228  -0.0675   1.9238 N.am           1 S1                 0.0000
     15 ****         3.5511   0.9829   2.0364 C.2            1 S1                 0.0000
     16 ****         4.2293   1.2062   3.1701 C.2            1 S1                 0.0000
     17 ****         3.9862   0.3345   4.2936 C.2            1 S1                 0.0000
     18 ****         3.0977  -0.6831   4.2163 C.2            1 S1                 0.0000
     19 ****         2.8254  -1.6129   5.3967 C.3            1 S1                 0.0000
     20 ****         1.5394  -1.5628   5.7464 F              1 S1                 0.0000
     21 ****         3.1215  -2.8735   5.0776 F              1 S1                 0.0000
     22 ****         3.5513  -1.2818   6.4657 F              1 S1                 0.0000
     23 ****         2.3547  -0.9197   2.9618 C.2            1 S1                 0.0000
     24 ****         1.5352  -1.8325   2.8430 O.2            1 S1                 0.0000
     25 ****        -3.6330  -0.1154   1.0408 H              1 S1                 0.0000
     26 ****        -2.1710   0.0560   1.9983 H              1 S1                 0.0000
     27 ****        -2.5268  -1.4770   1.2062 H              1 S1                 0.0000
     28 ****        -1.9114   1.1636  -0.2169 H              1 S1                 0.0000
     29 ****        -1.9323  -1.4963  -1.6655 H              1 S1                 0.0000
     30 ****        -3.4579  -0.7991  -1.2302 H              1 S1                 0.0000
     31 ****        -0.4954   1.1352  -2.3173 H              1 S1                 0.0000
     32 ****        -0.5277  -0.3070  -3.3082 H              1 S1                 0.0000
     33 ****        -1.4912   2.4870  -4.1320 H              1 S1                 0.0000
     34 ****        -0.0596   1.6608  -4.7188 H              1 S1                 0.0000
     35 ****        -3.7009   1.5499  -4.7721 H              1 S1                 0.0000
     36 ****        -3.7115   0.1135  -5.7801 H              1 S1                 0.0000
     37 ****        -2.7513  -1.2531  -3.9659 H              1 S1                 0.0000
     38 ****        -4.1996  -0.4580  -3.3918 H              1 S1                 0.0000
     39 ****        -0.1338  -1.1512  -0.5060 H              1 S1                 0.0000
     40 ****         1.8913  -1.2712   0.3497 H              1 S1                 0.0000
     41 ****         2.4963   0.2681  -0.1666 H              1 S1                 0.0000
     42 ****         3.6693   1.5933   1.1528 H              1 S1                 0.0000
     43 ****         4.9362   2.0194   3.2424 H              1 S1                 0.0000
     44 ****         4.5319   0.5126   5.2081 H              1 S1                 0.0000
     45 ****        -2.8368   1.1790  -2.3367 LP             1 S1                 0.0000
     46 ****        -1.4057   0.0055  -5.6138 LP             1 S1                 0.0000
     47 ****        -1.8627   1.4691  -6.1757 LP             1 S1                 0.0000
     48 ****        -0.6316   1.8209   1.2296 LP             1 S1                 0.0000
     49 ****         1.0240   1.8966   1.7328 LP             1 S1                 0.0000
     50 ****         1.0522  -1.9612   1.9769 LP             1 S1                 0.0000
     51 ****         1.3533  -2.4444   3.6127 LP             1 S1                 0.0000
@<TRIPOS>BOND
    1    1    2 1     
    2    1   25 1     
    3    1   26 1     
    4    1   27 1     
    5    2    3 1     
    6    2   10 1     
    7    2   28 1     
    8    3    4 1     
    9    3   29 1     
   10    3   30 1     
   11    4    9 1     
   12    4    5 1     
   13    5    6 1     
   14    5   31 1     
   15    5   32 1     
   16    6    7 1     
   17    6   33 1     
   18    6   34 1     
   19    7    8 1     
   20    8    9 1     
   21    8   35 1     
   22    8   36 1     
   23    9   37 1     
   24    9   38 1     
   25   10   11 am    
   26   10   39 1     
   27   11   12 2     
   28   11   13 1     
   29   13   14 1     
   30   13   40 1     
   31   13   41 1     
   32   14   23 am    
   33   14   15 1     
   34   15   16 2     
   35   15   42 1     
   36   16   17 1     
   37   16   43 1     
   38   17   18 2     
   39   17   44 1     
   40   18   19 1     
   41   18   23 1     
   42   19   20 1     
   43   19   21 1     
   44   19   22 1     
   45   23   24 2     
   46    4   45 1     
   47    7   46 1     
   48    7   47 1     
   49   12   48 1     
   50   12   49 1     
   51   24   50 1     
   52   24   51 1     
@<TRIPOS>SUBSTRUCTURE
      1 S1             1
@<TRIPOS>SET
LONE_PAIRS      STATIC     ATOMS    <user>   **** ""
7 45 46 47 48 49 50 51
DONOR_HYDROGENS      STATIC     ATOMS    <user>   **** ""
1 39
ATOM$BLUE        STATIC     ATOMS    COLORGROUP SYSTEM
7 45 46 47 48 49 50 51
ATOM$RED        STATIC     ATOMS    COLORGROUP SYSTEM
1 39
