AV-unprocessed.smi:1898|AV-procd|sdf|7701|dock4
  -GOLD-   22720 9443D 1   1.00000     0.00000
 Structure written by MMmdl.
 47 48  0  0  0  0  0  0  0  0  2 V2000
  146.2905  134.0212  152.4028 C   0  0  0  0  0  0  0  0  0  0  0  0
  146.5111  135.4562  152.3043 N   0  0  0  0  0  0  0  0  0  0  0  0
  145.5979  136.3824  152.6275 C   0  0  0  0  0  0  0  0  0  0  0  0
  144.4700  136.1036  153.0361 O   0  0  0  0  0  0  0  0  0  0  0  0
  146.0211  137.8438  152.4437 C   0  0  0  0  0  0  0  0  0  0  0  0
  147.1422  138.2393  153.3343 N   0  3  2  0  0  0  0  0  0  0  0  0
  146.9909  137.7075  154.7125 C   0  0  0  0  0  0  0  0  0  0  0  0
  148.2428  137.9984  155.5567 C   0  0  0  0  0  0  0  0  0  0  0  0
  148.5518  139.5036  155.5920 C   0  0  1  0  0  0  0  0  0  0  0  0
  149.7945  139.7389  156.3210 N   0  0  0  0  0  0  0  0  0  0  0  0
  149.9554  140.6375  157.3027 C   0  0  0  0  0  0  0  0  0  0  0  0
  149.0505  141.3673  157.7053 O   0  0  0  0  0  0  0  0  0  0  0  0
  151.2141  140.6163  157.7735 N   0  0  0  0  0  0  0  0  0  0  0  0
  151.8000  141.3815  158.8212 C   0  0  0  0  0  0  0  0  0  0  0  0
  151.3666  142.6759  159.2010 C   0  0  0  0  0  0  0  0  0  0  0  0
  152.0325  143.3397  160.2479 C   0  0  0  0  0  0  0  0  0  0  0  0
  153.1122  142.6913  160.8739 C   0  0  0  0  0  0  0  0  0  0  0  0
  153.5443  141.4649  160.5163 N   0  0  0  0  0  0  0  0  0  0  0  0
  152.9037  140.8224  159.5076 C   0  0  0  0  0  0  0  0  0  0  0  0
  153.3515  139.5678  159.1394 O   0  0  0  0  0  0  0  0  0  0  0  0
  154.2614  138.8907  159.9996 C   0  0  0  0  0  0  0  0  0  0  0  0
  148.6546  140.0451  154.1547 C   0  0  0  0  0  0  0  0  0  0  0  0
  147.3955  139.7050  153.3409 C   0  0  0  0  0  0  0  0  0  0  0  0
  147.1813  133.4849  152.0758 H   0  0  0  0  0  0  0  0  0  0  0  0
  145.4557  133.7113  151.7728 H   0  0  0  0  0  0  0  0  0  0  0  0
  146.0767  133.7311  153.4324 H   0  0  0  0  0  0  0  0  0  0  0  0
  147.4134  135.7616  151.9683 H   0  0  0  0  0  0  0  0  0  0  0  0
  146.2816  138.0392  151.4021 H   0  0  0  0  0  0  0  0  0  0  0  0
  145.1428  138.4513  152.6663 H   0  0  0  0  0  0  0  0  0  0  0  0
  146.1085  138.1477  155.1799 H   0  0  0  0  0  0  0  0  0  0  0  0
  146.8281  136.6296  154.6778 H   0  0  0  0  0  0  0  0  0  0  0  0
  148.0992  137.6218  156.5702 H   0  0  0  0  0  0  0  0  0  0  0  0
  149.0921  137.4533  155.1415 H   0  0  0  0  0  0  0  0  0  0  0  0
  147.7295  140.0072  156.1042 H   0  0  0  0  0  0  0  0  0  0  0  0
  150.5917  139.1778  156.0578 H   0  0  0  0  0  0  0  0  0  0  0  0
  151.8242  139.9230  157.3651 H   0  0  0  0  0  0  0  0  0  0  0  0
  150.5501  143.1811  158.7109 H   0  0  0  0  0  0  0  0  0  0  0  0
  151.7238  144.3261  160.5610 H   0  0  0  0  0  0  0  0  0  0  0  0
  153.6463  143.1719  161.6801 H   0  0  0  0  0  0  0  0  0  0  0  0
  154.5171  137.9250  159.5641 H   0  0  0  0  0  0  0  0  0  0  0  0
  153.8208  138.7052  160.9802 H   0  0  0  0  0  0  0  0  0  0  0  0
  155.1880  139.4531  160.1234 H   0  0  0  0  0  0  0  0  0  0  0  0
  148.8005  141.1259  154.1691 H   0  0  0  0  0  0  0  0  0  0  0  0
  149.5301  139.6217  153.6596 H   0  0  0  0  0  0  0  0  0  0  0  0
  147.5198  140.0704  152.3212 H   0  0  0  0  0  0  0  0  0  0  0  0
  146.5302  140.2236  153.7570 H   0  0  0  0  0  0  0  0  0  0  0  0
  147.9675  137.8003  152.9509 H   0  0  0  0  0  0  0  0  0  0  0  0
  1  2  1  0  0  0  0
  1 24  1  0  0  0  0
  1 25  1  0  0  0  0
  1 26  1  0  0  0  0
  2  3  1  0  0  0  0
  2 27  1  0  0  0  0
  3  4  2  0  0  0  0
  3  5  1  0  0  0  0
  5  6  1  0  0  0  0
  5 28  1  0  0  0  0
  5 29  1  0  0  0  0
  6 23  1  0  0  0  0
  6  7  1  0  0  0  0
  6 47  1  0  0  0  0
  7  8  1  0  0  0  0
  7 30  1  0  0  0  0
  7 31  1  0  0  0  0
  8  9  1  0  0  0  0
  8 32  1  0  0  0  0
  8 33  1  0  0  0  0
  9 10  1  0  0  0  0
  9 22  1  0  0  0  0
  9 34  1  0  0  0  0
 10 11  1  0  0  0  0
 10 35  1  0  0  0  0
 11 12  2  0  0  0  0
 11 13  1  0  0  0  0
 13 14  1  0  0  0  0
 13 36  1  0  0  0  0
 14 19  1  0  0  0  0
 14 15  2  0  0  0  0
 15 16  1  0  0  0  0
 15 37  1  0  0  0  0
 16 17  2  0  0  0  0
 16 38  1  0  0  0  0
 17 18  1  0  0  0  0
 17 39  1  0  0  0  0
 18 19  2  0  0  0  0
 19 20  1  0  0  0  0
 20 21  1  0  0  0  0
 21 40  1  0  0  0  0
 21 41  1  0  0  0  0
 21 42  1  0  0  0  0
 22 23  1  0  0  0  0
 22 43  1  0  0  0  0
 22 44  1  0  0  0  0
 23 45  1  0  0  0  0
 23 46  1  0  0  0  0
M  CHG  1   6   1
M  END
> <s_m_source_file>
AV-unprocessed.smi

> <i_m_source_file_index>
1898

> <i_lp_mmshare_version>
43012

> <i_f3d_flags>
0

> <s_epik_input>
W0NIM11bTkhdQyg9TylbQ0gyXU4xW0NIMl1bQ0gyXVtDSF0oW0NIMl1bQ0gyXTEpW05IXUMoPU8pW05IXWMyW2NIXVtjSF1bY0hdbmMyT1tDSDNd

> <s_epik_cmdline>
J2VwaWtfcHl0aG9uJywgJy1waCcsICc3LjAnLCAnLXRuJywgJzgnLCAnLW1hJywgJzIwMCcsICctbWV0YWxfYmluZGluZycsICctaW1hZScsICc8aW5maWxlLm1hZT4nLCAnLW9tYWUnLCAnPG91dGZpbGUubWFlPic=

> <r_lp_tautomer_probability>
1

> <r_epik_Ionization_Penalty>
0.838943

> <r_epik_Ionization_Penalty_Charging>
0.838844

> <r_epik_Ionization_Penalty_Neutral>
9.87395e-05

> <r_epik_State_Penalty>
0.8734

> <r_epik_Charging_Adjusted_Penalty>
1.71224

> <i_epik_Tot_Q>
1

> <i_epik_Tot_abs_Q>
1

> <r_epik_Metal_State_Penalty>
0.877926

> <b_epik_Metal_Only>
0

> <s_lp_Force_Field>
OPLS_2005

> <r_lp_Energy>
17.1521

> <b_lp_Chiralities_Consistent>
1

> <s_lp_Variant>
AV-unprocessed.smi:1898-2

> <Gold.Version>
5.8.1

> <Gold.Id.Protein>
6NUR|6NUR_protein|mol2

> <Gold.PLP.Fitness>
40.5957

> <Gold.PLP.PLP>
-29.6593

> <Gold.PLP.part.hbond>
-3.0000

> <Gold.PLP.part.metal>
0.0000

> <Gold.PLP.part.buried>
-3.4341

> <Gold.PLP.part.nonpolar>
-23.9818

> <Gold.PLP.part.repulsive>
0.3106

> <Gold.PLP.ligand.clash>
0.0000

> <Gold.PLP.ligand.torsion>
0.5469

> <Gold.PLP.Chemscore.Hbond>
4.0000

> <Gold.PLP.Chemscore.CHOScore>
0.0000

> <Gold.PLP.Chemscore.Metal>
0.0000

> <Gold.Chemscore.Hbonds>
donor molecule, donor type, donor heavy atom, donor atom, acceptor molecule, acceptor atom, score
      L1  H     2    27       P1  7948  1.00
      L1  H     6    47       P1  7948  1.46

> <Gold.PLP.Chemscore.Internal.Correction>
0.0303

> <Gold.Rescore>
     Score         DG    S(hbond)    S(metal)    S(lipo)     H(rot)  DE(clash)    DE(int)     intcor
     15.80     -17.27       2.52        0.00      72.64       2.00       0.01       1.45       ----

> <Gold.Chemscore.Fitness>
15.8016

> <Gold.Chemscore.DG>
-17.2691

> <Gold.Chemscore.ZeroCoef>
-5.4800

> <Gold.Chemscore.Hbond>
2.5152

> <Gold.Chemscore.Metal>
0.0000

> <Gold.Chemscore.Lipo>
72.6407

> <Gold.Chemscore.Internal_Hbond>
0.0000

> <Gold.Chemscore.DEClash>
0.0137

> <Gold.Chemscore.DEInternal>
1.4538

> <Gold.Chemscore.Rot>
1.9963

> <Gold.Chemscore.Internal.Correction>
   9.000000E+99

> <Gold.Chemscore.Hbonds>
donor molecule, donor type, donor heavy atom, donor atom, acceptor molecule, acceptor atom, score
      L1  H     2    27       P1  7948  0.98
      L1  H     6    47       P1  7948  0.71

> <Gold.Chemscore.Hbond.Weighted>
-8.4007

> <Gold.Chemscore.Metal.Weighted>
-0.0000

> <Gold.Chemscore.Lipo.Weighted>
-8.4990

> <Gold.Chemscore.Internal_Hbond.Weighted>
0.0000

> <Gold.Chemscore.DEClash.Weighted>
0.0137

> <Gold.Chemscore.DEInternal.Weighted>
1.4538

> <Gold.Chemscore.Rot.Weighted>
5.1105

> <Gold.Chemscore.Internal.Correction.Weighted>
   9.000000E+99

> <Gold.Protein.RotatedTorsions>
[ 6907 6896 6895 6894 ] final -143.89 input  -60.11 | X-H torsion
[ 7974 7965 7964 7962 ] final  -16.12 input  175.53 | X-H torsion
[ 8008 7997 7996 7995 ] final  157.60 input   59.86 | X-H torsion
[ 10167 10162 10161 10158 ] final -139.56 input  -65.29 | X-H torsion
[ 10718 10713 10712 10709 ] final  127.10 input   66.30 | X-H torsion
[ 10763 10752 10751 10750 ] final  108.11 input  -60.55 | X-H torsion
[ 11005 11000 10999 10996 ] final  -10.85 input  -57.11 | X-H torsion

> <Gold.Protein.ActiveResidues>
 VAL166  LYS551  ARG553  GLY616  TRP617  ASP618  TYR619  PRO620  LYS621  CYS622 
 ASP623  PHE694  ASN695  SER759  ASP760  ASP761  ALA762  ILE779  LEU786  VAL792 
 PHE793  MET794  SER795  GLU796  ALA797  LYS798  CYS799  TRP800  GLU811  SER814 

> <Gold.Protein.RotatedAtoms>
  151.1066  133.5204  159.2607 H   0  0  0  0  0  0  0  0  0  0  0  0  # atno 6907 bound_to 6896
  151.2014  135.0444  159.8884 H   0  0  0  0  0  0  0  0  0  0  0  0  # atno 6908 bound_to 6896
  152.5447  134.0893  159.8323 H   0  0  0  0  0  0  0  0  0  0  0  0  # atno 6909 bound_to 6896
  146.2002  140.3590  142.8426 H   0  0  0  0  0  0  0  0  0  0  0  0  # atno 7974 bound_to 7965
  156.2354  140.1881  156.7133 H   0  0  0  0  0  0  0  0  0  0  0  0  # atno 8008 bound_to 7997
  154.6097  140.0624  156.9505 H   0  0  0  0  0  0  0  0  0  0  0  0  # atno 8009 bound_to 7997
  155.2037  140.3294  155.4342 H   0  0  0  0  0  0  0  0  0  0  0  0  # atno 8010 bound_to 7997
  139.8367  143.7375  152.2664 H   0  0  0  0  0  0  0  0  0  0  0  0  # atno 10167 bound_to 10162
  157.5362  131.1097  150.8932 H   0  0  0  0  0  0  0  0  0  0  0  0  # atno 10718 bound_to 10713
  153.4161  135.3822  155.2081 H   0  0  0  0  0  0  0  0  0  0  0  0  # atno 10763 bound_to 10752
  154.8741  135.3806  154.4441 H   0  0  0  0  0  0  0  0  0  0  0  0  # atno 10764 bound_to 10752
  153.4955  135.7088  153.5923 H   0  0  0  0  0  0  0  0  0  0  0  0  # atno 10765 bound_to 10752
  140.7491  133.8607  155.9030 H   0  0  0  0  0  0  0  0  0  0  0  0  # atno 11005 bound_to 11000
  144.8666  140.7215  143.6073 LP  0  0  0  0  0  0  0  0  0  0  0  0  # atno 17320 bound_to 7965
  145.3510  139.1706  143.4434 LP  0  0  0  0  0  0  0  0  0  0  0  0  # atno 17321 bound_to 7965
  139.7600  144.7509  151.0379 LP  0  0  0  0  0  0  0  0  0  0  0  0  # atno 17342 bound_to 10162
  140.7802  143.4762  151.0079 LP  0  0  0  0  0  0  0  0  0  0  0  0  # atno 17343 bound_to 10162
  156.9498  130.5415  149.5282 LP  0  0  0  0  0  0  0  0  0  0  0  0  # atno 17370 bound_to 10713
  156.0460  130.5537  150.8882 LP  0  0  0  0  0  0  0  0  0  0  0  0  # atno 17371 bound_to 10713
  140.9767  134.1460  157.4530 LP  0  0  0  0  0  0  0  0  0  0  0  0  # atno 17394 bound_to 11000
  139.8791  134.9997  156.5968 LP  0  0  0  0  0  0  0  0  0  0  0  0  # atno 17395 bound_to 11000

$$$$
