AV-unprocessed.smi:886|AV-procd|sdf|4048|dock3
  -GOLD-   22720 1533D 1   1.00000     0.00000
 Structure written by MMmdl.
 35 37  0  0  0  0  0  0  0  0  1 V2000
  155.1007  140.3987  161.3008 C   0  0  0  0  0  0  0  0  0  0  0  0
  154.1291  141.3447  160.7746 N   0  0  0  0  0  0  0  0  0  0  0  0
  153.4847  141.1941  159.6072 C   0  0  0  0  0  0  0  0  0  0  0  0
  153.6435  140.2207  158.8692 O   0  0  0  0  0  0  0  0  0  0  0  0
  152.5099  142.2923  159.2649 C   0  0  0  0  0  0  0  0  0  0  0  0
  152.5827  143.5266  159.9526 C   0  0  0  0  0  0  0  0  0  0  0  0
  151.6928  144.5628  159.6183 C   0  0  0  0  0  0  0  0  0  0  0  0
  150.7573  144.3311  158.5959 C   0  0  0  0  0  0  0  0  0  0  0  0
  150.6753  143.1657  157.9236 N   0  0  0  0  0  0  0  0  0  0  0  0
  151.5301  142.1615  158.2380 C   0  0  0  0  0  0  0  0  0  0  0  0
  151.3912  140.9592  157.5218 N   0  0  0  0  0  0  0  0  0  0  0  0
  151.2281  140.9751  156.0710 C   0  0  2  0  0  0  0  0  0  0  0  0
  149.9602  141.7071  155.6244 C   0  0  0  0  0  0  0  0  0  0  0  0
  149.2716  140.6462  154.7548 C   0  0  2  0  0  0  0  0  0  0  0  0
  148.6460  139.5366  155.6103 C   0  0  0  0  0  0  0  0  0  0  0  0
  149.8825  138.7712  156.0769 C   0  0  0  0  0  0  0  0  0  0  0  0
  151.0208  139.5840  155.4364 C   0  0  1  0  0  0  0  0  0  0  0  0
  150.3950  139.9642  154.2225 O   0  0  0  0  0  0  0  0  0  0  0  0
  155.4906  140.7574  162.2533 H   0  0  0  0  0  0  0  0  0  0  0  0
  155.9385  140.2788  160.6127 H   0  0  0  0  0  0  0  0  0  0  0  0
  154.6423  139.4230  161.4660 H   0  0  0  0  0  0  0  0  0  0  0  0
  153.9316  142.1636  161.3314 H   0  0  0  0  0  0  0  0  0  0  0  0
  153.3170  143.6894  160.7283 H   0  0  0  0  0  0  0  0  0  0  0  0
  151.7292  145.5126  160.1308 H   0  0  0  0  0  0  0  0  0  0  0  0
  150.0566  145.1013  158.3097 H   0  0  0  0  0  0  0  0  0  0  0  0
  151.8271  140.1389  157.9187 H   0  0  0  0  0  0  0  0  0  0  0  0
  152.0887  141.4637  155.6117 H   0  0  0  0  0  0  0  0  0  0  0  0
  149.3251  142.0334  156.4492 H   0  0  0  0  0  0  0  0  0  0  0  0
  150.2205  142.5850  155.0324 H   0  0  0  0  0  0  0  0  0  0  0  0
  148.5970  141.0585  154.0041 H   0  0  0  0  0  0  0  0  0  0  0  0
  148.0567  139.9330  156.4378 H   0  0  0  0  0  0  0  0  0  0  0  0
  148.0025  138.8942  155.0083 H   0  0  0  0  0  0  0  0  0  0  0  0
  149.9594  138.7036  157.1620 H   0  0  0  0  0  0  0  0  0  0  0  0
  149.8698  137.7557  155.6797 H   0  0  0  0  0  0  0  0  0  0  0  0
  151.9425  139.0174  155.3012 H   0  0  0  0  0  0  0  0  0  0  0  0
  1  2  1  0  0  0  0
  1 19  1  0  0  0  0
  1 20  1  0  0  0  0
  1 21  1  0  0  0  0
  2  3  1  0  0  0  0
  2 22  1  0  0  0  0
  3  4  2  0  0  0  0
  3  5  1  0  0  0  0
  5 10  1  0  0  0  0
  5  6  2  0  0  0  0
  6  7  1  0  0  0  0
  6 23  1  0  0  0  0
  7  8  2  0  0  0  0
  7 24  1  0  0  0  0
  8  9  1  0  0  0  0
  8 25  1  0  0  0  0
  9 10  2  0  0  0  0
 10 11  1  0  0  0  0
 11 12  1  0  0  0  0
 11 26  1  0  0  0  0
 12 17  1  0  0  0  0
 12 13  1  0  0  0  0
 12 27  1  0  0  0  0
 13 14  1  0  0  0  0
 13 28  1  0  0  0  0
 13 29  1  0  0  0  0
 14 18  1  0  0  0  0
 14 15  1  0  0  0  0
 14 30  1  0  0  0  0
 15 16  1  0  0  0  0
 15 31  1  0  0  0  0
 15 32  1  0  0  0  0
 16 17  1  0  0  0  0
 16 33  1  0  0  0  0
 16 34  1  0  0  0  0
 17 18  1  0  0  0  0
 17 35  1  0  0  0  0
M  END
> <s_m_source_file>
AV-unprocessed.smi

> <i_m_source_file_index>
886

> <i_lp_mmshare_version>
43012

> <i_f3d_flags>
0

> <s_epik_input>
W0NIM11bTkhdQyg9TyljMVtjSF1bY0hdW2NIXW5jMVtOSF1bQ0BIXShbQ0gyXVtDQEhdMjMpW0NASF0oTzMpW0NIMl1bQ0gyXTI=

> <s_epik_cmdline>
J2VwaWtfcHl0aG9uJywgJy1waCcsICc3LjAnLCAnLXRuJywgJzgnLCAnLW1hJywgJzIwMCcsICctbWV0YWxfYmluZGluZycsICctaW1hZScsICc8aW5maWxlLm1hZT4nLCAnLW9tYWUnLCAnPG91dGZpbGUubWFlPic=

> <r_lp_tautomer_probability>
1

> <r_epik_Ionization_Penalty>
0.0065447

> <r_epik_Ionization_Penalty_Charging>
0

> <r_epik_Ionization_Penalty_Neutral>
0.0065447

> <r_epik_State_Penalty>
0.00484214

> <r_epik_Charging_Adjusted_Penalty>
0.00484214

> <i_epik_Tot_Q>
0

> <i_epik_Tot_abs_Q>
0

> <r_epik_Metal_State_Penalty>
-0

> <b_epik_Metal_Only>
0

> <s_lp_Force_Field>
OPLS_2005

> <r_lp_Energy>
46.6605

> <b_lp_Chiralities_Consistent>
1

> <s_lp_Variant>
AV-unprocessed.smi:886-1

> <Gold.Version>
5.8.1

> <Gold.Id.Protein>
6NUR|6NUR_protein|mol2

> <Gold.PLP.Fitness>
43.5768

> <Gold.PLP.PLP>
-35.6535

> <Gold.PLP.part.hbond>
-2.0000

> <Gold.PLP.part.metal>
0.0000

> <Gold.PLP.part.buried>
-4.5824

> <Gold.PLP.part.nonpolar>
-29.4425

> <Gold.PLP.part.repulsive>
0.3773

> <Gold.PLP.ligand.clash>
0.0000

> <Gold.PLP.ligand.torsion>
0.4748

> <Gold.PLP.Chemscore.Hbond>
1.9199

> <Gold.PLP.Chemscore.CHOScore>
1.0329

> <Gold.PLP.Chemscore.Metal>
0.0000

> <Gold.Chemscore.Hbonds>
donor molecule, donor type, donor heavy atom, donor atom, acceptor molecule, acceptor atom, score
      P1  H  7989  7998       L1    18  1.00
      P1  H  7997  8010       L1     4  0.90
      L1  C     8    25       P1  8028  0.02
      L1  C     8    25       P1  8029  1.00

> <Gold.PLP.Chemscore.Internal.Correction>
0.0147

> <Gold.Rescore>
     Score         DG    S(hbond)    S(metal)    S(lipo)     H(rot)  DE(clash)    DE(int)     intcor
     16.61     -18.52       1.62        0.00      87.08       1.00       0.02       1.89       ----

> <Gold.Chemscore.Fitness>
16.6069

> <Gold.Chemscore.DG>
-18.5239

> <Gold.Chemscore.ZeroCoef>
-5.4800

> <Gold.Chemscore.Hbond>
1.6214

> <Gold.Chemscore.Metal>
0.0000

> <Gold.Chemscore.Lipo>
87.0817

> <Gold.Chemscore.Internal_Hbond>
0.0000

> <Gold.Chemscore.DEClash>
0.0245

> <Gold.Chemscore.DEInternal>
1.8926

> <Gold.Chemscore.Rot>
1.0000

> <Gold.Chemscore.Internal.Correction>
   9.000000E+99

> <Gold.Chemscore.Hbonds>
donor molecule, donor type, donor heavy atom, donor atom, acceptor molecule, acceptor atom, score
      P1  H  7989  7998       L1    18  0.33
      P1  H  7997  8010       L1     4  0.83

> <Gold.Chemscore.Hbond.Weighted>
-5.4154

> <Gold.Chemscore.Metal.Weighted>
-0.0000

> <Gold.Chemscore.Lipo.Weighted>
-10.1886

> <Gold.Chemscore.Internal_Hbond.Weighted>
0.0000

> <Gold.Chemscore.DEClash.Weighted>
0.0245

> <Gold.Chemscore.DEInternal.Weighted>
1.8926

> <Gold.Chemscore.Rot.Weighted>
2.5600

> <Gold.Chemscore.Internal.Correction.Weighted>
   9.000000E+99

> <Gold.Protein.RotatedTorsions>
[ 6907 6896 6895 6894 ] final   69.50 input  -60.11 | X-H torsion
[ 7974 7965 7964 7962 ] final   59.33 input  175.53 | X-H torsion
[ 8008 7997 7996 7995 ] final   15.02 input   59.86 | X-H torsion
[ 10167 10162 10161 10158 ] final  -12.99 input  -65.29 | X-H torsion
[ 10718 10713 10712 10709 ] final   67.27 input   66.30 | X-H torsion
[ 10763 10752 10751 10750 ] final -142.85 input  -60.55 | X-H torsion
[ 11005 11000 10999 10996 ] final   49.15 input  -57.11 | X-H torsion

> <Gold.Protein.ActiveResidues>
 VAL166  LYS551  ARG553  GLY616  TRP617  ASP618  TYR619  PRO620  LYS621  CYS622 
 ASP623  PHE694  ASN695  SER759  ASP760  ASP761  ALA762  ILE779  LEU786  VAL792 
 PHE793  MET794  SER795  GLU796  ALA797  LYS798  CYS799  TRP800  GLU811  SER814 

> <Gold.Protein.RotatedAtoms>
  152.4690  134.5006  159.9723 H   0  0  0  0  0  0  0  0  0  0  0  0  # atno 6907 bound_to 6896
  151.5037  133.3493  159.2881 H   0  0  0  0  0  0  0  0  0  0  0  0  # atno 6908 bound_to 6896
  150.8689  134.8087  159.7202 H   0  0  0  0  0  0  0  0  0  0  0  0  # atno 6909 bound_to 6896
  145.9083  139.3634  143.0550 H   0  0  0  0  0  0  0  0  0  0  0  0  # atno 7974 bound_to 7965
  154.8568  140.2938  155.5564 H   0  0  0  0  0  0  0  0  0  0  0  0  # atno 8008 bound_to 7997
  156.3018  140.2485  156.3468 H   0  0  0  0  0  0  0  0  0  0  0  0  # atno 8009 bound_to 7997
  154.8962  140.0393  157.1856 H   0  0  0  0  0  0  0  0  0  0  0  0  # atno 8010 bound_to 7997
  140.7173  143.5474  150.9340 H   0  0  0  0  0  0  0  0  0  0  0  0  # atno 10167 bound_to 10162
  157.6220  130.9312  150.0220 H   0  0  0  0  0  0  0  0  0  0  0  0  # atno 10718 bound_to 10713
  154.8493  135.3484  154.6094 H   0  0  0  0  0  0  0  0  0  0  0  0  # atno 10763 bound_to 10752
  153.6702  135.6985  153.5154 H   0  0  0  0  0  0  0  0  0  0  0  0  # atno 10764 bound_to 10752
  153.2748  135.4282  155.0979 H   0  0  0  0  0  0  0  0  0  0  0  0  # atno 10765 bound_to 10752
  140.1129  134.4931  155.8663 H   0  0  0  0  0  0  0  0  0  0  0  0  # atno 11005 bound_to 11000
  145.8703  140.9423  143.0654 LP  0  0  0  0  0  0  0  0  0  0  0  0  # atno 17320 bound_to 7965
  144.6741  140.0646  143.7475 LP  0  0  0  0  0  0  0  0  0  0  0  0  # atno 17321 bound_to 7965
  139.9197  143.6620  152.3099 LP  0  0  0  0  0  0  0  0  0  0  0  0  # atno 17342 bound_to 10162
  139.7033  144.7632  151.1236 LP  0  0  0  0  0  0  0  0  0  0  0  0  # atno 17343 bound_to 10162
  156.1371  130.3642  149.9640 LP  0  0  0  0  0  0  0  0  0  0  0  0  # atno 17370 bound_to 10713
  156.7689  130.9179  151.3644 LP  0  0  0  0  0  0  0  0  0  0  0  0  # atno 17371 bound_to 10713
  141.2134  133.6733  156.6739 LP  0  0  0  0  0  0  0  0  0  0  0  0  # atno 17394 bound_to 11000
  140.3067  134.8119  157.4143 LP  0  0  0  0  0  0  0  0  0  0  0  0  # atno 17395 bound_to 11000

$$$$
