AV-unprocessed.smi:3253|AV-procd|sdf|12452|dock9
  -GOLD-   2272018343D 1   1.00000     0.00000
 Structure written by MMmdl.
 36 37  0  0  0  0  0  0  0  0  1 V2000
  149.2831  141.7342  157.9239 C   0  0  0  0  0  0  0  0  0  0  0  0
  150.6456  141.7967  157.2208 C   0  0  1  0  0  0  0  0  0  0  0  0
  151.7808  142.1074  158.2202 C   0  0  0  0  0  0  0  0  0  0  0  0
  151.8159  143.5042  158.6149 N   0  0  0  0  0  0  0  0  0  0  0  0
  152.4041  144.0383  159.7543 C   0  0  0  0  0  0  0  0  0  0  0  0
  152.2008  145.3986  159.7010 C   0  0  0  0  0  0  0  0  0  0  0  0
  151.4871  145.7208  158.5492 N   0  0  0  0  0  0  0  0  0  0  0  0
  151.2931  144.5488  157.9582 C   0  0  0  0  0  0  0  0  0  0  0  0
  150.8894  140.5259  156.5392 N   0  0  0  0  0  0  0  0  0  0  0  0
  150.3431  140.1475  155.3726 C   0  0  0  0  0  0  0  0  0  0  0  0
  149.5172  140.8251  154.7597 O   0  0  0  0  0  0  0  0  0  0  0  0
  150.8265  138.8099  154.7927 C   0  0  1  0  0  0  0  0  0  0  0  0
  152.1691  138.3686  155.4110 C   0  0  0  0  0  0  0  0  0  0  0  0
  151.8043  137.1541  156.2492 C   0  0  0  0  0  0  0  0  0  0  0  0
  152.6073  136.5864  156.9882 O   0  0  0  0  0  0  0  0  0  0  0  0
  150.5230  136.8197  156.0731 N   0  0  0  0  0  0  0  0  0  0  0  0
  149.8284  135.7248  156.7362 C   0  0  0  0  0  0  0  0  0  0  0  0
  149.8434  137.6603  155.1029 C   0  0  0  0  0  0  0  0  0  0  0  0
  149.0586  142.6751  158.4268 H   0  0  0  0  0  0  0  0  0  0  0  0
  149.2574  140.9425  158.6733 H   0  0  0  0  0  0  0  0  0  0  0  0
  148.4811  141.5442  157.2098 H   0  0  0  0  0  0  0  0  0  0  0  0
  150.5924  142.6065  156.4909 H   0  0  0  0  0  0  0  0  0  0  0  0
  151.6598  141.5078  159.1233 H   0  0  0  0  0  0  0  0  0  0  0  0
  152.7492  141.8394  157.7953 H   0  0  0  0  0  0  0  0  0  0  0  0
  152.9124  143.4248  160.4834 H   0  0  0  0  0  0  0  0  0  0  0  0
  152.5105  146.1639  160.3971 H   0  0  0  0  0  0  0  0  0  0  0  0
  150.7663  144.4485  157.0206 H   0  0  0  0  0  0  0  0  0  0  0  0
  151.5578  139.9031  156.9693 H   0  0  0  0  0  0  0  0  0  0  0  0
  150.9380  138.9118  153.7117 H   0  0  0  0  0  0  0  0  0  0  0  0
  152.8791  138.0741  154.6378 H   0  0  0  0  0  0  0  0  0  0  0  0
  152.6428  139.1334  156.0286 H   0  0  0  0  0  0  0  0  0  0  0  0
  150.3644  134.7858  156.5942 H   0  0  0  0  0  0  0  0  0  0  0  0
  148.8204  135.6013  156.3391 H   0  0  0  0  0  0  0  0  0  0  0  0
  149.7499  135.9185  157.8065 H   0  0  0  0  0  0  0  0  0  0  0  0
  148.8884  138.0089  155.5011 H   0  0  0  0  0  0  0  0  0  0  0  0
  149.6325  137.0779  154.2050 H   0  0  0  0  0  0  0  0  0  0  0  0
  1  2  1  0  0  0  0
  1 19  1  0  0  0  0
  1 20  1  0  0  0  0
  1 21  1  0  0  0  0
  2  3  1  0  0  0  0
  2  9  1  0  0  0  0
  2 22  1  0  0  0  0
  3  4  1  0  0  0  0
  3 23  1  0  0  0  0
  3 24  1  0  0  0  0
  4  8  1  0  0  0  0
  4  5  1  0  0  0  0
  5  6  2  0  0  0  0
  5 25  1  0  0  0  0
  6  7  1  0  0  0  0
  6 26  1  0  0  0  0
  7  8  2  0  0  0  0
  8 27  1  0  0  0  0
  9 10  1  0  0  0  0
  9 28  1  0  0  0  0
 10 11  2  0  0  0  0
 10 12  1  0  0  0  0
 12 18  1  0  0  0  0
 12 13  1  0  0  0  0
 12 29  1  0  0  0  0
 13 14  1  0  0  0  0
 13 30  1  0  0  0  0
 13 31  1  0  0  0  0
 14 15  2  0  0  0  0
 14 16  1  0  0  0  0
 16 17  1  0  0  0  0
 16 18  1  0  0  0  0
 17 32  1  0  0  0  0
 17 33  1  0  0  0  0
 17 34  1  0  0  0  0
 18 35  1  0  0  0  0
 18 36  1  0  0  0  0
M  END
> <s_m_source_file>
AV-unprocessed.smi

> <i_m_source_file_index>
3253

> <i_lp_mmshare_version>
43012

> <i_f3d_flags>
0

> <s_epik_input>
W2NIXTFuW2NIXVtjSF1uMVtDSDJdW0NAQEhdKFtDSDNdKVtOSF1DKD1PKVtDQEBIXTJbQ0gyXUMoPU8pTihbQ0gzXSlbQ0gyXTI=

> <s_epik_cmdline>
J2VwaWtfcHl0aG9uJywgJy1waCcsICc3LjAnLCAnLXRuJywgJzgnLCAnLW1hJywgJzIwMCcsICctbWV0YWxfYmluZGluZycsICctaW1hZScsICc8aW5maWxlLm1hZT4nLCAnLW9tYWUnLCAnPG91dGZpbGUubWFlPic=

> <r_lp_tautomer_probability>
1

> <r_epik_Ionization_Penalty>
0.628884

> <r_epik_Ionization_Penalty_Charging>
0.628884

> <r_epik_Ionization_Penalty_Neutral>
2.35084e-08

> <r_epik_State_Penalty>
0.64556

> <r_epik_Charging_Adjusted_Penalty>
1.27444

> <i_epik_Tot_Q>
0

> <i_epik_Tot_abs_Q>
0

> <r_epik_Metal_State_Penalty>
0.308736

> <b_epik_Metal_Only>
0

> <s_lp_Force_Field>
OPLS_2005

> <r_lp_Energy>
12.6198

> <b_lp_Chiralities_Consistent>
1

> <s_lp_Variant>
AV-unprocessed.smi:3253-8

> <Gold.Version>
5.8.1

> <Gold.Id.Protein>
6NUR|6NUR_protein|mol2

> <Gold.PLP.Fitness>
39.7979

> <Gold.PLP.PLP>
-36.3617

> <Gold.PLP.part.hbond>
-3.0000

> <Gold.PLP.part.metal>
0.0000

> <Gold.PLP.part.buried>
-3.2005

> <Gold.PLP.part.nonpolar>
-30.9412

> <Gold.PLP.part.repulsive>
0.3780

> <Gold.PLP.ligand.clash>
0.0000

> <Gold.PLP.ligand.torsion>
1.2855

> <Gold.PLP.Chemscore.Hbond>
0.9920

> <Gold.PLP.Chemscore.CHOScore>
1.0000

> <Gold.PLP.Chemscore.Metal>
0.0000

> <Gold.Chemscore.Hbonds>
donor molecule, donor type, donor heavy atom, donor atom, acceptor molecule, acceptor atom, score
      P1  H 10752 10764       L1    15  0.34
      L1  C     8    27       P1  8028  1.00

> <Gold.PLP.Chemscore.Internal.Correction>
0.0312

> <Gold.Rescore>
     Score         DG    S(hbond)    S(metal)    S(lipo)     H(rot)  DE(clash)    DE(int)     intcor
     10.27     -11.28       0.93        0.00      65.99       1.97       0.07       0.94       ----

> <Gold.Chemscore.Fitness>
10.2682

> <Gold.Chemscore.DG>
-11.2779

> <Gold.Chemscore.ZeroCoef>
-5.4800

> <Gold.Chemscore.Hbond>
0.9319

> <Gold.Chemscore.Metal>
0.0000

> <Gold.Chemscore.Lipo>
65.9886

> <Gold.Chemscore.Internal_Hbond>
0.0000

> <Gold.Chemscore.DEClash>
0.0699

> <Gold.Chemscore.DEInternal>
0.9398

> <Gold.Chemscore.Rot>
1.9669

> <Gold.Chemscore.Internal.Correction>
   9.000000E+99

> <Gold.Chemscore.Hbonds>
donor molecule, donor type, donor heavy atom, donor atom, acceptor molecule, acceptor atom, score
      P1  H 10752 10764       L1    15  0.04

> <Gold.Chemscore.Hbond.Weighted>
-3.1124

> <Gold.Chemscore.Metal.Weighted>
-0.0000

> <Gold.Chemscore.Lipo.Weighted>
-7.7207

> <Gold.Chemscore.Internal_Hbond.Weighted>
0.0000

> <Gold.Chemscore.DEClash.Weighted>
0.0699

> <Gold.Chemscore.DEInternal.Weighted>
0.9398

> <Gold.Chemscore.Rot.Weighted>
5.0352

> <Gold.Chemscore.Internal.Correction.Weighted>
   9.000000E+99

> <Gold.Protein.RotatedTorsions>
[ 6907 6896 6895 6894 ] final -173.60 input  -60.11 | X-H torsion
[ 7974 7965 7964 7962 ] final -104.16 input  175.53 | X-H torsion
[ 8008 7997 7996 7995 ] final  101.07 input   59.86 | X-H torsion
[ 10167 10162 10161 10158 ] final  144.73 input  -65.29 | X-H torsion
[ 10718 10713 10712 10709 ] final  -87.40 input   66.30 | X-H torsion
[ 10763 10752 10751 10750 ] final    0.17 input  -60.55 | X-H torsion
[ 11005 11000 10999 10996 ] final  -74.99 input  -57.11 | X-H torsion

> <Gold.Protein.ActiveResidues>
 VAL166  LYS551  ARG553  GLY616  TRP617  ASP618  TYR619  PRO620  LYS621  CYS622 
 ASP623  PHE694  ASN695  SER759  ASP760  ASP761  ALA762  ILE779  LEU786  VAL792 
 PHE793  MET794  SER795  GLU796  ALA797  LYS798  CYS799  TRP800  GLU811  SER814 

> <Gold.Protein.RotatedAtoms>
  151.5587  133.3406  159.2966 H   0  0  0  0  0  0  0  0  0  0  0  0  # atno 6907 bound_to 6896
  150.8435  134.7739  159.6963 H   0  0  0  0  0  0  0  0  0  0  0  0  # atno 6908 bound_to 6896
  152.4498  134.5426  159.9895 H   0  0  0  0  0  0  0  0  0  0  0  0  # atno 6909 bound_to 6896
  145.2467  140.9224  143.3119 H   0  0  0  0  0  0  0  0  0  0  0  0  # atno 7974 bound_to 7965
  156.1264  140.3203  155.8283 H   0  0  0  0  0  0  0  0  0  0  0  0  # atno 8008 bound_to 7997
  155.4412  140.0525  157.3027 H   0  0  0  0  0  0  0  0  0  0  0  0  # atno 8009 bound_to 7997
  154.4865  140.2075  155.9656 H   0  0  0  0  0  0  0  0  0  0  0  0  # atno 8010 bound_to 7997
  139.4941  144.5951  151.6599 H   0  0  0  0  0  0  0  0  0  0  0  0  # atno 10167 bound_to 10162
  155.9985  130.4799  150.4862 H   0  0  0  0  0  0  0  0  0  0  0  0  # atno 10718 bound_to 10713
  153.3241  135.6971  153.7004 H   0  0  0  0  0  0  0  0  0  0  0  0  # atno 10763 bound_to 10752
  153.5833  135.3494  155.2884 H   0  0  0  0  0  0  0  0  0  0  0  0  # atno 10764 bound_to 10752
  154.8604  135.4300  154.2413 H   0  0  0  0  0  0  0  0  0  0  0  0  # atno 10765 bound_to 10752
  141.1641  133.6930  156.7448 H   0  0  0  0  0  0  0  0  0  0  0  0  # atno 11005 bound_to 11000
  144.9540  139.4051  143.6388 LP  0  0  0  0  0  0  0  0  0  0  0  0  # atno 17320 bound_to 7965
  146.3314  139.8561  142.8864 LP  0  0  0  0  0  0  0  0  0  0  0  0  # atno 17321 bound_to 7965
  140.5587  144.0304  150.6160 LP  0  0  0  0  0  0  0  0  0  0  0  0  # atno 17342 bound_to 10162
  140.3383  143.3035  152.0615 LP  0  0  0  0  0  0  0  0  0  0  0  0  # atno 17343 bound_to 10162
  157.2862  131.0617  151.2165 LP  0  0  0  0  0  0  0  0  0  0  0  0  # atno 17370 bound_to 10713
  157.3193  130.6929  149.6260 LP  0  0  0  0  0  0  0  0  0  0  0  0  # atno 17371 bound_to 10713
  140.2648  134.8439  157.3792 LP  0  0  0  0  0  0  0  0  0  0  0  0  # atno 17394 bound_to 11000
  140.1577  134.4768  155.7916 LP  0  0  0  0  0  0  0  0  0  0  0  0  # atno 17395 bound_to 11000

$$$$
