AV-unprocessed.smi:1327|AV-procd|sdf|5477|dock4
  -GOLD-   22720 5 53D 1   1.00000     0.00000
 Structure written by MMmdl.
 40 41  0  0  0  0  0  0  0  0  1 V2000
  152.8450  139.7019  154.7766 O   0  0  0  0  0  0  0  0  0  0  0  0
  151.8169  138.7853  155.2925 S   0  0  0  0  0  0  0  0  0  0  0  0
  151.9149  137.3344  155.0708 O   0  0  0  0  0  0  0  0  0  0  0  0
  151.6462  139.0481  156.9860 N   0  0  0  0  0  0  0  0  0  0  0  0
  151.2076  140.3623  157.4526 C   0  0  0  0  0  0  0  0  0  0  0  0
  152.0359  140.8264  158.6622 C   0  0  0  0  0  0  0  0  0  0  0  0
  151.9683  142.3267  158.8988 C   0  0  0  0  0  0  0  0  0  0  0  0
  152.4822  142.8880  160.0875 C   0  0  0  0  0  0  0  0  0  0  0  0
  152.3873  144.2814  160.2685 C   0  0  0  0  0  0  0  0  0  0  0  0
  151.7835  145.0567  159.2601 C   0  0  0  0  0  0  0  0  0  0  0  0
  151.3005  144.4015  158.1100 C   0  0  0  0  0  0  0  0  0  0  0  0
  151.3879  143.0664  157.9259 N   0  0  0  0  0  0  0  0  0  0  0  0
  150.2611  139.3426  154.7656 N   0  0  0  0  0  0  0  0  0  0  0  0
  149.4137  138.4082  154.0034 C   0  0  0  0  0  0  0  0  0  0  0  0
  147.9058  138.6775  154.1736 C   0  0  0  0  0  0  0  0  0  0  0  0
  147.4149  139.9291  153.4299 C   0  0  0  0  0  0  0  0  0  0  0  0
  147.5846  141.2489  154.2029 C   0  0  0  0  0  0  0  0  0  0  0  0
  148.8592  141.3688  155.0561 C   0  0  0  0  0  0  0  0  0  0  0  0
  150.1193  140.7690  154.4149 C   0  0  0  0  0  0  0  0  0  0  0  0
  152.4437  138.6899  157.5117 H   0  0  0  0  0  0  0  0  0  0  0  0
  151.2906  141.0830  156.6384 H   0  0  0  0  0  0  0  0  0  0  0  0
  150.1528  140.3014  157.7213 H   0  0  0  0  0  0  0  0  0  0  0  0
  151.6811  140.3157  159.5581 H   0  0  0  0  0  0  0  0  0  0  0  0
  153.0778  140.5268  158.5399 H   0  0  0  0  0  0  0  0  0  0  0  0
  152.9365  142.2666  160.8453 H   0  0  0  0  0  0  0  0  0  0  0  0
  152.7697  144.7466  161.1650 H   0  0  0  0  0  0  0  0  0  0  0  0
  151.6923  146.1277  159.3652 H   0  0  0  0  0  0  0  0  0  0  0  0
  150.8311  144.9651  157.3175 H   0  0  0  0  0  0  0  0  0  0  0  0
  149.7006  138.4341  152.9516 H   0  0  0  0  0  0  0  0  0  0  0  0
  149.6118  137.3925  154.3448 H   0  0  0  0  0  0  0  0  0  0  0  0
  147.3743  137.8186  153.7622 H   0  0  0  0  0  0  0  0  0  0  0  0
  147.6305  138.7153  155.2283 H   0  0  0  0  0  0  0  0  0  0  0  0
  147.9221  139.9976  152.4666 H   0  0  0  0  0  0  0  0  0  0  0  0
  146.3575  139.8115  153.1907 H   0  0  0  0  0  0  0  0  0  0  0  0
  147.5539  142.0695  153.4851 H   0  0  0  0  0  0  0  0  0  0  0  0
  146.7235  141.3978  154.8553 H   0  0  0  0  0  0  0  0  0  0  0  0
  149.0310  142.4267  155.2573 H   0  0  0  0  0  0  0  0  0  0  0  0
  148.6972  140.9135  156.0344 H   0  0  0  0  0  0  0  0  0  0  0  0
  150.9861  141.3152  154.7864 H   0  0  0  0  0  0  0  0  0  0  0  0
  150.1306  140.8996  153.3322 H   0  0  0  0  0  0  0  0  0  0  0  0
  1  2  2  0  0  0  0
  2  3  2  0  0  0  0
  2  4  1  0  0  0  0
  2 13  1  0  0  0  0
  4  5  1  0  0  0  0
  4 20  1  0  0  0  0
  5  6  1  0  0  0  0
  5 21  1  0  0  0  0
  5 22  1  0  0  0  0
  6  7  1  0  0  0  0
  6 23  1  0  0  0  0
  6 24  1  0  0  0  0
  7 12  1  0  0  0  0
  7  8  2  0  0  0  0
  8  9  1  0  0  0  0
  8 25  1  0  0  0  0
  9 10  2  0  0  0  0
  9 26  1  0  0  0  0
 10 11  1  0  0  0  0
 10 27  1  0  0  0  0
 11 12  2  0  0  0  0
 11 28  1  0  0  0  0
 13 19  1  0  0  0  0
 13 14  1  0  0  0  0
 14 15  1  0  0  0  0
 14 29  1  0  0  0  0
 14 30  1  0  0  0  0
 15 16  1  0  0  0  0
 15 31  1  0  0  0  0
 15 32  1  0  0  0  0
 16 17  1  0  0  0  0
 16 33  1  0  0  0  0
 16 34  1  0  0  0  0
 17 18  1  0  0  0  0
 17 35  1  0  0  0  0
 17 36  1  0  0  0  0
 18 19  1  0  0  0  0
 18 37  1  0  0  0  0
 18 38  1  0  0  0  0
 19 39  1  0  0  0  0
 19 40  1  0  0  0  0
M  END
> <s_m_source_file>
AV-unprocessed.smi

> <i_m_source_file_index>
1327

> <i_lp_mmshare_version>
43012

> <i_f3d_flags>
0

> <s_epik_input>
W0NIMl0xW0NIMl1bQ0gyXVtDSDJdW0NIMl1bQ0gyXU4xUyg9TykoPU8pW05IXVtDSDJdW0NIMl1jMltjSF1bY0hdW2NIXVtjSF1uMg==

> <s_epik_cmdline>
J2VwaWtfcHl0aG9uJywgJy1waCcsICc3LjAnLCAnLXRuJywgJzgnLCAnLW1hJywgJzIwMCcsICctbWV0YWxfYmluZGluZycsICctaW1hZScsICc8aW5maWxlLm1hZT4nLCAnLW9tYWUnLCAnPG91dGZpbGUubWFlPic=

> <r_lp_tautomer_probability>
1

> <r_epik_Ionization_Penalty>
0.00665037

> <r_epik_Ionization_Penalty_Charging>
0

> <r_epik_Ionization_Penalty_Neutral>
0.00665037

> <r_epik_State_Penalty>
-0

> <r_epik_Charging_Adjusted_Penalty>
0

> <i_epik_Tot_Q>
0

> <i_epik_Tot_abs_Q>
0

> <r_epik_Metal_State_Penalty>
0.361784

> <b_epik_Metal_Only>
0

> <s_lp_Force_Field>
OPLS_2005

> <r_lp_Energy>
15.8899

> <b_lp_Chiralities_Consistent>
1

> <s_lp_Variant>
AV-unprocessed.smi:1327-1

> <Gold.Version>
5.8.1

> <Gold.Id.Protein>
6NUR|6NUR_protein|mol2

> <Gold.PLP.Fitness>
47.9209

> <Gold.PLP.PLP>
-39.4800

> <Gold.PLP.part.hbond>
-2.9509

> <Gold.PLP.part.metal>
0.0000

> <Gold.PLP.part.buried>
-0.7979

> <Gold.PLP.part.nonpolar>
-36.3087

> <Gold.PLP.part.repulsive>
0.1965

> <Gold.PLP.ligand.clash>
0.0000

> <Gold.PLP.ligand.torsion>
1.6501

> <Gold.PLP.Chemscore.Hbond>
2.2003

> <Gold.PLP.Chemscore.CHOScore>
1.0000

> <Gold.PLP.Chemscore.Metal>
0.0000

> <Gold.Chemscore.Hbonds>
donor molecule, donor type, donor heavy atom, donor atom, acceptor molecule, acceptor atom, score
      P1  H  7989  7998       L1     1  0.39
      P1  H  7997  8010       L1     1  1.00
      P1  H 10752 10764       L1     3  0.83
      L1  C    11    28       P1  8028  1.00

> <Gold.PLP.Chemscore.Internal.Correction>
2.1403

> <Gold.Rescore>
     Score         DG    S(hbond)    S(metal)    S(lipo)     H(rot)  DE(clash)    DE(int)     intcor
     17.97     -21.13       1.91        0.00     111.47       1.47       1.52       1.64       ----

> <Gold.Chemscore.Fitness>
17.9697

> <Gold.Chemscore.DG>
-21.1306

> <Gold.Chemscore.ZeroCoef>
-5.4800

> <Gold.Chemscore.Hbond>
1.9097

> <Gold.Chemscore.Metal>
0.0000

> <Gold.Chemscore.Lipo>
111.4708

> <Gold.Chemscore.Internal_Hbond>
0.0000

> <Gold.Chemscore.DEClash>
1.5192

> <Gold.Chemscore.DEInternal>
1.6417

> <Gold.Chemscore.Rot>
1.4725

> <Gold.Chemscore.Internal.Correction>
   9.000000E+99

> <Gold.Chemscore.Hbonds>
donor molecule, donor type, donor heavy atom, donor atom, acceptor molecule, acceptor atom, score
      P1  H  7989  7998       L1     1  0.10
      P1  H  7997  8010       L1     1  0.95
      P1  H 10752 10764       L1     3  0.78

> <Gold.Chemscore.Hbond.Weighted>
-6.3783

> <Gold.Chemscore.Metal.Weighted>
-0.0000

> <Gold.Chemscore.Lipo.Weighted>
-13.0421

> <Gold.Chemscore.Internal_Hbond.Weighted>
0.0000

> <Gold.Chemscore.DEClash.Weighted>
1.5192

> <Gold.Chemscore.DEInternal.Weighted>
1.6417

> <Gold.Chemscore.Rot.Weighted>
3.7697

> <Gold.Chemscore.Internal.Correction.Weighted>
   9.000000E+99

> <Gold.Protein.RotatedTorsions>
[ 6907 6896 6895 6894 ] final  -91.62 input  -60.11 | X-H torsion
[ 7974 7965 7964 7962 ] final  -47.02 input  175.53 | X-H torsion
[ 8008 7997 7996 7995 ] final  108.35 input   59.86 | X-H torsion
[ 10167 10162 10161 10158 ] final   70.37 input  -65.29 | X-H torsion
[ 10718 10713 10712 10709 ] final  -66.61 input   66.30 | X-H torsion
[ 10763 10752 10751 10750 ] final  -61.91 input  -60.55 | X-H torsion
[ 11005 11000 10999 10996 ] final   93.72 input  -57.11 | X-H torsion

> <Gold.Protein.ActiveResidues>
 VAL166  LYS551  ARG553  GLY616  TRP617  ASP618  TYR619  PRO620  LYS621  CYS622 
 ASP623  PHE694  ASN695  SER759  ASP760  ASP761  ALA762  ILE779  LEU786  VAL792 
 PHE793  MET794  SER795  GLU796  ALA797  LYS798  CYS799  TRP800  GLU811  SER814 

> <Gold.Protein.RotatedAtoms>
  150.6895  134.2249  159.4411 H   0  0  0  0  0  0  0  0  0  0  0  0  # atno 6907 bound_to 6896
  152.0204  134.9824  160.0579 H   0  0  0  0  0  0  0  0  0  0  0  0  # atno 6908 bound_to 6896
  152.1403  133.4425  159.4800 H   0  0  0  0  0  0  0  0  0  0  0  0  # atno 6909 bound_to 6896
  145.9660  140.7432  142.9434 H   0  0  0  0  0  0  0  0  0  0  0  0  # atno 7974 bound_to 7965
  156.1896  140.3078  155.9306 H   0  0  0  0  0  0  0  0  0  0  0  0  # atno 8008 bound_to 7997
  155.3203  140.0455  157.3056 H   0  0  0  0  0  0  0  0  0  0  0  0  # atno 8009 bound_to 7997
  154.5436  140.2269  155.8609 H   0  0  0  0  0  0  0  0  0  0  0  0  # atno 8010 bound_to 7997
  140.0577  144.5259  150.7317 H   0  0  0  0  0  0  0  0  0  0  0  0  # atno 10167 bound_to 10162
  156.0603  130.4265  150.1734 H   0  0  0  0  0  0  0  0  0  0  0  0  # atno 10718 bound_to 10713
  154.2918  135.6252  153.5388 H   0  0  0  0  0  0  0  0  0  0  0  0  # atno 10763 bound_to 10752
  152.9851  135.5657  154.5381 H   0  0  0  0  0  0  0  0  0  0  0  0  # atno 10764 bound_to 10752
  154.4994  135.2871  155.1409 H   0  0  0  0  0  0  0  0  0  0  0  0  # atno 10765 bound_to 10752
  139.8806  134.8806  156.3759 H   0  0  0  0  0  0  0  0  0  0  0  0  # atno 11005 bound_to 11000
  144.6825  140.2669  143.7311 LP  0  0  0  0  0  0  0  0  0  0  0  0  # atno 17320 bound_to 7965
  145.7974  139.1950  143.2068 LP  0  0  0  0  0  0  0  0  0  0  0  0  # atno 17321 bound_to 7965
  140.7187  143.2568  151.4351 LP  0  0  0  0  0  0  0  0  0  0  0  0  # atno 17342 bound_to 10162
  139.5913  144.1493  152.2092 LP  0  0  0  0  0  0  0  0  0  0  0  0  # atno 17343 bound_to 10162
  156.9803  130.9862  151.3439 LP  0  0  0  0  0  0  0  0  0  0  0  0  # atno 17370 bound_to 10713
  157.5606  130.8243  149.8261 LP  0  0  0  0  0  0  0  0  0  0  0  0  # atno 17371 bound_to 10713
  140.9432  133.7500  156.0174 LP  0  0  0  0  0  0  0  0  0  0  0  0  # atno 17394 bound_to 11000
  140.8195  134.3306  157.5386 LP  0  0  0  0  0  0  0  0  0  0  0  0  # atno 17395 bound_to 11000

$$$$
