AV-unprocessed.smi:851|AV-procd|sdf|3950|dock1
  -GOLD-   22720 1423D 1   1.00000     0.00000
 Structure written by MMmdl.
 34 35  0  0  0  0  0  0  0  0  1 V2000
  144.6838  134.8008  150.5415 C   0  0  0  0  0  0  0  0  0  0  0  0
  145.8792  134.4470  151.2277 O   0  0  0  0  0  0  0  0  0  0  0  0
  146.0634  133.1279  151.5974 C   0  0  0  0  0  0  0  0  0  0  0  0
  145.2637  132.1828  151.0427 N   0  0  0  0  0  0  0  0  0  0  0  0
  145.4418  130.8964  151.4079 C   0  0  0  0  0  0  0  0  0  0  0  0
  146.4122  130.4877  152.3412 C   0  0  0  0  0  0  0  0  0  0  0  0
  147.2431  131.4662  152.9175 C   0  0  0  0  0  0  0  0  0  0  0  0
  147.0775  132.8187  152.5331 C   0  0  0  0  0  0  0  0  0  0  0  0
  147.8444  133.8928  153.0606 N   0  0  0  0  0  0  0  0  0  0  0  0
  148.4999  133.9744  154.2343 C   0  0  0  0  0  0  0  0  0  0  0  0
  148.5130  133.0964  155.0940 O   0  0  0  0  0  0  0  0  0  0  0  0
  149.1867  135.1198  154.3982 N   0  0  0  0  0  0  0  0  0  0  0  0
  150.0002  135.5293  155.5448 C   0  0  1  0  0  0  0  0  0  0  0  0
  150.9663  136.6648  155.1593 C   0  0  0  0  0  0  0  0  0  0  0  0
  151.5348  137.2848  156.4422 C   0  0  0  0  0  0  0  0  0  0  0  0
  150.2328  137.0961  157.7194 S   0  0  0  0  0  0  0  0  0  0  0  0
  150.7767  136.3155  158.8410 O   0  0  0  0  0  0  0  0  0  0  0  0
  149.5707  138.3894  157.9468 O   0  0  0  0  0  0  0  0  0  0  0  0
  149.1353  136.0295  156.7138 C   0  0  0  0  0  0  0  0  0  0  0  0
  144.6977  135.8685  150.3225 H   0  0  0  0  0  0  0  0  0  0  0  0
  143.8006  134.5995  151.1492 H   0  0  0  0  0  0  0  0  0  0  0  0
  144.5955  134.2700  149.5925 H   0  0  0  0  0  0  0  0  0  0  0  0
  144.7872  130.1718  150.9467 H   0  0  0  0  0  0  0  0  0  0  0  0
  146.5138  129.4475  152.6126 H   0  0  0  0  0  0  0  0  0  0  0  0
  147.9756  131.1615  153.6485 H   0  0  0  0  0  0  0  0  0  0  0  0
  147.9846  134.6666  152.4274 H   0  0  0  0  0  0  0  0  0  0  0  0
  149.1552  135.7732  153.6287 H   0  0  0  0  0  0  0  0  0  0  0  0
  150.6068  134.6893  155.8888 H   0  0  0  0  0  0  0  0  0  0  0  0
  151.7605  136.3156  154.4987 H   0  0  0  0  0  0  0  0  0  0  0  0
  150.4164  137.4346  154.6157 H   0  0  0  0  0  0  0  0  0  0  0  0
  152.4162  136.7380  156.7780 H   0  0  0  0  0  0  0  0  0  0  0  0
  151.8005  138.3355  156.3250 H   0  0  0  0  0  0  0  0  0  0  0  0
  148.3090  136.6456  156.3573 H   0  0  0  0  0  0  0  0  0  0  0  0
  148.7297  135.2256  157.3286 H   0  0  0  0  0  0  0  0  0  0  0  0
  1  2  1  0  0  0  0
  1 20  1  0  0  0  0
  1 21  1  0  0  0  0
  1 22  1  0  0  0  0
  2  3  1  0  0  0  0
  3  8  1  0  0  0  0
  3  4  2  0  0  0  0
  4  5  1  0  0  0  0
  5  6  2  0  0  0  0
  5 23  1  0  0  0  0
  6  7  1  0  0  0  0
  6 24  1  0  0  0  0
  7  8  2  0  0  0  0
  7 25  1  0  0  0  0
  8  9  1  0  0  0  0
  9 10  1  0  0  0  0
  9 26  1  0  0  0  0
 10 11  2  0  0  0  0
 10 12  1  0  0  0  0
 12 13  1  0  0  0  0
 12 27  1  0  0  0  0
 13 19  1  0  0  0  0
 13 14  1  0  0  0  0
 13 28  1  0  0  0  0
 14 15  1  0  0  0  0
 14 29  1  0  0  0  0
 14 30  1  0  0  0  0
 15 16  1  0  0  0  0
 15 31  1  0  0  0  0
 15 32  1  0  0  0  0
 16 17  2  0  0  0  0
 16 18  2  0  0  0  0
 16 19  1  0  0  0  0
 19 33  1  0  0  0  0
 19 34  1  0  0  0  0
M  END
> <s_m_source_file>
AV-unprocessed.smi

> <i_m_source_file_index>
851

> <i_lp_mmshare_version>
43012

> <i_f3d_flags>
0

> <s_epik_input>
W0NIM11PYzFuW2NIXVtjSF1bY0hdYzFbTkhdQyg9TylbTkhdW0NAQEhdKFtDSDJdMilbQ0gyXVtDSDJdUzIoPU8pPU8=

> <s_epik_cmdline>
J2VwaWtfcHl0aG9uJywgJy1waCcsICc3LjAnLCAnLXRuJywgJzgnLCAnLW1hJywgJzIwMCcsICctbWV0YWxfYmluZGluZycsICctaW1hZScsICc8aW5maWxlLm1hZT4nLCAnLW9tYWUnLCAnPG91dGZpbGUubWFlPic=

> <r_lp_tautomer_probability>
1

> <r_epik_Ionization_Penalty>
7.64927e-05

> <r_epik_Ionization_Penalty_Charging>
0

> <r_epik_Ionization_Penalty_Neutral>
7.64927e-05

> <r_epik_State_Penalty>
-0

> <r_epik_Charging_Adjusted_Penalty>
0

> <i_epik_Tot_Q>
0

> <i_epik_Tot_abs_Q>
0

> <r_epik_Metal_State_Penalty>
-0

> <b_epik_Metal_Only>
0

> <s_lp_Force_Field>
OPLS_2005

> <r_lp_Energy>
17.9576

> <b_lp_Chiralities_Consistent>
1

> <s_lp_Variant>
AV-unprocessed.smi:851-2

> <Gold.Version>
5.8.1

> <Gold.Id.Protein>
6NUR|6NUR_protein|mol2

> <Gold.PLP.Fitness>
32.3217

> <Gold.PLP.PLP>
-24.4466

> <Gold.PLP.part.hbond>
-3.0000

> <Gold.PLP.part.metal>
0.0000

> <Gold.PLP.part.buried>
-4.0679

> <Gold.PLP.part.nonpolar>
-17.3926

> <Gold.PLP.part.repulsive>
0.3074

> <Gold.PLP.ligand.clash>
0.0000

> <Gold.PLP.ligand.torsion>
0.5649

> <Gold.PLP.Chemscore.Hbond>
3.0000

> <Gold.PLP.Chemscore.CHOScore>
0.0000

> <Gold.PLP.Chemscore.Metal>
0.0000

> <Gold.Chemscore.Hbonds>
donor molecule, donor type, donor heavy atom, donor atom, acceptor molecule, acceptor atom, score
      L1  H     9    26       P1  7948  1.00
      L1  H    12    27       P1  7948  1.00
      P1  H  6896  6907       L1    17  0.96

> <Gold.PLP.Chemscore.Internal.Correction>
0.0050

> <Gold.Rescore>
     Score         DG    S(hbond)    S(metal)    S(lipo)     H(rot)  DE(clash)    DE(int)     intcor
     14.89     -16.56       2.53        0.00      51.09       1.31       0.02       1.65       ----

> <Gold.Chemscore.Fitness>
14.8876

> <Gold.Chemscore.DG>
-16.5574

> <Gold.Chemscore.ZeroCoef>
-5.4800

> <Gold.Chemscore.Hbond>
2.5315

> <Gold.Chemscore.Metal>
0.0000

> <Gold.Chemscore.Lipo>
51.0941

> <Gold.Chemscore.Internal_Hbond>
0.0000

> <Gold.Chemscore.DEClash>
0.0202

> <Gold.Chemscore.DEInternal>
1.6495

> <Gold.Chemscore.Rot>
1.3109

> <Gold.Chemscore.Internal.Correction>
   9.000000E+99

> <Gold.Chemscore.Hbonds>
donor molecule, donor type, donor heavy atom, donor atom, acceptor molecule, acceptor atom, score
      L1  H     9    26       P1  7948  0.53
      L1  H    12    27       P1  7948  0.76
      P1  H  6896  6907       L1    17  0.91

> <Gold.Chemscore.Hbond.Weighted>
-8.4553

> <Gold.Chemscore.Metal.Weighted>
-0.0000

> <Gold.Chemscore.Lipo.Weighted>
-5.9780

> <Gold.Chemscore.Internal_Hbond.Weighted>
0.0000

> <Gold.Chemscore.DEClash.Weighted>
0.0202

> <Gold.Chemscore.DEInternal.Weighted>
1.6495

> <Gold.Chemscore.Rot.Weighted>
3.3559

> <Gold.Chemscore.Internal.Correction.Weighted>
   9.000000E+99

> <Gold.Protein.RotatedTorsions>
[ 6907 6896 6895 6894 ] final  -31.55 input  -60.11 | X-H torsion
[ 7974 7965 7964 7962 ] final  -92.36 input  175.53 | X-H torsion
[ 8008 7997 7996 7995 ] final   23.90 input   59.86 | X-H torsion
[ 10167 10162 10161 10158 ] final   72.16 input  -65.29 | X-H torsion
[ 10718 10713 10712 10709 ] final  116.36 input   66.30 | X-H torsion
[ 10763 10752 10751 10750 ] final   90.79 input  -60.55 | X-H torsion
[ 11005 11000 10999 10996 ] final  170.00 input  -57.11 | X-H torsion

> <Gold.Protein.ActiveResidues>
 VAL166  LYS551  ARG553  GLY616  TRP617  ASP618  TYR619  PRO620  LYS621  CYS622 
 ASP623  PHE694  ASN695  SER759  ASP760  ASP761  ALA762  ILE779  LEU786  VAL792 
 PHE793  MET794  SER795  GLU796  ALA797  LYS798  CYS799  TRP800  GLU811  SER814 

> <Gold.Protein.RotatedAtoms>
  151.0905  134.9913  159.8400 H   0  0  0  0  0  0  0  0  0  0  0  0  # atno 6907 bound_to 6896
  152.5428  134.2071  159.8745 H   0  0  0  0  0  0  0  0  0  0  0  0  # atno 6908 bound_to 6896
  151.2107  133.4514  159.2631 H   0  0  0  0  0  0  0  0  0  0  0  0  # atno 6909 bound_to 6896
  145.4009  140.9537  143.2288 H   0  0  0  0  0  0  0  0  0  0  0  0  # atno 7974 bound_to 7965
  154.9880  140.3110  155.4918 H   0  0  0  0  0  0  0  0  0  0  0  0  # atno 8008 bound_to 7997
  156.2944  140.2254  156.4923 H   0  0  0  0  0  0  0  0  0  0  0  0  # atno 8009 bound_to 7997
  154.7729  140.0451  157.1054 H   0  0  0  0  0  0  0  0  0  0  0  0  # atno 8010 bound_to 7997
  140.0383  144.5410  150.7453 H   0  0  0  0  0  0  0  0  0  0  0  0  # atno 10167 bound_to 10162
  157.6165  131.1024  150.7462 H   0  0  0  0  0  0  0  0  0  0  0  0  # atno 10718 bound_to 10713
  153.2013  135.4421  155.0270 H   0  0  0  0  0  0  0  0  0  0  0  0  # atno 10763 bound_to 10752
  154.8148  135.3310  154.7208 H   0  0  0  0  0  0  0  0  0  0  0  0  # atno 10764 bound_to 10752
  153.7653  135.6988  153.4973 H   0  0  0  0  0  0  0  0  0  0  0  0  # atno 10765 bound_to 10752
  140.3037  134.7574  157.3936 H   0  0  0  0  0  0  0  0  0  0  0  0  # atno 11005 bound_to 11000
  144.8375  139.5526  143.6915 LP  0  0  0  0  0  0  0  0  0  0  0  0  # atno 17320 bound_to 7965
  146.2752  139.6735  142.9268 LP  0  0  0  0  0  0  0  0  0  0  0  0  # atno 17321 bound_to 7965
  140.7271  143.2648  151.4081 LP  0  0  0  0  0  0  0  0  0  0  0  0  # atno 17342 bound_to 10162
  139.6030  144.1255  152.2219 LP  0  0  0  0  0  0  0  0  0  0  0  0  # atno 17343 bound_to 10162
  156.7828  130.4865  149.5398 LP  0  0  0  0  0  0  0  0  0  0  0  0  # atno 17370 bound_to 10713
  156.1290  130.6164  151.0305 LP  0  0  0  0  0  0  0  0  0  0  0  0  # atno 17371 bound_to 10713
  140.1086  134.5376  155.8286 LP  0  0  0  0  0  0  0  0  0  0  0  0  # atno 17394 bound_to 11000
  141.2123  133.6717  156.6647 LP  0  0  0  0  0  0  0  0  0  0  0  0  # atno 17395 bound_to 11000

$$$$
