AV-unprocessed.smi:1812|AV-procd|sdf|7336|dock8
  -GOLD-   22720 8593D 1   1.00000     0.00000
 Structure written by MMmdl.
 34 36  0  0  0  0  0  0  0  0  1 V2000
  146.9900  138.8731  154.6632 O   0  0  0  0  0  0  0  0  0  0  0  0
  147.6738  139.0122  153.6486 C   0  0  0  0  0  0  0  0  0  0  0  0
  147.2908  138.5863  152.4365 N   0  0  0  0  0  0  0  0  0  0  0  0
  146.0239  137.9250  152.1453 C   0  0  0  0  0  0  0  0  0  0  0  0
  146.2235  136.4321  151.8363 C   0  0  2  0  0  0  0  0  0  0  0  0
  145.0979  135.8213  151.0032 C   0  0  0  0  0  0  0  0  0  0  0  0
  145.1949  134.3621  151.3849 C   0  0  0  0  0  0  0  0  0  0  0  0
  145.5200  134.4537  152.8726 C   0  0  0  0  0  0  0  0  0  0  0  0
  146.2465  135.6685  153.0409 O   0  0  0  0  0  0  0  0  0  0  0  0
  148.8812  139.6019  153.5985 N   0  0  0  0  0  0  0  0  0  0  0  0
  149.6218  140.1820  154.6624 C   0  0  0  0  0  0  0  0  0  0  0  0
  150.9466  140.0445  154.8096 N   0  0  0  0  0  0  0  0  0  0  0  0
  151.4151  140.7130  155.9319 N   0  0  0  0  0  0  0  0  0  0  0  0
  150.4356  141.3357  156.5985 C   0  0  0  0  0  0  0  0  0  0  0  0
  150.6937  142.1231  157.8398 C   0  0  0  0  0  0  0  0  0  0  0  0
  151.4803  143.4156  157.8104 C   0  0  0  0  0  0  0  0  0  0  0  0
  152.0790  142.1845  158.4415 C   0  0  0  0  0  0  0  0  0  0  0  0
  148.8319  141.1491  155.8960 S   0  0  0  0  0  0  0  0  0  0  0  0
  147.9103  138.7443  151.6553 H   0  0  0  0  0  0  0  0  0  0  0  0
  145.3666  138.0448  153.0070 H   0  0  0  0  0  0  0  0  0  0  0  0
  145.5307  138.4219  151.3082 H   0  0  0  0  0  0  0  0  0  0  0  0
  147.1703  136.2701  151.3179 H   0  0  0  0  0  0  0  0  0  0  0  0
  144.1297  136.2222  151.3072 H   0  0  0  0  0  0  0  0  0  0  0  0
  145.2198  135.9934  149.9335 H   0  0  0  0  0  0  0  0  0  0  0  0
  144.2829  133.8008  151.1800 H   0  0  0  0  0  0  0  0  0  0  0  0
  146.0178  133.8886  150.8477 H   0  0  0  0  0  0  0  0  0  0  0  0
  144.6029  134.5169  153.4597 H   0  0  0  0  0  0  0  0  0  0  0  0
  146.0902  133.5949  153.2273 H   0  0  0  0  0  0  0  0  0  0  0  0
  149.3213  139.6439  152.6913 H   0  0  0  0  0  0  0  0  0  0  0  0
  149.8456  142.0592  158.5185 H   0  0  0  0  0  0  0  0  0  0  0  0
  151.9024  143.7419  156.8622 H   0  0  0  0  0  0  0  0  0  0  0  0
  151.1574  144.2140  158.4755 H   0  0  0  0  0  0  0  0  0  0  0  0
  152.1559  142.1621  159.5267 H   0  0  0  0  0  0  0  0  0  0  0  0
  152.8857  141.6881  157.9058 H   0  0  0  0  0  0  0  0  0  0  0  0
  1  2  2  0  0  0  0
  2  3  1  0  0  0  0
  2 10  1  0  0  0  0
  3  4  1  0  0  0  0
  3 19  1  0  0  0  0
  4  5  1  0  0  0  0
  4 20  1  0  0  0  0
  4 21  1  0  0  0  0
  5  9  1  0  0  0  0
  5  6  1  0  0  0  0
  5 22  1  0  0  0  0
  6  7  1  0  0  0  0
  6 23  1  0  0  0  0
  6 24  1  0  0  0  0
  7  8  1  0  0  0  0
  7 25  1  0  0  0  0
  7 26  1  0  0  0  0
  8  9  1  0  0  0  0
  8 27  1  0  0  0  0
  8 28  1  0  0  0  0
 10 11  1  0  0  0  0
 10 29  1  0  0  0  0
 11 18  1  0  0  0  0
 11 12  2  0  0  0  0
 12 13  1  0  0  0  0
 13 14  2  0  0  0  0
 14 15  1  0  0  0  0
 14 18  1  0  0  0  0
 15 17  1  0  0  0  0
 15 16  1  0  0  0  0
 15 30  1  0  0  0  0
 16 17  1  0  0  0  0
 16 31  1  0  0  0  0
 16 32  1  0  0  0  0
 17 33  1  0  0  0  0
 17 34  1  0  0  0  0
M  END
> <s_m_source_file>
AV-unprocessed.smi

> <i_m_source_file_index>
1812

> <i_lp_mmshare_version>
43012

> <i_f3d_flags>
0

> <s_epik_input>
TzFbQ0gyXVtDSDJdW0NIMl1bQ0BIXTFbQ0gyXVtOSF1DKD1PKVtOSF1jMm5uYyhzMilbQ0hdM1tDSDJdW0NIMl0z

> <s_epik_cmdline>
J2VwaWtfcHl0aG9uJywgJy1waCcsICc3LjAnLCAnLXRuJywgJzgnLCAnLW1hJywgJzIwMCcsICctbWV0YWxfYmluZGluZycsICctaW1hZScsICc8aW5maWxlLm1hZT4nLCAnLW9tYWUnLCAnPG91dGZpbGUubWFlPic=

> <r_lp_tautomer_probability>
1

> <r_epik_Ionization_Penalty>
0.000281817

> <r_epik_Ionization_Penalty_Charging>
0

> <r_epik_Ionization_Penalty_Neutral>
0.000281817

> <r_epik_State_Penalty>
-0

> <r_epik_Charging_Adjusted_Penalty>
0

> <i_epik_Tot_Q>
0

> <i_epik_Tot_abs_Q>
0

> <r_epik_Metal_State_Penalty>
0.157535

> <b_epik_Metal_Only>
0

> <s_lp_Force_Field>
OPLS_2005

> <r_lp_Energy>
14.57

> <b_lp_Chiralities_Consistent>
1

> <s_lp_Variant>
AV-unprocessed.smi:1812-1

> <Gold.Version>
5.8.1

> <Gold.Id.Protein>
6NUR|6NUR_protein|mol2

> <Gold.PLP.Fitness>
35.2449

> <Gold.PLP.PLP>
-28.3787

> <Gold.PLP.part.hbond>
-3.9989

> <Gold.PLP.part.metal>
0.0000

> <Gold.PLP.part.buried>
-0.6430

> <Gold.PLP.part.nonpolar>
-25.1793

> <Gold.PLP.part.repulsive>
1.4718

> <Gold.PLP.ligand.clash>
0.0000

> <Gold.PLP.ligand.torsion>
0.7145

> <Gold.PLP.Chemscore.Hbond>
2.7200

> <Gold.PLP.Chemscore.CHOScore>
0.0000

> <Gold.PLP.Chemscore.Metal>
0.0000

> <Gold.Chemscore.Hbonds>
donor molecule, donor type, donor heavy atom, donor atom, acceptor molecule, acceptor atom, score
      L1  H     3    19       P1  7957  0.55
      L1  H    10    29       P1  7957  1.00
      P1  H  7989  7998       L1    12  1.00

> <Gold.PLP.Chemscore.Internal.Correction>
0.1352

> <Gold.Rescore>
     Score         DG    S(hbond)    S(metal)    S(lipo)     H(rot)  DE(clash)    DE(int)     intcor
     15.30     -18.30       2.70        0.00      64.84       1.47       1.71       1.30       ----

> <Gold.Chemscore.Fitness>
15.2988

> <Gold.Chemscore.DG>
-18.3045

> <Gold.Chemscore.ZeroCoef>
-5.4800

> <Gold.Chemscore.Hbond>
2.6970

> <Gold.Chemscore.Metal>
0.0000

> <Gold.Chemscore.Lipo>
64.8364

> <Gold.Chemscore.Internal_Hbond>
0.0000

> <Gold.Chemscore.DEClash>
1.7103

> <Gold.Chemscore.DEInternal>
1.2954

> <Gold.Chemscore.Rot>
1.4725

> <Gold.Chemscore.Internal.Correction>
   9.000000E+99

> <Gold.Chemscore.Hbonds>
donor molecule, donor type, donor heavy atom, donor atom, acceptor molecule, acceptor atom, score
      L1  H     3    19       P1  7957  0.43
      L1  H    10    29       P1  7957  0.98
      P1  H  7989  7998       L1    12  0.25

> <Gold.Chemscore.Hbond.Weighted>
-9.0081

> <Gold.Chemscore.Metal.Weighted>
-0.0000

> <Gold.Chemscore.Lipo.Weighted>
-7.5859

> <Gold.Chemscore.Internal_Hbond.Weighted>
0.0000

> <Gold.Chemscore.DEClash.Weighted>
1.7103

> <Gold.Chemscore.DEInternal.Weighted>
1.2954

> <Gold.Chemscore.Rot.Weighted>
3.7695

> <Gold.Chemscore.Internal.Correction.Weighted>
   9.000000E+99

> <Gold.Protein.RotatedTorsions>
[ 6907 6896 6895 6894 ] final   72.52 input  -60.11 | X-H torsion
[ 7974 7965 7964 7962 ] final   -8.77 input  175.53 | X-H torsion
[ 8008 7997 7996 7995 ] final -120.85 input   59.86 | X-H torsion
[ 10167 10162 10161 10158 ] final  109.25 input  -65.29 | X-H torsion
[ 10718 10713 10712 10709 ] final  136.53 input   66.30 | X-H torsion
[ 10763 10752 10751 10750 ] final  -93.12 input  -60.55 | X-H torsion
[ 11005 11000 10999 10996 ] final -150.91 input  -57.11 | X-H torsion

> <Gold.Protein.ActiveResidues>
 VAL166  LYS551  ARG553  GLY616  TRP617  ASP618  TYR619  PRO620  LYS621  CYS622 
 ASP623  PHE694  ASN695  SER759  ASP760  ASP761  ALA762  ILE779  LEU786  VAL792 
 PHE793  MET794  SER795  GLU796  ALA797  LYS798  CYS799  TRP800  GLU811  SER814 

> <Gold.Protein.RotatedAtoms>
  152.4872  134.4559  159.9589 H   0  0  0  0  0  0  0  0  0  0  0  0  # atno 6907 bound_to 6896
  151.4553  133.3601  159.2809 H   0  0  0  0  0  0  0  0  0  0  0  0  # atno 6908 bound_to 6896
  150.8994  134.8429  159.7409 H   0  0  0  0  0  0  0  0  0  0  0  0  # atno 6909 bound_to 6896
  146.2271  140.2517  142.8347 H   0  0  0  0  0  0  0  0  0  0  0  0  # atno 7974 bound_to 7965
  155.1385  140.0401  157.2792 H   0  0  0  0  0  0  0  0  0  0  0  0  # atno 8008 bound_to 7997
  154.6490  140.2565  155.7208 H   0  0  0  0  0  0  0  0  0  0  0  0  # atno 8009 bound_to 7997
  156.2568  140.2840  156.0916 H   0  0  0  0  0  0  0  0  0  0  0  0  # atno 8010 bound_to 7997
  139.6781  144.7120  151.1565 H   0  0  0  0  0  0  0  0  0  0  0  0  # atno 10167 bound_to 10162
  157.4456  131.1061  151.0093 H   0  0  0  0  0  0  0  0  0  0  0  0  # atno 10718 bound_to 10713
  154.6928  135.5206  153.8416 H   0  0  0  0  0  0  0  0  0  0  0  0  # atno 10763 bound_to 10752
  153.0645  135.6580  154.0396 H   0  0  0  0  0  0  0  0  0  0  0  0  # atno 10764 bound_to 10752
  154.0267  135.2989  155.3353 H   0  0  0  0  0  0  0  0  0  0  0  0  # atno 10765 bound_to 10752
  140.7351  134.3577  157.5159 H   0  0  0  0  0  0  0  0  0  0  0  0  # atno 11005 bound_to 11000
  144.9406  140.8075  143.5632 LP  0  0  0  0  0  0  0  0  0  0  0  0  # atno 17320 bound_to 7965
  145.2468  139.2048  143.4963 LP  0  0  0  0  0  0  0  0  0  0  0  0  # atno 17321 bound_to 7965
  140.7642  143.5741  150.8965 LP  0  0  0  0  0  0  0  0  0  0  0  0  # atno 17342 bound_to 10162
  139.9411  143.6381  152.3053 LP  0  0  0  0  0  0  0  0  0  0  0  0  # atno 17343 bound_to 10162
  157.0940  130.5954  149.5446 LP  0  0  0  0  0  0  0  0  0  0  0  0  # atno 17370 bound_to 10713
  155.9966  130.5036  150.7503 LP  0  0  0  0  0  0  0  0  0  0  0  0  # atno 17371 bound_to 10713
  139.8818  134.9044  156.2877 LP  0  0  0  0  0  0  0  0  0  0  0  0  # atno 17394 bound_to 11000
  140.9886  133.7222  156.0780 LP  0  0  0  0  0  0  0  0  0  0  0  0  # atno 17395 bound_to 11000

$$$$
