AV-unprocessed.smi:1592|AV-procd|sdf|6401|dock1
  -GOLD-   22720 7 33D 1   1.00000     0.00000
 Structure written by MMmdl.
 27 28  0  0  0  0  0  0  0  0  1 V2000
  152.5247  139.9724  157.0877 O   0  0  0  0  0  0  0  0  0  0  0  0
  151.4955  140.4879  156.6505 C   0  0  0  0  0  0  0  0  0  0  0  0
  150.9555  141.6270  157.1241 N   0  0  0  0  0  0  0  0  0  0  0  0
  151.4389  142.4804  158.1538 C   0  0  0  0  0  0  0  0  0  0  0  0
  151.8176  142.0263  159.3753 N   0  0  0  0  0  0  0  0  0  0  0  0
  152.2673  142.9024  160.2976 C   0  0  0  0  0  0  0  0  0  0  0  0
  152.3682  144.2848  160.0608 C   0  0  0  0  0  0  0  0  0  0  0  0
  151.9798  144.7701  158.8002 C   0  0  0  0  0  0  0  0  0  0  0  0
  151.5091  143.8601  157.8324 C   0  0  0  0  0  0  0  0  0  0  0  0
  151.1303  144.3262  156.6037 O   0  0  0  0  0  0  0  0  0  0  0  0
  150.7224  139.8066  155.5041 C   0  0  2  0  0  0  0  0  0  0  0  0
  150.2700  138.3744  155.8069 C   0  0  0  0  0  0  0  0  0  0  0  0
  151.5111  137.5432  155.5264 C   0  0  0  0  0  0  0  0  0  0  0  0
  152.3095  138.3981  154.5365 C   0  0  0  0  0  0  0  0  0  0  0  0
  151.5727  139.6096  154.3772 O   0  0  0  0  0  0  0  0  0  0  0  0
  150.1008  141.9306  156.6798 H   0  0  0  0  0  0  0  0  0  0  0  0
  152.5559  142.4881  161.2521 H   0  0  0  0  0  0  0  0  0  0  0  0
  152.7339  144.9538  160.8257 H   0  0  0  0  0  0  0  0  0  0  0  0
  152.0430  145.8257  158.5801 H   0  0  0  0  0  0  0  0  0  0  0  0
  150.1934  144.4082  156.5106 H   0  0  0  0  0  0  0  0  0  0  0  0
  149.8781  140.4405  155.2320 H   0  0  0  0  0  0  0  0  0  0  0  0
  149.8857  138.2305  156.8174 H   0  0  0  0  0  0  0  0  0  0  0  0
  149.4755  138.0938  155.1145 H   0  0  0  0  0  0  0  0  0  0  0  0
  152.0856  137.3966  156.4420 H   0  0  0  0  0  0  0  0  0  0  0  0
  151.2628  136.5605  155.1245 H   0  0  0  0  0  0  0  0  0  0  0  0
  153.3042  138.6167  154.9267 H   0  0  0  0  0  0  0  0  0  0  0  0
  152.4264  137.9049  153.5712 H   0  0  0  0  0  0  0  0  0  0  0  0
  1  2  2  0  0  0  0
  2  3  1  0  0  0  0
  2 11  1  0  0  0  0
  3  4  1  0  0  0  0
  3 16  1  0  0  0  0
  4  9  1  0  0  0  0
  4  5  2  0  0  0  0
  5  6  1  0  0  0  0
  6  7  2  0  0  0  0
  6 17  1  0  0  0  0
  7  8  1  0  0  0  0
  7 18  1  0  0  0  0
  8  9  2  0  0  0  0
  8 19  1  0  0  0  0
  9 10  1  0  0  0  0
 10 20  1  0  0  0  0
 11 15  1  0  0  0  0
 11 12  1  0  0  0  0
 11 21  1  0  0  0  0
 12 13  1  0  0  0  0
 12 22  1  0  0  0  0
 12 23  1  0  0  0  0
 13 14  1  0  0  0  0
 13 24  1  0  0  0  0
 13 25  1  0  0  0  0
 14 15  1  0  0  0  0
 14 26  1  0  0  0  0
 14 27  1  0  0  0  0
M  END
> <s_m_source_file>
AV-unprocessed.smi

> <i_m_source_file_index>
1592

> <i_lp_mmshare_version>
43012

> <i_f3d_flags>
0

> <s_epik_input>
TzFbQ0gyXVtDSDJdW0NIMl1bQ0BIXTFDKD1PKVtOSF1jMm5bY0hdW2NIXVtjSF1jMltPSF0=

> <s_epik_cmdline>
J2VwaWtfcHl0aG9uJywgJy1waCcsICc3LjAnLCAnLXRuJywgJzgnLCAnLW1hJywgJzIwMCcsICctbWV0YWxfYmluZGluZycsICctaW1hZScsICc8aW5maWxlLm1hZT4nLCAnLW9tYWUnLCAnPG91dGZpbGUubWFlPic=

> <r_lp_tautomer_probability>
0.43658

> <r_epik_Ionization_Penalty>
0.0209102

> <r_epik_Ionization_Penalty_Charging>
0

> <r_epik_Ionization_Penalty_Neutral>
0.0209102

> <r_epik_State_Penalty>
0.412899

> <r_epik_Charging_Adjusted_Penalty>
0.412899

> <i_epik_Tot_Q>
0

> <i_epik_Tot_abs_Q>
0

> <r_epik_Metal_State_Penalty>
0.372161

> <b_epik_Metal_Only>
0

> <s_lp_Force_Field>
OPLS_2005

> <r_lp_Energy>
20.4398

> <b_lp_Chiralities_Consistent>
1

> <s_lp_Variant>
AV-unprocessed.smi:1592-1

> <Gold.Version>
5.8.1

> <Gold.Id.Protein>
6NUR|6NUR_protein|mol2

> <Gold.PLP.Fitness>
39.8639

> <Gold.PLP.PLP>
-31.7519

> <Gold.PLP.part.hbond>
-2.8799

> <Gold.PLP.part.metal>
0.0000

> <Gold.PLP.part.buried>
-2.7202

> <Gold.PLP.part.nonpolar>
-26.0263

> <Gold.PLP.part.repulsive>
0.1629

> <Gold.PLP.ligand.clash>
0.0000

> <Gold.PLP.ligand.torsion>
0.4631

> <Gold.PLP.Chemscore.Hbond>
3.0000

> <Gold.PLP.Chemscore.CHOScore>
0.0000

> <Gold.PLP.Chemscore.Metal>
0.0000

> <Gold.Chemscore.Hbonds>
donor molecule, donor type, donor heavy atom, donor atom, acceptor molecule, acceptor atom, score
      L1  H    10    20       P1  8028  1.00
      P1  H  7989  7998       L1    15  0.99
      P1  H  7997  8009       L1     1  1.00

> <Gold.PLP.Chemscore.Internal.Correction>
0.0382

> <Gold.Rescore>
     Score         DG    S(hbond)    S(metal)    S(lipo)     H(rot)  DE(clash)    DE(int)     intcor
     17.70     -19.98       2.88        0.00      74.05       1.47       0.02       2.26       ----

> <Gold.Chemscore.Fitness>
17.7031

> <Gold.Chemscore.DG>
-19.9753

> <Gold.Chemscore.ZeroCoef>
-5.4800

> <Gold.Chemscore.Hbond>
2.8757

> <Gold.Chemscore.Metal>
0.0000

> <Gold.Chemscore.Lipo>
74.0546

> <Gold.Chemscore.Internal_Hbond>
0.0000

> <Gold.Chemscore.DEClash>
0.0153

> <Gold.Chemscore.DEInternal>
2.2569

> <Gold.Chemscore.Rot>
1.4742

> <Gold.Chemscore.Internal.Correction>
   9.000000E+99

> <Gold.Chemscore.Hbonds>
donor molecule, donor type, donor heavy atom, donor atom, acceptor molecule, acceptor atom, score
      L1  H    10    20       P1  8028  0.91
      P1  H  7989  7998       L1    15  0.75
      P1  H  7997  8009       L1     1  0.95

> <Gold.Chemscore.Hbond.Weighted>
-9.6048

> <Gold.Chemscore.Metal.Weighted>
-0.0000

> <Gold.Chemscore.Lipo.Weighted>
-8.6644

> <Gold.Chemscore.Internal_Hbond.Weighted>
0.0000

> <Gold.Chemscore.DEClash.Weighted>
0.0153

> <Gold.Chemscore.DEInternal.Weighted>
2.2569

> <Gold.Chemscore.Rot.Weighted>
3.7739

> <Gold.Chemscore.Internal.Correction.Weighted>
   9.000000E+99

> <Gold.Protein.RotatedTorsions>
[ 6907 6896 6895 6894 ] final -108.93 input  -60.11 | X-H torsion
[ 7974 7965 7964 7962 ] final  -88.88 input  175.53 | X-H torsion
[ 8008 7997 7996 7995 ] final  168.38 input   59.86 | X-H torsion
[ 10167 10162 10161 10158 ] final -111.34 input  -65.29 | X-H torsion
[ 10718 10713 10712 10709 ] final   77.68 input   66.30 | X-H torsion
[ 10763 10752 10751 10750 ] final  -83.41 input  -60.55 | X-H torsion
[ 11005 11000 10999 10996 ] final   29.41 input  -57.11 | X-H torsion

> <Gold.Protein.ActiveResidues>
 VAL166  LYS551  ARG553  GLY616  TRP617  ASP618  TYR619  PRO620  LYS621  CYS622 
 ASP623  PHE694  ASN695  SER759  ASP760  ASP761  ALA762  ILE779  LEU786  VAL792 
 PHE793  MET794  SER795  GLU796  ALA797  LYS798  CYS799  TRP800  GLU811  SER814 

> <Gold.Protein.RotatedAtoms>
  150.7531  133.9605  159.3513 H   0  0  0  0  0  0  0  0  0  0  0  0  # atno 6907 bound_to 6896
  151.7530  135.0826  160.0343 H   0  0  0  0  0  0  0  0  0  0  0  0  # atno 6908 bound_to 6896
  152.3454  133.6078  159.5942 H   0  0  0  0  0  0  0  0  0  0  0  0  # atno 6909 bound_to 6896
  145.4473  140.9560  143.2042 H   0  0  0  0  0  0  0  0  0  0  0  0  # atno 7974 bound_to 7965
  156.1552  140.1592  156.8705 H   0  0  0  0  0  0  0  0  0  0  0  0  # atno 8008 bound_to 7997
  154.5108  140.0801  156.8022 H   0  0  0  0  0  0  0  0  0  0  0  0  # atno 8009 bound_to 7997
  155.3818  140.3405  155.4249 H   0  0  0  0  0  0  0  0  0  0  0  0  # atno 8010 bound_to 7997
  140.1347  143.4330  152.1603 H   0  0  0  0  0  0  0  0  0  0  0  0  # atno 10167 bound_to 10162
  157.6719  130.9833  150.1677 H   0  0  0  0  0  0  0  0  0  0  0  0  # atno 10718 bound_to 10713
  154.5873  135.5557  153.7244 H   0  0  0  0  0  0  0  0  0  0  0  0  # atno 10763 bound_to 10752
  153.0103  135.6335  154.1898 H   0  0  0  0  0  0  0  0  0  0  0  0  # atno 10764 bound_to 10752
  154.1839  135.2886  155.3023 H   0  0  0  0  0  0  0  0  0  0  0  0  # atno 10765 bound_to 10752
  140.3052  134.2711  155.7745 H   0  0  0  0  0  0  0  0  0  0  0  0  # atno 11005 bound_to 11000
  144.8084  139.6008  143.7040 LP  0  0  0  0  0  0  0  0  0  0  0  0  # atno 17320 bound_to 7965
  146.2524  139.6228  142.9418 LP  0  0  0  0  0  0  0  0  0  0  0  0  # atno 17321 bound_to 7965
  139.5502  144.7331  151.4459 LP  0  0  0  0  0  0  0  0  0  0  0  0  # atno 17342 bound_to 10162
  140.6796  143.8111  150.7104 LP  0  0  0  0  0  0  0  0  0  0  0  0  # atno 17343 bound_to 10162
  156.2438  130.3693  149.8307 LP  0  0  0  0  0  0  0  0  0  0  0  0  # atno 17370 bound_to 10713
  156.6099  130.8582  151.3452 LP  0  0  0  0  0  0  0  0  0  0  0  0  # atno 17371 bound_to 10713
  141.2120  133.7672  156.9826 LP  0  0  0  0  0  0  0  0  0  0  0  0  # atno 17394 bound_to 11000
  140.1073  134.9498  157.2014 LP  0  0  0  0  0  0  0  0  0  0  0  0  # atno 17395 bound_to 11000

$$$$
