AV-unprocessed.smi:146|AV-procd|sdf|1199|dock10
  -GOLD-   2262018363D 1   1.00000     0.00000
 Structure written by MMmdl.
 55 59  0  0  0  0  0  0  0  0  1 V2000
  148.6293  141.7396  154.1695 C   0  0  0  0  0  0  0  0  0  0  0  0
  149.1758  140.7918  155.2485 C   0  0  0  0  0  0  0  0  0  0  0  0
  149.3819  141.5895  156.5526 C   0  0  0  0  0  0  0  0  0  0  0  0
  148.1900  139.6258  155.4559 C   0  0  0  0  0  0  0  0  0  0  0  0
  148.8060  138.5688  156.2464 N   0  0  0  0  0  0  0  0  0  0  0  0
  147.9391  137.6940  156.8172 C   0  0  0  0  0  0  0  0  0  0  0  0
  146.7586  137.4089  156.2046 N   0  0  0  0  0  0  0  0  0  0  0  0
  145.8913  136.5632  156.7684 C   0  0  0  0  0  0  0  0  0  0  0  0
  146.0013  135.9008  157.9213 N   0  0  0  0  0  0  0  0  0  0  0  0
  147.1889  136.1701  158.5354 C   0  0  0  0  0  0  0  0  0  0  0  0
  148.2049  137.0454  158.0571 C   0  0  0  0  0  0  0  0  0  0  0  0
  149.2705  137.0616  158.9492 N   0  0  0  0  0  0  0  0  0  0  0  0
  148.8980  136.2577  159.9069 C   0  0  0  0  0  0  0  0  0  0  0  0
  147.6654  135.6680  159.7348 N   0  0  0  0  0  0  0  0  0  0  0  0
  146.9991  134.7424  160.6412 C   0  0  0  0  0  0  0  0  0  0  0  0
  146.6593  135.3236  162.0352 C   0  0  0  0  0  0  0  0  0  0  0  0
  145.8358  134.2779  162.7996 C   0  0  0  0  0  0  0  0  0  0  0  0
  144.6509  133.9468  162.1040 O   0  0  0  0  0  0  0  0  0  0  0  0
  147.7892  136.0092  162.8237 C   0  0  0  0  0  0  0  0  0  0  0  0
  147.3331  137.3229  162.4374 O   0  0  0  0  0  0  0  0  0  0  0  0
  146.0719  136.7448  162.0412 C   0  0  0  0  0  0  0  0  0  0  0  0
  150.0116  138.0444  155.6170 C   0  0  0  0  0  0  0  0  0  0  0  0
  151.0353  139.1740  155.3551 C   0  0  2  0  0  0  0  0  0  0  0  0
  152.1372  138.6889  154.4207 C   0  0  0  0  0  0  0  0  0  0  0  0
  153.1645  138.1000  155.3745 C   0  0  0  0  0  0  0  0  0  0  0  0
  153.1672  139.0271  156.4448 O   0  0  0  0  0  0  0  0  0  0  0  0
  151.8536  139.5551  156.6086 C   0  0  0  0  0  0  0  0  0  0  0  0
  150.4136  140.2973  154.7142 O   0  0  0  0  0  0  0  0  0  0  0  0
  147.6677  142.1631  154.4618 H   0  0  0  0  0  0  0  0  0  0  0  0
  148.4861  141.2190  153.2220 H   0  0  0  0  0  0  0  0  0  0  0  0
  149.3148  142.5680  153.9877 H   0  0  0  0  0  0  0  0  0  0  0  0
  148.4571  142.0792  156.8590 H   0  0  0  0  0  0  0  0  0  0  0  0
  150.1377  142.3651  156.4263 H   0  0  0  0  0  0  0  0  0  0  0  0
  149.6865  140.9551  157.3837 H   0  0  0  0  0  0  0  0  0  0  0  0
  147.2713  139.9960  155.9095 H   0  0  0  0  0  0  0  0  0  0  0  0
  147.9052  139.2030  154.4914 H   0  0  0  0  0  0  0  0  0  0  0  0
  144.9777  136.3947  156.2176 H   0  0  0  0  0  0  0  0  0  0  0  0
  149.5193  136.0748  160.7709 H   0  0  0  0  0  0  0  0  0  0  0  0
  146.0904  134.3947  160.1485 H   0  0  0  0  0  0  0  0  0  0  0  0
  147.6370  133.8629  160.7318 H   0  0  0  0  0  0  0  0  0  0  0  0
  146.4057  133.3590  162.9402 H   0  0  0  0  0  0  0  0  0  0  0  0
  145.5735  134.6352  163.7960 H   0  0  0  0  0  0  0  0  0  0  0  0
  144.8434  133.2482  161.4973 H   0  0  0  0  0  0  0  0  0  0  0  0
  147.7223  135.8631  163.9032 H   0  0  0  0  0  0  0  0  0  0  0  0
  148.7963  135.7881  162.4731 H   0  0  0  0  0  0  0  0  0  0  0  0
  145.7257  137.0986  161.0713 H   0  0  0  0  0  0  0  0  0  0  0  0
  145.3032  136.9044  162.7994 H   0  0  0  0  0  0  0  0  0  0  0  0
  150.4607  137.2678  156.2375 H   0  0  0  0  0  0  0  0  0  0  0  0
  149.7259  137.5743  154.6747 H   0  0  0  0  0  0  0  0  0  0  0  0
  151.7950  137.9777  153.6684 H   0  0  0  0  0  0  0  0  0  0  0  0
  152.5849  139.5341  153.8952 H   0  0  0  0  0  0  0  0  0  0  0  0
  152.8494  137.1203  155.7362 H   0  0  0  0  0  0  0  0  0  0  0  0
  154.1526  138.0013  154.9249 H   0  0  0  0  0  0  0  0  0  0  0  0
  151.9517  140.6350  156.7146 H   0  0  0  0  0  0  0  0  0  0  0  0
  151.4038  139.1692  157.5239 H   0  0  0  0  0  0  0  0  0  0  0  0
  1  2  1  0  0  0  0
  1 29  1  0  0  0  0
  1 30  1  0  0  0  0
  1 31  1  0  0  0  0
  2 28  1  0  0  0  0
  2  3  1  0  0  0  0
  2  4  1  0  0  0  0
  3 32  1  0  0  0  0
  3 33  1  0  0  0  0
  3 34  1  0  0  0  0
  4  5  1  0  0  0  0
  4 35  1  0  0  0  0
  4 36  1  0  0  0  0
  5  6  1  0  0  0  0
  5 22  1  0  0  0  0
  6 11  1  0  0  0  0
  6  7  2  0  0  0  0
  7  8  1  0  0  0  0
  8  9  2  0  0  0  0
  8 37  1  0  0  0  0
  9 10  1  0  0  0  0
 10 14  1  0  0  0  0
 10 11  2  0  0  0  0
 11 12  1  0  0  0  0
 12 13  2  0  0  0  0
 13 14  1  0  0  0  0
 13 38  1  0  0  0  0
 14 15  1  0  0  0  0
 15 16  1  0  0  0  0
 15 39  1  0  0  0  0
 15 40  1  0  0  0  0
 16 21  1  0  0  0  0
 16 17  1  0  0  0  0
 16 19  1  0  0  0  0
 17 18  1  0  0  0  0
 17 41  1  0  0  0  0
 17 42  1  0  0  0  0
 18 43  1  0  0  0  0
 19 20  1  0  0  0  0
 19 44  1  0  0  0  0
 19 45  1  0  0  0  0
 20 21  1  0  0  0  0
 21 46  1  0  0  0  0
 21 47  1  0  0  0  0
 22 23  1  0  0  0  0
 22 48  1  0  0  0  0
 22 49  1  0  0  0  0
 23 27  1  0  0  0  0
 23 24  1  0  0  0  0
 23 28  1  0  0  0  0
 24 25  1  0  0  0  0
 24 50  1  0  0  0  0
 24 51  1  0  0  0  0
 25 26  1  0  0  0  0
 25 52  1  0  0  0  0
 25 53  1  0  0  0  0
 26 27  1  0  0  0  0
 27 54  1  0  0  0  0
 27 55  1  0  0  0  0
M  END
> <s_m_source_file>
AV-unprocessed.smi

> <i_m_source_file_index>
146

> <i_lp_mmshare_version>
43012

> <i_f3d_flags>
0

> <s_epik_input>
W0NIMl0xT1tDSDJdW0NIMl1bQ0BAXTEyW0NIMl1OKFtDSDJdQyhPMikoW0NIM10pW0NIM10pYyhuW2NIXW4zKWMoYzM0KW5bY0hdbjRbQ0gyXUM1KFtDSDJdW09IXSlbQ0gyXU9bQ0gyXTU=

> <s_epik_cmdline>
J2VwaWtfcHl0aG9uJywgJy1waCcsICc3LjAnLCAnLXRuJywgJzgnLCAnLW1hJywgJzIwMCcsICctbWV0YWxfYmluZGluZycsICctaW1hZScsICc8aW5maWxlLm1hZT4nLCAnLW9tYWUnLCAnPG91dGZpbGUubWFlPic=

> <r_lp_tautomer_probability>
1

> <r_epik_Ionization_Penalty>
0.00353822

> <r_epik_Ionization_Penalty_Charging>
0

> <r_epik_Ionization_Penalty_Neutral>
0.00353822

> <r_epik_State_Penalty>
0.0023805

> <r_epik_Charging_Adjusted_Penalty>
0.0023805

> <i_epik_Tot_Q>
0

> <i_epik_Tot_abs_Q>
0

> <r_epik_Metal_State_Penalty>
-0

> <b_epik_Metal_Only>
0

> <s_lp_Force_Field>
OPLS_2005

> <r_lp_Energy>
56.8345

> <b_lp_Chiralities_Consistent>
1

> <s_lp_Variant>
AV-unprocessed.smi:146-1

> <Gold.Version>
5.8.1

> <Gold.Id.Protein>
6NUR|6NUR_protein|mol2

> <Gold.PLP.Fitness>
46.6433

> <Gold.PLP.PLP>
-38.8710

> <Gold.PLP.part.hbond>
-3.9572

> <Gold.PLP.part.metal>
0.0000

> <Gold.PLP.part.buried>
-2.7535

> <Gold.PLP.part.nonpolar>
-32.1163

> <Gold.PLP.part.repulsive>
0.0822

> <Gold.PLP.ligand.clash>
0.0000

> <Gold.PLP.ligand.torsion>
0.7387

> <Gold.PLP.Chemscore.Hbond>
2.8822

> <Gold.PLP.Chemscore.CHOScore>
0.0000

> <Gold.PLP.Chemscore.Metal>
0.0000

> <Gold.Chemscore.Hbonds>
donor molecule, donor type, donor heavy atom, donor atom, acceptor molecule, acceptor atom, score
      P1  H  6931  6943       L1    20  0.74
      P1  H  6934  6947       L1    20  0.17
      P1  H  7989  7998       L1    28  1.00
      P1  H  7997  8010       L1    26  1.00

> <Gold.PLP.Chemscore.Internal.Correction>
0.6031

> <Gold.Rescore>
     Score         DG    S(hbond)    S(metal)    S(lipo)     H(rot)  DE(clash)    DE(int)     intcor
     17.43     -18.58       2.40        0.00      96.91       2.44       0.16       0.99       ----

> <Gold.Chemscore.Fitness>
17.4334

> <Gold.Chemscore.DG>
-18.5836

> <Gold.Chemscore.ZeroCoef>
-5.4800

> <Gold.Chemscore.Hbond>
2.3969

> <Gold.Chemscore.Metal>
0.0000

> <Gold.Chemscore.Lipo>
96.9069

> <Gold.Chemscore.Internal_Hbond>
0.0000

> <Gold.Chemscore.DEClash>
0.1613

> <Gold.Chemscore.DEInternal>
0.9889

> <Gold.Chemscore.Rot>
2.4376

> <Gold.Chemscore.Internal.Correction>
   9.000000E+99

> <Gold.Chemscore.Hbonds>
donor molecule, donor type, donor heavy atom, donor atom, acceptor molecule, acceptor atom, score
      P1  H  6931  6943       L1    20  0.28
      P1  H  6934  6947       L1    20  0.02
      P1  H  7989  7998       L1    28  0.49
      P1  H  7997  8010       L1    26  0.84

> <Gold.Chemscore.Hbond.Weighted>
-8.0057

> <Gold.Chemscore.Metal.Weighted>
-0.0000

> <Gold.Chemscore.Lipo.Weighted>
-11.3381

> <Gold.Chemscore.Internal_Hbond.Weighted>
0.0000

> <Gold.Chemscore.DEClash.Weighted>
0.1613

> <Gold.Chemscore.DEInternal.Weighted>
0.9889

> <Gold.Chemscore.Rot.Weighted>
6.2402

> <Gold.Chemscore.Internal.Correction.Weighted>
   9.000000E+99

> <Gold.Protein.RotatedTorsions>
[ 6907 6896 6895 6894 ] final  -98.84 input  -60.11 | X-H torsion
[ 7974 7965 7964 7962 ] final -124.62 input  175.53 | X-H torsion
[ 8008 7997 7996 7995 ] final   71.64 input   59.86 | X-H torsion
[ 10167 10162 10161 10158 ] final -169.27 input  -65.29 | X-H torsion
[ 10718 10713 10712 10709 ] final  -22.35 input   66.30 | X-H torsion
[ 10763 10752 10751 10750 ] final  156.36 input  -60.55 | X-H torsion
[ 11005 11000 10999 10996 ] final  -96.37 input  -57.11 | X-H torsion

> <Gold.Protein.ActiveResidues>
 VAL166  LYS551  ARG553  GLY616  TRP617  ASP618  TYR619  PRO620  LYS621  CYS622 
 ASP623  PHE694  ASN695  SER759  ASP760  ASP761  ALA762  ILE779  LEU786  VAL792 
 PHE793  MET794  SER795  GLU796  ALA797  LYS798  CYS799  TRP800  GLU811  SER814 

> <Gold.Protein.RotatedAtoms>
  150.7060  134.1132  159.4007 H   0  0  0  0  0  0  0  0  0  0  0  0  # atno 6907 bound_to 6896
  151.9119  135.0333  160.0524 H   0  0  0  0  0  0  0  0  0  0  0  0  # atno 6908 bound_to 6896
  152.2329  133.5037  159.5262 H   0  0  0  0  0  0  0  0  0  0  0  0  # atno 6909 bound_to 6896
  145.0061  140.7864  143.4467 H   0  0  0  0  0  0  0  0  0  0  0  0  # atno 7974 bound_to 7965
  155.7569  140.3487  155.5178 H   0  0  0  0  0  0  0  0  0  0  0  0  # atno 8008 bound_to 7997
  155.8951  140.1024  157.1411 H   0  0  0  0  0  0  0  0  0  0  0  0  # atno 8009 bound_to 7997
  154.4037  140.1297  156.4352 H   0  0  0  0  0  0  0  0  0  0  0  0  # atno 8010 bound_to 7997
  139.5933  144.1167  152.1659 H   0  0  0  0  0  0  0  0  0  0  0  0  # atno 10167 bound_to 10162
  156.5058  130.4598  149.6676 H   0  0  0  0  0  0  0  0  0  0  0  0  # atno 10718 bound_to 10713
  154.1831  135.2798  155.3046 H   0  0  0  0  0  0  0  0  0  0  0  0  # atno 10763 bound_to 10752
  154.5987  135.5536  153.7356 H   0  0  0  0  0  0  0  0  0  0  0  0  # atno 10764 bound_to 10752
  153.0132  135.6386  154.1970 H   0  0  0  0  0  0  0  0  0  0  0  0  # atno 10765 bound_to 10752
  141.1413  133.8092  157.0561 H   0  0  0  0  0  0  0  0  0  0  0  0  # atno 11005 bound_to 11000
  145.2086  139.2216  143.5155 LP  0  0  0  0  0  0  0  0  0  0  0  0  # atno 17320 bound_to 7965
  146.3461  140.1920  142.8589 LP  0  0  0  0  0  0  0  0  0  0  0  0  # atno 17321 bound_to 7965
  140.0746  144.5751  150.7166 LP  0  0  0  0  0  0  0  0  0  0  0  0  # atno 17342 bound_to 10162
  140.7191  143.2572  151.4338 LP  0  0  0  0  0  0  0  0  0  0  0  0  # atno 17343 bound_to 10162
  156.3289  130.7320  151.2246 LP  0  0  0  0  0  0  0  0  0  0  0  0  # atno 17370 bound_to 10713
  157.7457  131.0435  150.4748 LP  0  0  0  0  0  0  0  0  0  0  0  0  # atno 17371 bound_to 10713
  140.0601  134.9759  157.1289 LP  0  0  0  0  0  0  0  0  0  0  0  0  # atno 17394 bound_to 11000
  140.3861  134.2234  155.7168 LP  0  0  0  0  0  0  0  0  0  0  0  0  # atno 17395 bound_to 11000

$$$$
