AV-unprocessed.smi:2051|AV-procd|sdf|8327|dock5
  -GOLD-   2272010593D 1   1.00000     0.00000
 Structure written by MMmdl.
 33 34  0  0  0  0  0  0  0  0  1 V2000
  154.2622  139.6945  158.8581 O   0  0  0  0  0  0  0  0  0  0  0  0
  153.4475  140.5787  159.1281 C   0  0  0  0  0  0  0  0  0  0  0  0
  153.8095  141.7283  160.0802 C   0  0  0  0  0  0  0  0  0  0  0  0
  152.9302  142.9025  159.9500 N   0  0  0  0  0  0  0  0  0  0  0  0
  153.0705  143.6805  158.7835 C   0  0  0  0  0  0  0  0  0  0  0  0
  152.3217  144.7728  158.5639 C   0  0  0  0  0  0  0  0  0  0  0  0
  151.3489  145.1456  159.5633 C   0  0  0  0  0  0  0  0  0  0  0  0
  151.2085  144.4100  160.6842 C   0  0  0  0  0  0  0  0  0  0  0  0
  152.0274  143.2170  160.9299 C   0  0  0  0  0  0  0  0  0  0  0  0
  151.9089  142.5425  161.9531 O   0  0  0  0  0  0  0  0  0  0  0  0
  152.2093  140.6162  158.6139 N   0  0  0  0  0  0  0  0  0  0  0  0
  151.6539  139.6391  157.6845 C   0  0  0  0  0  0  0  0  0  0  0  0
  151.1692  140.3006  156.3834 C   0  0  1  0  0  0  0  0  0  0  0  0
  150.8790  139.3097  155.2557 C   0  0  0  0  0  0  0  0  0  0  0  0
  149.7988  139.9972  154.4319 C   0  0  0  0  0  0  0  0  0  0  0  0
  149.3938  141.2071  155.2770 C   0  0  0  0  0  0  0  0  0  0  0  0
  149.9113  140.9307  156.5695 O   0  0  0  0  0  0  0  0  0  0  0  0
  153.7825  141.3458  161.1013 H   0  0  0  0  0  0  0  0  0  0  0  0
  154.8493  142.0155  159.9126 H   0  0  0  0  0  0  0  0  0  0  0  0
  153.8247  143.3380  158.0898 H   0  0  0  0  0  0  0  0  0  0  0  0
  152.4463  145.3590  157.6654 H   0  0  0  0  0  0  0  0  0  0  0  0
  150.7312  146.0184  159.4119 H   0  0  0  0  0  0  0  0  0  0  0  0
  150.4758  144.7042  161.4212 H   0  0  0  0  0  0  0  0  0  0  0  0
  151.6073  141.3812  158.8819 H   0  0  0  0  0  0  0  0  0  0  0  0
  152.4010  138.8749  157.4639 H   0  0  0  0  0  0  0  0  0  0  0  0
  150.8257  139.1298  158.1781 H   0  0  0  0  0  0  0  0  0  0  0  0
  151.8896  141.0442  156.0367 H   0  0  0  0  0  0  0  0  0  0  0  0
  151.7703  139.0740  154.6736 H   0  0  0  0  0  0  0  0  0  0  0  0
  150.4872  138.3751  155.6596 H   0  0  0  0  0  0  0  0  0  0  0  0
  150.1651  140.3070  153.4527 H   0  0  0  0  0  0  0  0  0  0  0  0
  148.9540  139.3250  154.2764 H   0  0  0  0  0  0  0  0  0  0  0  0
  149.8576  142.1167  154.8922 H   0  0  0  0  0  0  0  0  0  0  0  0
  148.3148  141.3601  155.3035 H   0  0  0  0  0  0  0  0  0  0  0  0
  1  2  2  0  0  0  0
  2  3  1  0  0  0  0
  2 11  1  0  0  0  0
  3  4  1  0  0  0  0
  3 18  1  0  0  0  0
  3 19  1  0  0  0  0
  4  9  1  0  0  0  0
  4  5  1  0  0  0  0
  5  6  2  0  0  0  0
  5 20  1  0  0  0  0
  6  7  1  0  0  0  0
  6 21  1  0  0  0  0
  7  8  2  0  0  0  0
  7 22  1  0  0  0  0
  8  9  1  0  0  0  0
  8 23  1  0  0  0  0
  9 10  2  0  0  0  0
 11 12  1  0  0  0  0
 11 24  1  0  0  0  0
 12 13  1  0  0  0  0
 12 25  1  0  0  0  0
 12 26  1  0  0  0  0
 13 17  1  0  0  0  0
 13 14  1  0  0  0  0
 13 27  1  0  0  0  0
 14 15  1  0  0  0  0
 14 28  1  0  0  0  0
 14 29  1  0  0  0  0
 15 16  1  0  0  0  0
 15 30  1  0  0  0  0
 15 31  1  0  0  0  0
 16 17  1  0  0  0  0
 16 32  1  0  0  0  0
 16 33  1  0  0  0  0
M  END
> <s_m_source_file>
AV-unprocessed.smi

> <i_m_source_file_index>
2051

> <i_lp_mmshare_version>
43012

> <i_f3d_flags>
0

> <s_epik_input>
TzFbQ0gyXVtDSDJdW0NIMl1bQ0BIXTFbQ0gyXVtOSF1DKD1PKVtDSDJdbjJbY0hdW2NIXVtjSF1bY0hdYzI9Tw==

> <s_epik_cmdline>
J2VwaWtfcHl0aG9uJywgJy1waCcsICc3LjAnLCAnLXRuJywgJzgnLCAnLW1hJywgJzIwMCcsICctbWV0YWxfYmluZGluZycsICctaW1hZScsICc8aW5maWxlLm1hZT4nLCAnLW9tYWUnLCAnPG91dGZpbGUubWFlPic=

> <r_lp_tautomer_probability>
1

> <r_epik_Ionization_Penalty>
3.94187e-07

> <r_epik_Ionization_Penalty_Charging>
3.67328e-07

> <r_epik_Ionization_Penalty_Neutral>
2.6859e-08

> <r_epik_State_Penalty>
-0

> <r_epik_Charging_Adjusted_Penalty>
3.67328e-07

> <i_epik_Tot_Q>
0

> <i_epik_Tot_abs_Q>
0

> <r_epik_Metal_State_Penalty>
-0

> <b_epik_Metal_Only>
0

> <s_lp_Force_Field>
OPLS_2005

> <r_lp_Energy>
26.6962

> <b_lp_Chiralities_Consistent>
1

> <s_lp_Variant>
AV-unprocessed.smi:2051-2

> <Gold.Version>
5.8.1

> <Gold.Id.Protein>
6NUR|6NUR_protein|mol2

> <Gold.PLP.Fitness>
46.9118

> <Gold.PLP.PLP>
-42.3463

> <Gold.PLP.part.hbond>
-2.0000

> <Gold.PLP.part.metal>
0.0000

> <Gold.PLP.part.buried>
-3.6880

> <Gold.PLP.part.nonpolar>
-38.1440

> <Gold.PLP.part.repulsive>
0.4607

> <Gold.PLP.ligand.clash>
0.0000

> <Gold.PLP.ligand.torsion>
0.5117

> <Gold.PLP.Chemscore.Hbond>
1.8580

> <Gold.PLP.Chemscore.CHOScore>
0.0000

> <Gold.PLP.Chemscore.Metal>
0.0000

> <Gold.Chemscore.Hbonds>
donor molecule, donor type, donor heavy atom, donor atom, acceptor molecule, acceptor atom, score
      P1  H  6933  6945       L1    10  0.86
      P1  H  7997  8008       L1     1  1.00

> <Gold.PLP.Chemscore.Internal.Correction>
0.0150

> <Gold.Rescore>
     Score         DG    S(hbond)    S(metal)    S(lipo)     H(rot)  DE(clash)    DE(int)     intcor
     16.76     -17.35       1.67        0.00      90.71       1.69       0.06       0.53       ----

> <Gold.Chemscore.Fitness>
16.7614

> <Gold.Chemscore.DG>
-17.3492

> <Gold.Chemscore.ZeroCoef>
-5.4800

> <Gold.Chemscore.Hbond>
1.6741

> <Gold.Chemscore.Metal>
0.0000

> <Gold.Chemscore.Lipo>
90.7130

> <Gold.Chemscore.Internal_Hbond>
0.0000

> <Gold.Chemscore.DEClash>
0.0599

> <Gold.Chemscore.DEInternal>
0.5279

> <Gold.Chemscore.Rot>
1.6936

> <Gold.Chemscore.Internal.Correction>
   9.000000E+99

> <Gold.Chemscore.Hbonds>
donor molecule, donor type, donor heavy atom, donor atom, acceptor molecule, acceptor atom, score
      P1  H  6933  6945       L1    10  0.70
      P1  H  7997  8008       L1     1  0.60

> <Gold.Chemscore.Hbond.Weighted>
-5.5915

> <Gold.Chemscore.Metal.Weighted>
-0.0000

> <Gold.Chemscore.Lipo.Weighted>
-10.6134

> <Gold.Chemscore.Internal_Hbond.Weighted>
0.0000

> <Gold.Chemscore.DEClash.Weighted>
0.0599

> <Gold.Chemscore.DEInternal.Weighted>
0.5279

> <Gold.Chemscore.Rot.Weighted>
4.3357

> <Gold.Chemscore.Internal.Correction.Weighted>
   9.000000E+99

> <Gold.Protein.RotatedTorsions>
[ 6907 6896 6895 6894 ] final  -39.68 input  -60.11 | X-H torsion
[ 7974 7965 7964 7962 ] final    7.63 input  175.53 | X-H torsion
[ 8008 7997 7996 7995 ] final -106.38 input   59.86 | X-H torsion
[ 10167 10162 10161 10158 ] final  103.70 input  -65.29 | X-H torsion
[ 10718 10713 10712 10709 ] final  146.78 input   66.30 | X-H torsion
[ 10763 10752 10751 10750 ] final  102.64 input  -60.55 | X-H torsion
[ 11005 11000 10999 10996 ] final  -53.20 input  -57.11 | X-H torsion

> <Gold.Protein.ActiveResidues>
 VAL166  LYS551  ARG553  GLY616  TRP617  ASP618  TYR619  PRO620  LYS621  CYS622 
 ASP623  PHE694  ASN695  SER759  ASP760  ASP761  ALA762  ILE779  LEU786  VAL792 
 PHE793  MET794  SER795  GLU796  ALA797  LYS798  CYS799  TRP800  GLU811  SER814 

> <Gold.Protein.RotatedAtoms>
  150.9875  134.9217  159.7879 H   0  0  0  0  0  0  0  0  0  0  0  0  # atno 6907 bound_to 6896
  152.5241  134.3327  159.9198 H   0  0  0  0  0  0  0  0  0  0  0  0  # atno 6908 bound_to 6896
  151.3333  133.3950  159.2699 H   0  0  0  0  0  0  0  0  0  0  0  0  # atno 6909 bound_to 6896
  146.2425  140.0054  142.8412 H   0  0  0  0  0  0  0  0  0  0  0  0  # atno 7974 bound_to 7965
  154.9137  140.0409  157.1960 H   0  0  0  0  0  0  0  0  0  0  0  0  # atno 8008 bound_to 7997
  154.8322  140.2901  155.5693 H   0  0  0  0  0  0  0  0  0  0  0  0  # atno 8009 bound_to 7997
  156.2987  140.2498  156.3250 H   0  0  0  0  0  0  0  0  0  0  0  0  # atno 8010 bound_to 7997
  139.7241  144.7051  151.0826 H   0  0  0  0  0  0  0  0  0  0  0  0  # atno 10167 bound_to 10162
  157.3290  131.0917  151.1178 H   0  0  0  0  0  0  0  0  0  0  0  0  # atno 10718 bound_to 10713
  153.3422  135.4003  155.1581 H   0  0  0  0  0  0  0  0  0  0  0  0  # atno 10763 bound_to 10752
  154.8646  135.3636  154.5330 H   0  0  0  0  0  0  0  0  0  0  0  0  # atno 10764 bound_to 10752
  153.5776  135.7077  153.5537 H   0  0  0  0  0  0  0  0  0  0  0  0  # atno 10765 bound_to 10752
  141.0964  133.6624  156.4137 H   0  0  0  0  0  0  0  0  0  0  0  0  # atno 11005 bound_to 11000
  145.1376  140.9553  143.4507 LP  0  0  0  0  0  0  0  0  0  0  0  0  # atno 17320 bound_to 7965
  145.0326  139.3327  143.6017 LP  0  0  0  0  0  0  0  0  0  0  0  0  # atno 17321 bound_to 7965
  140.7759  143.5128  150.9631 LP  0  0  0  0  0  0  0  0  0  0  0  0  # atno 17342 bound_to 10162
  139.8816  143.7065  152.3156 LP  0  0  0  0  0  0  0  0  0  0  0  0  # atno 17343 bound_to 10162
  157.2434  130.6580  149.5899 LP  0  0  0  0  0  0  0  0  0  0  0  0  # atno 17370 bound_to 10713
  155.9693  130.4561  150.5913 LP  0  0  0  0  0  0  0  0  0  0  0  0  # atno 17371 bound_to 10713
  140.5130  134.6377  157.5291 LP  0  0  0  0  0  0  0  0  0  0  0  0  # atno 17394 bound_to 11000
  139.9802  134.7150  155.9874 LP  0  0  0  0  0  0  0  0  0  0  0  0  # atno 17395 bound_to 11000

$$$$
