AV-unprocessed.smi:3303|AV-procd|sdf|12664|dock1
  -GOLD-   2272019 03D 1   1.00000     0.00000
 Structure written by MMmdl.
 45 46  0  0  0  0  0  0  0  0  3 V2000
  148.5724  139.3744  154.5519 C   0  0  0  0  0  0  0  0  0  0  0  0
  147.4322  140.4049  154.4929 C   0  0  1  0  0  0  0  0  0  0  0  0
  146.3397  140.1263  155.5436 C   0  0  0  0  0  0  0  0  0  0  0  0
  145.1970  141.0694  155.4182 N   0  3  1  0  0  0  0  0  0  0  0  0
  144.0996  140.6951  156.3432 C   0  0  0  0  0  0  0  0  0  0  0  0
  145.6264  142.4964  155.5324 C   0  0  2  0  0  0  0  0  0  0  0  0
  144.4556  143.4824  155.3525 C   0  0  0  0  0  0  0  0  0  0  0  0
  146.7322  142.8184  154.5008 C   0  0  0  0  0  0  0  0  0  0  0  0
  147.9331  141.8614  154.5822 C   0  0  1  0  0  0  0  0  0  0  0  0
  148.7188  142.1098  155.8156 N   0  3  0  0  0  0  0  0  0  0  0  0
  150.1197  141.6461  155.7607 C   0  0  0  0  0  0  0  0  0  0  0  0
  150.6013  141.1802  157.1410 C   0  0  0  0  0  0  0  0  0  0  0  0
  151.5566  142.1716  157.7772 C   0  0  0  0  0  0  0  0  0  0  0  0
  151.3609  143.5612  157.6282 C   0  0  0  0  0  0  0  0  0  0  0  0
  152.2753  144.4363  158.2466 C   0  0  0  0  0  0  0  0  0  0  0  0
  153.3428  143.8908  158.9857 C   0  0  0  0  0  0  0  0  0  0  0  0
  153.4490  142.4886  159.0754 C   0  0  0  0  0  0  0  0  0  0  0  0
  152.5766  141.6407  158.4881 N   0  0  0  0  0  0  0  0  0  0  0  0
  149.0761  139.3815  155.5189 H   0  0  0  0  0  0  0  0  0  0  0  0
  149.3209  139.5720  153.7839 H   0  0  0  0  0  0  0  0  0  0  0  0
  148.1947  138.3647  154.3873 H   0  0  0  0  0  0  0  0  0  0  0  0
  146.9663  140.2881  153.5127 H   0  0  0  0  0  0  0  0  0  0  0  0
  145.9754  139.1060  155.4145 H   0  0  0  0  0  0  0  0  0  0  0  0
  146.7533  140.1847  156.5519 H   0  0  0  0  0  0  0  0  0  0  0  0
  144.3704  140.9064  157.3785 H   0  0  0  0  0  0  0  0  0  0  0  0
  143.8713  139.6318  156.2644 H   0  0  0  0  0  0  0  0  0  0  0  0
  143.1786  141.2281  156.1092 H   0  0  0  0  0  0  0  0  0  0  0  0
  146.0349  142.6433  156.5338 H   0  0  0  0  0  0  0  0  0  0  0  0
  144.8126  144.5128  155.3424 H   0  0  0  0  0  0  0  0  0  0  0  0
  143.7326  143.4150  156.1654 H   0  0  0  0  0  0  0  0  0  0  0  0
  143.9281  143.3083  154.4138 H   0  0  0  0  0  0  0  0  0  0  0  0
  146.3077  142.7642  153.4969 H   0  0  0  0  0  0  0  0  0  0  0  0
  147.0742  143.8474  154.6238 H   0  0  0  0  0  0  0  0  0  0  0  0
  148.5697  142.0566  153.7169 H   0  0  0  0  0  0  0  0  0  0  0  0
  148.7260  143.1032  155.9984 H   0  0  0  0  0  0  0  0  0  0  0  0
  150.2010  140.8277  155.0440 H   0  0  0  0  0  0  0  0  0  0  0  0
  150.7497  142.4602  155.3985 H   0  0  0  0  0  0  0  0  0  0  0  0
  149.7496  141.0344  157.8073 H   0  0  0  0  0  0  0  0  0  0  0  0
  151.0945  140.2108  157.0566 H   0  0  0  0  0  0  0  0  0  0  0  0
  150.5325  143.9518  157.0553 H   0  0  0  0  0  0  0  0  0  0  0  0
  152.1598  145.5064  158.1556 H   0  0  0  0  0  0  0  0  0  0  0  0
  154.0631  144.5317  159.4724 H   0  0  0  0  0  0  0  0  0  0  0  0
  154.2543  142.0361  159.6349 H   0  0  0  0  0  0  0  0  0  0  0  0
  148.2617  141.6444  156.5868 H   0  0  0  0  0  0  0  0  0  0  0  0
  144.8305  140.9505  154.4841 H   0  0  0  0  0  0  0  0  0  0  0  0
  1  2  1  0  0  0  0
  1 19  1  0  0  0  0
  1 20  1  0  0  0  0
  1 21  1  0  0  0  0
  2  9  1  0  0  0  0
  2  3  1  0  0  0  0
  2 22  1  0  0  0  0
  3  4  1  0  0  0  0
  3 23  1  0  0  0  0
  3 24  1  0  0  0  0
  4  5  1  0  0  0  0
  4  6  1  0  0  0  0
  4 45  1  0  0  0  0
  5 25  1  0  0  0  0
  5 26  1  0  0  0  0
  5 27  1  0  0  0  0
  6  7  1  0  0  0  0
  6  8  1  0  0  0  0
  6 28  1  0  0  0  0
  7 29  1  0  0  0  0
  7 30  1  0  0  0  0
  7 31  1  0  0  0  0
  8  9  1  0  0  0  0
  8 32  1  0  0  0  0
  8 33  1  0  0  0  0
  9 10  1  0  0  0  0
  9 34  1  0  0  0  0
 10 11  1  0  0  0  0
 10 35  1  0  0  0  0
 10 44  1  0  0  0  0
 11 12  1  0  0  0  0
 11 36  1  0  0  0  0
 11 37  1  0  0  0  0
 12 13  1  0  0  0  0
 12 38  1  0  0  0  0
 12 39  1  0  0  0  0
 13 18  1  0  0  0  0
 13 14  2  0  0  0  0
 14 15  1  0  0  0  0
 14 40  1  0  0  0  0
 15 16  2  0  0  0  0
 15 41  1  0  0  0  0
 16 17  1  0  0  0  0
 16 42  1  0  0  0  0
 17 18  2  0  0  0  0
 17 43  1  0  0  0  0
M  CHG  1   4   1
M  CHG  1  10   1
M  END
> <s_m_source_file>
AV-unprocessed.smi

> <i_m_source_file_index>
3303

> <i_lp_mmshare_version>
43012

> <i_f3d_flags>
0

> <s_epik_input>
W0NIM11bQ0BASF0xW0NIMl1OKFtDSDNdKVtDQEBIXShbQ0gzXSlbQ0gyXVtDQEhdMVtOSF1bQ0gyXVtDSDJdYzJbY0hdW2NIXVtjSF1bY0hdbjI=

> <s_epik_cmdline>
J2VwaWtfcHl0aG9uJywgJy1waCcsICc3LjAnLCAnLXRuJywgJzgnLCAnLW1hJywgJzIwMCcsICctbWV0YWxfYmluZGluZycsICctaW1hZScsICc8aW5maWxlLm1hZT4nLCAnLW9tYWUnLCAnPG91dGZpbGUubWFlPic=

> <r_epik_Ionization_Penalty>
0.0769462

> <r_epik_Ionization_Penalty_Charging>
0.0759813

> <r_epik_Ionization_Penalty_Neutral>
0.000964829

> <r_epik_State_Penalty>
0.0654373

> <r_epik_Charging_Adjusted_Penalty>
0.141419

> <i_epik_Tot_Q>
2

> <i_epik_Tot_abs_Q>
2

> <r_epik_Metal_State_Penalty>
0.0656439

> <b_epik_Metal_Only>
0

> <s_lp_Force_Field>
OPLS_2005

> <r_lp_Energy>
34.3244

> <b_lp_Chiralities_Consistent>
1

> <s_lp_Variant>
AV-unprocessed.smi:3303-8

> <Gold.Version>
5.8.1

> <Gold.Id.Protein>
6NUR|6NUR_protein|mol2

> <Gold.PLP.Fitness>
47.8513

> <Gold.PLP.PLP>
-37.9466

> <Gold.PLP.part.hbond>
-2.0000

> <Gold.PLP.part.metal>
0.0000

> <Gold.PLP.part.buried>
-4.7702

> <Gold.PLP.part.nonpolar>
-32.5342

> <Gold.PLP.part.repulsive>
0.1138

> <Gold.PLP.ligand.clash>
0.0000

> <Gold.PLP.ligand.torsion>
1.0683

> <Gold.PLP.Chemscore.Hbond>
4.0000

> <Gold.PLP.Chemscore.CHOScore>
0.0000

> <Gold.PLP.Chemscore.Metal>
0.0000

> <Gold.Chemscore.Hbonds>
donor molecule, donor type, donor heavy atom, donor atom, acceptor molecule, acceptor atom, score
      L1  H     4    45       P1 10175  0.42
      L1  H    10    35       P1  8028  2.00

> <Gold.PLP.Chemscore.Internal.Correction>
0.0414

> <Gold.Rescore>
     Score         DG    S(hbond)    S(metal)    S(lipo)     H(rot)  DE(clash)    DE(int)     intcor
     19.79     -20.89       1.83        0.00     109.51       1.37       0.07       1.03       ----

> <Gold.Chemscore.Fitness>
19.7869

> <Gold.Chemscore.DG>
-20.8866

> <Gold.Chemscore.ZeroCoef>
-5.4800

> <Gold.Chemscore.Hbond>
1.8300

> <Gold.Chemscore.Metal>
0.0000

> <Gold.Chemscore.Lipo>
109.5111

> <Gold.Chemscore.Internal_Hbond>
0.0000

> <Gold.Chemscore.DEClash>
0.0694

> <Gold.Chemscore.DEInternal>
1.0303

> <Gold.Chemscore.Rot>
1.3744

> <Gold.Chemscore.Internal.Correction>
   9.000000E+99

> <Gold.Chemscore.Hbonds>
donor molecule, donor type, donor heavy atom, donor atom, acceptor molecule, acceptor atom, score
      L1  H     4    45       P1 10175  0.22
      L1  H    10    35       P1  8028  0.98

> <Gold.Chemscore.Hbond.Weighted>
-6.1123

> <Gold.Chemscore.Metal.Weighted>
-0.0000

> <Gold.Chemscore.Lipo.Weighted>
-12.8128

> <Gold.Chemscore.Internal_Hbond.Weighted>
0.0000

> <Gold.Chemscore.DEClash.Weighted>
0.0694

> <Gold.Chemscore.DEInternal.Weighted>
1.0303

> <Gold.Chemscore.Rot.Weighted>
3.5185

> <Gold.Chemscore.Internal.Correction.Weighted>
   9.000000E+99

> <Gold.Protein.RotatedTorsions>
[ 6907 6896 6895 6894 ] final  -46.94 input  -60.11 | X-H torsion
[ 7974 7965 7964 7962 ] final -101.48 input  175.53 | X-H torsion
[ 8008 7997 7996 7995 ] final   45.10 input   59.86 | X-H torsion
[ 10167 10162 10161 10158 ] final -117.44 input  -65.29 | X-H torsion
[ 10718 10713 10712 10709 ] final  151.22 input   66.30 | X-H torsion
[ 10763 10752 10751 10750 ] final  -54.73 input  -60.55 | X-H torsion
[ 11005 11000 10999 10996 ] final   18.55 input  -57.11 | X-H torsion

> <Gold.Protein.ActiveResidues>
 VAL166  LYS551  ARG553  GLY616  TRP617  ASP618  TYR619  PRO620  LYS621  CYS622 
 ASP623  PHE694  ASN695  SER759  ASP760  ASP761  ALA762  ILE779  LEU786  VAL792 
 PHE793  MET794  SER795  GLU796  ALA797  LYS798  CYS799  TRP800  GLU811  SER814 

> <Gold.Protein.RotatedAtoms>
  150.9060  134.8474  159.7392 H   0  0  0  0  0  0  0  0  0  0  0  0  # atno 6907 bound_to 6896
  152.4918  134.4431  159.9560 H   0  0  0  0  0  0  0  0  0  0  0  0  # atno 6908 bound_to 6896
  151.4478  133.3586  159.2826 H   0  0  0  0  0  0  0  0  0  0  0  0  # atno 6909 bound_to 6896
  145.2810  140.9326  143.2932 H   0  0  0  0  0  0  0  0  0  0  0  0  # atno 7974 bound_to 7965
  155.3302  140.3402  155.4239 H   0  0  0  0  0  0  0  0  0  0  0  0  # atno 8008 bound_to 7997
  156.1865  140.1682  156.8211 H   0  0  0  0  0  0  0  0  0  0  0  0  # atno 8009 bound_to 7997
  154.5392  140.0728  156.8464 H   0  0  0  0  0  0  0  0  0  0  0  0  # atno 8010 bound_to 7997
  140.0683  143.4902  152.1994 H   0  0  0  0  0  0  0  0  0  0  0  0  # atno 10167 bound_to 10162
  157.2735  131.0821  151.1583 H   0  0  0  0  0  0  0  0  0  0  0  0  # atno 10718 bound_to 10713
  154.1796  135.6445  153.5030 H   0  0  0  0  0  0  0  0  0  0  0  0  # atno 10763 bound_to 10752
  153.0063  135.5403  154.6528 H   0  0  0  0  0  0  0  0  0  0  0  0  # atno 10764 bound_to 10752
  154.5889  135.2932  155.0628 H   0  0  0  0  0  0  0  0  0  0  0  0  # atno 10765 bound_to 10752
  140.4235  134.1494  155.7674 H   0  0  0  0  0  0  0  0  0  0  0  0  # atno 11005 bound_to 11000
  144.9253  139.4363  143.6521 LP  0  0  0  0  0  0  0  0  0  0  0  0  # atno 17320 bound_to 7965
  146.3216  139.8135  142.8941 LP  0  0  0  0  0  0  0  0  0  0  0  0  # atno 17321 bound_to 7965
  139.5851  144.7528  151.3539 LP  0  0  0  0  0  0  0  0  0  0  0  0  # atno 17342 bound_to 10162
  140.7138  143.7320  150.7617 LP  0  0  0  0  0  0  0  0  0  0  0  0  # atno 17343 bound_to 10162
  157.3045  130.6859  149.6182 LP  0  0  0  0  0  0  0  0  0  0  0  0  # atno 17370 bound_to 10713
  155.9663  130.4382  150.5207 LP  0  0  0  0  0  0  0  0  0  0  0  0  # atno 17371 bound_to 10713
  141.1774  133.8485  157.1374 LP  0  0  0  0  0  0  0  0  0  0  0  0  # atno 17394 bound_to 11000
  140.0183  134.9957  157.0540 LP  0  0  0  0  0  0  0  0  0  0  0  0  # atno 17395 bound_to 11000

$$$$
