AV-unprocessed.smi:2953|AV-procd|sdf|11294|dock8
  -GOLD-   2272016183D 1   1.00000     0.00000
 Structure written by MMmdl.
 45 47  0  0  0  0  0  0  0  0  1 V2000
  154.1624  139.8754  160.7071 C   0  0  0  0  0  0  0  0  0  0  0  0
  153.4430  141.2022  160.5543 C   0  0  0  0  0  0  0  0  0  0  0  0
  153.6979  142.2235  161.4934 C   0  0  0  0  0  0  0  0  0  0  0  0
  153.0570  143.4700  161.3819 C   0  0  0  0  0  0  0  0  0  0  0  0
  152.1553  143.6988  160.3286 C   0  0  0  0  0  0  0  0  0  0  0  0
  151.8936  142.6826  159.3902 C   0  0  0  0  0  0  0  0  0  0  0  0
  152.5335  141.4195  159.4900 C   0  0  0  0  0  0  0  0  0  0  0  0
  152.3111  140.3853  158.6014 O   0  0  0  0  0  0  0  0  0  0  0  0
  151.1941  140.4877  157.7263 C   0  0  0  0  0  0  0  0  0  0  0  0
  151.6434  140.3751  156.2630 C   0  0  0  0  0  0  0  0  0  0  0  0
  150.6003  139.8451  155.3950 N   0  0  0  0  0  0  0  0  0  0  0  0
  150.6032  138.7238  154.6256 C   0  0  0  0  0  0  0  0  0  0  0  0
  151.7718  137.7746  154.5562 C   0  0  1  0  0  0  0  0  0  0  0  0
  153.0663  138.4794  154.1265 C   0  0  0  0  0  0  0  0  0  0  0  0
  151.9420  137.1616  155.8687 N   0  0  0  0  0  0  0  0  0  0  0  0
  151.9914  135.8413  156.0844 C   0  0  0  0  0  0  0  0  0  0  0  0
  151.8959  135.0097  155.1856 O   0  0  0  0  0  0  0  0  0  0  0  0
  149.5062  138.5319  153.8878 N   0  0  0  0  0  0  0  0  0  0  0  0
  148.7047  139.5977  154.2408 C   0  0  0  0  0  0  0  0  0  0  0  0
  147.4035  139.9487  153.8155 C   0  0  0  0  0  0  0  0  0  0  0  0
  146.7739  141.1037  154.3236 C   0  0  0  0  0  0  0  0  0  0  0  0
  147.4358  141.9229  155.2609 C   0  0  0  0  0  0  0  0  0  0  0  0
  148.7339  141.5921  155.6950 C   0  0  0  0  0  0  0  0  0  0  0  0
  149.3577  140.4369  155.1855 C   0  0  0  0  0  0  0  0  0  0  0  0
  155.1292  140.0140  161.1918 H   0  0  0  0  0  0  0  0  0  0  0  0
  154.3435  139.4025  159.7420 H   0  0  0  0  0  0  0  0  0  0  0  0
  153.5705  139.1996  161.3237 H   0  0  0  0  0  0  0  0  0  0  0  0
  154.3905  142.0537  162.3048 H   0  0  0  0  0  0  0  0  0  0  0  0
  153.2569  144.2487  162.1033 H   0  0  0  0  0  0  0  0  0  0  0  0
  151.6607  144.6549  160.2407 H   0  0  0  0  0  0  0  0  0  0  0  0
  151.1891  142.8995  158.6021 H   0  0  0  0  0  0  0  0  0  0  0  0
  150.4652  139.7059  157.9451 H   0  0  0  0  0  0  0  0  0  0  0  0
  150.7038  141.4520  157.8682 H   0  0  0  0  0  0  0  0  0  0  0  0
  151.9104  141.3661  155.8949 H   0  0  0  0  0  0  0  0  0  0  0  0
  152.5511  139.7799  156.1731 H   0  0  0  0  0  0  0  0  0  0  0  0
  151.5821  136.9950  153.8203 H   0  0  0  0  0  0  0  0  0  0  0  0
  152.9341  138.9785  153.1668 H   0  0  0  0  0  0  0  0  0  0  0  0
  153.8858  137.7675  154.0236 H   0  0  0  0  0  0  0  0  0  0  0  0
  153.3727  139.2354  154.8503 H   0  0  0  0  0  0  0  0  0  0  0  0
  152.0124  137.7812  156.6629 H   0  0  0  0  0  0  0  0  0  0  0  0
  152.1251  135.6023  157.1510 H   0  0  0  0  0  0  0  0  0  0  0  0
  146.8884  139.3278  153.0975 H   0  0  0  0  0  0  0  0  0  0  0  0
  145.7790  141.3622  153.9926 H   0  0  0  0  0  0  0  0  0  0  0  0
  146.9465  142.8055  155.6459 H   0  0  0  0  0  0  0  0  0  0  0  0
  149.2425  142.2182  156.4128 H   0  0  0  0  0  0  0  0  0  0  0  0
  1  2  1  0  0  0  0
  1 25  1  0  0  0  0
  1 26  1  0  0  0  0
  1 27  1  0  0  0  0
  2  7  1  0  0  0  0
  2  3  2  0  0  0  0
  3  4  1  0  0  0  0
  3 28  1  0  0  0  0
  4  5  2  0  0  0  0
  4 29  1  0  0  0  0
  5  6  1  0  0  0  0
  5 30  1  0  0  0  0
  6  7  2  0  0  0  0
  6 31  1  0  0  0  0
  7  8  1  0  0  0  0
  8  9  1  0  0  0  0
  9 10  1  0  0  0  0
  9 32  1  0  0  0  0
  9 33  1  0  0  0  0
 10 11  1  0  0  0  0
 10 34  1  0  0  0  0
 10 35  1  0  0  0  0
 11 24  1  0  0  0  0
 11 12  1  0  0  0  0
 12 13  1  0  0  0  0
 12 18  2  0  0  0  0
 13 14  1  0  0  0  0
 13 15  1  0  0  0  0
 13 36  1  0  0  0  0
 14 37  1  0  0  0  0
 14 38  1  0  0  0  0
 14 39  1  0  0  0  0
 15 16  1  0  0  0  0
 15 40  1  0  0  0  0
 16 17  2  0  0  0  0
 16 41  1  0  0  0  0
 18 19  1  0  0  0  0
 19 24  2  0  0  0  0
 19 20  1  0  0  0  0
 20 21  2  0  0  0  0
 20 42  1  0  0  0  0
 21 22  1  0  0  0  0
 21 43  1  0  0  0  0
 22 23  2  0  0  0  0
 22 44  1  0  0  0  0
 23 24  1  0  0  0  0
 23 45  1  0  0  0  0
M  END
> <s_m_source_file>
AV-unprocessed.smi

> <i_m_source_file_index>
2953

> <i_lp_mmshare_version>
43012

> <i_f3d_flags>
0

> <s_epik_input>
W0NIM11jMVtjSF1bY0hdW2NIXVtjSF1jMU9bQ0gyXVtDSDJdbihjKG4yKVtDQEhdKFtDSDNdKVtOSF1bQ0hdPU8pYyhjMjMpW2NIXVtjSF1bY0hdW2NIXTM=

> <s_epik_cmdline>
J2VwaWtfcHl0aG9uJywgJy1waCcsICc3LjAnLCAnLXRuJywgJzgnLCAnLW1hJywgJzIwMCcsICctbWV0YWxfYmluZGluZycsICctaW1hZScsICc8aW5maWxlLm1hZT4nLCAnLW9tYWUnLCAnPG91dGZpbGUubWFlPic=

> <r_lp_tautomer_probability>
1

> <r_epik_Ionization_Penalty>
0.0924205

> <r_epik_Ionization_Penalty_Charging>
0

> <r_epik_Ionization_Penalty_Neutral>
0.0924205

> <r_epik_State_Penalty>
0.0827154

> <r_epik_Charging_Adjusted_Penalty>
0.0827154

> <i_epik_Tot_Q>
0

> <i_epik_Tot_abs_Q>
0

> <r_epik_Metal_State_Penalty>
0.071464

> <b_epik_Metal_Only>
0

> <s_lp_Force_Field>
OPLS_2005

> <r_lp_Energy>
13.3209

> <b_lp_Chiralities_Consistent>
1

> <s_lp_Variant>
AV-unprocessed.smi:2953-2

> <Gold.Version>
5.8.1

> <Gold.Id.Protein>
6NUR|6NUR_protein|mol2

> <Gold.PLP.Fitness>
54.8607

> <Gold.PLP.PLP>
-53.2757

> <Gold.PLP.part.hbond>
-1.0000

> <Gold.PLP.part.metal>
0.0000

> <Gold.PLP.part.buried>
-2.0325

> <Gold.PLP.part.nonpolar>
-50.7515

> <Gold.PLP.part.repulsive>
0.6332

> <Gold.PLP.ligand.clash>
0.0000

> <Gold.PLP.ligand.torsion>
0.7812

> <Gold.PLP.Chemscore.Hbond>
1.0000

> <Gold.PLP.Chemscore.CHOScore>
0.0000

> <Gold.PLP.Chemscore.Metal>
0.0000

> <Gold.Chemscore.Hbonds>
donor molecule, donor type, donor heavy atom, donor atom, acceptor molecule, acceptor atom, score
      P1  H 10752 10763       L1    17  0.02

> <Gold.PLP.Chemscore.Internal.Correction>
0.1474

> <Gold.Rescore>
     Score         DG    S(hbond)    S(metal)    S(lipo)     H(rot)  DE(clash)    DE(int)     intcor
     17.57     -19.41       0.99        0.00     140.45       2.26       0.59       1.25       ----

> <Gold.Chemscore.Fitness>
17.5744

> <Gold.Chemscore.DG>
-19.4148

> <Gold.Chemscore.ZeroCoef>
-5.4800

> <Gold.Chemscore.Hbond>
0.9859

> <Gold.Chemscore.Metal>
0.0000

> <Gold.Chemscore.Lipo>
140.4492

> <Gold.Chemscore.Internal_Hbond>
0.0000

> <Gold.Chemscore.DEClash>
0.5935

> <Gold.Chemscore.DEInternal>
1.2469

> <Gold.Chemscore.Rot>
2.2619

> <Gold.Chemscore.Internal.Correction>
   9.000000E+99

> <Gold.Chemscore.Hbond.Weighted>
-3.2928

> <Gold.Chemscore.Metal.Weighted>
-0.0000

> <Gold.Chemscore.Lipo.Weighted>
-16.4326

> <Gold.Chemscore.Internal_Hbond.Weighted>
0.0000

> <Gold.Chemscore.DEClash.Weighted>
0.5935

> <Gold.Chemscore.DEInternal.Weighted>
1.2469

> <Gold.Chemscore.Rot.Weighted>
5.7906

> <Gold.Chemscore.Internal.Correction.Weighted>
   9.000000E+99

> <Gold.Protein.RotatedTorsions>
[ 6907 6896 6895 6894 ] final -104.10 input  -60.11 | X-H torsion
[ 7974 7965 7964 7962 ] final -106.66 input  175.53 | X-H torsion
[ 8008 7997 7996 7995 ] final   24.98 input   59.86 | X-H torsion
[ 10167 10162 10161 10158 ] final -176.37 input  -65.29 | X-H torsion
[ 10718 10713 10712 10709 ] final    4.31 input   66.30 | X-H torsion
[ 10763 10752 10751 10750 ] final   78.05 input  -60.55 | X-H torsion
[ 11005 11000 10999 10996 ] final   -1.80 input  -57.11 | X-H torsion

> <Gold.Protein.ActiveResidues>
 VAL166  LYS551  ARG553  GLY616  TRP617  ASP618  TYR619  PRO620  LYS621  CYS622 
 ASP623  PHE694  ASN695  SER759  ASP760  ASP761  ALA762  ILE779  LEU786  VAL792 
 PHE793  MET794  SER795  GLU796  ALA797  LYS798  CYS799  TRP800  GLU811  SER814 

> <Gold.Protein.RotatedAtoms>
  150.7271  134.0328  159.3738 H   0  0  0  0  0  0  0  0  0  0  0  0  # atno 6907 bound_to 6896
  151.8298  135.0623  160.0445 H   0  0  0  0  0  0  0  0  0  0  0  0  # atno 6908 bound_to 6896
  152.2942  133.5555  159.5613 H   0  0  0  0  0  0  0  0  0  0  0  0  # atno 6909 bound_to 6896
  145.2151  140.9112  143.3292 H   0  0  0  0  0  0  0  0  0  0  0  0  # atno 7974 bound_to 7965
  155.0047  140.3129  155.4853 H   0  0  0  0  0  0  0  0  0  0  0  0  # atno 8008 bound_to 7997
  156.2919  140.2225  156.5099 H   0  0  0  0  0  0  0  0  0  0  0  0  # atno 8009 bound_to 7997
  154.7588  140.0460  157.0943 H   0  0  0  0  0  0  0  0  0  0  0  0  # atno 8010 bound_to 7997
  139.5533  144.2053  152.1115 H   0  0  0  0  0  0  0  0  0  0  0  0  # atno 10167 bound_to 10162
  156.8908  130.5686  149.5650 H   0  0  0  0  0  0  0  0  0  0  0  0  # atno 10718 bound_to 10713
  153.0845  135.4891  154.8569 H   0  0  0  0  0  0  0  0  0  0  0  0  # atno 10763 bound_to 10752
  154.7193  135.3036  154.9076 H   0  0  0  0  0  0  0  0  0  0  0  0  # atno 10764 bound_to 10752
  153.9745  135.6797  153.4801 H   0  0  0  0  0  0  0  0  0  0  0  0  # atno 10765 bound_to 10752
  140.6514  133.9401  155.8382 H   0  0  0  0  0  0  0  0  0  0  0  0  # atno 11005 bound_to 11000
  144.9819  139.3775  143.6258 LP  0  0  0  0  0  0  0  0  0  0  0  0  # atno 17320 bound_to 7965
  146.3389  139.8963  142.8801 LP  0  0  0  0  0  0  0  0  0  0  0  0  # atno 17321 bound_to 7965
  140.1553  144.5077  150.6664 LP  0  0  0  0  0  0  0  0  0  0  0  0  # atno 17342 bound_to 10162
  140.6800  143.2322  151.5407 LP  0  0  0  0  0  0  0  0  0  0  0  0  # atno 17343 bound_to 10162
  156.0630  130.5679  150.9232 LP  0  0  0  0  0  0  0  0  0  0  0  0  # atno 17370 bound_to 10713
  157.6085  131.0937  150.8837 LP  0  0  0  0  0  0  0  0  0  0  0  0  # atno 17371 bound_to 10713
  141.0534  134.0451  157.3754 LP  0  0  0  0  0  0  0  0  0  0  0  0  # atno 17394 bound_to 11000
  139.9045  135.0175  156.7421 LP  0  0  0  0  0  0  0  0  0  0  0  0  # atno 17395 bound_to 11000

$$$$
