AV-unprocessed.smi:1235|AV-procd|sdf|5177|dock5
  -GOLD-   22720 4253D 1   1.00000     0.00000
 Structure written by MMmdl.
 50 51  0  0  0  0  0  0  0  0  2 V2000
  149.3867  145.1462  160.2834 C   0  0  0  0  0  0  0  0  0  0  0  0
  150.7065  144.8681  159.8493 O   0  0  0  0  0  0  0  0  0  0  0  0
  150.7894  143.6719  159.0937 C   0  0  0  0  0  0  0  0  0  0  0  0
  152.2478  143.1889  159.0883 C   0  0  0  0  0  0  0  0  0  0  0  0
  152.3306  141.7301  158.9649 N   0  0  0  0  0  0  0  0  0  0  0  0
  151.8327  141.2362  157.7707 N   0  0  0  0  0  0  0  0  0  0  0  0
  151.8331  139.9624  157.5437 C   0  0  0  0  0  0  0  0  0  0  0  0
  151.3024  139.3909  156.2745 C   0  0  0  0  0  0  0  0  0  0  0  0
  151.2560  140.0479  155.2333 O   0  0  0  0  0  0  0  0  0  0  0  0
  150.8818  138.1149  156.3469 N   0  0  0  0  0  0  0  0  0  0  0  0
  150.3466  137.3417  155.2327 C   0  0  0  0  0  0  0  0  0  0  0  0
  148.9171  136.8399  155.5204 C   0  0  0  0  0  0  0  0  0  0  0  0
  148.5018  135.7098  154.6457 N   0  3  2  0  0  0  0  0  0  0  0  0
  147.0371  135.4563  154.7206 C   0  0  0  0  0  0  0  0  0  0  0  0
  146.5867  134.4427  153.6566 C   0  0  0  0  0  0  0  0  0  0  0  0
  147.3740  133.1333  153.7737 C   0  0  0  0  0  0  0  0  0  0  0  0
  148.8795  133.4239  153.7122 C   0  0  0  0  0  0  0  0  0  0  0  0
  149.3184  134.4607  154.7683 C   0  0  2  0  0  0  0  0  0  0  0  0
  149.3344  133.8685  156.1941 C   0  0  0  0  0  0  0  0  0  0  0  0
  152.3557  139.0308  158.5288 C   0  0  0  0  0  0  0  0  0  0  0  0
  152.8370  139.5276  159.6893 C   0  0  0  0  0  0  0  0  0  0  0  0
  152.8429  140.9634  159.9744 C   0  0  0  0  0  0  0  0  0  0  0  0
  153.2653  141.4390  161.0277 O   0  0  0  0  0  0  0  0  0  0  0  0
  149.3771  146.0760  160.8521 H   0  0  0  0  0  0  0  0  0  0  0  0
  149.0090  144.3529  160.9297 H   0  0  0  0  0  0  0  0  0  0  0  0
  148.7082  145.2619  159.4372 H   0  0  0  0  0  0  0  0  0  0  0  0
  150.1387  142.9112  159.5277 H   0  0  0  0  0  0  0  0  0  0  0  0
  150.4497  143.8535  158.0727 H   0  0  0  0  0  0  0  0  0  0  0  0
  152.7824  143.6615  158.2622 H   0  0  0  0  0  0  0  0  0  0  0  0
  152.7572  143.5260  159.9927 H   0  0  0  0  0  0  0  0  0  0  0  0
  150.9545  137.6449  157.2383 H   0  0  0  0  0  0  0  0  0  0  0  0
  150.3696  137.9400  154.3202 H   0  0  0  0  0  0  0  0  0  0  0  0
  151.0276  136.5054  155.0789 H   0  0  0  0  0  0  0  0  0  0  0  0
  148.8053  136.5715  156.5710 H   0  0  0  0  0  0  0  0  0  0  0  0
  148.2245  137.6654  155.3512 H   0  0  0  0  0  0  0  0  0  0  0  0
  146.7672  135.1075  155.7179 H   0  0  0  0  0  0  0  0  0  0  0  0
  146.4954  136.3898  154.5632 H   0  0  0  0  0  0  0  0  0  0  0  0
  145.5190  134.2459  153.7576 H   0  0  0  0  0  0  0  0  0  0  0  0
  146.7298  134.8683  152.6625 H   0  0  0  0  0  0  0  0  0  0  0  0
  147.1244  132.6304  154.7084 H   0  0  0  0  0  0  0  0  0  0  0  0
  147.0905  132.4521  152.9707 H   0  0  0  0  0  0  0  0  0  0  0  0
  149.4435  132.4980  153.8315 H   0  0  0  0  0  0  0  0  0  0  0  0
  149.1264  133.7997  152.7181 H   0  0  0  0  0  0  0  0  0  0  0  0
  150.3490  134.7107  154.5192 H   0  0  0  0  0  0  0  0  0  0  0  0
  149.9175  132.9476  156.2208 H   0  0  0  0  0  0  0  0  0  0  0  0
  148.3352  133.6285  156.5565 H   0  0  0  0  0  0  0  0  0  0  0  0
  149.7944  134.5487  156.9103 H   0  0  0  0  0  0  0  0  0  0  0  0
  152.3633  137.9661  158.3456 H   0  0  0  0  0  0  0  0  0  0  0  0
  153.2288  138.8463  160.4304 H   0  0  0  0  0  0  0  0  0  0  0  0
  148.6585  136.0369  153.7029 H   0  0  0  0  0  0  0  0  0  0  0  0
  1  2  1  0  0  0  0
  1 24  1  0  0  0  0
  1 25  1  0  0  0  0
  1 26  1  0  0  0  0
  2  3  1  0  0  0  0
  3  4  1  0  0  0  0
  3 27  1  0  0  0  0
  3 28  1  0  0  0  0
  4  5  1  0  0  0  0
  4 29  1  0  0  0  0
  4 30  1  0  0  0  0
  5 22  1  0  0  0  0
  5  6  1  0  0  0  0
  6  7  2  0  0  0  0
  7  8  1  0  0  0  0
  7 20  1  0  0  0  0
  8  9  2  0  0  0  0
  8 10  1  0  0  0  0
 10 11  1  0  0  0  0
 10 31  1  0  0  0  0
 11 12  1  0  0  0  0
 11 32  1  0  0  0  0
 11 33  1  0  0  0  0
 12 13  1  0  0  0  0
 12 34  1  0  0  0  0
 12 35  1  0  0  0  0
 13 18  1  0  0  0  0
 13 14  1  0  0  0  0
 13 50  1  0  0  0  0
 14 15  1  0  0  0  0
 14 36  1  0  0  0  0
 14 37  1  0  0  0  0
 15 16  1  0  0  0  0
 15 38  1  0  0  0  0
 15 39  1  0  0  0  0
 16 17  1  0  0  0  0
 16 40  1  0  0  0  0
 16 41  1  0  0  0  0
 17 18  1  0  0  0  0
 17 42  1  0  0  0  0
 17 43  1  0  0  0  0
 18 19  1  0  0  0  0
 18 44  1  0  0  0  0
 19 45  1  0  0  0  0
 19 46  1  0  0  0  0
 19 47  1  0  0  0  0
 20 21  2  0  0  0  0
 20 48  1  0  0  0  0
 21 22  1  0  0  0  0
 21 49  1  0  0  0  0
 22 23  2  0  0  0  0
M  CHG  1  13   1
M  END
> <s_m_source_file>
AV-unprocessed.smi

> <i_m_source_file_index>
1235

> <i_lp_mmshare_version>
43012

> <i_f3d_flags>
0

> <s_epik_input>
W0NIM11PW0NIMl1bQ0gyXW4xbmMoW2NIXVtjSF1jMT1PKUMoPU8pW05IXVtDSDJdW0NIMl1OMltDSDJdW0NIMl1bQ0gyXVtDSDJdW0NASF0yW0NIM10=

> <s_epik_cmdline>
J2VwaWtfcHl0aG9uJywgJy1waCcsICc3LjAnLCAnLXRuJywgJzgnLCAnLW1hJywgJzIwMCcsICctbWV0YWxfYmluZGluZycsICctaW1hZScsICc8aW5maWxlLm1hZT4nLCAnLW9tYWUnLCAnPG91dGZpbGUubWFlPic=

> <r_lp_tautomer_probability>
1

> <r_epik_Ionization_Penalty>
0.00271975

> <r_epik_Ionization_Penalty_Charging>
0.00271407

> <r_epik_Ionization_Penalty_Neutral>
5.6803e-06

> <r_epik_State_Penalty>
0.00189271

> <r_epik_Charging_Adjusted_Penalty>
0.00460678

> <i_epik_Tot_Q>
1

> <i_epik_Tot_abs_Q>
1

> <r_epik_Metal_State_Penalty>
-0

> <b_epik_Metal_Only>
0

> <s_lp_Force_Field>
OPLS_2005

> <r_lp_Energy>
40.192

> <b_lp_Chiralities_Consistent>
1

> <s_lp_Variant>
AV-unprocessed.smi:1235-3

> <Gold.Version>
5.8.1

> <Gold.Id.Protein>
6NUR|6NUR_protein|mol2

> <Gold.PLP.Fitness>
44.3591

> <Gold.PLP.PLP>
-36.4974

> <Gold.PLP.part.hbond>
-2.0000

> <Gold.PLP.part.metal>
0.0000

> <Gold.PLP.part.buried>
-6.0311

> <Gold.PLP.part.nonpolar>
-28.4049

> <Gold.PLP.part.repulsive>
0.2260

> <Gold.PLP.ligand.clash>
0.0000

> <Gold.PLP.ligand.torsion>
0.6776

> <Gold.PLP.Chemscore.Hbond>
3.0000

> <Gold.PLP.Chemscore.CHOScore>
0.0000

> <Gold.PLP.Chemscore.Metal>
0.0000

> <Gold.Chemscore.Hbonds>
donor molecule, donor type, donor heavy atom, donor atom, acceptor molecule, acceptor atom, score
      L1  H    13    50       P1  7948  2.00
      P1  H  7989  7998       L1     9  1.00

> <Gold.PLP.Chemscore.Internal.Correction>
0.2168

> <Gold.Rescore>
     Score         DG    S(hbond)    S(metal)    S(lipo)     H(rot)  DE(clash)    DE(int)     intcor
     15.67     -16.31       1.96        0.00      80.41       2.00       0.06       0.58       ----

> <Gold.Chemscore.Fitness>
15.6746

> <Gold.Chemscore.DG>
-16.3140

> <Gold.Chemscore.ZeroCoef>
-5.4800

> <Gold.Chemscore.Hbond>
1.9613

> <Gold.Chemscore.Metal>
0.0000

> <Gold.Chemscore.Lipo>
80.4143

> <Gold.Chemscore.Internal_Hbond>
0.0000

> <Gold.Chemscore.DEClash>
0.0619

> <Gold.Chemscore.DEInternal>
0.5775

> <Gold.Chemscore.Rot>
2.0020

> <Gold.Chemscore.Internal.Correction>
   9.000000E+99

> <Gold.Chemscore.Hbonds>
donor molecule, donor type, donor heavy atom, donor atom, acceptor molecule, acceptor atom, score
      L1  H    13    50       P1  7948  1.00
      P1  H  7989  7998       L1     9  0.98

> <Gold.Chemscore.Hbond.Weighted>
-6.5506

> <Gold.Chemscore.Metal.Weighted>
-0.0000

> <Gold.Chemscore.Lipo.Weighted>
-9.4085

> <Gold.Chemscore.Internal_Hbond.Weighted>
0.0000

> <Gold.Chemscore.DEClash.Weighted>
0.0619

> <Gold.Chemscore.DEInternal.Weighted>
0.5775

> <Gold.Chemscore.Rot.Weighted>
5.1252

> <Gold.Chemscore.Internal.Correction.Weighted>
   9.000000E+99

> <Gold.Protein.RotatedTorsions>
[ 6907 6896 6895 6894 ] final  -99.04 input  -60.11 | X-H torsion
[ 7974 7965 7964 7962 ] final   48.27 input  175.53 | X-H torsion
[ 8008 7997 7996 7995 ] final  -95.89 input   59.86 | X-H torsion
[ 10167 10162 10161 10158 ] final  -98.49 input  -65.29 | X-H torsion
[ 10718 10713 10712 10709 ] final  -60.80 input   66.30 | X-H torsion
[ 10763 10752 10751 10750 ] final  -56.80 input  -60.55 | X-H torsion
[ 11005 11000 10999 10996 ] final  -81.34 input  -57.11 | X-H torsion

> <Gold.Protein.ActiveResidues>
 VAL166  LYS551  ARG553  GLY616  TRP617  ASP618  TYR619  PRO620  LYS621  CYS622 
 ASP623  PHE694  ASN695  SER759  ASP760  ASP761  ALA762  ILE779  LEU786  VAL792 
 PHE793  MET794  SER795  GLU796  ALA797  LYS798  CYS799  TRP800  GLU811  SER814 

> <Gold.Protein.RotatedAtoms>
  150.7066  134.1102  159.3996 H   0  0  0  0  0  0  0  0  0  0  0  0  # atno 6907 bound_to 6896
  151.9088  135.0345  160.0522 H   0  0  0  0  0  0  0  0  0  0  0  0  # atno 6908 bound_to 6896
  152.2353  133.5055  159.5275 H   0  0  0  0  0  0  0  0  0  0  0  0  # atno 6909 bound_to 6896
  146.0220  139.4662  142.9891 H   0  0  0  0  0  0  0  0  0  0  0  0  # atno 7974 bound_to 7965
  154.7673  140.0476  157.1022 H   0  0  0  0  0  0  0  0  0  0  0  0  # atno 8008 bound_to 7997
  154.9864  140.3108  155.4905 H   0  0  0  0  0  0  0  0  0  0  0  0  # atno 8009 bound_to 7997
  156.2915  140.2226  156.4966 H   0  0  0  0  0  0  0  0  0  0  0  0  # atno 8010 bound_to 7997
  140.2724  143.3335  152.0521 H   0  0  0  0  0  0  0  0  0  0  0  0  # atno 10167 bound_to 10162
  156.0965  130.4192  150.0905 H   0  0  0  0  0  0  0  0  0  0  0  0  # atno 10718 bound_to 10713
  154.2124  135.6392  153.5119 H   0  0  0  0  0  0  0  0  0  0  0  0  # atno 10763 bound_to 10752
  152.9987  135.5477  154.6200 H   0  0  0  0  0  0  0  0  0  0  0  0  # atno 10764 bound_to 10752
  154.5641  135.2911  155.0865 H   0  0  0  0  0  0  0  0  0  0  0  0  # atno 10765 bound_to 10752
  141.1666  133.7192  156.8408 H   0  0  0  0  0  0  0  0  0  0  0  0  # atno 11005 bound_to 11000
  145.7178  141.0085  143.1419 LP  0  0  0  0  0  0  0  0  0  0  0  0  # atno 17320 bound_to 7965
  144.6994  139.8834  143.7448 LP  0  0  0  0  0  0  0  0  0  0  0  0  # atno 17321 bound_to 7965
  139.4985  144.6647  151.6383 LP  0  0  0  0  0  0  0  0  0  0  0  0  # atno 17342 bound_to 10162
  140.5879  143.9832  150.6306 LP  0  0  0  0  0  0  0  0  0  0  0  0  # atno 17343 bound_to 10162
  156.8903  130.9586  151.3589 LP  0  0  0  0  0  0  0  0  0  0  0  0  # atno 17370 bound_to 10713
  157.6127  130.8595  149.8978 LP  0  0  0  0  0  0  0  0  0  0  0  0  # atno 17371 bound_to 10713
  140.1985  134.8914  157.3142 LP  0  0  0  0  0  0  0  0  0  0  0  0  # atno 17394 bound_to 11000
  140.2213  134.4020  155.7564 LP  0  0  0  0  0  0  0  0  0  0  0  0  # atno 17395 bound_to 11000

$$$$
