AV-unprocessed.smi:3347|AV-procd|sdf|12912|dock5
  -GOLD-   2272019323D 1   1.00000     0.00000
 Structure written by MMmdl.
 40 42  0  0  0  0  0  0  0  0  2 V2000
  150.3884  135.0108  155.9544 O   0  0  0  0  0  0  0  0  0  0  0  0
  149.9458  135.4101  154.8780 C   0  0  0  0  0  0  0  0  0  0  0  0
  149.2552  134.6323  154.0321 N   0  0  0  0  0  0  0  0  0  0  0  0
  148.8986  133.2377  154.2748 C   0  0  0  0  0  0  0  0  0  0  0  0
  147.9974  132.6575  153.1672 C   0  0  1  0  0  0  0  0  0  0  0  0
  147.2926  131.3616  153.5570 C   0  0  0  0  0  0  0  0  0  0  0  0
  146.1606  131.2814  152.5363 C   0  0  0  0  0  0  0  0  0  0  0  0
  145.7311  132.6787  152.3106 N   0  3  2  0  0  0  0  0  0  0  0  0
  145.2371  132.9375  150.9414 C   0  0  0  0  0  0  0  0  0  0  0  0
  144.4308  131.7981  150.3653 C   0  0  0  0  0  0  0  0  0  0  0  0
  145.8505  132.0353  149.8975 C   0  0  0  0  0  0  0  0  0  0  0  0
  146.8394  133.5680  152.7324 C   0  0  0  0  0  0  0  0  0  0  0  0
  150.0962  136.6510  154.3832 N   0  0  0  0  0  0  0  0  0  0  0  0
  150.7407  137.7738  154.9710 C   0  0  0  0  0  0  0  0  0  0  0  0
  151.5472  137.7189  156.1343 C   0  0  0  0  0  0  0  0  0  0  0  0
  152.1144  138.9106  156.6253 C   0  0  0  0  0  0  0  0  0  0  0  0
  151.8506  140.1134  155.9420 C   0  0  0  0  0  0  0  0  0  0  0  0
  151.0751  140.1828  154.8397 N   0  0  0  0  0  0  0  0  0  0  0  0
  150.5342  139.0365  154.3753 C   0  0  0  0  0  0  0  0  0  0  0  0
  148.9295  135.0422  153.1687 H   0  0  0  0  0  0  0  0  0  0  0  0
  149.8059  132.6394  154.3746 H   0  0  0  0  0  0  0  0  0  0  0  0
  148.3892  133.1850  155.2373 H   0  0  0  0  0  0  0  0  0  0  0  0
  148.6057  132.4439  152.2862 H   0  0  0  0  0  0  0  0  0  0  0  0
  147.9520  130.4936  153.5255 H   0  0  0  0  0  0  0  0  0  0  0  0
  146.8815  131.4385  154.5648 H   0  0  0  0  0  0  0  0  0  0  0  0
  146.5416  130.8552  151.6066 H   0  0  0  0  0  0  0  0  0  0  0  0
  145.3322  130.6586  152.8752 H   0  0  0  0  0  0  0  0  0  0  0  0
  144.9841  133.9693  150.7030 H   0  0  0  0  0  0  0  0  0  0  0  0
  144.2469  130.9277  150.9929 H   0  0  0  0  0  0  0  0  0  0  0  0
  143.6298  132.0494  149.6732 H   0  0  0  0  0  0  0  0  0  0  0  0
  145.9841  132.4432  148.8976 H   0  0  0  0  0  0  0  0  0  0  0  0
  146.6098  131.3225  150.2141 H   0  0  0  0  0  0  0  0  0  0  0  0
  146.4828  134.1699  153.5689 H   0  0  0  0  0  0  0  0  0  0  0  0
  147.1497  134.2556  151.9437 H   0  0  0  0  0  0  0  0  0  0  0  0
  149.7351  136.8033  153.4529 H   0  0  0  0  0  0  0  0  0  0  0  0
  151.7318  136.7992  156.6668 H   0  0  0  0  0  0  0  0  0  0  0  0
  152.7343  138.9030  157.5095 H   0  0  0  0  0  0  0  0  0  0  0  0
  152.2691  141.0449  156.2932 H   0  0  0  0  0  0  0  0  0  0  0  0
  149.9169  139.1316  153.4935 H   0  0  0  0  0  0  0  0  0  0  0  0
  144.9664  132.8567  152.9462 H   0  0  0  0  0  0  0  0  0  0  0  0
  1  2  2  0  0  0  0
  2  3  1  0  0  0  0
  2 13  1  0  0  0  0
  3  4  1  0  0  0  0
  3 20  1  0  0  0  0
  4  5  1  0  0  0  0
  4 21  1  0  0  0  0
  4 22  1  0  0  0  0
  5 12  1  0  0  0  0
  5  6  1  0  0  0  0
  5 23  1  0  0  0  0
  6  7  1  0  0  0  0
  6 24  1  0  0  0  0
  6 25  1  0  0  0  0
  7  8  1  0  0  0  0
  7 26  1  0  0  0  0
  7 27  1  0  0  0  0
  8  9  1  0  0  0  0
  8 12  1  0  0  0  0
  8 40  1  0  0  0  0
  9 11  1  0  0  0  0
  9 10  1  0  0  0  0
  9 28  1  0  0  0  0
 10 11  1  0  0  0  0
 10 29  1  0  0  0  0
 10 30  1  0  0  0  0
 11 31  1  0  0  0  0
 11 32  1  0  0  0  0
 12 33  1  0  0  0  0
 12 34  1  0  0  0  0
 13 14  1  0  0  0  0
 13 35  1  0  0  0  0
 14 19  1  0  0  0  0
 14 15  2  0  0  0  0
 15 16  1  0  0  0  0
 15 36  1  0  0  0  0
 16 17  2  0  0  0  0
 16 37  1  0  0  0  0
 17 18  1  0  0  0  0
 17 38  1  0  0  0  0
 18 19  2  0  0  0  0
 19 39  1  0  0  0  0
M  CHG  1   8   1
M  END
> <s_m_source_file>
AV-unprocessed.smi

> <i_m_source_file_index>
3347

> <i_lp_mmshare_version>
43012

> <i_f3d_flags>
0

> <s_epik_input>
W2NIXTFuW2NIXVtjSF1bY0hdYzFbTkhdQyg9TylbTkhdW0NIMl1bQ0BASF0yW0NIMl1bQ0gyXU4oW0NIMl0yKVtDSF0zW0NIMl1bQ0gyXTM=

> <s_epik_cmdline>
J2VwaWtfcHl0aG9uJywgJy1waCcsICc3LjAnLCAnLXRuJywgJzgnLCAnLW1hJywgJzIwMCcsICctbWV0YWxfYmluZGluZycsICctaW1hZScsICc8aW5maWxlLm1hZT4nLCAnLW9tYWUnLCAnPG91dGZpbGUubWFlPic=

> <r_epik_Ionization_Penalty>
0.00442629

> <r_epik_Ionization_Penalty_Charging>
0.000203384

> <r_epik_Ionization_Penalty_Neutral>
0.00422291

> <r_epik_State_Penalty>
0.00301008

> <r_epik_Charging_Adjusted_Penalty>
0.00321347

> <i_epik_Tot_Q>
1

> <i_epik_Tot_abs_Q>
1

> <r_epik_Metal_State_Penalty>
-0

> <b_epik_Metal_Only>
0

> <s_lp_Force_Field>
OPLS_2005

> <r_lp_Energy>
41.3797

> <b_lp_Chiralities_Consistent>
1

> <s_lp_Variant>
AV-unprocessed.smi:3347-2

> <Gold.Version>
5.8.1

> <Gold.Id.Protein>
6NUR|6NUR_protein|mol2

> <Gold.PLP.Fitness>
47.2664

> <Gold.PLP.PLP>
-35.5968

> <Gold.PLP.part.hbond>
-3.8167

> <Gold.PLP.part.metal>
0.0000

> <Gold.PLP.part.buried>
-4.0339

> <Gold.PLP.part.nonpolar>
-28.2834

> <Gold.PLP.part.repulsive>
0.1900

> <Gold.PLP.ligand.clash>
0.0000

> <Gold.PLP.ligand.torsion>
0.7948

> <Gold.PLP.Chemscore.Hbond>
3.0000

> <Gold.PLP.Chemscore.CHOScore>
1.0000

> <Gold.PLP.Chemscore.Metal>
0.0000

> <Gold.Chemscore.Hbonds>
donor molecule, donor type, donor heavy atom, donor atom, acceptor molecule, acceptor atom, score
      L1  H     3    20       P1  7948  1.00
      L1  H    13    35       P1  7948  1.00
      P1  H  7989  7998       L1    18  1.00
      L1  C    19    39       P1  7957  1.00

> <Gold.PLP.Chemscore.Internal.Correction>
1.2592

> <Gold.Rescore>
     Score         DG    S(hbond)    S(metal)    S(lipo)     H(rot)  DE(clash)    DE(int)     intcor
     16.56     -18.57       1.82        0.00      91.03       1.42       0.03       1.99       ----

> <Gold.Chemscore.Fitness>
16.5571

> <Gold.Chemscore.DG>
-18.5686

> <Gold.Chemscore.ZeroCoef>
-5.4800

> <Gold.Chemscore.Hbond>
1.8198

> <Gold.Chemscore.Metal>
0.0000

> <Gold.Chemscore.Lipo>
91.0308

> <Gold.Chemscore.Internal_Hbond>
0.0000

> <Gold.Chemscore.DEClash>
0.0260

> <Gold.Chemscore.DEInternal>
1.9855

> <Gold.Chemscore.Rot>
1.4219

> <Gold.Chemscore.Internal.Correction>
   9.000000E+99

> <Gold.Chemscore.Hbonds>
donor molecule, donor type, donor heavy atom, donor atom, acceptor molecule, acceptor atom, score
      L1  H     3    20       P1  7948  0.29
      L1  H    13    35       P1  7948  0.48
      P1  H  7989  7998       L1    18  0.38

> <Gold.Chemscore.Hbond.Weighted>
-6.0781

> <Gold.Chemscore.Metal.Weighted>
-0.0000

> <Gold.Chemscore.Lipo.Weighted>
-10.6506

> <Gold.Chemscore.Internal_Hbond.Weighted>
0.0000

> <Gold.Chemscore.DEClash.Weighted>
0.0260

> <Gold.Chemscore.DEInternal.Weighted>
1.9855

> <Gold.Chemscore.Rot.Weighted>
3.6401

> <Gold.Chemscore.Internal.Correction.Weighted>
   9.000000E+99

> <Gold.Protein.RotatedTorsions>
[ 6907 6896 6895 6894 ] final -162.00 input  -60.11 | X-H torsion
[ 7974 7965 7964 7962 ] final   41.53 input  175.53 | X-H torsion
[ 8008 7997 7996 7995 ] final  136.72 input   59.86 | X-H torsion
[ 10167 10162 10161 10158 ] final  -91.53 input  -65.29 | X-H torsion
[ 10718 10713 10712 10709 ] final -128.02 input   66.30 | X-H torsion
[ 10763 10752 10751 10750 ] final  133.15 input  -60.55 | X-H torsion
[ 11005 11000 10999 10996 ] final -164.21 input  -57.11 | X-H torsion

> <Gold.Protein.ActiveResidues>
 VAL166  LYS551  ARG553  GLY616  TRP617  ASP618  TYR619  PRO620  LYS621  CYS622 
 ASP623  PHE694  ASN695  SER759  ASP760  ASP761  ALA762  ILE779  LEU786  VAL792 
 PHE793  MET794  SER795  GLU796  ALA797  LYS798  CYS799  TRP800  GLU811  SER814 

> <Gold.Protein.RotatedAtoms>
  151.3735  133.3846  159.2701 H   0  0  0  0  0  0  0  0  0  0  0  0  # atno 6907 bound_to 6896
  150.9632  134.9018  159.7754 H   0  0  0  0  0  0  0  0  0  0  0  0  # atno 6908 bound_to 6896
  152.5157  134.3695  159.9365 H   0  0  0  0  0  0  0  0  0  0  0  0  # atno 6909 bound_to 6896
  146.0816  139.5405  142.9533 H   0  0  0  0  0  0  0  0  0  0  0  0  # atno 7974 bound_to 7965
  156.3003  140.2438  156.3792 H   0  0  0  0  0  0  0  0  0  0  0  0  # atno 8008 bound_to 7997
  154.8717  140.0416  157.1748 H   0  0  0  0  0  0  0  0  0  0  0  0  # atno 8009 bound_to 7997
  154.8788  140.2946  155.5441 H   0  0  0  0  0  0  0  0  0  0  0  0  # atno 8010 bound_to 7997
  140.3439  143.2927  151.9803 H   0  0  0  0  0  0  0  0  0  0  0  0  # atno 10167 bound_to 10162
  156.1912  130.6796  151.0426 H   0  0  0  0  0  0  0  0  0  0  0  0  # atno 10718 bound_to 10713
  153.8024  135.3140  155.3391 H   0  0  0  0  0  0  0  0  0  0  0  0  # atno 10763 bound_to 10752
  154.8083  135.4683  154.0454 H   0  0  0  0  0  0  0  0  0  0  0  0  # atno 10764 bound_to 10752
  153.1806  135.6893  153.8571 H   0  0  0  0  0  0  0  0  0  0  0  0  # atno 10765 bound_to 10752
  140.5894  134.5060  157.5190 H   0  0  0  0  0  0  0  0  0  0  0  0  # atno 11005 bound_to 11000
  145.6207  141.0323  143.1916 LP  0  0  0  0  0  0  0  0  0  0  0  0  # atno 17320 bound_to 7965
  144.7297  139.7764  143.7352 LP  0  0  0  0  0  0  0  0  0  0  0  0  # atno 17321 bound_to 7965
  139.4836  144.6133  151.7393 LP  0  0  0  0  0  0  0  0  0  0  0  0  # atno 17342 bound_to 10162
  140.5282  144.0771  150.6045 LP  0  0  0  0  0  0  0  0  0  0  0  0  # atno 17343 bound_to 10162
  157.6930  131.0803  150.7052 LP  0  0  0  0  0  0  0  0  0  0  0  0  # atno 17370 bound_to 10713
  156.7109  130.4651  149.5547 LP  0  0  0  0  0  0  0  0  0  0  0  0  # atno 17371 bound_to 10713
  139.9281  134.8017  156.1010 LP  0  0  0  0  0  0  0  0  0  0  0  0  # atno 17394 bound_to 11000
  141.0944  133.6701  156.2613 LP  0  0  0  0  0  0  0  0  0  0  0  0  # atno 17395 bound_to 11000

$$$$
