AV-unprocessed.smi:1193|AV-procd|sdf|4989|dock8
  -GOLD-   22720 3593D 1   1.00000     0.00000
 Structure written by MMmdl.
 38 39  0  0  0  0  0  0  0  0  1 V2000
  151.9391  138.3666  154.4590 C   0  0  0  0  0  0  0  0  0  0  0  0
  150.5513  138.2202  154.1782 O   0  0  0  0  0  0  0  0  0  0  0  0
  149.7306  139.3244  154.3095 C   0  0  0  0  0  0  0  0  0  0  0  0
  150.2905  140.5031  154.6808 N   0  0  0  0  0  0  0  0  0  0  0  0
  149.4909  141.5814  154.8119 C   0  0  0  0  0  0  0  0  0  0  0  0
  148.1026  141.5424  154.5884 C   0  0  0  0  0  0  0  0  0  0  0  0
  147.5193  140.3210  154.2036 C   0  0  0  0  0  0  0  0  0  0  0  0
  148.3477  139.1830  154.0475 C   0  0  0  0  0  0  0  0  0  0  0  0
  147.8634  137.8971  153.6800 N   0  0  0  0  0  0  0  0  0  0  0  0
  146.6557  137.3551  153.9104 C   0  0  0  0  0  0  0  0  0  0  0  0
  145.7285  137.9027  154.5066 O   0  0  0  0  0  0  0  0  0  0  0  0
  146.5725  136.1230  153.3878 N   0  0  0  0  0  0  0  0  0  0  0  0
  145.4022  135.2511  153.4680 C   0  0  0  0  0  0  0  0  0  0  0  0
  144.7425  134.9881  152.1019 C   0  0  0  0  0  0  0  0  0  0  0  0
  144.1500  135.8985  151.5192 O   0  0  0  0  0  0  0  0  0  0  0  0
  144.8239  133.7440  151.5866 N   0  0  0  0  0  0  0  0  0  0  0  0
  145.4842  132.5999  152.2146 C   0  0  0  0  0  0  0  0  0  0  0  0
  145.0791  131.3823  151.3832 C   0  0  0  0  0  0  0  0  0  0  0  0
  144.7681  131.9572  150.0082 C   0  0  0  0  0  0  0  0  0  0  0  0
  144.2407  133.3621  150.3020 C   0  0  0  0  0  0  0  0  0  0  0  0
  152.4405  137.4116  154.3025 H   0  0  0  0  0  0  0  0  0  0  0  0
  152.1076  138.6627  155.4954 H   0  0  0  0  0  0  0  0  0  0  0  0
  152.4058  139.0973  153.7965 H   0  0  0  0  0  0  0  0  0  0  0  0
  149.9717  142.5014  155.1095 H   0  0  0  0  0  0  0  0  0  0  0  0
  147.4977  142.4282  154.7143 H   0  0  0  0  0  0  0  0  0  0  0  0
  146.4520  140.2807  154.0512 H   0  0  0  0  0  0  0  0  0  0  0  0
  148.4924  137.3492  153.1114 H   0  0  0  0  0  0  0  0  0  0  0  0
  147.3833  135.7512  152.9154 H   0  0  0  0  0  0  0  0  0  0  0  0
  145.6788  134.3068  153.9398 H   0  0  0  0  0  0  0  0  0  0  0  0
  144.6724  135.7297  154.1213 H   0  0  0  0  0  0  0  0  0  0  0  0
  146.5647  132.7458  152.1727 H   0  0  0  0  0  0  0  0  0  0  0  0
  145.1963  132.4737  153.2591 H   0  0  0  0  0  0  0  0  0  0  0  0
  145.8509  130.6127  151.3562 H   0  0  0  0  0  0  0  0  0  0  0  0
  144.1770  130.9357  151.8039 H   0  0  0  0  0  0  0  0  0  0  0  0
  145.6882  132.0255  149.4263 H   0  0  0  0  0  0  0  0  0  0  0  0
  144.0601  131.3492  149.4443 H   0  0  0  0  0  0  0  0  0  0  0  0
  143.1539  133.3517  150.3958 H   0  0  0  0  0  0  0  0  0  0  0  0
  144.5061  134.0600  149.5063 H   0  0  0  0  0  0  0  0  0  0  0  0
  1  2  1  0  0  0  0
  1 21  1  0  0  0  0
  1 22  1  0  0  0  0
  1 23  1  0  0  0  0
  2  3  1  0  0  0  0
  3  8  1  0  0  0  0
  3  4  2  0  0  0  0
  4  5  1  0  0  0  0
  5  6  2  0  0  0  0
  5 24  1  0  0  0  0
  6  7  1  0  0  0  0
  6 25  1  0  0  0  0
  7  8  2  0  0  0  0
  7 26  1  0  0  0  0
  8  9  1  0  0  0  0
  9 10  1  0  0  0  0
  9 27  1  0  0  0  0
 10 11  2  0  0  0  0
 10 12  1  0  0  0  0
 12 13  1  0  0  0  0
 12 28  1  0  0  0  0
 13 14  1  0  0  0  0
 13 29  1  0  0  0  0
 13 30  1  0  0  0  0
 14 15  2  0  0  0  0
 14 16  1  0  0  0  0
 16 20  1  0  0  0  0
 16 17  1  0  0  0  0
 17 18  1  0  0  0  0
 17 31  1  0  0  0  0
 17 32  1  0  0  0  0
 18 19  1  0  0  0  0
 18 33  1  0  0  0  0
 18 34  1  0  0  0  0
 19 20  1  0  0  0  0
 19 35  1  0  0  0  0
 19 36  1  0  0  0  0
 20 37  1  0  0  0  0
 20 38  1  0  0  0  0
M  END
> <s_m_source_file>
AV-unprocessed.smi

> <i_m_source_file_index>
1193

> <i_lp_mmshare_version>
43012

> <i_f3d_flags>
0

> <s_epik_input>
W0NIM11PYzFuW2NIXVtjSF1bY0hdYzFbTkhdQyg9TylbTkhdW0NIMl1DKD1PKU4yW0NIMl1bQ0gyXVtDSDJdW0NIMl0y

> <s_epik_cmdline>
J2VwaWtfcHl0aG9uJywgJy1waCcsICc3LjAnLCAnLXRuJywgJzgnLCAnLW1hJywgJzIwMCcsICctbWV0YWxfYmluZGluZycsICctaW1hZScsICc8aW5maWxlLm1hZT4nLCAnLW9tYWUnLCAnPG91dGZpbGUubWFlPic=

> <r_lp_tautomer_probability>
1

> <r_epik_Ionization_Penalty>
0.000141665

> <r_epik_Ionization_Penalty_Charging>
0

> <r_epik_Ionization_Penalty_Neutral>
0.000141665

> <r_epik_State_Penalty>
-0

> <r_epik_Charging_Adjusted_Penalty>
0

> <i_epik_Tot_Q>
0

> <i_epik_Tot_abs_Q>
0

> <r_epik_Metal_State_Penalty>
-0

> <b_epik_Metal_Only>
0

> <s_lp_Force_Field>
OPLS_2005

> <r_lp_Energy>
26.7485

> <b_lp_Chiralities_Consistent>
1

> <s_lp_Variant>
AV-unprocessed.smi:1193-1

> <Gold.Version>
5.8.1

> <Gold.Id.Protein>
6NUR|6NUR_protein|mol2

> <Gold.PLP.Fitness>
44.0286

> <Gold.PLP.PLP>
-33.0833

> <Gold.PLP.part.hbond>
-3.0000

> <Gold.PLP.part.metal>
0.0000

> <Gold.PLP.part.buried>
-6.1024

> <Gold.PLP.part.nonpolar>
-25.9603

> <Gold.PLP.part.repulsive>
1.4428

> <Gold.PLP.ligand.clash>
0.0000

> <Gold.PLP.ligand.torsion>
0.2824

> <Gold.PLP.Chemscore.Hbond>
2.8880

> <Gold.PLP.Chemscore.CHOScore>
0.9466

> <Gold.PLP.Chemscore.Metal>
0.0000

> <Gold.Chemscore.Hbonds>
donor molecule, donor type, donor heavy atom, donor atom, acceptor molecule, acceptor atom, score
      L1  H     9    27       P1  7948  1.00
      L1  H    12    28       P1  7948  0.90
      P1  H  7989  7998       L1     4  0.96
      L1  C     5    24       P1  8028  0.96

> <Gold.PLP.Chemscore.Internal.Correction>
0.0064

> <Gold.Rescore>
     Score         DG    S(hbond)    S(metal)    S(lipo)     H(rot)  DE(clash)    DE(int)     intcor
     16.43     -17.63       2.38        0.00      70.41       1.58       0.06       1.14       ----

> <Gold.Chemscore.Fitness>
16.4282

> <Gold.Chemscore.DG>
-17.6329

> <Gold.Chemscore.ZeroCoef>
-5.4800

> <Gold.Chemscore.Hbond>
2.3835

> <Gold.Chemscore.Metal>
0.0000

> <Gold.Chemscore.Lipo>
70.4100

> <Gold.Chemscore.Internal_Hbond>
0.0000

> <Gold.Chemscore.DEClash>
0.0621

> <Gold.Chemscore.DEInternal>
1.1425

> <Gold.Chemscore.Rot>
1.5804

> <Gold.Chemscore.Internal.Correction>
   9.000000E+99

> <Gold.Chemscore.Hbonds>
donor molecule, donor type, donor heavy atom, donor atom, acceptor molecule, acceptor atom, score
      L1  H     9    27       P1  7948  0.99
      L1  H    12    28       P1  7948  0.87
      P1  H  7989  7998       L1     4  0.42

> <Gold.Chemscore.Hbond.Weighted>
-7.9608

> <Gold.Chemscore.Metal.Weighted>
-0.0000

> <Gold.Chemscore.Lipo.Weighted>
-8.2380

> <Gold.Chemscore.Internal_Hbond.Weighted>
0.0000

> <Gold.Chemscore.DEClash.Weighted>
0.0621

> <Gold.Chemscore.DEInternal.Weighted>
1.1425

> <Gold.Chemscore.Rot.Weighted>
4.0459

> <Gold.Chemscore.Internal.Correction.Weighted>
   9.000000E+99

> <Gold.Protein.RotatedTorsions>
[ 6907 6896 6895 6894 ] final  135.16 input  -60.11 | X-H torsion
[ 7974 7965 7964 7962 ] final -168.95 input  175.53 | X-H torsion
[ 8008 7997 7996 7995 ] final   35.63 input   59.86 | X-H torsion
[ 10167 10162 10161 10158 ] final  -11.28 input  -65.29 | X-H torsion
[ 10718 10713 10712 10709 ] final -160.81 input   66.30 | X-H torsion
[ 10763 10752 10751 10750 ] final   90.77 input  -60.55 | X-H torsion
[ 11005 11000 10999 10996 ] final  107.18 input  -57.11 | X-H torsion

> <Gold.Protein.ActiveResidues>
 VAL166  LYS551  ARG553  GLY616  TRP617  ASP618  TYR619  PRO620  LYS621  CYS622 
 ASP623  PHE694  ASN695  SER759  ASP760  ASP761  ALA762  ILE779  LEU786  VAL792 
 PHE793  MET794  SER795  GLU796  ALA797  LYS798  CYS799  TRP800  GLU811  SER814 

> <Gold.Protein.RotatedAtoms>
  152.3034  133.5679  159.5633 H   0  0  0  0  0  0  0  0  0  0  0  0  # atno 6907 bound_to 6896
  150.7288  134.0257  159.3725 H   0  0  0  0  0  0  0  0  0  0  0  0  # atno 6908 bound_to 6896
  151.8156  135.0668  160.0469 H   0  0  0  0  0  0  0  0  0  0  0  0  # atno 6909 bound_to 6896
  144.7194  140.2294  143.6306 H   0  0  0  0  0  0  0  0  0  0  0  0  # atno 7974 bound_to 7965
  155.1743  140.3294  155.4387 H   0  0  0  0  0  0  0  0  0  0  0  0  # atno 8008 bound_to 7997
  156.2499  140.1938  156.6794 H   0  0  0  0  0  0  0  0  0  0  0  0  # atno 8009 bound_to 7997
  154.6316  140.0582  156.9725 H   0  0  0  0  0  0  0  0  0  0  0  0  # atno 8010 bound_to 7997
  140.7134  143.5657  150.9147 H   0  0  0  0  0  0  0  0  0  0  0  0  # atno 10167 bound_to 10162
  156.5874  130.8755  151.2881 H   0  0  0  0  0  0  0  0  0  0  0  0  # atno 10718 bound_to 10713
  153.2011  135.4422  155.0267 H   0  0  0  0  0  0  0  0  0  0  0  0  # atno 10763 bound_to 10752
  154.8147  135.3310  154.7211 H   0  0  0  0  0  0  0  0  0  0  0  0  # atno 10764 bound_to 10752
  153.7656  135.6988  153.4972 H   0  0  0  0  0  0  0  0  0  0  0  0  # atno 10765 bound_to 10752
  139.8824  134.9393  156.5780 H   0  0  0  0  0  0  0  0  0  0  0  0  # atno 11005 bound_to 11000
  145.8425  139.2137  143.1819 LP  0  0  0  0  0  0  0  0  0  0  0  0  # atno 17320 bound_to 7965
  146.0333  140.8236  142.9865 LP  0  0  0  0  0  0  0  0  0  0  0  0  # atno 17321 bound_to 7965
  139.9383  143.6412  152.3060 LP  0  0  0  0  0  0  0  0  0  0  0  0  # atno 17342 bound_to 10162
  139.6888  144.7649  151.1476 LP  0  0  0  0  0  0  0  0  0  0  0  0  # atno 17343 bound_to 10162
  157.7312  130.9696  150.1868 LP  0  0  0  0  0  0  0  0  0  0  0  0  # atno 17370 bound_to 10713
  156.2579  130.3707  149.8162 LP  0  0  0  0  0  0  0  0  0  0  0  0  # atno 17371 bound_to 10713
  140.8048  133.8476  155.8758 LP  0  0  0  0  0  0  0  0  0  0  0  0  # atno 17394 bound_to 11000
  140.9560  134.1717  157.4691 LP  0  0  0  0  0  0  0  0  0  0  0  0  # atno 17395 bound_to 11000

$$$$
