AV-unprocessed.smi:1013|AV-procd|sdf|4429|dock9
  -GOLD-   22720 2383D 1   1.00000     0.00000
 Structure written by MMmdl.
 29 30  0  0  0  0  0  0  0  0  2 V2000
  152.6468  137.9325  155.9696 O   0  0  0  0  0  0  0  0  0  0  0  0
  152.1532  139.0746  155.8319 C   0  0  0  0  0  0  0  0  0  0  0  0
  152.5884  139.9590  155.0626 O   0  5  0  0  0  0  0  0  0  0  0  0
  150.9085  139.4301  156.6568 C   0  0  1  0  0  0  0  0  0  0  0  0
  151.2613  139.3627  158.1623 C   0  0  0  0  0  0  0  0  0  0  0  0
  151.9488  140.5432  158.6518 N   0  0  0  0  0  0  0  0  0  0  0  0
  153.1452  140.6164  159.3313 C   0  0  0  0  0  0  0  0  0  0  0  0
  153.3842  141.9355  159.5897 C   0  0  0  0  0  0  0  0  0  0  0  0
  152.2588  142.6079  159.0300 C   0  0  0  0  0  0  0  0  0  0  0  0
  151.9678  144.0851  159.0096 C   0  0  0  0  0  0  0  0  0  0  0  0
  150.7183  144.2981  158.5970 F   0  0  0  0  0  0  0  0  0  0  0  0
  152.1091  144.6010  160.2307 F   0  0  0  0  0  0  0  0  0  0  0  0
  152.8105  144.7046  158.1832 F   0  0  0  0  0  0  0  0  0  0  0  0
  151.3999  141.7639  158.4747 N   0  0  0  0  0  0  0  0  0  0  0  0
  150.3928  140.7544  156.2678 N   0  0  0  0  0  0  0  0  0  0  0  0
  149.0835  140.6567  155.6471 C   0  0  0  0  0  0  0  0  0  0  0  0
  148.9909  139.9455  154.3182 C   0  0  0  0  0  0  0  0  0  0  0  0
  148.8634  141.4500  154.3821 C   0  0  0  0  0  0  0  0  0  0  0  0
  150.1617  138.6703  156.4193 H   0  0  0  0  0  0  0  0  0  0  0  0
  150.3564  139.2432  158.7609 H   0  0  0  0  0  0  0  0  0  0  0  0
  151.8808  138.4884  158.3684 H   0  0  0  0  0  0  0  0  0  0  0  0
  153.7222  139.7342  159.5661 H   0  0  0  0  0  0  0  0  0  0  0  0
  154.2354  142.3577  160.1026 H   0  0  0  0  0  0  0  0  0  0  0  0
  151.0317  141.2036  155.6268 H   0  0  0  0  0  0  0  0  0  0  0  0
  148.2054  140.5692  156.2820 H   0  0  0  0  0  0  0  0  0  0  0  0
  149.9063  139.5352  153.8957 H   0  0  0  0  0  0  0  0  0  0  0  0
  148.0886  139.3701  154.1214 H   0  0  0  0  0  0  0  0  0  0  0  0
  147.8754  141.8773  154.2237 H   0  0  0  0  0  0  0  0  0  0  0  0
  149.6932  142.0405  153.9983 H   0  0  0  0  0  0  0  0  0  0  0  0
  1  2  2  0  0  0  0
  2  3  1  0  0  0  0
  2  4  1  0  0  0  0
  4  5  1  0  0  0  0
  4 15  1  0  0  0  0
  4 19  1  0  0  0  0
  5  6  1  0  0  0  0
  5 20  1  0  0  0  0
  5 21  1  0  0  0  0
  6 14  1  0  0  0  0
  6  7  1  0  0  0  0
  7  8  2  0  0  0  0
  7 22  1  0  0  0  0
  8  9  1  0  0  0  0
  8 23  1  0  0  0  0
  9 10  1  0  0  0  0
  9 14  2  0  0  0  0
 10 11  1  0  0  0  0
 10 12  1  0  0  0  0
 10 13  1  0  0  0  0
 15 16  1  0  0  0  0
 15 24  1  0  0  0  0
 16 18  1  0  0  0  0
 16 17  1  0  0  0  0
 16 25  1  0  0  0  0
 17 18  1  0  0  0  0
 17 26  1  0  0  0  0
 17 27  1  0  0  0  0
 18 28  1  0  0  0  0
 18 29  1  0  0  0  0
M  CHG  1   3  -1
M  END
> <s_m_source_file>
AV-unprocessed.smi

> <i_m_source_file_index>
1013

> <i_lp_mmshare_version>
43012

> <i_f3d_flags>
0

> <s_epik_input>
W0NIMl0xW0NIMl1bQ0hdMVtOSF1bQ0BIXShDKD1PKVtPSF0pW0NIMl1uMltjSF1bY0hdYyhuMilDKEYpKEYpRg==

> <s_epik_cmdline>
J2VwaWtfcHl0aG9uJywgJy1waCcsICc3LjAnLCAnLXRuJywgJzgnLCAnLW1hJywgJzIwMCcsICctbWV0YWxfYmluZGluZycsICctaW1hZScsICc8aW5maWxlLm1hZT4nLCAnLW9tYWUnLCAnPG91dGZpbGUubWFlPic=

> <r_lp_tautomer_probability>
1

> <r_epik_Ionization_Penalty>
0.786284

> <r_epik_Ionization_Penalty_Charging>
0.00153368

> <r_epik_Ionization_Penalty_Neutral>
0.78475

> <r_epik_State_Penalty>
0.814638

> <r_epik_Charging_Adjusted_Penalty>
0.816172

> <i_epik_Tot_Q>
-1

> <i_epik_Tot_abs_Q>
1

> <r_epik_Metal_State_Penalty>
0.814638

> <b_epik_Metal_Only>
0

> <s_lp_Force_Field>
OPLS_2005

> <r_lp_Energy>
17.111

> <b_lp_Chiralities_Consistent>
1

> <s_lp_Variant>
AV-unprocessed.smi:1013-4

> <Gold.Version>
5.8.1

> <Gold.Id.Protein>
6NUR|6NUR_protein|mol2

> <Gold.PLP.Fitness>
45.2070

> <Gold.PLP.PLP>
-40.3687

> <Gold.PLP.part.hbond>
-2.0000

> <Gold.PLP.part.metal>
0.0000

> <Gold.PLP.part.buried>
-4.8271

> <Gold.PLP.part.nonpolar>
-34.3721

> <Gold.PLP.part.repulsive>
0.0193

> <Gold.PLP.ligand.clash>
0.0000

> <Gold.PLP.ligand.torsion>
1.6026

> <Gold.PLP.Chemscore.Hbond>
2.4586

> <Gold.PLP.Chemscore.CHOScore>
0.0000

> <Gold.PLP.Chemscore.Metal>
0.0000

> <Gold.Chemscore.Hbonds>
donor molecule, donor type, donor heavy atom, donor atom, acceptor molecule, acceptor atom, score
      P1  H  7989  7998       L1     3  0.54
      P1  H  7997  8008       L1     3  1.53

> <Gold.PLP.Chemscore.Internal.Correction>
0.6677

> <Gold.Rescore>
     Score         DG    S(hbond)    S(metal)    S(lipo)     H(rot)  DE(clash)    DE(int)     intcor
      8.49      -9.85       0.78        0.00      70.06       2.52       0.00       1.36       ----

> <Gold.Chemscore.Fitness>
8.4903

> <Gold.Chemscore.DG>
-9.8537

> <Gold.Chemscore.ZeroCoef>
-5.4800

> <Gold.Chemscore.Hbond>
0.7833

> <Gold.Chemscore.Metal>
0.0000

> <Gold.Chemscore.Lipo>
70.0649

> <Gold.Chemscore.Internal_Hbond>
0.0000

> <Gold.Chemscore.DEClash>
0.0044

> <Gold.Chemscore.DEInternal>
1.3590

> <Gold.Chemscore.Rot>
2.5157

> <Gold.Chemscore.Internal.Correction>
   9.000000E+99

> <Gold.Chemscore.Hbonds>
donor molecule, donor type, donor heavy atom, donor atom, acceptor molecule, acceptor atom, score
      P1  H  7989  7998       L1     3  0.51
      P1  H  7997  8008       L1     3  0.11

> <Gold.Chemscore.Hbond.Weighted>
-2.6163

> <Gold.Chemscore.Metal.Weighted>
-0.0000

> <Gold.Chemscore.Lipo.Weighted>
-8.1976

> <Gold.Chemscore.Internal_Hbond.Weighted>
0.0000

> <Gold.Chemscore.DEClash.Weighted>
0.0044

> <Gold.Chemscore.DEInternal.Weighted>
1.3590

> <Gold.Chemscore.Rot.Weighted>
6.4402

> <Gold.Chemscore.Internal.Correction.Weighted>
   9.000000E+99

> <Gold.Protein.RotatedTorsions>
[ 6907 6896 6895 6894 ] final   -4.52 input  -60.11 | X-H torsion
[ 7974 7965 7964 7962 ] final  -68.87 input  175.53 | X-H torsion
[ 8008 7997 7996 7995 ] final  -22.82 input   59.86 | X-H torsion
[ 10167 10162 10161 10158 ] final  -41.60 input  -65.29 | X-H torsion
[ 10718 10713 10712 10709 ] final  126.73 input   66.30 | X-H torsion
[ 10763 10752 10751 10750 ] final   90.42 input  -60.55 | X-H torsion
[ 11005 11000 10999 10996 ] final   60.92 input  -57.11 | X-H torsion

> <Gold.Protein.ActiveResidues>
 VAL166  LYS551  ARG553  GLY616  TRP617  ASP618  TYR619  PRO620  LYS621  CYS622 
 ASP623  PHE694  ASN695  SER759  ASP760  ASP761  ALA762  ILE779  LEU786  VAL792 
 PHE793  MET794  SER795  GLU796  ALA797  LYS798  CYS799  TRP800  GLU811  SER814 

> <Gold.Protein.RotatedAtoms>
  151.4963  135.1060  159.9816 H   0  0  0  0  0  0  0  0  0  0  0  0  # atno 6907 bound_to 6896
  152.4720  133.8047  159.6982 H   0  0  0  0  0  0  0  0  0  0  0  0  # atno 6908 bound_to 6896
  150.8735  133.7409  159.2980 H   0  0  0  0  0  0  0  0  0  0  0  0  # atno 6909 bound_to 6896
  145.7109  140.9078  143.0681 H   0  0  0  0  0  0  0  0  0  0  0  0  # atno 7974 bound_to 7965
  154.4621  140.1997  156.0216 H   0  0  0  0  0  0  0  0  0  0  0  0  # atno 8008 bound_to 7997
  156.0859  140.3265  155.7725 H   0  0  0  0  0  0  0  0  0  0  0  0  # atno 8009 bound_to 7997
  155.5035  140.0556  157.2926 H   0  0  0  0  0  0  0  0  0  0  0  0  # atno 8010 bound_to 7997
  140.6997  143.3085  151.3089 H   0  0  0  0  0  0  0  0  0  0  0  0  # atno 10167 bound_to 10162
  157.5394  131.1097  150.8883 H   0  0  0  0  0  0  0  0  0  0  0  0  # atno 10718 bound_to 10713
  153.1974  135.4434  155.0224 H   0  0  0  0  0  0  0  0  0  0  0  0  # atno 10763 bound_to 10752
  154.8126  135.3301  154.7265 H   0  0  0  0  0  0  0  0  0  0  0  0  # atno 10764 bound_to 10752
  153.7713  135.6984  153.4961 H   0  0  0  0  0  0  0  0  0  0  0  0  # atno 10765 bound_to 10752
  140.0197  134.6171  155.9657 H   0  0  0  0  0  0  0  0  0  0  0  0  # atno 11005 bound_to 11000
  144.6942  139.9074  143.7461 LP  0  0  0  0  0  0  0  0  0  0  0  0  # atno 17320 bound_to 7965
  146.0713  139.3702  143.0521 LP  0  0  0  0  0  0  0  0  0  0  0  0  # atno 17321 bound_to 7965
  139.6500  144.0380  152.2619 LP  0  0  0  0  0  0  0  0  0  0  0  0  # atno 17342 bound_to 10162
  139.9913  144.6359  150.7812 LP  0  0  0  0  0  0  0  0  0  0  0  0  # atno 17343 bound_to 10162
  156.9441  130.5395  149.5281 LP  0  0  0  0  0  0  0  0  0  0  0  0  # atno 17370 bound_to 10713
  156.0484  130.5557  150.8934 LP  0  0  0  0  0  0  0  0  0  0  0  0  # atno 17371 bound_to 10713
  141.1766  133.6541  156.4853 LP  0  0  0  0  0  0  0  0  0  0  0  0  # atno 17394 bound_to 11000
  140.4408  134.7017  157.4991 LP  0  0  0  0  0  0  0  0  0  0  0  0  # atno 17395 bound_to 11000

$$$$
