AV-unprocessed.smi:2124|AV-procd|sdf|8664|dock6
  -GOLD-   2272011413D 1   1.00000     0.00000
 Structure written by MMmdl.
 47 49  0  0  0  0  0  0  0  0  1 V2000
  150.9129  142.4571  156.4321 C   0  0  0  0  0  0  0  0  0  0  0  0
  150.0366  141.5463  155.6001 C   0  0  0  0  0  0  0  0  0  0  0  0
  148.7999  142.0895  155.2944 N   0  0  0  0  0  0  0  0  0  0  0  0
  147.9358  141.3368  154.5194 C   0  0  0  0  0  0  0  0  0  0  0  0
  146.6180  142.0214  154.2016 C   0  0  0  0  0  0  0  0  0  0  0  0
  148.2793  140.0973  154.0854 C   0  0  0  0  0  0  0  0  0  0  0  0
  147.3693  139.2519  153.1931 C   0  0  0  0  0  0  0  0  0  0  0  0
  146.7608  138.0319  153.8854 C   0  0  0  0  0  0  0  0  0  0  0  0
  146.1036  138.1665  154.9168 O   0  0  0  0  0  0  0  0  0  0  0  0
  146.9539  136.8547  153.2726 N   0  0  0  0  0  0  0  0  0  0  0  0
  146.2531  135.6114  153.5721 C   0  0  2  0  0  0  0  0  0  0  0  0
  147.1313  134.7219  154.4661 C   0  0  0  0  0  0  0  0  0  0  0  0
  145.8682  134.9159  152.2446 C   0  0  1  0  0  0  0  0  0  0  0  0
  145.3074  133.4849  152.4021 C   0  0  0  0  0  0  0  0  0  0  0  0
  144.0127  133.5273  151.5677 C   0  0  1  0  0  0  0  0  0  0  0  0
  142.9483  134.3416  152.3266 C   0  0  0  0  0  0  0  0  0  0  0  0
  143.4610  135.7860  152.1826 C   0  0  0  0  0  0  0  0  0  0  0  0
  144.7715  135.6042  151.3901 C   0  0  2  0  0  0  0  0  0  0  0  0
  144.3878  134.4779  150.4369 C   0  0  0  0  0  0  0  0  0  0  0  0
  149.6107  139.5630  154.4594 C   0  0  0  0  0  0  0  0  0  0  0  0
  149.9829  138.4485  154.0954 O   0  0  0  0  0  0  0  0  0  0  0  0
  150.4554  140.3730  155.2351 N   0  0  0  0  0  0  0  0  0  0  0  0
  148.5054  143.0082  155.5929 H   0  0  0  0  0  0  0  0  0  0  0  0
  151.9483  142.1145  156.4232 H   0  0  0  0  0  0  0  0  0  0  0  0
  150.5660  142.4737  157.4655 H   0  0  0  0  0  0  0  0  0  0  0  0
  150.8899  143.4753  156.0417 H   0  0  0  0  0  0  0  0  0  0  0  0
  146.5022  142.1462  153.1250 H   0  0  0  0  0  0  0  0  0  0  0  0
  146.5576  143.0093  154.6597 H   0  0  0  0  0  0  0  0  0  0  0  0
  145.7813  141.4297  154.5731 H   0  0  0  0  0  0  0  0  0  0  0  0
  147.9454  138.9109  152.3325 H   0  0  0  0  0  0  0  0  0  0  0  0
  146.5628  139.8517  152.7700 H   0  0  0  0  0  0  0  0  0  0  0  0
  147.5337  136.8519  152.4458 H   0  0  0  0  0  0  0  0  0  0  0  0
  145.3379  135.8372  154.1219 H   0  0  0  0  0  0  0  0  0  0  0  0
  146.6216  133.7927  154.7209 H   0  0  0  0  0  0  0  0  0  0  0  0
  147.3768  135.2270  155.4011 H   0  0  0  0  0  0  0  0  0  0  0  0
  148.0682  134.4625  153.9722 H   0  0  0  0  0  0  0  0  0  0  0  0
  146.7664  134.8623  151.6262 H   0  0  0  0  0  0  0  0  0  0  0  0
  146.0098  132.7541  151.9991 H   0  0  0  0  0  0  0  0  0  0  0  0
  145.1094  133.2143  153.4400 H   0  0  0  0  0  0  0  0  0  0  0  0
  143.6654  132.5440  151.2496 H   0  0  0  0  0  0  0  0  0  0  0  0
  141.9683  134.2349  151.8599 H   0  0  0  0  0  0  0  0  0  0  0  0
  142.8573  134.0348  153.3692 H   0  0  0  0  0  0  0  0  0  0  0  0
  142.7520  136.3854  151.6099 H   0  0  0  0  0  0  0  0  0  0  0  0
  143.6000  136.2820  153.1426 H   0  0  0  0  0  0  0  0  0  0  0  0
  145.1084  136.5152  150.8943 H   0  0  0  0  0  0  0  0  0  0  0  0
  145.2202  134.1203  149.8280 H   0  0  0  0  0  0  0  0  0  0  0  0
  143.5495  134.7284  149.7842 H   0  0  0  0  0  0  0  0  0  0  0  0
  1 24  1  0  0  0  0
  1 25  1  0  0  0  0
  1 26  1  0  0  0  0
  1  2  1  0  0  0  0
  2  3  1  0  0  0  0
  2 22  2  0  0  0  0
  3  4  1  0  0  0  0
  3 23  1  0  0  0  0
  4  6  2  0  0  0  0
  4  5  1  0  0  0  0
  5 27  1  0  0  0  0
  5 28  1  0  0  0  0
  5 29  1  0  0  0  0
  6 20  1  0  0  0  0
  6  7  1  0  0  0  0
  7  8  1  0  0  0  0
  7 30  1  0  0  0  0
  7 31  1  0  0  0  0
  8  9  2  0  0  0  0
  8 10  1  0  0  0  0
 10 11  1  0  0  0  0
 10 32  1  0  0  0  0
 11 12  1  0  0  0  0
 11 13  1  0  0  0  0
 11 33  1  0  0  0  0
 12 34  1  0  0  0  0
 12 35  1  0  0  0  0
 12 36  1  0  0  0  0
 13 18  1  0  0  0  0
 13 14  1  0  0  0  0
 13 37  1  0  0  0  0
 14 15  1  0  0  0  0
 14 38  1  0  0  0  0
 14 39  1  0  0  0  0
 15 19  1  0  0  0  0
 15 16  1  0  0  0  0
 15 40  1  0  0  0  0
 16 17  1  0  0  0  0
 16 41  1  0  0  0  0
 16 42  1  0  0  0  0
 17 18  1  0  0  0  0
 17 43  1  0  0  0  0
 17 44  1  0  0  0  0
 18 19  1  0  0  0  0
 18 45  1  0  0  0  0
 19 46  1  0  0  0  0
 19 47  1  0  0  0  0
 20 21  2  0  0  0  0
 20 22  1  0  0  0  0
M  END
> <s_m_source_file>
AV-unprocessed.smi

> <i_m_source_file_index>
2124

> <i_lp_mmshare_version>
43012

> <i_f3d_flags>
0

> <s_epik_input>
W0NIM11jMW5jKFtDSDNdKWMoYyg9TylbbkhdMSlbQ0gyXUMoPU8pW05IXVtDQEhdKFtDSDNdKVtDQEhdKFtDSDJdW0NASF0yMylbQ0BIXShbQ0gyXTMpW0NIMl1bQ0gyXTI=

> <s_epik_cmdline>
J2VwaWtfcHl0aG9uJywgJy1waCcsICc3LjAnLCAnLXRuJywgJzgnLCAnLW1hJywgJzIwMCcsICctbWV0YWxfYmluZGluZycsICctaW1hZScsICc8aW5maWxlLm1hZT4nLCAnLW9tYWUnLCAnPG91dGZpbGUubWFlPic=

> <r_lp_tautomer_probability>
0.156392

> <r_epik_Ionization_Penalty>
0.0139374

> <r_epik_Ionization_Penalty_Charging>
0.0138122

> <r_epik_Ionization_Penalty_Neutral>
0.000125146

> <r_epik_State_Penalty>
1.15342

> <r_epik_Charging_Adjusted_Penalty>
1.16723

> <i_epik_Tot_Q>
0

> <i_epik_Tot_abs_Q>
0

> <r_epik_Metal_State_Penalty>
1.3173

> <b_epik_Metal_Only>
0

> <s_lp_Force_Field>
OPLS_2005

> <r_lp_Energy>
54.2082

> <b_lp_Chiralities_Consistent>
1

> <s_lp_Variant>
AV-unprocessed.smi:2124-15

> <Gold.Version>
5.8.1

> <Gold.Id.Protein>
6NUR|6NUR_protein|mol2

> <Gold.PLP.Fitness>
42.9411

> <Gold.PLP.PLP>
-36.9683

> <Gold.PLP.part.hbond>
-2.7248

> <Gold.PLP.part.metal>
0.0000

> <Gold.PLP.part.buried>
-4.5280

> <Gold.PLP.part.nonpolar>
-30.4096

> <Gold.PLP.part.repulsive>
0.5503

> <Gold.PLP.ligand.clash>
0.0000

> <Gold.PLP.ligand.torsion>
0.5010

> <Gold.PLP.Chemscore.Hbond>
2.3111

> <Gold.PLP.Chemscore.CHOScore>
0.0000

> <Gold.PLP.Chemscore.Metal>
0.0000

> <Gold.Chemscore.Hbonds>
donor molecule, donor type, donor heavy atom, donor atom, acceptor molecule, acceptor atom, score
      L1  H     3    23       P1  8028  0.94
      L1  H    10    32       P1  7948  0.85
      P1  H  7989  7998       L1    22  0.38

> <Gold.PLP.Chemscore.Internal.Correction>
0.0415

> <Gold.Rescore>
     Score         DG    S(hbond)    S(metal)    S(lipo)     H(rot)  DE(clash)    DE(int)     intcor
     15.95     -16.34       1.90        0.00      74.72       1.65       0.13       0.26       ----

> <Gold.Chemscore.Fitness>
15.9462

> <Gold.Chemscore.DG>
-16.3388

> <Gold.Chemscore.ZeroCoef>
-5.4800

> <Gold.Chemscore.Hbond>
1.9009

> <Gold.Chemscore.Metal>
0.0000

> <Gold.Chemscore.Lipo>
74.7220

> <Gold.Chemscore.Internal_Hbond>
0.0000

> <Gold.Chemscore.DEClash>
0.1334

> <Gold.Chemscore.DEInternal>
0.2592

> <Gold.Chemscore.Rot>
1.6534

> <Gold.Chemscore.Internal.Correction>
   9.000000E+99

> <Gold.Chemscore.Hbonds>
donor molecule, donor type, donor heavy atom, donor atom, acceptor molecule, acceptor atom, score
      L1  H     3    23       P1  8028  0.91
      L1  H    10    32       P1  7948  0.85
      P1  H  7989  7998       L1    22  0.01

> <Gold.Chemscore.Hbond.Weighted>
-6.3489

> <Gold.Chemscore.Metal.Weighted>
-0.0000

> <Gold.Chemscore.Lipo.Weighted>
-8.7425

> <Gold.Chemscore.Internal_Hbond.Weighted>
0.0000

> <Gold.Chemscore.DEClash.Weighted>
0.1334

> <Gold.Chemscore.DEInternal.Weighted>
0.2592

> <Gold.Chemscore.Rot.Weighted>
4.2326

> <Gold.Chemscore.Internal.Correction.Weighted>
   9.000000E+99

> <Gold.Protein.RotatedTorsions>
[ 6907 6896 6895 6894 ] final   34.26 input  -60.11 | X-H torsion
[ 7974 7965 7964 7962 ] final   79.41 input  175.53 | X-H torsion
[ 8008 7997 7996 7995 ] final  -97.13 input   59.86 | X-H torsion
[ 10167 10162 10161 10158 ] final   45.07 input  -65.29 | X-H torsion
[ 10718 10713 10712 10709 ] final -121.29 input   66.30 | X-H torsion
[ 10763 10752 10751 10750 ] final   34.53 input  -60.55 | X-H torsion
[ 11005 11000 10999 10996 ] final  132.10 input  -57.11 | X-H torsion

> <Gold.Protein.ActiveResidues>
 VAL166  LYS551  ARG553  GLY616  TRP617  ASP618  TYR619  PRO620  LYS621  CYS622 
 ASP623  PHE694  ASN695  SER759  ASP760  ASP761  ALA762  ILE779  LEU786  VAL792 
 PHE793  MET794  SER795  GLU796  ALA797  LYS798  CYS799  TRP800  GLU811  SER814 

> <Gold.Protein.RotatedAtoms>
  152.1000  134.9348  160.0569 H   0  0  0  0  0  0  0  0  0  0  0  0  # atno 6907 bound_to 6896
  152.0567  133.4038  159.4408 H   0  0  0  0  0  0  0  0  0  0  0  0  # atno 6908 bound_to 6896
  150.6839  134.3167  159.4813 H   0  0  0  0  0  0  0  0  0  0  0  0  # atno 6909 bound_to 6896
  145.6646  139.2480  143.1903 H   0  0  0  0  0  0  0  0  0  0  0  0  # atno 7974 bound_to 7965
  154.7837  140.0465  157.1147 H   0  0  0  0  0  0  0  0  0  0  0  0  # atno 8008 bound_to 7997
  154.9674  140.3085  155.4984 H   0  0  0  0  0  0  0  0  0  0  0  0  # atno 8009 bound_to 7997
  156.2940  140.2259  156.4764 H   0  0  0  0  0  0  0  0  0  0  0  0  # atno 8010 bound_to 7997
  140.3279  144.2625  150.6172 H   0  0  0  0  0  0  0  0  0  0  0  0  # atno 10167 bound_to 10162
  156.1325  130.6406  150.9644 H   0  0  0  0  0  0  0  0  0  0  0  0  # atno 10718 bound_to 10713
  153.0160  135.6358  154.1684 H   0  0  0  0  0  0  0  0  0  0  0  0  # atno 10763 bound_to 10752
  154.1423  135.2834  155.3159 H   0  0  0  0  0  0  0  0  0  0  0  0  # atno 10764 bound_to 10752
  154.6115  135.5554  153.7540 H   0  0  0  0  0  0  0  0  0  0  0  0  # atno 10765 bound_to 10752
  139.9770  134.9560  156.9533 H   0  0  0  0  0  0  0  0  0  0  0  0  # atno 11005 bound_to 11000
  146.1097  140.7444  142.9509 LP  0  0  0  0  0  0  0  0  0  0  0  0  # atno 17320 bound_to 7965
  144.7077  140.3919  143.7105 LP  0  0  0  0  0  0  0  0  0  0  0  0  # atno 17321 bound_to 7965
  140.5424  143.2221  151.8062 LP  0  0  0  0  0  0  0  0  0  0  0  0  # atno 17342 bound_to 10162
  139.4862  144.4583  151.9572 LP  0  0  0  0  0  0  0  0  0  0  0  0  # atno 17343 bound_to 10162
  157.6502  131.0898  150.8068 LP  0  0  0  0  0  0  0  0  0  0  0  0  # atno 17370 bound_to 10713
  156.8151  130.4965  149.5350 LP  0  0  0  0  0  0  0  0  0  0  0  0  # atno 17371 bound_to 10713
  140.5175  134.0940  155.7284 LP  0  0  0  0  0  0  0  0  0  0  0  0  # atno 17394 bound_to 11000
  141.1446  133.9078  157.2247 LP  0  0  0  0  0  0  0  0  0  0  0  0  # atno 17395 bound_to 11000

$$$$
