AV-unprocessed.smi:1555|AV-procd|sdf|6266|dock8
  -GOLD-   22720 6453D 1   1.00000     0.00000
 Structure written by MMmdl.
 41 42  0  0  0  0  0  0  0  0  1 V2000
  151.3301  138.3072  156.6333 C   0  0  0  0  0  0  0  0  0  0  0  0
  150.5829  139.5956  156.2518 C   0  0  2  0  0  0  0  0  0  0  0  0
  150.4378  139.7807  154.7253 C   0  0  0  0  0  0  0  0  0  0  0  0
  149.1828  140.4066  154.3551 N   0  0  0  0  0  0  0  0  0  0  0  0
  148.0893  139.7945  153.7573 C   0  0  0  0  0  0  0  0  0  0  0  0
  147.1321  140.7705  153.5953 C   0  0  0  0  0  0  0  0  0  0  0  0
  147.6113  141.9829  154.0864 N   0  0  0  0  0  0  0  0  0  0  0  0
  148.8292  141.6884  154.5230 C   0  0  0  0  0  0  0  0  0  0  0  0
  151.2770  140.7385  156.8379 N   0  0  0  0  0  0  0  0  0  0  0  0
  151.7720  140.8007  158.0864 C   0  0  0  0  0  0  0  0  0  0  0  0
  151.6717  139.8611  158.8770 O   0  0  0  0  0  0  0  0  0  0  0  0
  152.3821  141.9727  158.3980 N   0  0  0  0  0  0  0  0  0  0  0  0
  152.0992  143.2914  157.8064 C   0  0  0  0  0  0  0  0  0  0  0  0
  151.3538  144.1499  158.8437 C   0  0  0  0  0  0  0  0  0  0  0  0
  152.1667  144.2821  160.1532 C   0  0  0  0  0  0  0  0  0  0  0  0
  151.3909  145.0359  161.2487 C   0  0  0  0  0  0  0  0  0  0  0  0
  150.1920  144.3614  161.5686 O   0  0  0  0  0  0  0  0  0  0  0  0
  152.6251  142.8928  160.6503 C   0  0  0  0  0  0  0  0  0  0  0  0
  153.3108  142.0908  159.5286 C   0  0  0  0  0  0  0  0  0  0  0  0
  150.7958  137.4189  156.2958 H   0  0  0  0  0  0  0  0  0  0  0  0
  151.4418  138.2244  157.7149 H   0  0  0  0  0  0  0  0  0  0  0  0
  152.3275  138.2836  156.1928 H   0  0  0  0  0  0  0  0  0  0  0  0
  149.5860  139.5372  156.6930 H   0  0  0  0  0  0  0  0  0  0  0  0
  151.2468  140.3991  154.3346 H   0  0  0  0  0  0  0  0  0  0  0  0
  150.5097  138.8176  154.2174 H   0  0  0  0  0  0  0  0  0  0  0  0
  148.0839  138.7447  153.5028 H   0  0  0  0  0  0  0  0  0  0  0  0
  146.1432  140.6934  153.1685 H   0  0  0  0  0  0  0  0  0  0  0  0
  149.4813  142.4240  154.9706 H   0  0  0  0  0  0  0  0  0  0  0  0
  151.3954  141.5485  156.2470 H   0  0  0  0  0  0  0  0  0  0  0  0
  153.0411  143.7715  157.5369 H   0  0  0  0  0  0  0  0  0  0  0  0
  151.5261  143.2491  156.8804 H   0  0  0  0  0  0  0  0  0  0  0  0
  151.1542  145.1362  158.4238 H   0  0  0  0  0  0  0  0  0  0  0  0
  150.3820  143.7007  159.0534 H   0  0  0  0  0  0  0  0  0  0  0  0
  153.0687  144.8536  159.9280 H   0  0  0  0  0  0  0  0  0  0  0  0
  151.9958  145.1452  162.1493 H   0  0  0  0  0  0  0  0  0  0  0  0
  151.1343  146.0400  160.9096 H   0  0  0  0  0  0  0  0  0  0  0  0
  149.7766  144.8118  162.2882 H   0  0  0  0  0  0  0  0  0  0  0  0
  153.3081  143.0047  161.4929 H   0  0  0  0  0  0  0  0  0  0  0  0
  151.7663  142.3315  161.0214 H   0  0  0  0  0  0  0  0  0  0  0  0
  153.6377  141.1230  159.9111 H   0  0  0  0  0  0  0  0  0  0  0  0
  154.2183  142.6006  159.2020 H   0  0  0  0  0  0  0  0  0  0  0  0
  1  2  1  0  0  0  0
  1 20  1  0  0  0  0
  1 21  1  0  0  0  0
  1 22  1  0  0  0  0
  2  3  1  0  0  0  0
  2  9  1  0  0  0  0
  2 23  1  0  0  0  0
  3  4  1  0  0  0  0
  3 24  1  0  0  0  0
  3 25  1  0  0  0  0
  4  8  1  0  0  0  0
  4  5  1  0  0  0  0
  5  6  2  0  0  0  0
  5 26  1  0  0  0  0
  6  7  1  0  0  0  0
  6 27  1  0  0  0  0
  7  8  2  0  0  0  0
  8 28  1  0  0  0  0
  9 10  1  0  0  0  0
  9 29  1  0  0  0  0
 10 11  2  0  0  0  0
 10 12  1  0  0  0  0
 12 19  1  0  0  0  0
 12 13  1  0  0  0  0
 13 14  1  0  0  0  0
 13 30  1  0  0  0  0
 13 31  1  0  0  0  0
 14 15  1  0  0  0  0
 14 32  1  0  0  0  0
 14 33  1  0  0  0  0
 15 16  1  0  0  0  0
 15 18  1  0  0  0  0
 15 34  1  0  0  0  0
 16 17  1  0  0  0  0
 16 35  1  0  0  0  0
 16 36  1  0  0  0  0
 17 37  1  0  0  0  0
 18 19  1  0  0  0  0
 18 38  1  0  0  0  0
 18 39  1  0  0  0  0
 19 40  1  0  0  0  0
 19 41  1  0  0  0  0
M  END
> <s_m_source_file>
AV-unprocessed.smi

> <i_m_source_file_index>
1555

> <i_lp_mmshare_version>
43012

> <i_f3d_flags>
0

> <s_epik_input>
W2NIXTFuW2NIXVtjSF1uMVtDSDJdW0NAQEhdKFtDSDNdKVtOSF1DKD1PKU4yW0NIMl1bQ0gyXVtDSF0oW0NIMl1bT0hdKVtDSDJdW0NIMl0y

> <s_epik_cmdline>
J2VwaWtfcHl0aG9uJywgJy1waCcsICc3LjAnLCAnLXRuJywgJzgnLCAnLW1hJywgJzIwMCcsICctbWV0YWxfYmluZGluZycsICctaW1hZScsICc8aW5maWxlLm1hZT4nLCAnLW9tYWUnLCAnPG91dGZpbGUubWFlPic=

> <r_lp_tautomer_probability>
1

> <r_epik_Ionization_Penalty>
0.625883

> <r_epik_Ionization_Penalty_Charging>
0.625812

> <r_epik_Ionization_Penalty_Neutral>
7.07114e-05

> <r_epik_State_Penalty>
0.642234

> <r_epik_Charging_Adjusted_Penalty>
1.26805

> <i_epik_Tot_Q>
0

> <i_epik_Tot_abs_Q>
0

> <r_epik_Metal_State_Penalty>
0.307949

> <b_epik_Metal_Only>
0

> <s_lp_Force_Field>
OPLS_2005

> <r_lp_Energy>
32.8415

> <b_lp_Chiralities_Consistent>
1

> <s_lp_Variant>
AV-unprocessed.smi:1555-3

> <Gold.Version>
5.8.1

> <Gold.Id.Protein>
6NUR|6NUR_protein|mol2

> <Gold.PLP.Fitness>
40.7150

> <Gold.PLP.PLP>
-36.8323

> <Gold.PLP.part.hbond>
-3.0000

> <Gold.PLP.part.metal>
0.0000

> <Gold.PLP.part.buried>
0.8344

> <Gold.PLP.part.nonpolar>
-33.9493

> <Gold.PLP.part.repulsive>
0.2526

> <Gold.PLP.ligand.clash>
0.0000

> <Gold.PLP.ligand.torsion>
1.0128

> <Gold.PLP.Chemscore.Hbond>
0.0000

> <Gold.PLP.Chemscore.CHOScore>
1.9471

> <Gold.PLP.Chemscore.Metal>
0.0000

> <Gold.Chemscore.Hbonds>
donor molecule, donor type, donor heavy atom, donor atom, acceptor molecule, acceptor atom, score
      L1  C     6    27       P1 10175  0.93
      L1  C     8    28       P1  8028  0.93

> <Gold.PLP.Chemscore.Internal.Correction>
0.0669

> <Gold.Rescore>
     Score         DG    S(hbond)    S(metal)    S(lipo)     H(rot)  DE(clash)    DE(int)     intcor
      6.99     -10.26       0.00        0.00      95.20       2.49       1.05       2.21       ----

> <Gold.Chemscore.Fitness>
6.9910

> <Gold.Chemscore.DG>
-10.2583

> <Gold.Chemscore.ZeroCoef>
-5.4800

> <Gold.Chemscore.Hbond>
0.0017

> <Gold.Chemscore.Metal>
0.0000

> <Gold.Chemscore.Lipo>
95.2029

> <Gold.Chemscore.Internal_Hbond>
0.0000

> <Gold.Chemscore.DEClash>
1.0547

> <Gold.Chemscore.DEInternal>
2.2125

> <Gold.Chemscore.Rot>
2.4867

> <Gold.Chemscore.Internal.Correction>
   9.000000E+99

> <Gold.Chemscore.Hbond.Weighted>
-0.0056

> <Gold.Chemscore.Metal.Weighted>
-0.0000

> <Gold.Chemscore.Lipo.Weighted>
-11.1387

> <Gold.Chemscore.Internal_Hbond.Weighted>
0.0000

> <Gold.Chemscore.DEClash.Weighted>
1.0547

> <Gold.Chemscore.DEInternal.Weighted>
2.2125

> <Gold.Chemscore.Rot.Weighted>
6.3660

> <Gold.Chemscore.Internal.Correction.Weighted>
   9.000000E+99

> <Gold.Protein.RotatedTorsions>
[ 6907 6896 6895 6894 ] final  125.60 input  -60.11 | X-H torsion
[ 7974 7965 7964 7962 ] final   61.64 input  175.53 | X-H torsion
[ 8008 7997 7996 7995 ] final  -67.70 input   59.86 | X-H torsion
[ 10167 10162 10161 10158 ] final   35.38 input  -65.29 | X-H torsion
[ 10718 10713 10712 10709 ] final    5.59 input   66.30 | X-H torsion
[ 10763 10752 10751 10750 ] final   67.28 input  -60.55 | X-H torsion
[ 11005 11000 10999 10996 ] final -124.51 input  -57.11 | X-H torsion

> <Gold.Protein.ActiveResidues>
 VAL166  LYS551  ARG553  GLY616  TRP617  ASP618  TYR619  PRO620  LYS621  CYS622 
 ASP623  PHE694  ASN695  SER759  ASP760  ASP761  ALA762  ILE779  LEU786  VAL792 
 PHE793  MET794  SER795  GLU796  ALA797  LYS798  CYS799  TRP800  GLU811  SER814 

> <Gold.Protein.RotatedAtoms>
  152.3977  133.6772  159.6290 H   0  0  0  0  0  0  0  0  0  0  0  0  # atno 6907 bound_to 6896
  150.7874  133.8845  159.3304 H   0  0  0  0  0  0  0  0  0  0  0  0  # atno 6908 bound_to 6896
  151.6617  135.0990  160.0232 H   0  0  0  0  0  0  0  0  0  0  0  0  # atno 6909 bound_to 6896
  145.8825  139.3453  143.0697 H   0  0  0  0  0  0  0  0  0  0  0  0  # atno 7974 bound_to 7965
  154.4817  140.0887  156.7393 H   0  0  0  0  0  0  0  0  0  0  0  0  # atno 8008 bound_to 7997
  155.4453  140.3455  155.4276 H   0  0  0  0  0  0  0  0  0  0  0  0  # atno 8009 bound_to 7997
  156.1201  140.1472  156.9204 H   0  0  0  0  0  0  0  0  0  0  0  0  # atno 8010 bound_to 7997
  140.4227  144.1437  150.6150 H   0  0  0  0  0  0  0  0  0  0  0  0  # atno 10167 bound_to 10162
  156.9096  130.5751  149.5647 H   0  0  0  0  0  0  0  0  0  0  0  0  # atno 10718 bound_to 10713
  153.0179  135.5289  154.6955 H   0  0  0  0  0  0  0  0  0  0  0  0  # atno 10763 bound_to 10752
  154.6078  135.2875  155.0467 H   0  0  0  0  0  0  0  0  0  0  0  0  # atno 10764 bound_to 10752
  154.1500  135.6564  153.5014 H   0  0  0  0  0  0  0  0  0  0  0  0  # atno 10765 bound_to 10752
  140.9835  134.0640  157.3738 H   0  0  0  0  0  0  0  0  0  0  0  0  # atno 11005 bound_to 11000
  145.9006  140.9245  143.0505 LP  0  0  0  0  0  0  0  0  0  0  0  0  # atno 17320 bound_to 7965
  144.6727  140.1028  143.7459 LP  0  0  0  0  0  0  0  0  0  0  0  0  # atno 17321 bound_to 7965
  140.4516  143.2484  151.9340 LP  0  0  0  0  0  0  0  0  0  0  0  0  # atno 17342 bound_to 10162
  139.4783  144.5557  151.8318 LP  0  0  0  0  0  0  0  0  0  0  0  0  # atno 17343 bound_to 10162
  156.0542  130.5606  150.9056 LP  0  0  0  0  0  0  0  0  0  0  0  0  # atno 17370 bound_to 10713
  157.5976  131.0942  150.9015 LP  0  0  0  0  0  0  0  0  0  0  0  0  # atno 17371 bound_to 10713
  139.8960  135.0144  156.7031 LP  0  0  0  0  0  0  0  0  0  0  0  0  # atno 17394 bound_to 11000
  140.7150  133.9190  155.8109 LP  0  0  0  0  0  0  0  0  0  0  0  0  # atno 17395 bound_to 11000

$$$$
