#       Name:                AV-unprocessed.smi:1963
#       Creating user name   scv26
#       Creation time:       Fri Mar 27 10:09:33 2020


#       File generated by GOLD software.
#

@<TRIPOS>MOLECULE
AV-unprocessed.smi:1963
    55    56     1
SMALL
NO_CHARGES


@<TRIPOS>ATOM
      1 ****        -4.6369  -2.4077  -3.2866 C.3            1 S1                 0.0000
      2 ****        -4.0607  -1.4413  -2.2579 C.2            1 S1                 0.0000
      3 ****        -3.8160  -0.2768  -2.5727 O.2            1 S1                 0.0000
      4 ****        -3.8509  -1.9376  -1.0284 N.am           1 S1                 0.0000
      5 ****        -3.2943  -1.1927   0.1035 C.3            1 S1                 0.0000
      6 ****        -1.7582  -1.1710  -0.0232 C.2            1 S1                 0.0000
      7 ****        -1.1439  -2.2171  -0.2367 O.2            1 S1                 0.0000
      8 ****        -1.1828   0.0382   0.1100 N.am           1 S1                 0.0000
      9 ****         0.1974   0.3733   0.0796 C.ar           1 S1                 0.0000
     10 ****         0.5467   1.7094  -0.1998 C.ar           1 S1                 0.0000
     11 ****         1.9051   2.0784  -0.2044 C.ar           1 S1                 0.0000
     12 ****         2.8763   1.0926   0.0836 C.ar           1 S1                 0.0000
     13 ****         4.2453   1.3918   0.1006 N.3            1 S1                 0.0000
     14 ****         4.6189   2.4306   1.0524 C.3            1 S1                 0.0000
     15 ****         6.1492   2.5831   1.0857 C.3            1 S1                 0.0000
     16 ****         6.6276   2.8574  -0.2284 O.3            1 S1                 0.0000
     17 ****         6.3230   1.8043  -1.1392 C.3            1 S1                 0.0000
     18 ****         4.7977   1.6195  -1.2279 C.3            1 S1                 0.0000
     19 ****         2.5503  -0.1888   0.3579 N.ar           1 S1                 0.0000
     20 ****         1.2456  -0.5368   0.3596 C.ar           1 S1                 0.0000
     21 ****        -3.7130  -1.8986   1.4273 C.3            1 S1                 0.0000
     22 ****        -5.2452  -1.9999   1.5635 C.3            1 S1                 0.0000
     23 ****        -3.1417  -1.2129   2.6863 C.3            1 S1                 0.0000
     24 ****        -4.0910  -3.3517  -3.2759 H              1 S1                 0.0000
     25 ****        -4.5709  -1.9881  -4.2909 H              1 S1                 0.0000
     26 ****        -5.6854  -2.6108  -3.0681 H              1 S1                 0.0000
     27 ****        -4.0762  -2.9082  -0.8647 H              1 S1                 0.0000
     28 ****        -3.6853  -0.1728   0.0987 H              1 S1                 0.0000
     29 ****        -1.8164   0.8203   0.1915 H              1 S1                 0.0000
     30 ****        -0.2152   2.4457  -0.4108 H              1 S1                 0.0000
     31 ****         2.1887   3.0968  -0.4250 H              1 S1                 0.0000
     32 ****         4.1627   3.3799   0.7691 H              1 S1                 0.0000
     33 ****         4.2446   2.1744   2.0444 H              1 S1                 0.0000
     34 ****         6.4321   3.4029   1.7460 H              1 S1                 0.0000
     35 ****         6.6222   1.6804   1.4759 H              1 S1                 0.0000
     36 ****         6.7294   2.0537  -2.1194 H              1 S1                 0.0000
     37 ****         6.8089   0.8813  -0.8183 H              1 S1                 0.0000
     38 ****         4.5596   0.7764  -1.8777 H              1 S1                 0.0000
     39 ****         4.3408   2.5067  -1.6687 H              1 S1                 0.0000
     40 ****         1.0552  -1.5666   0.6181 H              1 S1                 0.0000
     41 ****        -3.3259  -2.9191   1.4127 H              1 S1                 0.0000
     42 ****        -5.7073  -1.0123   1.5592 H              1 S1                 0.0000
     43 ****        -5.5248  -2.4913   2.4957 H              1 S1                 0.0000
     44 ****        -5.6912  -2.5791   0.7550 H              1 S1                 0.0000
     45 ****        -3.4487  -0.1680   2.7397 H              1 S1                 0.0000
     46 ****        -2.0525  -1.2425   2.7143 H              1 S1                 0.0000
     47 ****        -3.4912  -1.7060   3.5937 H              1 S1                 0.0000
     48 ****        -3.9952   0.0373  -3.5050 LP             1 S1                 0.0000
     49 ****        -3.4381   0.3552  -1.8961 LP             1 S1                 0.0000
     50 ****        -1.6417  -3.0796  -0.3277 LP             1 S1                 0.0000
     51 ****        -0.1474  -2.2038  -0.3190 LP             1 S1                 0.0000
     52 ****         4.6789   0.5591   0.4451 LP             1 S1                 0.0000
     53 ****         7.6199   2.9759  -0.1923 LP             1 S1                 0.0000
     54 ****         6.2028   3.7010  -0.5568 LP             1 S1                 0.0000
     55 ****         3.2597  -0.8653   0.5555 LP             1 S1                 0.0000
@<TRIPOS>BOND
    1    1    2 1     
    2    1   24 1     
    3    1   25 1     
    4    1   26 1     
    5    2    3 2     
    6    2    4 am    
    7    4    5 1     
    8    4   27 1     
    9    5    6 1     
   10    5   21 1     
   11    5   28 1     
   12    6    7 2     
   13    6    8 am    
   14    8    9 1     
   15    8   29 1     
   16    9   20 ar    
   17    9   10 ar    
   18   10   11 ar    
   19   10   30 1     
   20   11   12 ar    
   21   11   31 1     
   22   12   13 1     
   23   12   19 ar    
   24   13   18 1     
   25   13   14 1     
   26   14   15 1     
   27   14   32 1     
   28   14   33 1     
   29   15   16 1     
   30   15   34 1     
   31   15   35 1     
   32   16   17 1     
   33   17   18 1     
   34   17   36 1     
   35   17   37 1     
   36   18   38 1     
   37   18   39 1     
   38   19   20 ar    
   39   20   40 1     
   40   21   22 1     
   41   21   23 1     
   42   21   41 1     
   43   22   42 1     
   44   22   43 1     
   45   22   44 1     
   46   23   45 1     
   47   23   46 1     
   48   23   47 1     
   49    3   48 1     
   50    3   49 1     
   51    7   50 1     
   52    7   51 1     
   53   13   52 1     
   54   16   53 1     
   55   16   54 1     
   56   19   55 1     
@<TRIPOS>SUBSTRUCTURE
      1 S1             1
@<TRIPOS>SET
LONE_PAIRS      STATIC     ATOMS    <user>   **** ""
8 48 49 50 51 52 53 54 55
DONOR_HYDROGENS      STATIC     ATOMS    <user>   **** ""
2 27 29
ATOM$BLUE        STATIC     ATOMS    COLORGROUP SYSTEM
8 48 49 50 51 52 53 54 55
ATOM$RED        STATIC     ATOMS    COLORGROUP SYSTEM
2 27 29
