AV-unprocessed.smi:2215|AV-procd|sdf|8962|dock3
  -GOLD-   2272012183D 1   1.00000     0.00000
 Structure written by MMmdl.
 40 41  0  0  0  0  0  0  0  0  1 V2000
  150.9305  142.1790  156.3798 C   0  0  0  0  0  0  0  0  0  0  0  0
  150.1902  141.1307  155.5760 C   0  0  0  0  0  0  0  0  0  0  0  0
  150.7837  139.8913  155.2704 C   0  0  0  0  0  0  0  0  0  0  0  0
  150.0498  138.9555  154.5164 C   0  0  0  0  0  0  0  0  0  0  0  0
  148.7428  139.2786  154.0872 C   0  0  0  0  0  0  0  0  0  0  0  0
  148.0935  138.2688  153.3280 N   0  0  0  0  0  0  0  0  0  0  0  0
  146.7741  138.0479  153.1923 C   0  0  0  0  0  0  0  0  0  0  0  0
  145.8820  138.6941  153.7427 O   0  0  0  0  0  0  0  0  0  0  0  0
  146.5389  137.0153  152.3700 N   0  0  0  0  0  0  0  0  0  0  0  0
  145.2169  136.5125  152.0088 C   0  0  0  0  0  0  0  0  0  0  0  0
  145.1896  134.9770  151.8293 C   0  0  2  0  0  0  0  0  0  0  0  0
  146.5422  134.3954  151.3569 C   0  0  0  0  0  0  0  0  0  0  0  0
  146.4868  132.8640  151.2358 C   0  0  0  0  0  0  0  0  0  0  0  0
  145.3505  132.4136  150.3059 C   0  0  0  0  0  0  0  0  0  0  0  0
  143.9968  132.9865  150.7605 C   0  0  0  0  0  0  0  0  0  0  0  0
  144.0346  134.5202  150.9051 C   0  0  2  0  0  0  0  0  0  0  0  0
  144.1471  135.1040  149.6204 O   0  0  0  0  0  0  0  0  0  0  0  0
  148.1781  140.4740  154.3904 N   0  0  0  0  0  0  0  0  0  0  0  0
  148.8822  141.3707  155.1125 C   0  0  0  0  0  0  0  0  0  0  0  0
  151.9777  141.9068  156.5156 H   0  0  0  0  0  0  0  0  0  0  0  0
  150.4751  142.2908  157.3639 H   0  0  0  0  0  0  0  0  0  0  0  0
  150.8932  143.1428  155.8717 H   0  0  0  0  0  0  0  0  0  0  0  0
  151.7838  139.6578  155.6045 H   0  0  0  0  0  0  0  0  0  0  0  0
  150.4913  138.0005  154.2709 H   0  0  0  0  0  0  0  0  0  0  0  0
  148.7059  137.6499  152.8180 H   0  0  0  0  0  0  0  0  0  0  0  0
  147.3311  136.5408  151.9622 H   0  0  0  0  0  0  0  0  0  0  0  0
  144.4911  136.8181  152.7646 H   0  0  0  0  0  0  0  0  0  0  0  0
  144.9191  137.0054  151.0830 H   0  0  0  0  0  0  0  0  0  0  0  0
  144.9858  134.5459  152.8111 H   0  0  0  0  0  0  0  0  0  0  0  0
  146.8202  134.8303  150.3962 H   0  0  0  0  0  0  0  0  0  0  0  0
  147.3355  134.6637  152.0549 H   0  0  0  0  0  0  0  0  0  0  0  0
  147.4405  132.4862  150.8664 H   0  0  0  0  0  0  0  0  0  0  0  0
  146.3437  132.4257  152.2244 H   0  0  0  0  0  0  0  0  0  0  0  0
  145.5641  132.7337  149.2854 H   0  0  0  0  0  0  0  0  0  0  0  0
  145.3018  131.3247  150.2811 H   0  0  0  0  0  0  0  0  0  0  0  0
  143.2114  132.6906  150.0639 H   0  0  0  0  0  0  0  0  0  0  0  0
  143.7305  132.5454  151.7218 H   0  0  0  0  0  0  0  0  0  0  0  0
  143.0859  134.8550  151.3261 H   0  0  0  0  0  0  0  0  0  0  0  0
  144.9041  134.7361  149.1911 H   0  0  0  0  0  0  0  0  0  0  0  0
  148.3869  142.3068  155.3246 H   0  0  0  0  0  0  0  0  0  0  0  0
  1  2  1  0  0  0  0
  1 20  1  0  0  0  0
  1 21  1  0  0  0  0
  1 22  1  0  0  0  0
  2 19  1  0  0  0  0
  2  3  2  0  0  0  0
  3  4  1  0  0  0  0
  3 23  1  0  0  0  0
  4  5  2  0  0  0  0
  4 24  1  0  0  0  0
  5  6  1  0  0  0  0
  5 18  1  0  0  0  0
  6  7  1  0  0  0  0
  6 25  1  0  0  0  0
  7  8  2  0  0  0  0
  7  9  1  0  0  0  0
  9 10  1  0  0  0  0
  9 26  1  0  0  0  0
 10 11  1  0  0  0  0
 10 27  1  0  0  0  0
 10 28  1  0  0  0  0
 11 16  1  0  0  0  0
 11 12  1  0  0  0  0
 11 29  1  0  0  0  0
 12 13  1  0  0  0  0
 12 30  1  0  0  0  0
 12 31  1  0  0  0  0
 13 14  1  0  0  0  0
 13 32  1  0  0  0  0
 13 33  1  0  0  0  0
 14 15  1  0  0  0  0
 14 34  1  0  0  0  0
 14 35  1  0  0  0  0
 15 16  1  0  0  0  0
 15 36  1  0  0  0  0
 15 37  1  0  0  0  0
 16 17  1  0  0  0  0
 16 38  1  0  0  0  0
 17 39  1  0  0  0  0
 18 19  2  0  0  0  0
 19 40  1  0  0  0  0
M  END
> <s_m_source_file>
AV-unprocessed.smi

> <i_m_source_file_index>
2215

> <i_lp_mmshare_version>
43012

> <i_f3d_flags>
0

> <s_epik_input>
W0NIM11jMVtjSF1bY0hdYyhuW2NIXTEpW05IXUMoPU8pW05IXVtDSDJdW0NAQEhdMltDSDJdW0NIMl1bQ0gyXVtDSDJdW0NASF0yW09IXQ==

> <s_epik_cmdline>
J2VwaWtfcHl0aG9uJywgJy1waCcsICc3LjAnLCAnLXRuJywgJzgnLCAnLW1hJywgJzIwMCcsICctbWV0YWxfYmluZGluZycsICctaW1hZScsICc8aW5maWxlLm1hZT4nLCAnLW9tYWUnLCAnPG91dGZpbGUubWFlPic=

> <r_lp_tautomer_probability>
1

> <r_epik_Ionization_Penalty>
6.08491e-05

> <r_epik_Ionization_Penalty_Charging>
0

> <r_epik_Ionization_Penalty_Neutral>
6.08491e-05

> <r_epik_State_Penalty>
-0

> <r_epik_Charging_Adjusted_Penalty>
0

> <i_epik_Tot_Q>
0

> <i_epik_Tot_abs_Q>
0

> <r_epik_Metal_State_Penalty>
-0

> <b_epik_Metal_Only>
0

> <s_lp_Force_Field>
OPLS_2005

> <r_lp_Energy>
16.4092

> <b_lp_Chiralities_Consistent>
1

> <s_lp_Variant>
AV-unprocessed.smi:2215-3

> <Gold.Version>
5.8.1

> <Gold.Id.Protein>
6NUR|6NUR_protein|mol2

> <Gold.PLP.Fitness>
45.9303

> <Gold.PLP.PLP>
-35.2759

> <Gold.PLP.part.hbond>
-4.0495

> <Gold.PLP.part.metal>
0.0000

> <Gold.PLP.part.buried>
-2.9147

> <Gold.PLP.part.nonpolar>
-28.1058

> <Gold.PLP.part.repulsive>
0.3508

> <Gold.PLP.ligand.clash>
0.0000

> <Gold.PLP.ligand.torsion>
0.6433

> <Gold.PLP.Chemscore.Hbond>
2.9760

> <Gold.PLP.Chemscore.CHOScore>
1.0000

> <Gold.PLP.Chemscore.Metal>
0.0000

> <Gold.Chemscore.Hbonds>
donor molecule, donor type, donor heavy atom, donor atom, acceptor molecule, acceptor atom, score
      L1  H     6    25       P1  7948  1.00
      L1  H     9    26       P1  7948  1.00
      L1  H    17    39       P1  7921  0.93
      L1  C    19    40       P1  8028  1.00

> <Gold.PLP.Chemscore.Internal.Correction>
0.0130

> <Gold.Rescore>
     Score         DG    S(hbond)    S(metal)    S(lipo)     H(rot)  DE(clash)    DE(int)     intcor
     18.18     -20.34       2.89        0.00      82.61       1.73       0.37       1.79       ----

> <Gold.Chemscore.Fitness>
18.1782

> <Gold.Chemscore.DG>
-20.3441

> <Gold.Chemscore.ZeroCoef>
-5.4800

> <Gold.Chemscore.Hbond>
2.8854

> <Gold.Chemscore.Metal>
0.0000

> <Gold.Chemscore.Lipo>
82.6119

> <Gold.Chemscore.Internal_Hbond>
0.0000

> <Gold.Chemscore.DEClash>
0.3742

> <Gold.Chemscore.DEInternal>
1.7917

> <Gold.Chemscore.Rot>
1.7339

> <Gold.Chemscore.Internal.Correction>
   9.000000E+99

> <Gold.Chemscore.Hbonds>
donor molecule, donor type, donor heavy atom, donor atom, acceptor molecule, acceptor atom, score
      L1  H     6    25       P1  7948  0.96
      L1  H     9    26       P1  7948  0.96
      L1  H    17    39       P1  7921  0.89

> <Gold.Chemscore.Hbond.Weighted>
-9.6372

> <Gold.Chemscore.Metal.Weighted>
-0.0000

> <Gold.Chemscore.Lipo.Weighted>
-9.6656

> <Gold.Chemscore.Internal_Hbond.Weighted>
0.0000

> <Gold.Chemscore.DEClash.Weighted>
0.3742

> <Gold.Chemscore.DEInternal.Weighted>
1.7917

> <Gold.Chemscore.Rot.Weighted>
4.4387

> <Gold.Chemscore.Internal.Correction.Weighted>
   9.000000E+99

> <Gold.Protein.RotatedTorsions>
[ 6907 6896 6895 6894 ] final -125.21 input  -60.11 | X-H torsion
[ 7974 7965 7964 7962 ] final -110.49 input  175.53 | X-H torsion
[ 8008 7997 7996 7995 ] final -163.10 input   59.86 | X-H torsion
[ 10167 10162 10161 10158 ] final  162.62 input  -65.29 | X-H torsion
[ 10718 10713 10712 10709 ] final -169.55 input   66.30 | X-H torsion
[ 10763 10752 10751 10750 ] final -173.48 input  -60.55 | X-H torsion
[ 11005 11000 10999 10996 ] final -104.58 input  -57.11 | X-H torsion

> <Gold.Protein.ActiveResidues>
 VAL166  LYS551  ARG553  GLY616  TRP617  ASP618  TYR619  PRO620  LYS621  CYS622 
 ASP623  PHE694  ASN695  SER759  ASP760  ASP761  ALA762  ILE779  LEU786  VAL792 
 PHE793  MET794  SER795  GLU796  ALA797  LYS798  CYS799  TRP800  GLU811  SER814 

> <Gold.Protein.RotatedAtoms>
  150.8845  133.7327  159.2922 H   0  0  0  0  0  0  0  0  0  0  0  0  # atno 6907 bound_to 6896
  151.4897  135.1055  159.9810 H   0  0  0  0  0  0  0  0  0  0  0  0  # atno 6908 bound_to 6896
  152.4781  133.8141  159.7074 H   0  0  0  0  0  0  0  0  0  0  0  0  # atno 6909 bound_to 6896
  145.1676  140.8909  143.3554 H   0  0  0  0  0  0  0  0  0  0  0  0  # atno 7974 bound_to 7965
  155.8164  140.0913  157.1874 H   0  0  0  0  0  0  0  0  0  0  0  0  # atno 8008 bound_to 7997
  154.3979  140.1445  156.3508 H   0  0  0  0  0  0  0  0  0  0  0  0  # atno 8009 bound_to 7997
  155.8311  140.3442  155.5575 H   0  0  0  0  0  0  0  0  0  0  0  0  # atno 8010 bound_to 7997
  139.4863  144.4419  151.8941 H   0  0  0  0  0  0  0  0  0  0  0  0  # atno 10167 bound_to 10162
  156.7132  130.9241  151.3091 H   0  0  0  0  0  0  0  0  0  0  0  0  # atno 10718 bound_to 10713
  154.6074  135.2861  155.0469 H   0  0  0  0  0  0  0  0  0  0  0  0  # atno 10763 bound_to 10752
  154.1712  135.6472  153.5014 H   0  0  0  0  0  0  0  0  0  0  0  0  # atno 10764 bound_to 10752
  153.0181  135.5401  154.6815 H   0  0  0  0  0  0  0  0  0  0  0  0  # atno 10765 bound_to 10752
  141.1094  133.8735  157.1628 H   0  0  0  0  0  0  0  0  0  0  0  0  # atno 11005 bound_to 11000
  145.0266  139.3377  143.6045 LP  0  0  0  0  0  0  0  0  0  0  0  0  # atno 17320 bound_to 7965
  146.3473  139.9588  142.8720 LP  0  0  0  0  0  0  0  0  0  0  0  0  # atno 17321 bound_to 7965
  140.3871  144.2662  150.5903 LP  0  0  0  0  0  0  0  0  0  0  0  0  # atno 17342 bound_to 10162
  140.5180  143.2273  151.8433 LP  0  0  0  0  0  0  0  0  0  0  0  0  # atno 17343 bound_to 10162
  157.6928  130.9251  150.0560 LP  0  0  0  0  0  0  0  0  0  0  0  0  # atno 17370 bound_to 10713
  156.1646  130.3645  149.9250 LP  0  0  0  0  0  0  0  0  0  0  0  0  # atno 17371 bound_to 10713
  139.9980  135.0039  157.0125 LP  0  0  0  0  0  0  0  0  0  0  0  0  # atno 17394 bound_to 11000
  140.4816  134.1283  155.7218 LP  0  0  0  0  0  0  0  0  0  0  0  0  # atno 17395 bound_to 11000

$$$$
