AV-unprocessed.smi:2988|AV-procd|sdf|11388|dock8
  -GOLD-   2272016313D 1   1.00000     0.00000
 Structure written by MMmdl.
 37 38  0  0  0  0  0  0  0  0  1 V2000
  148.3845  140.4964  154.1934 C   0  0  0  0  0  0  0  0  0  0  0  0
  149.8322  140.5228  154.7139 C   0  0  1  0  0  0  0  0  0  0  0  0
  149.8860  140.9025  156.2097 C   0  0  0  0  0  0  0  0  0  0  0  0
  151.3327  140.9760  156.7243 C   0  0  0  0  0  0  0  0  0  0  0  0
  152.0898  139.6655  156.4619 C   0  0  0  0  0  0  0  0  0  0  0  0
  152.0389  139.2817  154.9724 C   0  0  0  0  0  0  0  0  0  0  0  0
  150.5901  139.1990  154.4445 C   0  0  1  0  0  0  0  0  0  0  0  0
  149.8859  138.0761  155.0563 N   0  0  0  0  0  0  0  0  0  0  0  0
  150.2568  136.7856  155.0390 C   0  0  0  0  0  0  0  0  0  0  0  0
  151.2553  136.3833  154.4437 O   0  0  0  0  0  0  0  0  0  0  0  0
  149.3847  135.7842  155.8181 C   0  0  0  0  0  0  0  0  0  0  0  0
  149.5776  134.3759  155.4288 N   0  0  0  0  0  0  0  0  0  0  0  0
  149.2510  134.1063  154.1111 N   0  0  0  0  0  0  0  0  0  0  0  0
  149.3209  132.8959  153.6750 C   0  0  0  0  0  0  0  0  0  0  0  0
  149.7351  131.7963  154.5180 C   0  0  0  0  0  0  0  0  0  0  0  0
  149.8007  130.1915  153.8796 Cl  0  0  0  0  0  0  0  0  0  0  0  0
  150.0652  132.0729  155.8046 C   0  0  0  0  0  0  0  0  0  0  0  0
  150.5639  130.8092  156.8760 Cl  0  0  0  0  0  0  0  0  0  0  0  0
  150.0022  133.4415  156.3350 C   0  0  0  0  0  0  0  0  0  0  0  0
  150.2843  133.7319  157.4981 O   0  0  0  0  0  0  0  0  0  0  0  0
  147.7744  139.7680  154.7287 H   0  0  0  0  0  0  0  0  0  0  0  0
  148.3540  140.2428  153.1335 H   0  0  0  0  0  0  0  0  0  0  0  0
  147.9103  141.4710  154.3115 H   0  0  0  0  0  0  0  0  0  0  0  0
  150.3505  141.3080  154.1615 H   0  0  0  0  0  0  0  0  0  0  0  0
  149.3970  141.8643  156.3670 H   0  0  0  0  0  0  0  0  0  0  0  0
  149.3261  140.1764  156.8009 H   0  0  0  0  0  0  0  0  0  0  0  0
  151.8520  141.8007  156.2343 H   0  0  0  0  0  0  0  0  0  0  0  0
  151.3363  141.1995  157.7915 H   0  0  0  0  0  0  0  0  0  0  0  0
  153.1267  139.7658  156.7835 H   0  0  0  0  0  0  0  0  0  0  0  0
  151.6588  138.8660  157.0660 H   0  0  0  0  0  0  0  0  0  0  0  0
  152.5885  140.0249  154.3936 H   0  0  0  0  0  0  0  0  0  0  0  0
  152.5575  138.3353  154.8149 H   0  0  0  0  0  0  0  0  0  0  0  0
  150.6226  139.0372  153.3653 H   0  0  0  0  0  0  0  0  0  0  0  0
  149.0471  138.3066  155.5688 H   0  0  0  0  0  0  0  0  0  0  0  0
  149.5990  135.9097  156.8810 H   0  0  0  0  0  0  0  0  0  0  0  0
  148.3369  136.0661  155.7005 H   0  0  0  0  0  0  0  0  0  0  0  0
  149.0693  132.6353  152.6467 H   0  0  0  0  0  0  0  0  0  0  0  0
  1  2  1  0  0  0  0
  1 21  1  0  0  0  0
  1 22  1  0  0  0  0
  1 23  1  0  0  0  0
  2  7  1  0  0  0  0
  2  3  1  0  0  0  0
  2 24  1  0  0  0  0
  3  4  1  0  0  0  0
  3 25  1  0  0  0  0
  3 26  1  0  0  0  0
  4  5  1  0  0  0  0
  4 27  1  0  0  0  0
  4 28  1  0  0  0  0
  5  6  1  0  0  0  0
  5 29  1  0  0  0  0
  5 30  1  0  0  0  0
  6  7  1  0  0  0  0
  6 31  1  0  0  0  0
  6 32  1  0  0  0  0
  7  8  1  0  0  0  0
  7 33  1  0  0  0  0
  8  9  1  0  0  0  0
  8 34  1  0  0  0  0
  9 10  2  0  0  0  0
  9 11  1  0  0  0  0
 11 12  1  0  0  0  0
 11 35  1  0  0  0  0
 11 36  1  0  0  0  0
 12 19  1  0  0  0  0
 12 13  1  0  0  0  0
 13 14  2  0  0  0  0
 14 15  1  0  0  0  0
 14 37  1  0  0  0  0
 15 16  1  0  0  0  0
 15 17  2  0  0  0  0
 17 18  1  0  0  0  0
 17 19  1  0  0  0  0
 19 20  2  0  0  0  0
M  END
> <s_m_source_file>
AV-unprocessed.smi

> <i_m_source_file_index>
2988

> <i_lp_mmshare_version>
43012

> <i_f3d_flags>
0

> <s_epik_input>
W0NIM11bQ0BASF0xW0NIMl1bQ0gyXVtDSDJdW0NIMl1bQ0BIXTFbTkhdQyg9TylbQ0gyXW4ybltjSF1jKENsKWMoQ2wpYzI9Tw==

> <s_epik_cmdline>
J2VwaWtfcHl0aG9uJywgJy1waCcsICc3LjAnLCAnLXRuJywgJzgnLCAnLW1hJywgJzIwMCcsICctbWV0YWxfYmluZGluZycsICctaW1hZScsICc8aW5maWxlLm1hZT4nLCAnLW9tYWUnLCAnPG91dGZpbGUubWFlPic=

> <r_lp_tautomer_probability>
1

> <r_epik_Ionization_Penalty>
1.90782e-08

> <r_epik_Ionization_Penalty_Charging>
3.13143e-11

> <r_epik_Ionization_Penalty_Neutral>
1.90469e-08

> <r_epik_State_Penalty>
-0

> <r_epik_Charging_Adjusted_Penalty>
3.13143e-11

> <i_epik_Tot_Q>
0

> <i_epik_Tot_abs_Q>
0

> <r_epik_Metal_State_Penalty>
-0

> <b_epik_Metal_Only>
0

> <s_lp_Force_Field>
OPLS_2005

> <r_lp_Energy>
22.2561

> <b_lp_Chiralities_Consistent>
1

> <s_lp_Variant>
AV-unprocessed.smi:2988-2

> <Gold.Version>
5.8.1

> <Gold.Id.Protein>
6NUR|6NUR_protein|mol2

> <Gold.PLP.Fitness>
38.9460

> <Gold.PLP.PLP>
-33.4926

> <Gold.PLP.part.hbond>
-2.0000

> <Gold.PLP.part.metal>
0.0000

> <Gold.PLP.part.buried>
-1.7856

> <Gold.PLP.part.nonpolar>
-30.2162

> <Gold.PLP.part.repulsive>
0.6791

> <Gold.PLP.ligand.clash>
0.0000

> <Gold.PLP.ligand.torsion>
0.2652

> <Gold.PLP.Chemscore.Hbond>
1.9920

> <Gold.PLP.Chemscore.CHOScore>
0.0000

> <Gold.PLP.Chemscore.Metal>
0.0000

> <Gold.Chemscore.Hbonds>
donor molecule, donor type, donor heavy atom, donor atom, acceptor molecule, acceptor atom, score
      P1  H  6896  6907       L1    20  0.94
      P1  H 10752 10763       L1    10  1.00

> <Gold.PLP.Chemscore.Internal.Correction>
0.0080

> <Gold.Rescore>
     Score         DG    S(hbond)    S(metal)    S(lipo)     H(rot)  DE(clash)    DE(int)     intcor
     16.53     -16.95       1.96        0.00      74.82       1.50       0.11       0.30       ----

> <Gold.Chemscore.Fitness>
16.5278

> <Gold.Chemscore.DG>
-16.9469

> <Gold.Chemscore.ZeroCoef>
-5.4800

> <Gold.Chemscore.Hbond>
1.9603

> <Gold.Chemscore.Metal>
0.0000

> <Gold.Chemscore.Lipo>
74.8159

> <Gold.Chemscore.Internal_Hbond>
0.0000

> <Gold.Chemscore.DEClash>
0.1144

> <Gold.Chemscore.DEInternal>
0.3047

> <Gold.Chemscore.Rot>
1.4977

> <Gold.Chemscore.Internal.Correction>
   9.000000E+99

> <Gold.Chemscore.Hbonds>
donor molecule, donor type, donor heavy atom, donor atom, acceptor molecule, acceptor atom, score
      P1  H  6896  6907       L1    20  0.91
      P1  H 10752 10763       L1    10  1.00

> <Gold.Chemscore.Hbond.Weighted>
-6.5475

> <Gold.Chemscore.Metal.Weighted>
-0.0000

> <Gold.Chemscore.Lipo.Weighted>
-8.7535

> <Gold.Chemscore.Internal_Hbond.Weighted>
0.0000

> <Gold.Chemscore.DEClash.Weighted>
0.1144

> <Gold.Chemscore.DEInternal.Weighted>
0.3047

> <Gold.Chemscore.Rot.Weighted>
3.8341

> <Gold.Chemscore.Internal.Correction.Weighted>
   9.000000E+99

> <Gold.Protein.RotatedTorsions>
[ 6907 6896 6895 6894 ] final -119.67 input  -60.11 | X-H torsion
[ 7974 7965 7964 7962 ] final   17.51 input  175.53 | X-H torsion
[ 8008 7997 7996 7995 ] final    0.54 input   59.86 | X-H torsion
[ 10167 10162 10161 10158 ] final   99.86 input  -65.29 | X-H torsion
[ 10718 10713 10712 10709 ] final   49.89 input   66.30 | X-H torsion
[ 10763 10752 10751 10750 ] final   51.12 input  -60.55 | X-H torsion
[ 11005 11000 10999 10996 ] final  163.39 input  -57.11 | X-H torsion

> <Gold.Protein.ActiveResidues>
 VAL166  LYS551  ARG553  GLY616  TRP617  ASP618  TYR619  PRO620  LYS621  CYS622 
 ASP623  PHE694  ASN695  SER759  ASP760  ASP761  ALA762  ILE779  LEU786  VAL792 
 PHE793  MET794  SER795  GLU796  ALA797  LYS798  CYS799  TRP800  GLU811  SER814 

> <Gold.Protein.RotatedAtoms>
  150.8325  133.8067  159.3092 H   0  0  0  0  0  0  0  0  0  0  0  0  # atno 6907 bound_to 6896
  151.5793  135.1057  160.0023 H   0  0  0  0  0  0  0  0  0  0  0  0  # atno 6908 bound_to 6896
  152.4403  133.7393  159.6688 H   0  0  0  0  0  0  0  0  0  0  0  0  # atno 6909 bound_to 6896
  146.2216  139.8592  142.8608 H   0  0  0  0  0  0  0  0  0  0  0  0  # atno 7974 bound_to 7965
  154.6693  140.2608  155.7025 H   0  0  0  0  0  0  0  0  0  0  0  0  # atno 8008 bound_to 7997
  156.2652  140.2832  156.1117 H   0  0  0  0  0  0  0  0  0  0  0  0  # atno 8009 bound_to 7997
  155.1193  140.0377  157.2735 H   0  0  0  0  0  0  0  0  0  0  0  0  # atno 8010 bound_to 7997
  139.7579  144.6964  151.0335 H   0  0  0  0  0  0  0  0  0  0  0  0  # atno 10167 bound_to 10162
  157.4831  130.8328  149.8116 H   0  0  0  0  0  0  0  0  0  0  0  0  # atno 10718 bound_to 10713
  152.9785  135.5856  154.4363 H   0  0  0  0  0  0  0  0  0  0  0  0  # atno 10763 bound_to 10752
  154.3970  135.2768  155.2122 H   0  0  0  0  0  0  0  0  0  0  0  0  # atno 10764 bound_to 10752
  154.3969  135.6112  153.5929 H   0  0  0  0  0  0  0  0  0  0  0  0  # atno 10765 bound_to 10752
  140.2353  134.8092  157.3358 H   0  0  0  0  0  0  0  0  0  0  0  0  # atno 11005 bound_to 11000
  145.2721  141.0112  143.3765 LP  0  0  0  0  0  0  0  0  0  0  0  0  # atno 17320 bound_to 7965
  144.9215  139.4406  143.6539 LP  0  0  0  0  0  0  0  0  0  0  0  0  # atno 17321 bound_to 7965
  140.7804  143.4731  151.0119 LP  0  0  0  0  0  0  0  0  0  0  0  0  # atno 17342 bound_to 10162
  139.8418  143.7554  152.3180 LP  0  0  0  0  0  0  0  0  0  0  0  0  # atno 17343 bound_to 10162
  156.0132  130.3824  150.2195 LP  0  0  0  0  0  0  0  0  0  0  0  0  # atno 17370 bound_to 10713
  157.0382  131.0027  151.3291 LP  0  0  0  0  0  0  0  0  0  0  0  0  # atno 17371 bound_to 10713
  140.1708  134.4611  155.7833 LP  0  0  0  0  0  0  0  0  0  0  0  0  # atno 17394 bound_to 11000
  141.2215  133.6941  156.7704 LP  0  0  0  0  0  0  0  0  0  0  0  0  # atno 17395 bound_to 11000

$$$$
