AV-unprocessed.smi:157|AV-procd|sdf|1307|dock10
  -GOLD-   2262018593D 1   1.00000     0.00000
 Structure written by MMmdl.
 36 38  0  0  0  0  0  0  0  0  2 V2000
  155.5457  138.0933  155.7380 O   0  0  0  0  0  0  0  0  0  0  0  0
  154.4685  138.2470  154.8388 C   0  0  0  0  0  0  0  0  0  0  0  0
  153.1342  138.0785  155.5820 C   0  0  1  0  0  0  0  0  0  0  0  0
  152.9297  139.2011  156.4335 O   0  0  0  0  0  0  0  0  0  0  0  0
  151.5639  139.3709  156.5818 C   0  0  1  0  0  0  0  0  0  0  0  0
  151.3052  140.7628  157.0592 N   0  0  0  0  0  0  0  0  0  0  0  0
  150.6447  141.7145  156.3685 C   0  0  0  0  0  0  0  0  0  0  0  0
  150.5281  142.8684  157.0034 N   0  3  0  0  0  0  0  0  0  0  0  0
  151.1459  142.7068  158.2254 C   0  0  0  0  0  0  0  0  0  0  0  0
  151.6289  141.3954  158.2405 C   0  0  0  0  0  0  0  0  0  0  0  0
  152.3370  140.7137  159.2434 N   0  0  0  0  0  0  0  0  0  0  0  0
  152.9260  141.3165  160.2242 C   0  0  0  0  0  0  0  0  0  0  0  0
  152.9170  142.6617  160.5527 N   0  0  0  0  0  0  0  0  0  0  0  0
  151.7017  143.4552  160.5942 C   0  0  0  0  0  0  0  0  0  0  0  0
  151.1665  143.8367  159.2075 C   0  0  1  0  0  0  0  0  0  0  0  0
  151.8920  144.9529  158.7347 O   0  0  0  0  0  0  0  0  0  0  0  0
  150.9725  139.1312  155.1994 C   0  0  0  0  0  0  0  0  0  0  0  0
  151.9066  138.0649  154.6426 C   0  0  2  0  0  0  0  0  0  0  0  0
  151.2740  136.8006  154.6701 O   0  0  0  0  0  0  0  0  0  0  0  0
  153.1454  137.1746  156.1950 H   0  0  0  0  0  0  0  0  0  0  0  0
  151.1687  138.7027  157.3493 H   0  0  0  0  0  0  0  0  0  0  0  0
  150.1397  144.1811  159.3352 H   0  0  0  0  0  0  0  0  0  0  0  0
  152.1743  138.3029  153.6121 H   0  0  0  0  0  0  0  0  0  0  0  0
  156.2889  137.7540  155.2630 H   0  0  0  0  0  0  0  0  0  0  0  0
  154.5245  139.2137  154.3370 H   0  0  0  0  0  0  0  0  0  0  0  0
  154.5721  137.4768  154.0738 H   0  0  0  0  0  0  0  0  0  0  0  0
  150.2463  141.5437  155.3844 H   0  0  0  0  0  0  0  0  0  0  0  0
  153.5202  140.7278  160.9246 H   0  0  0  0  0  0  0  0  0  0  0  0
  153.6039  143.0035  161.2100 H   0  0  0  0  0  0  0  0  0  0  0  0
  150.9453  142.8647  161.1137 H   0  0  0  0  0  0  0  0  0  0  0  0
  151.8630  144.3434  161.2062 H   0  0  0  0  0  0  0  0  0  0  0  0
  151.3440  145.7200  158.7959 H   0  0  0  0  0  0  0  0  0  0  0  0
  149.9245  138.8354  155.2649 H   0  0  0  0  0  0  0  0  0  0  0  0
  151.0450  140.0396  154.6006 H   0  0  0  0  0  0  0  0  0  0  0  0
  151.0025  136.5788  153.7926 H   0  0  0  0  0  0  0  0  0  0  0  0
  150.0654  143.7000  156.6588 H   0  0  0  0  0  0  0  0  0  0  0  0
  1  2  1  0  0  0  0
  1 24  1  0  0  0  0
  2  3  1  0  0  0  0
  2 25  1  0  0  0  0
  2 26  1  0  0  0  0
  3 20  1  0  0  0  0
  3 18  1  0  0  0  0
  3  4  1  0  0  0  0
  4  5  1  0  0  0  0
  5 21  1  0  0  0  0
  5  6  1  0  0  0  0
  5 17  1  0  0  0  0
  6 10  1  0  0  0  0
  6  7  1  0  0  0  0
  7  8  2  0  0  0  0
  7 27  1  0  0  0  0
  8  9  1  0  0  0  0
  8 36  1  0  0  0  0
  9 15  1  0  0  0  0
  9 10  2  0  0  0  0
 10 11  1  0  0  0  0
 11 12  2  0  0  0  0
 12 13  1  0  0  0  0
 12 28  1  0  0  0  0
 13 14  1  0  0  0  0
 13 29  1  0  0  0  0
 14 15  1  0  0  0  0
 14 30  1  0  0  0  0
 14 31  1  0  0  0  0
 15 22  1  0  0  0  0
 15 16  1  0  0  0  0
 16 32  1  0  0  0  0
 17 18  1  0  0  0  0
 17 33  1  0  0  0  0
 17 34  1  0  0  0  0
 18 23  1  0  0  0  0
 18 19  1  0  0  0  0
 19 35  1  0  0  0  0
M  CHG  1   8   1
M  END
> <s_m_source_file>
AV-unprocessed.smi

> <i_m_source_file_index>
157

> <i_lp_mmshare_version>
43012

> <i_f3d_flags>
0

> <s_epik_input>
W09IXVtDSDJdW0NASF0xT1tDQEhdKFtDSDJdW0NAQEhdMVtPSF0pbihbY0hdbjIpYyhjMjMpTj1bQ0hdW05IXVtDSDJdW0NASF0zW09IXQ==

> <s_epik_cmdline>
J2VwaWtfcHl0aG9uJywgJy1waCcsICc3LjAnLCAnLXRuJywgJzgnLCAnLW1hJywgJzIwMCcsICctbWV0YWxfYmluZGluZycsICctaW1hZScsICc8aW5maWxlLm1hZT4nLCAnLW9tYWUnLCAnPG91dGZpbGUubWFlPic=

> <r_epik_Ionization_Penalty>
1.68594

> <r_epik_Ionization_Penalty_Charging>
0

> <r_epik_Ionization_Penalty_Neutral>
1.68594

> <r_epik_State_Penalty>
1.79006

> <r_epik_Charging_Adjusted_Penalty>
1.79006

> <i_epik_Tot_Q>
1

> <i_epik_Tot_abs_Q>
1

> <r_epik_Metal_State_Penalty>
5.85324

> <b_epik_Metal_Only>
0

> <s_epik_Chemistry_Notes>
This compound has an imine and may undergo hydrolysis. This compound contains an acetal/aminal-like group ( X-CH(R)-Y where X, Y are N, S, or O) that may be acid/base labile, releasing an aldehyde.

> <s_lp_Force_Field>
OPLS_2005

> <r_lp_Energy>
53.8219

> <b_lp_Chiralities_Consistent>
1

> <s_lp_Variant>
AV-unprocessed.smi:157-17

> <Gold.Version>
5.8.1

> <Gold.Id.Protein>
6NUR|6NUR_protein|mol2

> <Gold.PLP.Fitness>
53.7548

> <Gold.PLP.PLP>
-37.5011

> <Gold.PLP.part.hbond>
-4.9674

> <Gold.PLP.part.metal>
0.0000

> <Gold.PLP.part.buried>
-6.1227

> <Gold.PLP.part.nonpolar>
-26.4142

> <Gold.PLP.part.repulsive>
0.0655

> <Gold.PLP.ligand.clash>
0.0000

> <Gold.PLP.ligand.torsion>
0.0678

> <Gold.PLP.Chemscore.Hbond>
5.4560

> <Gold.PLP.Chemscore.CHOScore>
0.0000

> <Gold.PLP.Chemscore.Metal>
0.0000

> <Gold.Chemscore.Hbonds>
donor molecule, donor type, donor heavy atom, donor atom, acceptor molecule, acceptor atom, score
      L1  H     8    36       P1  8028  2.00
      L1  H    19    35       P1  7949  0.13
      P1  H  7997  8010       L1     4  1.00
      P1  H 10752 10765       L1    19  0.20

> <Gold.PLP.Chemscore.Internal.Correction>
0.0212

> <Gold.Rescore>
     Score         DG    S(hbond)    S(metal)    S(lipo)     H(rot)  DE(clash)    DE(int)     intcor
     13.26     -17.21       3.94        0.00      67.90       3.67       3.83       0.11       ----

> <Gold.Chemscore.Fitness>
13.2629

> <Gold.Chemscore.DG>
-17.2076

> <Gold.Chemscore.ZeroCoef>
-5.4800

> <Gold.Chemscore.Hbond>
3.9424

> <Gold.Chemscore.Metal>
0.0000

> <Gold.Chemscore.Lipo>
67.9029

> <Gold.Chemscore.Internal_Hbond>
0.0000

> <Gold.Chemscore.DEClash>
3.8348

> <Gold.Chemscore.DEInternal>
0.1099

> <Gold.Chemscore.Rot>
3.6659

> <Gold.Chemscore.Internal.Correction>
   9.000000E+99

> <Gold.Chemscore.Hbonds>
donor molecule, donor type, donor heavy atom, donor atom, acceptor molecule, acceptor atom, score
      L1  H     8    36       P1  8028  0.99
      L1  H    19    35       P1  7949  0.04
      P1  H  7997  8010       L1     4  0.65

> <Gold.Chemscore.Hbond.Weighted>
-13.1677

> <Gold.Chemscore.Metal.Weighted>
-0.0000

> <Gold.Chemscore.Lipo.Weighted>
-7.9446

> <Gold.Chemscore.Internal_Hbond.Weighted>
0.0000

> <Gold.Chemscore.DEClash.Weighted>
3.8348

> <Gold.Chemscore.DEInternal.Weighted>
0.1099

> <Gold.Chemscore.Rot.Weighted>
9.3848

> <Gold.Chemscore.Internal.Correction.Weighted>
   9.000000E+99

> <Gold.Protein.RotatedTorsions>
[ 6907 6896 6895 6894 ] final    7.83 input  -60.11 | X-H torsion
[ 7974 7965 7964 7962 ] final   45.16 input  175.53 | X-H torsion
[ 8008 7997 7996 7995 ] final   67.68 input   59.86 | X-H torsion
[ 10167 10162 10161 10158 ] final  -93.56 input  -65.29 | X-H torsion
[ 10718 10713 10712 10709 ] final  133.83 input   66.30 | X-H torsion
[ 10763 10752 10751 10750 ] final  159.46 input  -60.55 | X-H torsion
[ 11005 11000 10999 10996 ] final  -52.07 input  -57.11 | X-H torsion

> <Gold.Protein.ActiveResidues>
 VAL166  LYS551  ARG553  GLY616  TRP617  ASP618  TYR619  PRO620  LYS621  CYS622 
 ASP623  PHE694  ASN695  SER759  ASP760  ASP761  ALA762  ILE779  LEU786  VAL792 
 PHE793  MET794  SER795  GLU796  ALA797  LYS798  CYS799  TRP800  GLU811  SER814 

> <Gold.Protein.RotatedAtoms>
  151.6962  135.0938  160.0242 H   0  0  0  0  0  0  0  0  0  0  0  0  # atno 6907 bound_to 6896
  152.3749  133.6463  159.6124 H   0  0  0  0  0  0  0  0  0  0  0  0  # atno 6908 bound_to 6896
  150.7701  133.9127  159.3415 H   0  0  0  0  0  0  0  0  0  0  0  0  # atno 6909 bound_to 6896
  146.0504  139.4994  142.9722 H   0  0  0  0  0  0  0  0  0  0  0  0  # atno 7974 bound_to 7965
  155.6966  140.3495  155.4915 H   0  0  0  0  0  0  0  0  0  0  0  0  # atno 8008 bound_to 7997
  155.9477  140.1113  157.1025 H   0  0  0  0  0  0  0  0  0  0  0  0  # atno 8009 bound_to 7997
  154.4115  140.1200  156.4997 H   0  0  0  0  0  0  0  0  0  0  0  0  # atno 8010 bound_to 7997
  140.3234  143.3036  152.0021 H   0  0  0  0  0  0  0  0  0  0  0  0  # atno 10167 bound_to 10162
  157.4733  131.1081  150.9775 H   0  0  0  0  0  0  0  0  0  0  0  0  # atno 10718 bound_to 10713
  154.2322  135.2778  155.2885 H   0  0  0  0  0  0  0  0  0  0  0  0  # atno 10763 bound_to 10752
  154.5614  135.5646  153.7014 H   0  0  0  0  0  0  0  0  0  0  0  0  # atno 10764 bound_to 10752
  153.0018  135.6299  154.2464 H   0  0  0  0  0  0  0  0  0  0  0  0  # atno 10765 bound_to 10752
  141.0905  133.6634  156.3970 H   0  0  0  0  0  0  0  0  0  0  0  0  # atno 11005 bound_to 11000
  145.6734  141.0210  143.1645 LP  0  0  0  0  0  0  0  0  0  0  0  0  # atno 17320 bound_to 7965
  144.7120  139.8336  143.7411 LP  0  0  0  0  0  0  0  0  0  0  0  0  # atno 17321 bound_to 7965
  139.4870  144.6293  151.7102 LP  0  0  0  0  0  0  0  0  0  0  0  0  # atno 17342 bound_to 10162
  140.5463  144.0498  150.6108 LP  0  0  0  0  0  0  0  0  0  0  0  0  # atno 17343 bound_to 10162
  157.0532  130.5795  149.5374 LP  0  0  0  0  0  0  0  0  0  0  0  0  # atno 17370 bound_to 10713
  156.0084  130.5173  150.7908 LP  0  0  0  0  0  0  0  0  0  0  0  0  # atno 17371 bound_to 10713
  140.5263  134.6255  157.5335 LP  0  0  0  0  0  0  0  0  0  0  0  0  # atno 17394 bound_to 11000
  139.9730  134.7262  156.0004 LP  0  0  0  0  0  0  0  0  0  0  0  0  # atno 17395 bound_to 11000

$$$$
