AV-unprocessed.smi:837|AV-procd|sdf|3903|dock4
  -GOLD-   22720 1363D 1   1.00000     0.00000
 Structure written by MMmdl.
 48 50  0  0  0  0  0  0  0  0  2 V2000
  152.5021  137.7582  158.9592 C   0  0  0  0  0  0  0  0  0  0  0  0
  152.1576  139.2406  159.2217 C   0  0  1  0  0  0  0  0  0  0  0  0
  153.3622  139.9784  159.8458 C   0  0  0  0  0  0  0  0  0  0  0  0
  153.0160  141.4276  160.2186 C   0  0  0  0  0  0  0  0  0  0  0  0
  152.4906  142.2019  159.0031 C   0  0  0  0  0  0  0  0  0  0  0  0
  151.2827  141.4906  158.3689 C   0  0  0  0  0  0  0  0  0  0  0  0
  151.5866  140.0172  157.9902 C   0  0  1  0  0  0  0  0  0  0  0  0
  152.4917  139.9696  156.8523 N   0  5  0  0  0  0  0  0  0  0  0  0
  151.8524  139.3988  155.8053 C   0  0  0  0  0  0  0  0  0  0  0  0
  152.3099  139.2111  154.6783 O   0  0  0  0  0  0  0  0  0  0  0  0
  150.5989  139.0391  156.1408 N   0  0  0  0  0  0  0  0  0  0  0  0
  149.6345  138.4131  155.2268 C   0  0  0  0  0  0  0  0  0  0  0  0
  149.2049  137.0138  155.6869 C   0  0  0  0  0  0  0  0  0  0  0  0
  148.9058  136.8016  156.8627 O   0  0  0  0  0  0  0  0  0  0  0  0
  149.2065  136.0569  154.7469 N   0  0  0  0  0  0  0  0  0  0  0  0
  148.8431  134.6616  154.9724 C   0  0  0  0  0  0  0  0  0  0  0  0
  149.9495  133.8717  155.6970 C   0  0  0  0  0  0  0  0  0  0  0  0
  149.9939  132.4046  155.3063 C   0  0  0  0  0  0  0  0  0  0  0  0
  149.0590  131.8652  154.3983 C   0  0  0  0  0  0  0  0  0  0  0  0
  149.1388  130.4967  154.0764 C   0  0  0  0  0  0  0  0  0  0  0  0
  150.1526  129.7241  154.6775 C   0  0  0  0  0  0  0  0  0  0  0  0
  151.0528  130.2298  155.5478 N   0  0  0  0  0  0  0  0  0  0  0  0
  150.9701  131.5432  155.8503 C   0  0  0  0  0  0  0  0  0  0  0  0
  150.3385  139.3637  157.4122 C   0  0  0  0  0  0  0  0  0  0  0  0
  149.2903  139.1827  158.0338 O   0  0  0  0  0  0  0  0  0  0  0  0
  153.2923  137.6561  158.2153 H   0  0  0  0  0  0  0  0  0  0  0  0
  151.6381  137.1946  158.6080 H   0  0  0  0  0  0  0  0  0  0  0  0
  152.8497  137.2739  159.8717 H   0  0  0  0  0  0  0  0  0  0  0  0
  151.3750  139.2363  159.9826 H   0  0  0  0  0  0  0  0  0  0  0  0
  153.7004  139.4499  160.7377 H   0  0  0  0  0  0  0  0  0  0  0  0
  154.2029  139.9713  159.1506 H   0  0  0  0  0  0  0  0  0  0  0  0
  152.2650  141.4332  161.0096 H   0  0  0  0  0  0  0  0  0  0  0  0
  153.8967  141.9269  160.6237 H   0  0  0  0  0  0  0  0  0  0  0  0
  152.2107  143.2128  159.3002 H   0  0  0  0  0  0  0  0  0  0  0  0
  153.2863  142.3088  158.2649 H   0  0  0  0  0  0  0  0  0  0  0  0
  150.4548  141.5209  159.0791 H   0  0  0  0  0  0  0  0  0  0  0  0
  150.9465  142.0523  157.4953 H   0  0  0  0  0  0  0  0  0  0  0  0
  148.7586  139.0558  155.1226 H   0  0  0  0  0  0  0  0  0  0  0  0
  150.0584  138.3286  154.2249 H   0  0  0  0  0  0  0  0  0  0  0  0
  149.4721  136.3148  153.8076 H   0  0  0  0  0  0  0  0  0  0  0  0
  147.9067  134.6010  155.5289 H   0  0  0  0  0  0  0  0  0  0  0  0
  148.6502  134.2105  153.9986 H   0  0  0  0  0  0  0  0  0  0  0  0
  150.9209  134.3244  155.4940 H   0  0  0  0  0  0  0  0  0  0  0  0
  149.8043  133.9439  156.7755 H   0  0  0  0  0  0  0  0  0  0  0  0
  148.2915  132.4862  153.9596 H   0  0  0  0  0  0  0  0  0  0  0  0
  148.4389  130.0491  153.3865 H   0  0  0  0  0  0  0  0  0  0  0  0
  150.2421  128.6714  154.4543 H   0  0  0  0  0  0  0  0  0  0  0  0
  151.7018  131.9172  156.5512 H   0  0  0  0  0  0  0  0  0  0  0  0
  1  2  1  0  0  0  0
  1 26  1  0  0  0  0
  1 27  1  0  0  0  0
  1 28  1  0  0  0  0
  2  7  1  0  0  0  0
  2  3  1  0  0  0  0
  2 29  1  0  0  0  0
  3  4  1  0  0  0  0
  3 30  1  0  0  0  0
  3 31  1  0  0  0  0
  4  5  1  0  0  0  0
  4 32  1  0  0  0  0
  4 33  1  0  0  0  0
  5  6  1  0  0  0  0
  5 34  1  0  0  0  0
  5 35  1  0  0  0  0
  6  7  1  0  0  0  0
  6 36  1  0  0  0  0
  6 37  1  0  0  0  0
  7 24  1  0  0  0  0
  7  8  1  0  0  0  0
  8  9  1  0  0  0  0
  9 10  2  0  0  0  0
  9 11  1  0  0  0  0
 11 12  1  0  0  0  0
 11 24  1  0  0  0  0
 12 13  1  0  0  0  0
 12 38  1  0  0  0  0
 12 39  1  0  0  0  0
 13 14  2  0  0  0  0
 13 15  1  0  0  0  0
 15 16  1  0  0  0  0
 15 40  1  0  0  0  0
 16 17  1  0  0  0  0
 16 41  1  0  0  0  0
 16 42  1  0  0  0  0
 17 18  1  0  0  0  0
 17 43  1  0  0  0  0
 17 44  1  0  0  0  0
 18 23  1  0  0  0  0
 18 19  2  0  0  0  0
 19 20  1  0  0  0  0
 19 45  1  0  0  0  0
 20 21  2  0  0  0  0
 20 46  1  0  0  0  0
 21 22  1  0  0  0  0
 21 47  1  0  0  0  0
 22 23  2  0  0  0  0
 23 48  1  0  0  0  0
 24 25  2  0  0  0  0
M  CHG  1   8  -1
M  END
> <s_m_source_file>
AV-unprocessed.smi

> <i_m_source_file_index>
837

> <i_lp_mmshare_version>
43012

> <i_f3d_flags>
0

> <s_epik_input>
W0NIMl0xW0NIMl1bQ0gyXVtDSDJdW0NAQEhdKFtDSDNdKVtDQEBdMTJbTkhdQyg9TylOKEMyPU8pW0NIMl1DKD1PKVtOSF1bQ0gyXVtDSDJdYzNbY0hdW2NIXVtjSF1uW2NIXTM=

> <s_epik_cmdline>
J2VwaWtfcHl0aG9uJywgJy1waCcsICc3LjAnLCAnLXRuJywgJzgnLCAnLW1hJywgJzIwMCcsICctbWV0YWxfYmluZGluZycsICctaW1hZScsICc8aW5maWxlLm1hZT4nLCAnLW9tYWUnLCAnPG91dGZpbGUubWFlPic=

> <r_lp_tautomer_probability>
1

> <r_epik_Ionization_Penalty>
6.03002

> <r_epik_Ionization_Penalty_Charging>
6.01728

> <r_epik_Ionization_Penalty_Neutral>
0.0127382

> <r_epik_State_Penalty>
6.02713

> <r_epik_Charging_Adjusted_Penalty>
12.0444

> <i_epik_Tot_Q>
-1

> <i_epik_Tot_abs_Q>
1

> <r_epik_Metal_State_Penalty>
1.99078

> <b_epik_Metal_Only>
1

> <s_lp_Force_Field>
OPLS_2005

> <r_lp_Energy>
20.5142

> <b_lp_Chiralities_Consistent>
1

> <s_lp_Variant>
AV-unprocessed.smi:837-12

> <Gold.Version>
5.8.1

> <Gold.Id.Protein>
6NUR|6NUR_protein|mol2

> <Gold.PLP.Fitness>
49.1805

> <Gold.PLP.PLP>
-39.3729

> <Gold.PLP.part.hbond>
-3.0000

> <Gold.PLP.part.metal>
0.0000

> <Gold.PLP.part.buried>
-5.0850

> <Gold.PLP.part.nonpolar>
-31.2984

> <Gold.PLP.part.repulsive>
0.1074

> <Gold.PLP.ligand.clash>
0.0000

> <Gold.PLP.ligand.torsion>
0.4871

> <Gold.PLP.Chemscore.Hbond>
3.5840

> <Gold.PLP.Chemscore.CHOScore>
0.0000

> <Gold.PLP.Chemscore.Metal>
0.0000

> <Gold.Chemscore.Hbonds>
donor molecule, donor type, donor heavy atom, donor atom, acceptor molecule, acceptor atom, score
      L1  H    15    40       P1  7948  0.93
      P1  H  7989  7998       L1    10  0.60
      P1  H  7997  8009       L1     8  2.00

> <Gold.PLP.Chemscore.Internal.Correction>
0.0297

> <Gold.Rescore>
     Score         DG    S(hbond)    S(metal)    S(lipo)     H(rot)  DE(clash)    DE(int)     intcor
     17.11     -20.23       2.75        0.00      87.18       1.81       0.02       3.11       ----

> <Gold.Chemscore.Fitness>
17.1056

> <Gold.Chemscore.DG>
-20.2347

> <Gold.Chemscore.ZeroCoef>
-5.4800

> <Gold.Chemscore.Hbond>
2.7501

> <Gold.Chemscore.Metal>
0.0000

> <Gold.Chemscore.Lipo>
87.1829

> <Gold.Chemscore.Internal_Hbond>
0.0000

> <Gold.Chemscore.DEClash>
0.0211

> <Gold.Chemscore.DEInternal>
3.1080

> <Gold.Chemscore.Rot>
1.8090

> <Gold.Chemscore.Internal.Correction>
   9.000000E+99

> <Gold.Chemscore.Hbonds>
donor molecule, donor type, donor heavy atom, donor atom, acceptor molecule, acceptor atom, score
      L1  H    15    40       P1  7948  0.65
      P1  H  7989  7998       L1    10  0.35
      P1  H  7997  8009       L1     8  0.47

> <Gold.Chemscore.Hbond.Weighted>
-9.1853

> <Gold.Chemscore.Metal.Weighted>
-0.0000

> <Gold.Chemscore.Lipo.Weighted>
-10.2004

> <Gold.Chemscore.Internal_Hbond.Weighted>
0.0000

> <Gold.Chemscore.DEClash.Weighted>
0.0211

> <Gold.Chemscore.DEInternal.Weighted>
3.1080

> <Gold.Chemscore.Rot.Weighted>
4.6310

> <Gold.Chemscore.Internal.Correction.Weighted>
   9.000000E+99

> <Gold.Protein.RotatedTorsions>
[ 6907 6896 6895 6894 ] final  151.25 input  -60.11 | X-H torsion
[ 7974 7965 7964 7962 ] final    1.41 input  175.53 | X-H torsion
[ 8008 7997 7996 7995 ] final -158.47 input   59.86 | X-H torsion
[ 10167 10162 10161 10158 ] final -157.21 input  -65.29 | X-H torsion
[ 10718 10713 10712 10709 ] final  -90.96 input   66.30 | X-H torsion
[ 10763 10752 10751 10750 ] final -125.76 input  -60.55 | X-H torsion
[ 11005 11000 10999 10996 ] final -107.71 input  -57.11 | X-H torsion

> <Gold.Protein.ActiveResidues>
 VAL166  LYS551  ARG553  GLY616  TRP617  ASP618  TYR619  PRO620  LYS621  CYS622 
 ASP623  PHE694  ASN695  SER759  ASP760  ASP761  ALA762  ILE779  LEU786  VAL792 
 PHE793  MET794  SER795  GLU796  ALA797  LYS798  CYS799  TRP800  GLU811  SER814 

> <Gold.Protein.RotatedAtoms>
  152.1032  133.4261  159.4596 H   0  0  0  0  0  0  0  0  0  0  0  0  # atno 6907 bound_to 6896
  150.6864  134.2736  159.4607 H   0  0  0  0  0  0  0  0  0  0  0  0  # atno 6908 bound_to 6896
  152.0598  134.9601  160.0625 H   0  0  0  0  0  0  0  0  0  0  0  0  # atno 6909 bound_to 6896
  146.2440  140.0990  142.8348 H   0  0  0  0  0  0  0  0  0  0  0  0  # atno 7974 bound_to 7965
  155.7481  140.0823  157.2214 H   0  0  0  0  0  0  0  0  0  0  0  0  # atno 8008 bound_to 7997
  154.4015  140.1565  156.2748 H   0  0  0  0  0  0  0  0  0  0  0  0  # atno 8009 bound_to 7997
  155.8957  140.3412  155.5991 H   0  0  0  0  0  0  0  0  0  0  0  0  # atno 8010 bound_to 7997
  139.6789  143.9616  152.2325 H   0  0  0  0  0  0  0  0  0  0  0  0  # atno 10167 bound_to 10162
  155.9990  130.4930  150.5402 H   0  0  0  0  0  0  0  0  0  0  0  0  # atno 10718 bound_to 10713
  154.8739  135.4018  154.3321 H   0  0  0  0  0  0  0  0  0  0  0  0  # atno 10763 bound_to 10752
  153.4133  135.7021  153.6350 H   0  0  0  0  0  0  0  0  0  0  0  0  # atno 10764 bound_to 10752
  153.5043  135.3721  155.2526 H   0  0  0  0  0  0  0  0  0  0  0  0  # atno 10765 bound_to 10752
  141.0940  133.9005  157.2008 H   0  0  0  0  0  0  0  0  0  0  0  0  # atno 11005 bound_to 11000
  145.0584  140.9070  143.4953 LP  0  0  0  0  0  0  0  0  0  0  0  0  # atno 17320 bound_to 7965
  145.1101  139.2763  143.5641 LP  0  0  0  0  0  0  0  0  0  0  0  0  # atno 17321 bound_to 7965
  139.9400  144.6687  150.8275 LP  0  0  0  0  0  0  0  0  0  0  0  0  # atno 17342 bound_to 10162
  140.7645  143.3250  151.2535 LP  0  0  0  0  0  0  0  0  0  0  0  0  # atno 17343 bound_to 10162
  157.3339  131.0704  151.1839 LP  0  0  0  0  0  0  0  0  0  0  0  0  # atno 17370 bound_to 10713
  157.2711  130.6704  149.6020 LP  0  0  0  0  0  0  0  0  0  0  0  0  # atno 17371 bound_to 10713
  139.9772  135.0110  156.9660 LP  0  0  0  0  0  0  0  0  0  0  0  0  # atno 17394 bound_to 11000
  140.5185  134.0931  155.7286 LP  0  0  0  0  0  0  0  0  0  0  0  0  # atno 17395 bound_to 11000

$$$$
