AV-unprocessed.smi:774|AV-procd|sdf|3692|dock8
  -GOLD-   22720 1113D 1   1.00000     0.00000
 Structure written by MMmdl.
 37 38  0  0  0  0  0  0  0  0  1 V2000
  151.2077  134.9121  156.1493 C   0  0  0  0  0  0  0  0  0  0  0  0
  150.4736  135.9549  155.3021 C   0  0  0  0  0  0  0  0  0  0  0  0
  151.3719  137.5300  155.2619 S   0  0  0  0  0  0  0  0  0  0  0  0
  150.0503  138.6442  154.7034 C   0  0  1  0  0  0  0  0  0  0  0  0
  148.9635  138.8359  155.7585 C   0  0  0  0  0  0  0  0  0  0  0  0
  148.2587  140.1253  155.3373 C   0  0  0  0  0  0  0  0  0  0  0  0
  149.3396  140.9965  154.6728 C   0  0  1  0  0  0  0  0  0  0  0  0
  149.7214  142.1042  155.5470 N   0  0  0  0  0  0  0  0  0  0  0  0
  150.4314  142.0016  156.6796 C   0  0  0  0  0  0  0  0  0  0  0  0
  150.8633  140.9358  157.1158 O   0  0  0  0  0  0  0  0  0  0  0  0
  150.5973  143.2075  157.2505 N   0  0  0  0  0  0  0  0  0  0  0  0
  151.2386  143.5543  158.4727 C   0  0  0  0  0  0  0  0  0  0  0  0
  151.3233  144.9255  158.7928 C   0  0  0  0  0  0  0  0  0  0  0  0
  151.9433  145.3169  159.9942 C   0  0  0  0  0  0  0  0  0  0  0  0
  152.4595  144.3146  160.8373 C   0  0  0  0  0  0  0  0  0  0  0  0
  152.3898  142.9985  160.5488 N   0  0  0  0  0  0  0  0  0  0  0  0
  151.7935  142.6297  159.3941 C   0  0  0  0  0  0  0  0  0  0  0  0
  150.5411  140.0671  154.4136 C   0  0  0  0  0  0  0  0  0  0  0  0
  150.6575  133.9713  156.1705 H   0  0  0  0  0  0  0  0  0  0  0  0
  151.3242  135.2524  157.1785 H   0  0  0  0  0  0  0  0  0  0  0  0
  152.2007  134.7083  155.7477 H   0  0  0  0  0  0  0  0  0  0  0  0
  150.3525  135.5861  154.2835 H   0  0  0  0  0  0  0  0  0  0  0  0
  149.4753  136.1270  155.7045 H   0  0  0  0  0  0  0  0  0  0  0  0
  149.5948  138.2291  153.8031 H   0  0  0  0  0  0  0  0  0  0  0  0
  148.2819  137.9870  155.8193 H   0  0  0  0  0  0  0  0  0  0  0  0
  149.4152  138.9728  156.7420 H   0  0  0  0  0  0  0  0  0  0  0  0
  147.4880  139.8883  154.6025 H   0  0  0  0  0  0  0  0  0  0  0  0
  147.7607  140.6148  156.1754 H   0  0  0  0  0  0  0  0  0  0  0  0
  148.9588  141.3652  153.7186 H   0  0  0  0  0  0  0  0  0  0  0  0
  149.4135  143.0237  155.2657 H   0  0  0  0  0  0  0  0  0  0  0  0
  150.1901  143.9839  156.7502 H   0  0  0  0  0  0  0  0  0  0  0  0
  150.9163  145.6731  158.1273 H   0  0  0  0  0  0  0  0  0  0  0  0
  152.0202  146.3599  160.2634 H   0  0  0  0  0  0  0  0  0  0  0  0
  152.9401  144.5769  161.7682 H   0  0  0  0  0  0  0  0  0  0  0  0
  151.7736  141.5645  159.2333 H   0  0  0  0  0  0  0  0  0  0  0  0
  151.3667  140.3137  155.0837 H   0  0  0  0  0  0  0  0  0  0  0  0
  150.9170  140.1657  153.3948 H   0  0  0  0  0  0  0  0  0  0  0  0
  1  2  1  0  0  0  0
  1 19  1  0  0  0  0
  1 20  1  0  0  0  0
  1 21  1  0  0  0  0
  2  3  1  0  0  0  0
  2 22  1  0  0  0  0
  2 23  1  0  0  0  0
  3  4  1  0  0  0  0
  4 18  1  0  0  0  0
  4  5  1  0  0  0  0
  4 24  1  0  0  0  0
  5  6  1  0  0  0  0
  5 25  1  0  0  0  0
  5 26  1  0  0  0  0
  6  7  1  0  0  0  0
  6 27  1  0  0  0  0
  6 28  1  0  0  0  0
  7  8  1  0  0  0  0
  7 18  1  0  0  0  0
  7 29  1  0  0  0  0
  8  9  1  0  0  0  0
  8 30  1  0  0  0  0
  9 10  2  0  0  0  0
  9 11  1  0  0  0  0
 11 12  1  0  0  0  0
 11 31  1  0  0  0  0
 12 17  1  0  0  0  0
 12 13  2  0  0  0  0
 13 14  1  0  0  0  0
 13 32  1  0  0  0  0
 14 15  2  0  0  0  0
 14 33  1  0  0  0  0
 15 16  1  0  0  0  0
 15 34  1  0  0  0  0
 16 17  2  0  0  0  0
 17 35  1  0  0  0  0
 18 36  1  0  0  0  0
 18 37  1  0  0  0  0
M  END
> <s_m_source_file>
AV-unprocessed.smi

> <i_m_source_file_index>
774

> <i_lp_mmshare_version>
43012

> <i_f3d_flags>
0

> <s_epik_input>
W0NIM11bQ0gyXVNbQ0BASF0xW0NIMl1bQ0gyXVtDQEhdKFtDSDJdMSlbTkhdQyg9TylbTkhdYzJbY0hdW2NIXVtjSF1uW2NIXTI=

> <s_epik_cmdline>
J2VwaWtfcHl0aG9uJywgJy1waCcsICc3LjAnLCAnLXRuJywgJzgnLCAnLW1hJywgJzIwMCcsICctbWV0YWxfYmluZGluZycsICctaW1hZScsICc8aW5maWxlLm1hZT4nLCAnLW9tYWUnLCAnPG91dGZpbGUubWFlPic=

> <r_epik_Ionization_Penalty>
0.00485718

> <r_epik_Ionization_Penalty_Charging>
0

> <r_epik_Ionization_Penalty_Neutral>
0.00485718

> <r_epik_State_Penalty>
0.00349461

> <r_epik_Charging_Adjusted_Penalty>
0.00349461

> <i_epik_Tot_Q>
0

> <i_epik_Tot_abs_Q>
0

> <r_epik_Metal_State_Penalty>
-0

> <b_epik_Metal_Only>
0

> <s_lp_Force_Field>
OPLS_2005

> <r_lp_Energy>
20.4228

> <b_lp_Chiralities_Consistent>
1

> <s_lp_Variant>
AV-unprocessed.smi:774-2

> <Gold.Version>
5.8.1

> <Gold.Id.Protein>
6NUR|6NUR_protein|mol2

> <Gold.PLP.Fitness>
39.7633

> <Gold.PLP.PLP>
-34.3292

> <Gold.PLP.part.hbond>
-2.0000

> <Gold.PLP.part.metal>
0.0000

> <Gold.PLP.part.buried>
-2.2822

> <Gold.PLP.part.nonpolar>
-29.9193

> <Gold.PLP.part.repulsive>
0.2568

> <Gold.PLP.ligand.clash>
0.0000

> <Gold.PLP.ligand.torsion>
0.2497

> <Gold.PLP.Chemscore.Hbond>
1.9760

> <Gold.PLP.Chemscore.CHOScore>
0.0000

> <Gold.PLP.Chemscore.Metal>
0.0000

> <Gold.Chemscore.Hbonds>
donor molecule, donor type, donor heavy atom, donor atom, acceptor molecule, acceptor atom, score
      L1  H     8    30       P1  8028  1.00
      L1  H    11    31       P1  8028  1.00

> <Gold.PLP.Chemscore.Internal.Correction>
0.0054

> <Gold.Rescore>
     Score         DG    S(hbond)    S(metal)    S(lipo)     H(rot)  DE(clash)    DE(int)     intcor
     16.14     -20.31       1.95        0.00      99.63       1.30       1.41       2.76       ----

> <Gold.Chemscore.Fitness>
16.1423

> <Gold.Chemscore.DG>
-20.3142

> <Gold.Chemscore.ZeroCoef>
-5.4800

> <Gold.Chemscore.Hbond>
1.9507

> <Gold.Chemscore.Metal>
0.0000

> <Gold.Chemscore.Lipo>
99.6342

> <Gold.Chemscore.Internal_Hbond>
0.0000

> <Gold.Chemscore.DEClash>
1.4100

> <Gold.Chemscore.DEInternal>
2.7620

> <Gold.Chemscore.Rot>
1.3041

> <Gold.Chemscore.Internal.Correction>
   9.000000E+99

> <Gold.Chemscore.Hbonds>
donor molecule, donor type, donor heavy atom, donor atom, acceptor molecule, acceptor atom, score
      L1  H     8    30       P1  8028  0.96
      L1  H    11    31       P1  8028  0.96

> <Gold.Chemscore.Hbond.Weighted>
-6.5154

> <Gold.Chemscore.Metal.Weighted>
-0.0000

> <Gold.Chemscore.Lipo.Weighted>
-11.6572

> <Gold.Chemscore.Internal_Hbond.Weighted>
0.0000

> <Gold.Chemscore.DEClash.Weighted>
1.4100

> <Gold.Chemscore.DEInternal.Weighted>
2.7620

> <Gold.Chemscore.Rot.Weighted>
3.3384

> <Gold.Chemscore.Internal.Correction.Weighted>
   9.000000E+99

> <Gold.Protein.RotatedTorsions>
[ 6907 6896 6895 6894 ] final  -83.14 input  -60.11 | X-H torsion
[ 7974 7965 7964 7962 ] final -172.47 input  175.53 | X-H torsion
[ 8008 7997 7996 7995 ] final  124.23 input   59.86 | X-H torsion
[ 10167 10162 10161 10158 ] final  -68.56 input  -65.29 | X-H torsion
[ 10718 10713 10712 10709 ] final  -38.44 input   66.30 | X-H torsion
[ 10763 10752 10751 10750 ] final    7.30 input  -60.55 | X-H torsion
[ 11005 11000 10999 10996 ] final  -78.42 input  -57.11 | X-H torsion

> <Gold.Protein.ActiveResidues>
 VAL166  LYS551  ARG553  GLY616  TRP617  ASP618  TYR619  PRO620  LYS621  CYS622 
 ASP623  PHE694  ASN695  SER759  ASP760  ASP761  ALA762  ILE779  LEU786  VAL792 
 PHE793  MET794  SER795  GLU796  ALA797  LYS798  CYS799  TRP800  GLU811  SER814 

> <Gold.Protein.RotatedAtoms>
  150.6889  134.3558  159.4928 H   0  0  0  0  0  0  0  0  0  0  0  0  # atno 6907 bound_to 6896
  152.1393  134.9072  160.0564 H   0  0  0  0  0  0  0  0  0  0  0  0  # atno 6908 bound_to 6896
  152.0212  133.3864  159.4296 H   0  0  0  0  0  0  0  0  0  0  0  0  # atno 6909 bound_to 6896
  144.7146  140.1767  143.6362 H   0  0  0  0  0  0  0  0  0  0  0  0  # atno 7974 bound_to 7965
  156.2794  140.2744  156.1754 H   0  0  0  0  0  0  0  0  0  0  0  0  # atno 8008 bound_to 7997
  155.0611  140.0386  157.2595 H   0  0  0  0  0  0  0  0  0  0  0  0  # atno 8009 bound_to 7997
  154.7116  140.2670  155.6629 H   0  0  0  0  0  0  0  0  0  0  0  0  # atno 8010 bound_to 7997
  140.5498  143.2312  151.6933 H   0  0  0  0  0  0  0  0  0  0  0  0  # atno 10167 bound_to 10162
  156.3038  130.4243  149.8117 H   0  0  0  0  0  0  0  0  0  0  0  0  # atno 10718 bound_to 10713
  153.2378  135.6900  153.7816 H   0  0  0  0  0  0  0  0  0  0  0  0  # atno 10763 bound_to 10752
  153.6957  135.3305  155.3213 H   0  0  0  0  0  0  0  0  0  0  0  0  # atno 10764 bound_to 10752
  154.8342  135.4556  154.1289 H   0  0  0  0  0  0  0  0  0  0  0  0  # atno 10765 bound_to 10752
  141.1664  133.7062  156.7968 H   0  0  0  0  0  0  0  0  0  0  0  0  # atno 11005 bound_to 11000
  145.8894  139.2367  143.1558 LP  0  0  0  0  0  0  0  0  0  0  0  0  # atno 17320 bound_to 7965
  145.9918  140.8596  143.0062 LP  0  0  0  0  0  0  0  0  0  0  0  0  # atno 17321 bound_to 7965
  139.5022  144.3836  152.0351 LP  0  0  0  0  0  0  0  0  0  0  0  0  # atno 17342 bound_to 10162
  140.2952  144.3709  150.6076 LP  0  0  0  0  0  0  0  0  0  0  0  0  # atno 17343 bound_to 10162
  156.5486  130.8331  151.3292 LP  0  0  0  0  0  0  0  0  0  0  0  0  # atno 17370 bound_to 10713
  157.7374  130.9796  150.2193 LP  0  0  0  0  0  0  0  0  0  0  0  0  # atno 17371 bound_to 10713
  140.2285  134.8704  157.3452 LP  0  0  0  0  0  0  0  0  0  0  0  0  # atno 17394 bound_to 11000
  140.1915  134.4366  155.7713 LP  0  0  0  0  0  0  0  0  0  0  0  0  # atno 17395 bound_to 11000

$$$$
