AV-unprocessed.smi:218|AV-procd|sdf|1666|dock6
  -GOLD-   2262020 73D 1   1.00000     0.00000
 Structure written by MMmdl.
 54 57  0  0  0  0  0  0  0  0  1 V2000
  146.6867  128.4339  151.9597 C   0  0  0  0  0  0  0  0  0  0  0  0
  147.5729  128.5429  153.2061 C   0  0  0  0  0  0  0  0  0  0  0  0
  146.7242  128.6360  154.4858 C   0  0  0  0  0  0  0  0  0  0  0  0
  148.3671  129.7208  153.0497 O   0  0  0  0  0  0  0  0  0  0  0  0
  149.1849  130.1492  154.0780 C   0  0  0  0  0  0  0  0  0  0  0  0
  149.4329  131.5318  154.2022 C   0  0  0  0  0  0  0  0  0  0  0  0
  150.2786  131.9836  155.2365 C   0  0  0  0  0  0  0  0  0  0  0  0
  150.5931  133.4606  155.3985 C   0  0  0  0  0  0  0  0  0  0  0  0
  150.3634  133.9973  156.7356 N   0  0  0  0  0  0  0  0  0  0  0  0
  150.1517  135.3184  156.9263 C   0  0  0  0  0  0  0  0  0  0  0  0
  149.6299  135.7866  158.0902 N   0  0  0  0  0  0  0  0  0  0  0  0
  149.4448  137.0988  158.2594 C   0  0  0  0  0  0  0  0  0  0  0  0
  149.7162  138.0950  157.4140 N   0  0  0  0  0  0  0  0  0  0  0  0
  150.2431  137.6319  156.2437 C   0  0  0  0  0  0  0  0  0  0  0  0
  150.4872  136.2667  155.9250 C   0  0  0  0  0  0  0  0  0  0  0  0
  151.0299  136.1708  154.6504 N   0  0  0  0  0  0  0  0  0  0  0  0
  151.1067  137.4102  154.2457 C   0  0  0  0  0  0  0  0  0  0  0  0
  150.6562  138.3540  155.1419 N   0  0  0  0  0  0  0  0  0  0  0  0
  150.6259  139.8372  154.9629 C   0  0  2  0  0  0  0  0  0  0  0  0
  150.8142  140.4302  156.2080 O   0  0  0  0  0  0  0  0  0  0  0  0
  150.0570  141.6298  156.2652 C   0  0  2  0  0  0  0  0  0  0  0  0
  149.8504  142.0818  157.7213 C   0  0  0  0  0  0  0  0  0  0  0  0
  148.9166  143.1390  157.7708 O   0  0  0  0  0  0  0  0  0  0  0  0
  148.7782  141.2773  155.4888 C   0  0  2  0  0  0  0  0  0  0  0  0
  147.8156  140.6561  156.3200 O   0  0  0  0  0  0  0  0  0  0  0  0
  149.2647  140.3040  154.4169 C   0  0  1  0  0  0  0  0  0  0  0  0
  149.4193  140.9937  153.1924 O   0  0  0  0  0  0  0  0  0  0  0  0
  150.8431  131.0321  156.1090 C   0  0  0  0  0  0  0  0  0  0  0  0
  150.5333  129.6731  155.9095 C   0  0  0  0  0  0  0  0  0  0  0  0
  149.7285  129.2339  154.9186 N   0  0  0  0  0  0  0  0  0  0  0  0
  151.4655  140.0616  154.3031 H   0  0  0  0  0  0  0  0  0  0  0  0
  150.5915  142.3999  155.7048 H   0  0  0  0  0  0  0  0  0  0  0  0
  148.3140  142.1697  155.0658 H   0  0  0  0  0  0  0  0  0  0  0  0
  148.5823  139.4642  154.2730 H   0  0  0  0  0  0  0  0  0  0  0  0
  146.0526  127.5480  152.0044 H   0  0  0  0  0  0  0  0  0  0  0  0
  147.2926  128.3616  151.0562 H   0  0  0  0  0  0  0  0  0  0  0  0
  146.0385  129.3048  151.8571 H   0  0  0  0  0  0  0  0  0  0  0  0
  148.1965  127.6481  153.2362 H   0  0  0  0  0  0  0  0  0  0  0  0
  146.0884  127.7571  154.5960 H   0  0  0  0  0  0  0  0  0  0  0  0
  146.0784  129.5144  154.4654 H   0  0  0  0  0  0  0  0  0  0  0  0
  147.3442  128.7035  155.3791 H   0  0  0  0  0  0  0  0  0  0  0  0
  148.9852  132.2304  153.5108 H   0  0  0  0  0  0  0  0  0  0  0  0
  151.6241  133.6570  155.1007 H   0  0  0  0  0  0  0  0  0  0  0  0
  149.9657  134.0164  154.7018 H   0  0  0  0  0  0  0  0  0  0  0  0
  150.4019  133.3300  157.4926 H   0  0  0  0  0  0  0  0  0  0  0  0
  149.0220  137.3929  159.2088 H   0  0  0  0  0  0  0  0  0  0  0  0
  151.4992  137.6723  153.2740 H   0  0  0  0  0  0  0  0  0  0  0  0
  149.4450  141.2622  158.3154 H   0  0  0  0  0  0  0  0  0  0  0  0
  150.7910  142.3864  158.1819 H   0  0  0  0  0  0  0  0  0  0  0  0
  149.2994  143.8943  157.3505 H   0  0  0  0  0  0  0  0  0  0  0  0
  146.9567  140.8192  155.9617 H   0  0  0  0  0  0  0  0  0  0  0  0
  149.3325  140.3727  152.4854 H   0  0  0  0  0  0  0  0  0  0  0  0
  151.4966  131.3332  156.9145 H   0  0  0  0  0  0  0  0  0  0  0  0
  150.9471  128.9172  156.5607 H   0  0  0  0  0  0  0  0  0  0  0  0
  1  2  1  0  0  0  0
  1 35  1  0  0  0  0
  1 36  1  0  0  0  0
  1 37  1  0  0  0  0
  2  3  1  0  0  0  0
  2  4  1  0  0  0  0
  2 38  1  0  0  0  0
  3 39  1  0  0  0  0
  3 40  1  0  0  0  0
  3 41  1  0  0  0  0
  4  5  1  0  0  0  0
  5 30  1  0  0  0  0
  5  6  2  0  0  0  0
  6  7  1  0  0  0  0
  6 42  1  0  0  0  0
  7  8  1  0  0  0  0
  7 28  2  0  0  0  0
  8  9  1  0  0  0  0
  8 43  1  0  0  0  0
  8 44  1  0  0  0  0
  9 10  1  0  0  0  0
  9 45  1  0  0  0  0
 10 15  1  0  0  0  0
 10 11  2  0  0  0  0
 11 12  1  0  0  0  0
 12 13  2  0  0  0  0
 12 46  1  0  0  0  0
 13 14  1  0  0  0  0
 14 18  1  0  0  0  0
 14 15  2  0  0  0  0
 15 16  1  0  0  0  0
 16 17  2  0  0  0  0
 17 18  1  0  0  0  0
 17 47  1  0  0  0  0
 18 19  1  0  0  0  0
 19 31  1  0  0  0  0
 19 26  1  0  0  0  0
 19 20  1  0  0  0  0
 20 21  1  0  0  0  0
 21 32  1  0  0  0  0
 21 22  1  0  0  0  0
 21 24  1  0  0  0  0
 22 23  1  0  0  0  0
 22 48  1  0  0  0  0
 22 49  1  0  0  0  0
 23 50  1  0  0  0  0
 24 33  1  0  0  0  0
 24 25  1  0  0  0  0
 24 26  1  0  0  0  0
 25 51  1  0  0  0  0
 26 34  1  0  0  0  0
 26 27  1  0  0  0  0
 27 52  1  0  0  0  0
 28 29  1  0  0  0  0
 28 53  1  0  0  0  0
 29 30  2  0  0  0  0
 29 54  1  0  0  0  0
M  END
> <s_m_source_file>
AV-unprocessed.smi

> <i_m_source_file_index>
218

> <i_lp_mmshare_version>
43012

> <i_f3d_flags>
0

> <s_epik_input>
W0NIM11bQ0hdKFtDSDNdKU9jMVtjSF1jKFtjSF1bY0hdbjEpW0NIMl1bTkhdYyhuW2NIXW4yKWMoYzIzKW5bY0hdbjNbQ0BASF00T1tDQEhdKFtDSDJdW09IXSlbQ0BASF0oW09IXSlbQ0BIXTRbT0hd

> <s_epik_cmdline>
J2VwaWtfcHl0aG9uJywgJy1waCcsICc3LjAnLCAnLXRuJywgJzgnLCAnLW1hJywgJzIwMCcsICctbWV0YWxfYmluZGluZycsICctaW1hZScsICc8aW5maWxlLm1hZT4nLCAnLW9tYWUnLCAnPG91dGZpbGUubWFlPic=

> <r_lp_tautomer_probability>
1

> <r_epik_Ionization_Penalty>
0.00457014

> <r_epik_Ionization_Penalty_Charging>
0

> <r_epik_Ionization_Penalty_Neutral>
0.00457014

> <r_epik_State_Penalty>
-0

> <r_epik_Charging_Adjusted_Penalty>
0

> <i_epik_Tot_Q>
0

> <i_epik_Tot_abs_Q>
0

> <r_epik_Metal_State_Penalty>
-0

> <b_epik_Metal_Only>
0

> <s_epik_Chemistry_Notes>
This compound contains an acetal/aminal-like group ( X-CH(R)-Y where X, Y are N, S, or O) that may be acid/base labile, releasing an aldehyde.

> <s_lp_Force_Field>
OPLS_2005

> <r_lp_Energy>
40.0122

> <b_lp_Chiralities_Consistent>
1

> <s_lp_Variant>
AV-unprocessed.smi:218-5

> <Gold.Version>
5.8.1

> <Gold.Id.Protein>
6NUR|6NUR_protein|mol2

> <Gold.PLP.Fitness>
54.1067

> <Gold.PLP.PLP>
-41.5208

> <Gold.PLP.part.hbond>
-6.3800

> <Gold.PLP.part.metal>
0.0000

> <Gold.PLP.part.buried>
-4.9664

> <Gold.PLP.part.nonpolar>
-31.6261

> <Gold.PLP.part.repulsive>
0.5309

> <Gold.PLP.ligand.clash>
0.0000

> <Gold.PLP.ligand.torsion>
1.4444

> <Gold.PLP.Chemscore.Hbond>
4.3687

> <Gold.PLP.Chemscore.CHOScore>
0.7221

> <Gold.PLP.Chemscore.Metal>
0.0000

> <Gold.Chemscore.Hbonds>
donor molecule, donor type, donor heavy atom, donor atom, acceptor molecule, acceptor atom, score
      L1  H    23    50       P1  8028  0.62
      L1  H    27    52       P1  7957  0.61
      P1  H  6896  6909       L1    11  0.65
      P1  H  7989  7998       L1    27  0.05
      P1  H  8011  8017       L1    27  1.00
      P1  H 10752 10763       L1    16  0.93
      L1  C    17    47       P1  7949  0.72

> <Gold.PLP.Chemscore.Internal.Correction>
0.2023

> <Gold.Rescore>
     Score         DG    S(hbond)    S(metal)    S(lipo)     H(rot)  DE(clash)    DE(int)     intcor
      3.73      -8.53       2.29        0.00      68.08       4.90       0.05       4.76       ----

> <Gold.Chemscore.Fitness>
3.7300

> <Gold.Chemscore.DG>
-8.5331

> <Gold.Chemscore.ZeroCoef>
-5.4800

> <Gold.Chemscore.Hbond>
2.2873

> <Gold.Chemscore.Metal>
0.0000

> <Gold.Chemscore.Lipo>
68.0765

> <Gold.Chemscore.Internal_Hbond>
0.0000

> <Gold.Chemscore.DEClash>
0.0471

> <Gold.Chemscore.DEInternal>
4.7560

> <Gold.Chemscore.Rot>
4.9029

> <Gold.Chemscore.Internal.Correction>
   9.000000E+99

> <Gold.Chemscore.Hbonds>
donor molecule, donor type, donor heavy atom, donor atom, acceptor molecule, acceptor atom, score
      L1  H    23    50       P1  8028  0.19
      L1  H    27    52       P1  7957  0.60
      P1  H  6896  6909       L1    11  0.26
      P1  H  8011  8017       L1    27  0.26
      P1  H 10752 10763       L1    16  0.31

> <Gold.Chemscore.Hbond.Weighted>
-7.6397

> <Gold.Chemscore.Metal.Weighted>
-0.0000

> <Gold.Chemscore.Lipo.Weighted>
-7.9650

> <Gold.Chemscore.Internal_Hbond.Weighted>
0.0000

> <Gold.Chemscore.DEClash.Weighted>
0.0471

> <Gold.Chemscore.DEInternal.Weighted>
4.7560

> <Gold.Chemscore.Rot.Weighted>
12.5515

> <Gold.Chemscore.Internal.Correction.Weighted>
   9.000000E+99

> <Gold.Protein.RotatedTorsions>
[ 6907 6896 6895 6894 ] final   63.06 input  -60.11 | X-H torsion
[ 7974 7965 7964 7962 ] final  138.20 input  175.53 | X-H torsion
[ 8008 7997 7996 7995 ] final  -59.05 input   59.86 | X-H torsion
[ 10167 10162 10161 10158 ] final  100.80 input  -65.29 | X-H torsion
[ 10718 10713 10712 10709 ] final  142.57 input   66.30 | X-H torsion
[ 10763 10752 10751 10750 ] final   73.00 input  -60.55 | X-H torsion
[ 11005 11000 10999 10996 ] final -133.38 input  -57.11 | X-H torsion

> <Gold.Protein.ActiveResidues>
 VAL166  LYS551  ARG553  GLY616  TRP617  ASP618  TYR619  PRO620  LYS621  CYS622 
 ASP623  PHE694  ASN695  SER759  ASP760  ASP761  ALA762  ILE779  LEU786  VAL792 
 PHE793  MET794  SER795  GLU796  ALA797  LYS798  CYS799  TRP800  GLU811  SER814 

> <Gold.Protein.RotatedAtoms>
  152.4223  134.5933  159.9979 H   0  0  0  0  0  0  0  0  0  0  0  0  # atno 6907 bound_to 6896
  151.6079  133.3344  159.3069 H   0  0  0  0  0  0  0  0  0  0  0  0  # atno 6908 bound_to 6896
  150.8111  134.7304  159.6754 H   0  0  0  0  0  0  0  0  0  0  0  0  # atno 6909 bound_to 6896
  144.9395  139.4948  143.5578 H   0  0  0  0  0  0  0  0  0  0  0  0  # atno 7974 bound_to 7965
  154.4335  140.1070  156.6054 H   0  0  0  0  0  0  0  0  0  0  0  0  # atno 8008 bound_to 7997
  155.5866  140.3491  155.4536 H   0  0  0  0  0  0  0  0  0  0  0  0  # atno 8009 bound_to 7997
  156.0278  140.1254  157.0279 H   0  0  0  0  0  0  0  0  0  0  0  0  # atno 8010 bound_to 7997
  139.7495  144.6988  151.0454 H   0  0  0  0  0  0  0  0  0  0  0  0  # atno 10167 bound_to 10162
  157.3790  131.0989  151.0757 H   0  0  0  0  0  0  0  0  0  0  0  0  # atno 10718 bound_to 10713
  153.0493  135.5079  154.7827 H   0  0  0  0  0  0  0  0  0  0  0  0  # atno 10763 bound_to 10752
  154.6702  135.2952  154.9754 H   0  0  0  0  0  0  0  0  0  0  0  0  # atno 10764 bound_to 10752
  154.0575  135.6695  153.4860 H   0  0  0  0  0  0  0  0  0  0  0  0  # atno 10765 bound_to 10752
  140.9086  134.1597  157.4406 H   0  0  0  0  0  0  0  0  0  0  0  0  # atno 11005 bound_to 11000
  146.3280  139.8404  142.8891 LP  0  0  0  0  0  0  0  0  0  0  0  0  # atno 17320 bound_to 7965
  145.3013  141.0195  143.3607 LP  0  0  0  0  0  0  0  0  0  0  0  0  # atno 17321 bound_to 7965
  140.7796  143.4826  150.9997 LP  0  0  0  0  0  0  0  0  0  0  0  0  # atno 17342 bound_to 10162
  139.8514  143.7433  152.3178 LP  0  0  0  0  0  0  0  0  0  0  0  0  # atno 17343 bound_to 10162
  157.1833  130.6319  149.5679 LP  0  0  0  0  0  0  0  0  0  0  0  0  # atno 17370 bound_to 10713
  155.9771  130.4746  150.6574 LP  0  0  0  0  0  0  0  0  0  0  0  0  # atno 17371 bound_to 10713
  139.8753  134.9927  156.5608 LP  0  0  0  0  0  0  0  0  0  0  0  0  # atno 17394 bound_to 11000
  140.8139  133.8407  155.8834 LP  0  0  0  0  0  0  0  0  0  0  0  0  # atno 17395 bound_to 11000

$$$$
