AV-unprocessed.smi:2159|AV-procd|sdf|8791|dock5
  -GOLD-   2272011573D 1   1.00000     0.00000
 Structure written by MMmdl.
 47 49  0  0  0  0  0  0  0  0  1 V2000
  154.1035  136.0577  160.3748 O   0  0  0  0  0  0  0  0  0  0  0  0
  154.1841  136.8792  161.2881 C   0  0  0  0  0  0  0  0  0  0  0  0
  153.5833  138.2753  161.1184 C   0  0  0  0  0  0  0  0  0  0  0  0
  152.9235  138.4505  159.7365 C   0  0  0  0  0  0  0  0  0  0  0  0
  152.6457  139.8592  159.4505 N   0  0  0  0  0  0  0  0  0  0  0  0
  153.3890  140.8865  159.9035 C   0  0  0  0  0  0  0  0  0  0  0  0
  154.4438  140.8221  160.5338 O   0  0  0  0  0  0  0  0  0  0  0  0
  152.6733  142.1896  159.5807 C   0  0  1  0  0  0  0  0  0  0  0  0
  153.4222  143.4771  159.2332 C   0  0  0  0  0  0  0  0  0  0  0  0
  152.3460  144.5679  158.9880 C   0  0  0  0  0  0  0  0  0  0  0  0
  151.2288  144.1422  157.9900 C   0  0  0  0  0  0  0  0  0  0  0  0
  150.6331  142.7365  158.2691 C   0  0  0  0  0  0  0  0  0  0  0  0
  151.8133  141.7733  158.4034 C   0  0  2  0  0  0  0  0  0  0  0  0
  151.6310  140.2873  158.6752 C   0  0  0  0  0  0  0  0  0  0  0  0
  150.7311  139.6068  158.1834 O   0  0  0  0  0  0  0  0  0  0  0  0
  154.8098  136.6353  162.4509 N   0  0  0  0  0  0  0  0  0  0  0  0
  155.5679  135.4267  162.7664 C   0  0  0  0  0  0  0  0  0  0  0  0
  155.2517  134.8827  164.1748 C   0  0  0  0  0  0  0  0  0  0  0  0
  154.5949  133.5115  164.1747 C   0  0  0  0  0  0  0  0  0  0  0  0
  153.9619  133.0201  165.3361 C   0  0  0  0  0  0  0  0  0  0  0  0
  153.3238  131.7663  165.2725 C   0  0  0  0  0  0  0  0  0  0  0  0
  153.3438  131.0552  164.0571 C   0  0  0  0  0  0  0  0  0  0  0  0
  154.0052  131.6311  162.9544 C   0  0  0  0  0  0  0  0  0  0  0  0
  154.6186  132.8329  163.0043 N   0  0  0  0  0  0  0  0  0  0  0  0
  152.8532  138.4467  161.9102 H   0  0  0  0  0  0  0  0  0  0  0  0
  154.3691  139.0208  161.2510 H   0  0  0  0  0  0  0  0  0  0  0  0
  153.5676  138.0431  158.9548 H   0  0  0  0  0  0  0  0  0  0  0  0
  151.9999  137.8707  159.6854 H   0  0  0  0  0  0  0  0  0  0  0  0
  152.0443  142.3913  160.4509 H   0  0  0  0  0  0  0  0  0  0  0  0
  154.0858  143.7727  160.0463 H   0  0  0  0  0  0  0  0  0  0  0  0
  154.0422  143.3394  158.3462 H   0  0  0  0  0  0  0  0  0  0  0  0
  151.8803  144.8177  159.9420 H   0  0  0  0  0  0  0  0  0  0  0  0
  152.8221  145.4850  158.6399 H   0  0  0  0  0  0  0  0  0  0  0  0
  150.4320  144.8866  157.9879 H   0  0  0  0  0  0  0  0  0  0  0  0
  151.6465  144.1493  156.9825 H   0  0  0  0  0  0  0  0  0  0  0  0
  150.0326  142.7448  159.1795 H   0  0  0  0  0  0  0  0  0  0  0  0
  149.9758  142.4334  157.4534 H   0  0  0  0  0  0  0  0  0  0  0  0
  152.3941  141.8236  157.4796 H   0  0  0  0  0  0  0  0  0  0  0  0
  154.8229  137.3717  163.1418 H   0  0  0  0  0  0  0  0  0  0  0  0
  155.3322  134.6678  162.0200 H   0  0  0  0  0  0  0  0  0  0  0  0
  156.6395  135.6132  162.6777 H   0  0  0  0  0  0  0  0  0  0  0  0
  156.1726  134.8309  164.7578 H   0  0  0  0  0  0  0  0  0  0  0  0
  154.6042  135.5847  164.7013 H   0  0  0  0  0  0  0  0  0  0  0  0
  153.9528  133.5962  166.2495 H   0  0  0  0  0  0  0  0  0  0  0  0
  152.8236  131.3601  166.1392 H   0  0  0  0  0  0  0  0  0  0  0  0
  152.8625  130.0923  163.9716 H   0  0  0  0  0  0  0  0  0  0  0  0
  154.0379  131.1157  162.0058 H   0  0  0  0  0  0  0  0  0  0  0  0
  1  2  2  0  0  0  0
  2  3  1  0  0  0  0
  2 16  1  0  0  0  0
  3  4  1  0  0  0  0
  3 25  1  0  0  0  0
  3 26  1  0  0  0  0
  4  5  1  0  0  0  0
  4 27  1  0  0  0  0
  4 28  1  0  0  0  0
  5 14  1  0  0  0  0
  5  6  1  0  0  0  0
  6  7  2  0  0  0  0
  6  8  1  0  0  0  0
  8 13  1  0  0  0  0
  8  9  1  0  0  0  0
  8 29  1  0  0  0  0
  9 10  1  0  0  0  0
  9 30  1  0  0  0  0
  9 31  1  0  0  0  0
 10 11  1  0  0  0  0
 10 32  1  0  0  0  0
 10 33  1  0  0  0  0
 11 12  1  0  0  0  0
 11 34  1  0  0  0  0
 11 35  1  0  0  0  0
 12 13  1  0  0  0  0
 12 36  1  0  0  0  0
 12 37  1  0  0  0  0
 13 14  1  0  0  0  0
 13 38  1  0  0  0  0
 14 15  2  0  0  0  0
 16 17  1  0  0  0  0
 16 39  1  0  0  0  0
 17 18  1  0  0  0  0
 17 40  1  0  0  0  0
 17 41  1  0  0  0  0
 18 19  1  0  0  0  0
 18 42  1  0  0  0  0
 18 43  1  0  0  0  0
 19 24  1  0  0  0  0
 19 20  2  0  0  0  0
 20 21  1  0  0  0  0
 20 44  1  0  0  0  0
 21 22  2  0  0  0  0
 21 45  1  0  0  0  0
 22 23  1  0  0  0  0
 22 46  1  0  0  0  0
 23 24  2  0  0  0  0
 23 47  1  0  0  0  0
M  END
> <s_m_source_file>
AV-unprocessed.smi

> <i_m_source_file_index>
2159

> <i_lp_mmshare_version>
43012

> <i_f3d_flags>
0

> <s_epik_input>
bjFbY0hdW2NIXVtjSF1bY0hdYzFbQ0gyXVtDSDJdW05IXUMoPU8pW0NIMl1bQ0gyXU4oQzI9TylDKD1PKVtDQEhdKFtDQEBIXTIzKVtDSDJdW0NIMl1bQ0gyXVtDSDJdMw==

> <s_epik_cmdline>
J2VwaWtfcHl0aG9uJywgJy1waCcsICc3LjAnLCAnLXRuJywgJzgnLCAnLW1hJywgJzIwMCcsICctbWV0YWxfYmluZGluZycsICctaW1hZScsICc8aW5maWxlLm1hZT4nLCAnLW9tYWUnLCAnPG91dGZpbGUubWFlPic=

> <r_lp_tautomer_probability>
1

> <r_epik_Ionization_Penalty>
0.026624

> <r_epik_Ionization_Penalty_Charging>
0

> <r_epik_Ionization_Penalty_Neutral>
0.026624

> <r_epik_State_Penalty>
0.0217444

> <r_epik_Charging_Adjusted_Penalty>
0.0217444

> <i_epik_Tot_Q>
0

> <i_epik_Tot_abs_Q>
0

> <r_epik_Metal_State_Penalty>
0.0208054

> <b_epik_Metal_Only>
0

> <s_lp_Force_Field>
OPLS_2005

> <r_lp_Energy>
31.6251

> <b_lp_Chiralities_Consistent>
1

> <s_lp_Variant>
AV-unprocessed.smi:2159-1

> <Gold.Version>
5.8.1

> <Gold.Id.Protein>
6NUR|6NUR_protein|mol2

> <Gold.PLP.Fitness>
48.6872

> <Gold.PLP.PLP>
-47.7062

> <Gold.PLP.part.hbond>
-0.9895

> <Gold.PLP.part.metal>
0.0000

> <Gold.PLP.part.buried>
-6.8939

> <Gold.PLP.part.nonpolar>
-41.3396

> <Gold.PLP.part.repulsive>
0.0198

> <Gold.PLP.ligand.clash>
0.0000

> <Gold.PLP.ligand.torsion>
1.0616

> <Gold.PLP.Chemscore.Hbond>
1.0000

> <Gold.PLP.Chemscore.CHOScore>
0.0000

> <Gold.PLP.Chemscore.Metal>
0.0000

> <Gold.Chemscore.Hbonds>
donor molecule, donor type, donor heavy atom, donor atom, acceptor molecule, acceptor atom, score
      P1  H  6896  6908       L1     1  0.63

> <Gold.PLP.Chemscore.Internal.Correction>
0.1042

> <Gold.Rescore>
     Score         DG    S(hbond)    S(metal)    S(lipo)     H(rot)  DE(clash)    DE(int)     intcor
     17.08     -19.46       1.00        0.00     134.10       1.97       0.05       2.33       ----

> <Gold.Chemscore.Fitness>
17.0807

> <Gold.Chemscore.DG>
-19.4558

> <Gold.Chemscore.ZeroCoef>
-5.4800

> <Gold.Chemscore.Hbond>
0.9972

> <Gold.Chemscore.Metal>
0.0000

> <Gold.Chemscore.Lipo>
134.0972

> <Gold.Chemscore.Internal_Hbond>
0.0000

> <Gold.Chemscore.DEClash>
0.0494

> <Gold.Chemscore.DEInternal>
2.3257

> <Gold.Chemscore.Rot>
1.9704

> <Gold.Chemscore.Internal.Correction>
   9.000000E+99

> <Gold.Chemscore.Hbonds>
donor molecule, donor type, donor heavy atom, donor atom, acceptor molecule, acceptor atom, score
      P1  H  6896  6908       L1     1  0.64

> <Gold.Chemscore.Hbond.Weighted>
-3.3307

> <Gold.Chemscore.Metal.Weighted>
-0.0000

> <Gold.Chemscore.Lipo.Weighted>
-15.6894

> <Gold.Chemscore.Internal_Hbond.Weighted>
0.0000

> <Gold.Chemscore.DEClash.Weighted>
0.0494

> <Gold.Chemscore.DEInternal.Weighted>
2.3257

> <Gold.Chemscore.Rot.Weighted>
5.0443

> <Gold.Chemscore.Internal.Correction.Weighted>
   9.000000E+99

> <Gold.Protein.RotatedTorsions>
[ 6907 6896 6895 6894 ] final  -67.40 input  -60.11 | X-H torsion
[ 7974 7965 7964 7962 ] final -102.54 input  175.53 | X-H torsion
[ 8008 7997 7996 7995 ] final   81.52 input   59.86 | X-H torsion
[ 10167 10162 10161 10158 ] final  -79.16 input  -65.29 | X-H torsion
[ 10718 10713 10712 10709 ] final   -8.38 input   66.30 | X-H torsion
[ 10763 10752 10751 10750 ] final  -24.77 input  -60.55 | X-H torsion
[ 11005 11000 10999 10996 ] final  -14.34 input  -57.11 | X-H torsion

> <Gold.Protein.ActiveResidues>
 VAL166  LYS551  ARG553  GLY616  TRP617  ASP618  TYR619  PRO620  LYS621  CYS622 
 ASP623  PHE694  ASN695  SER759  ASP760  ASP761  ALA762  ILE779  LEU786  VAL792 
 PHE793  MET794  SER795  GLU796  ALA797  LYS798  CYS799  TRP800  GLU811  SER814 

> <Gold.Protein.RotatedAtoms>
  150.7411  134.5885  159.5975 H   0  0  0  0  0  0  0  0  0  0  0  0  # atno 6907 bound_to 6896
  152.3279  134.7293  160.0306 H   0  0  0  0  0  0  0  0  0  0  0  0  # atno 6908 bound_to 6896
  151.7787  133.3312  159.3502 H   0  0  0  0  0  0  0  0  0  0  0  0  # atno 6909 bound_to 6896
  145.2674  140.9288  143.3006 H   0  0  0  0  0  0  0  0  0  0  0  0  # atno 7974 bound_to 7965
  155.8982  140.3435  155.6006 H   0  0  0  0  0  0  0  0  0  0  0  0  # atno 8008 bound_to 7997
  155.7531  140.0822  157.2210 H   0  0  0  0  0  0  0  0  0  0  0  0  # atno 8009 bound_to 7997
  154.4040  140.1549  156.2734 H   0  0  0  0  0  0  0  0  0  0  0  0  # atno 8010 bound_to 7997
  140.4618  143.2451  151.8337 H   0  0  0  0  0  0  0  0  0  0  0  0  # atno 10167 bound_to 10162
  156.7034  130.5100  149.5911 H   0  0  0  0  0  0  0  0  0  0  0  0  # atno 10718 bound_to 10713
  153.6891  135.6962  153.5095 H   0  0  0  0  0  0  0  0  0  0  0  0  # atno 10763 bound_to 10752
  153.2427  135.4301  155.0714 H   0  0  0  0  0  0  0  0  0  0  0  0  # atno 10764 bound_to 10752
  154.8378  135.3512  154.6433 H   0  0  0  0  0  0  0  0  0  0  0  0  # atno 10765 bound_to 10752
  140.7854  133.8329  155.9330 H   0  0  0  0  0  0  0  0  0  0  0  0  # atno 11005 bound_to 11000
  144.9365  139.4238  143.6470 LP  0  0  0  0  0  0  0  0  0  0  0  0  # atno 17320 bound_to 7965
  146.3257  139.8303  142.8909 LP  0  0  0  0  0  0  0  0  0  0  0  0  # atno 17321 bound_to 7965
  139.4807  144.4998  151.9075 LP  0  0  0  0  0  0  0  0  0  0  0  0  # atno 17342 bound_to 10162
  140.4084  144.2402  150.5890 LP  0  0  0  0  0  0  0  0  0  0  0  0  # atno 17343 bound_to 10162
  156.1712  130.6438  151.0840 LP  0  0  0  0  0  0  0  0  0  0  0  0  # atno 17370 bound_to 10713
  157.6964  131.0792  150.6955 LP  0  0  0  0  0  0  0  0  0  0  0  0  # atno 17371 bound_to 10713
  140.9441  134.1863  157.4776 LP  0  0  0  0  0  0  0  0  0  0  0  0  # atno 17394 bound_to 11000
  139.8737  134.9883  156.5408 LP  0  0  0  0  0  0  0  0  0  0  0  0  # atno 17395 bound_to 11000

$$$$
