AV-unprocessed.smi:1429|AV-procd|sdf|5820|dock7
  -GOLD-   22720 5473D 1   1.00000     0.00000
 Structure written by MMmdl.
 29 30  0  0  0  0  0  0  0  0  2 V2000
  150.1631  135.6951  154.7325 C   0  0  0  0  0  0  0  0  0  0  0  0
  150.6810  137.0705  154.9806 C   0  0  0  0  0  0  0  0  0  0  0  0
  150.4693  138.0889  154.1459 N   0  0  0  0  0  0  0  0  0  0  0  0
  151.0527  139.2622  154.5984 N   0  0  0  0  0  0  0  0  0  0  0  0
  151.7013  139.1258  155.7703 C   0  0  0  0  0  0  0  0  0  0  0  0
  152.3568  140.0989  156.4425 N   0  5  0  0  0  0  0  0  0  0  0  0
  152.2879  140.3161  157.7809 C   0  0  0  0  0  0  0  0  0  0  0  0
  152.3883  139.4829  158.6838 O   0  0  0  0  0  0  0  0  0  0  0  0
  152.0866  141.6027  158.0957 N   0  0  0  0  0  0  0  0  0  0  0  0
  151.9707  142.1295  159.4501 C   0  0  0  0  0  0  0  0  0  0  0  0
  152.3814  143.6099  159.5025 C   0  0  2  0  0  0  0  0  0  0  0  0
  151.8362  144.3786  160.6904 C   0  0  0  0  0  0  0  0  0  0  0  0
  151.9802  145.8238  160.2231 C   0  0  0  0  0  0  0  0  0  0  0  0
  151.8376  145.7929  158.8055 O   0  0  0  0  0  0  0  0  0  0  0  0
  151.8422  144.4456  158.3425 C   0  0  0  0  0  0  0  0  0  0  0  0
  151.6235  137.4806  156.4014 S   0  0  0  0  0  0  0  0  0  0  0  0
  149.6107  135.6552  153.7932 H   0  0  0  0  0  0  0  0  0  0  0  0
  149.4976  135.3960  155.5423 H   0  0  0  0  0  0  0  0  0  0  0  0
  150.9922  134.9894  154.6804 H   0  0  0  0  0  0  0  0  0  0  0  0
  152.0093  142.2633  157.3365 H   0  0  0  0  0  0  0  0  0  0  0  0
  150.9397  142.0200  159.7896 H   0  0  0  0  0  0  0  0  0  0  0  0
  152.5942  141.5387  160.1232 H   0  0  0  0  0  0  0  0  0  0  0  0
  153.4704  143.6846  159.5068 H   0  0  0  0  0  0  0  0  0  0  0  0
  150.7834  144.1391  160.8476 H   0  0  0  0  0  0  0  0  0  0  0  0
  152.3738  144.1776  161.6173 H   0  0  0  0  0  0  0  0  0  0  0  0
  151.2460  146.4849  160.6841 H   0  0  0  0  0  0  0  0  0  0  0  0
  152.9743  146.2033  160.4625 H   0  0  0  0  0  0  0  0  0  0  0  0
  152.4399  144.3375  157.4370 H   0  0  0  0  0  0  0  0  0  0  0  0
  150.8161  144.1612  158.1052 H   0  0  0  0  0  0  0  0  0  0  0  0
  1  2  1  0  0  0  0
  1 17  1  0  0  0  0
  1 18  1  0  0  0  0
  1 19  1  0  0  0  0
  2 16  1  0  0  0  0
  2  3  2  0  0  0  0
  3  4  1  0  0  0  0
  4  5  2  0  0  0  0
  5  6  1  0  0  0  0
  5 16  1  0  0  0  0
  6  7  1  0  0  0  0
  7  8  2  0  0  0  0
  7  9  1  0  0  0  0
  9 10  1  0  0  0  0
  9 20  1  0  0  0  0
 10 11  1  0  0  0  0
 10 21  1  0  0  0  0
 10 22  1  0  0  0  0
 11 15  1  0  0  0  0
 11 12  1  0  0  0  0
 11 23  1  0  0  0  0
 12 13  1  0  0  0  0
 12 24  1  0  0  0  0
 12 25  1  0  0  0  0
 13 14  1  0  0  0  0
 13 26  1  0  0  0  0
 13 27  1  0  0  0  0
 14 15  1  0  0  0  0
 15 28  1  0  0  0  0
 15 29  1  0  0  0  0
M  CHG  1   6  -1
M  END
> <s_m_source_file>
AV-unprocessed.smi

> <i_m_source_file_index>
1429

> <i_lp_mmshare_version>
43012

> <i_f3d_flags>
0

> <s_epik_input>
W0NIM11jMW5uYyhzMSlbTkhdQyg9TylbTkhdW0NIMl1bQ0BASF0yW0NIMl1bQ0gyXU9bQ0gyXTI=

> <s_epik_cmdline>
J2VwaWtfcHl0aG9uJywgJy1waCcsICc3LjAnLCAnLXRuJywgJzgnLCAnLW1hJywgJzIwMCcsICctbWV0YWxfYmluZGluZycsICctaW1hZScsICc8aW5maWxlLm1hZT4nLCAnLW9tYWUnLCAnPG91dGZpbGUubWFlPic=

> <r_lp_tautomer_probability>
1

> <r_epik_Ionization_Penalty>
4.4122

> <r_epik_Ionization_Penalty_Charging>
4.26477

> <r_epik_Ionization_Penalty_Neutral>
0.147429

> <r_epik_State_Penalty>
4.26433

> <r_epik_Charging_Adjusted_Penalty>
8.5291

> <i_epik_Tot_Q>
-1

> <i_epik_Tot_abs_Q>
1

> <r_epik_Metal_State_Penalty>
0.713483

> <b_epik_Metal_Only>
1

> <s_lp_Force_Field>
OPLS_2005

> <r_lp_Energy>
20.5351

> <b_lp_Chiralities_Consistent>
1

> <s_lp_Variant>
AV-unprocessed.smi:1429-3

> <Gold.Version>
5.8.1

> <Gold.Id.Protein>
6NUR|6NUR_protein|mol2

> <Gold.PLP.Fitness>
36.1909

> <Gold.PLP.PLP>
-29.4432

> <Gold.PLP.part.hbond>
-3.0000

> <Gold.PLP.part.metal>
0.0000

> <Gold.PLP.part.buried>
-0.2123

> <Gold.PLP.part.nonpolar>
-25.4019

> <Gold.PLP.part.repulsive>
0.5478

> <Gold.PLP.ligand.clash>
0.0000

> <Gold.PLP.ligand.torsion>
1.1202

> <Gold.PLP.Chemscore.Hbond>
2.9913

> <Gold.PLP.Chemscore.CHOScore>
0.0000

> <Gold.PLP.Chemscore.Metal>
0.0000

> <Gold.Chemscore.Hbonds>
donor molecule, donor type, donor heavy atom, donor atom, acceptor molecule, acceptor atom, score
      P1  H  7989  7998       L1     4  1.00
      P1  H  7997  8010       L1     6  1.70

> <Gold.PLP.Chemscore.Internal.Correction>
0.0143

> <Gold.Rescore>
     Score         DG    S(hbond)    S(metal)    S(lipo)     H(rot)  DE(clash)    DE(int)     intcor
     12.67     -15.57       1.39        0.00      74.85       1.30       1.62       1.28       ----

> <Gold.Chemscore.Fitness>
12.6721

> <Gold.Chemscore.DG>
-15.5651

> <Gold.Chemscore.ZeroCoef>
-5.4800

> <Gold.Chemscore.Hbond>
1.3924

> <Gold.Chemscore.Metal>
0.0000

> <Gold.Chemscore.Lipo>
74.8509

> <Gold.Chemscore.Internal_Hbond>
0.0000

> <Gold.Chemscore.DEClash>
1.6168

> <Gold.Chemscore.DEInternal>
1.2762

> <Gold.Chemscore.Rot>
1.2980

> <Gold.Chemscore.Internal.Correction>
   9.000000E+99

> <Gold.Chemscore.Hbonds>
donor molecule, donor type, donor heavy atom, donor atom, acceptor molecule, acceptor atom, score
      P1  H  7989  7998       L1     4  0.85
      P1  H  7997  8010       L1     6  0.13

> <Gold.Chemscore.Hbond.Weighted>
-4.6505

> <Gold.Chemscore.Metal.Weighted>
-0.0000

> <Gold.Chemscore.Lipo.Weighted>
-8.7576

> <Gold.Chemscore.Internal_Hbond.Weighted>
0.0000

> <Gold.Chemscore.DEClash.Weighted>
1.6168

> <Gold.Chemscore.DEInternal.Weighted>
1.2762

> <Gold.Chemscore.Rot.Weighted>
3.3229

> <Gold.Chemscore.Internal.Correction.Weighted>
   9.000000E+99

> <Gold.Protein.RotatedTorsions>
[ 6907 6896 6895 6894 ] final -111.70 input  -60.11 | X-H torsion
[ 7974 7965 7964 7962 ] final  134.58 input  175.53 | X-H torsion
[ 8008 7997 7996 7995 ] final   80.22 input   59.86 | X-H torsion
[ 10167 10162 10161 10158 ] final -102.16 input  -65.29 | X-H torsion
[ 10718 10713 10712 10709 ] final  162.05 input   66.30 | X-H torsion
[ 10763 10752 10751 10750 ] final   -3.62 input  -60.55 | X-H torsion
[ 11005 11000 10999 10996 ] final  -40.56 input  -57.11 | X-H torsion

> <Gold.Protein.ActiveResidues>
 VAL166  LYS551  ARG553  GLY616  TRP617  ASP618  TYR619  PRO620  LYS621  CYS622 
 ASP623  PHE694  ASN695  SER759  ASP760  ASP761  ALA762  ILE779  LEU786  VAL792 
 PHE793  MET794  SER795  GLU796  ALA797  LYS798  CYS799  TRP800  GLU811  SER814 

> <Gold.Protein.RotatedAtoms>
  150.7708  133.9197  159.3394 H   0  0  0  0  0  0  0  0  0  0  0  0  # atno 6907 bound_to 6896
  151.7084  135.0915  160.0273 H   0  0  0  0  0  0  0  0  0  0  0  0  # atno 6908 bound_to 6896
  152.3724  133.6399  159.6133 H   0  0  0  0  0  0  0  0  0  0  0  0  # atno 6909 bound_to 6896
  144.9749  139.4566  143.5415 H   0  0  0  0  0  0  0  0  0  0  0  0  # atno 7974 bound_to 7965
  155.8805  140.3444  155.5884 H   0  0  0  0  0  0  0  0  0  0  0  0  # atno 8008 bound_to 7997
  155.7726  140.0847  157.2119 H   0  0  0  0  0  0  0  0  0  0  0  0  # atno 8009 bound_to 7997
  154.4024  140.1515  156.2946 H   0  0  0  0  0  0  0  0  0  0  0  0  # atno 8010 bound_to 7997
  140.2337  143.3588  152.0864 H   0  0  0  0  0  0  0  0  0  0  0  0  # atno 10167 bound_to 10162
  157.1280  131.0509  151.2384 H   0  0  0  0  0  0  0  0  0  0  0  0  # atno 10718 bound_to 10713
  153.3738  135.6995  153.6617 H   0  0  0  0  0  0  0  0  0  0  0  0  # atno 10763 bound_to 10752
  153.5256  135.3603  155.2653 H   0  0  0  0  0  0  0  0  0  0  0  0  # atno 10764 bound_to 10752
  154.8684  135.4168  154.3022 H   0  0  0  0  0  0  0  0  0  0  0  0  # atno 10765 bound_to 10752
  141.0183  133.6875  156.2337 H   0  0  0  0  0  0  0  0  0  0  0  0  # atno 11005 bound_to 11000
  146.3392  139.8984  142.8798 LP  0  0  0  0  0  0  0  0  0  0  0  0  # atno 17320 bound_to 7965
  145.2505  141.0042  143.3884 LP  0  0  0  0  0  0  0  0  0  0  0  0  # atno 17321 bound_to 7965
  139.5101  144.6879  151.5839 LP  0  0  0  0  0  0  0  0  0  0  0  0  # atno 17342 bound_to 10162
  140.6166  143.9337  150.6493 LP  0  0  0  0  0  0  0  0  0  0  0  0  # atno 17343 bound_to 10162
  157.4417  130.7548  149.7075 LP  0  0  0  0  0  0  0  0  0  0  0  0  # atno 17370 bound_to 10713
  155.9814  130.4020  150.3474 LP  0  0  0  0  0  0  0  0  0  0  0  0  # atno 17371 bound_to 10713
  140.6617  134.4961  157.5583 LP  0  0  0  0  0  0  0  0  0  0  0  0  # atno 17394 bound_to 11000
  139.9130  134.8304  156.1461 LP  0  0  0  0  0  0  0  0  0  0  0  0  # atno 17395 bound_to 11000

$$$$
