#       Name:                AV-unprocessed.smi:672
#       Creating user name   scv26
#       Creation time:       Fri Mar 27 00:25:13 2020


#       File generated by GOLD software.
#

@<TRIPOS>MOLECULE
AV-unprocessed.smi:672
    40    41     1
SMALL
NO_CHARGES


@<TRIPOS>ATOM
      1 ****        -6.8302   2.6386  -0.7806 C.3            1 S1                 0.0000
      2 ****        -6.2610   2.1888   0.5692 C.3            1 S1                 0.0000
      3 ****        -4.9624   1.4662   0.4320 C.2            1 S1                 0.0000
      4 ****        -4.8879   0.1451   0.2279 N.2            1 S1                 0.0000
      5 ****        -3.5777  -0.2957   0.1047 N.2            1 S1                 0.0000
      6 ****        -2.7000   0.7121   0.2041 C.2            1 S1                 0.0000
      7 ****        -1.2927   0.5448   0.1146 N.am           1 S1                 0.0000
      8 ****        -0.5998  -0.5885  -0.0936 C.2            1 S1                 0.0000
      9 ****        -1.0919  -1.7051  -0.2589 O.2            1 S1                 0.0000
     10 ****         0.7206  -0.3554  -0.0988 N.am           1 S1                 0.0000
     11 ****         1.7518  -1.3701  -0.3020 C.3            1 S1                 0.0000
     12 ****         2.0235  -2.1684   0.9887 C.3            1 S1                 0.0000
     13 ****         3.3851  -1.6934   1.4948 C.3            1 S1                 0.0000
     14 ****         4.1523  -1.3470   0.2215 C.3            1 S1                 0.0000
     15 ****         5.5676  -0.2544   0.5387 S.3            1 S1                 0.0000
     16 ****         6.3375  -0.2442  -1.1016 C.3            1 S1                 0.0000
     17 ****         3.0928  -0.7173  -0.6900 C.3            1 S1                 0.0000
     18 ****        -3.4108   2.2965   0.4597 S.3            1 S1                 0.0000
     19 ****        -7.7765   3.1631  -0.6475 H              1 S1                 0.0000
     20 ****        -7.0114   1.7852  -1.4347 H              1 S1                 0.0000
     21 ****        -6.1434   3.3133  -1.2925 H              1 S1                 0.0000
     22 ****        -6.1130   3.0538   1.2163 H              1 S1                 0.0000
     23 ****        -6.9754   1.5391   1.0763 H              1 S1                 0.0000
     24 ****        -0.7491   1.3880   0.2254 H              1 S1                 0.0000
     25 ****         1.0384   0.5915   0.0472 H              1 S1                 0.0000
     26 ****         1.4374  -2.0536  -1.0931 H              1 S1                 0.0000
     27 ****         1.2448  -2.0573   1.7446 H              1 S1                 0.0000
     28 ****         2.0824  -3.2302   0.7460 H              1 S1                 0.0000
     29 ****         3.2539  -0.8012   2.1092 H              1 S1                 0.0000
     30 ****         3.8925  -2.4449   2.1004 H              1 S1                 0.0000
     31 ****         4.5146  -2.2717  -0.2305 H              1 S1                 0.0000
     32 ****         7.2457   0.3582  -1.0848 H              1 S1                 0.0000
     33 ****         5.6584   0.1782  -1.8420 H              1 S1                 0.0000
     34 ****         6.6004  -1.2573  -1.4061 H              1 S1                 0.0000
     35 ****         3.3268  -0.8653  -1.7448 H              1 S1                 0.0000
     36 ****         3.0568   0.3600  -0.5181 H              1 S1                 0.0000
     37 ****        -5.6854  -0.4556   0.1707 LP             1 S1                 0.0000
     38 ****        -3.3196  -1.2508  -0.0408 LP             1 S1                 0.0000
     39 ****        -2.0851  -1.8210  -0.2442 LP             1 S1                 0.0000
     40 ****        -0.4984  -2.4960  -0.4080 LP             1 S1                 0.0000
@<TRIPOS>BOND
    1    1    2 1     
    2    1   19 1     
    3    1   20 1     
    4    1   21 1     
    5    2    3 1     
    6    2   22 1     
    7    2   23 1     
    8    3   18 1     
    9    3    4 2     
   10    4    5 1     
   11    5    6 2     
   12    6    7 1     
   13    6   18 1     
   14    7    8 am    
   15    7   24 1     
   16    8    9 2     
   17    8   10 am    
   18   10   11 1     
   19   10   25 1     
   20   11   17 1     
   21   11   12 1     
   22   11   26 1     
   23   12   13 1     
   24   12   27 1     
   25   12   28 1     
   26   13   14 1     
   27   13   29 1     
   28   13   30 1     
   29   14   15 1     
   30   14   17 1     
   31   14   31 1     
   32   15   16 1     
   33   16   32 1     
   34   16   33 1     
   35   16   34 1     
   36   17   35 1     
   37   17   36 1     
   38    4   37 1     
   39    5   38 1     
   40    9   39 1     
   41    9   40 1     
@<TRIPOS>SUBSTRUCTURE
      1 S1             1
@<TRIPOS>SET
LONE_PAIRS      STATIC     ATOMS    <user>   **** ""
4 37 38 39 40
DONOR_HYDROGENS      STATIC     ATOMS    <user>   **** ""
2 24 25
ATOM$BLUE        STATIC     ATOMS    COLORGROUP SYSTEM
4 37 38 39 40
ATOM$RED        STATIC     ATOMS    COLORGROUP SYSTEM
2 24 25
