AV-unprocessed.smi:934|AV-procd|sdf|4205|dock7
  -GOLD-   22720 2113D 1   1.00000     0.00000
 Structure written by MMmdl.
 43 44  0  0  0  0  0  0  0  0  2 V2000
  144.9509  139.4706  155.3529 C   0  0  0  0  0  0  0  0  0  0  0  0
  146.1828  138.6433  155.4398 N   0  3  0  0  0  0  0  0  0  0  0  0
  145.8383  137.1990  155.3750 C   0  0  0  0  0  0  0  0  0  0  0  0
  147.3287  139.1068  154.5700 C   0  0  0  0  0  0  0  0  0  0  0  0
  146.8932  138.9948  153.0715 C   0  0  0  0  0  0  0  0  0  0  0  0
  146.8494  137.6197  152.5723 N   0  0  0  0  0  0  0  0  0  0  0  0
  145.7356  136.9123  152.3352 C   0  0  0  0  0  0  0  0  0  0  0  0
  144.6023  137.3486  152.5305 O   0  0  0  0  0  0  0  0  0  0  0  0
  146.0293  135.6930  151.8527 N   0  0  0  0  0  0  0  0  0  0  0  0
  145.1415  134.6416  151.4966 C   0  0  0  0  0  0  0  0  0  0  0  0
  145.6053  133.6685  150.5874 C   0  0  0  0  0  0  0  0  0  0  0  0
  144.7568  132.6049  150.2266 C   0  0  0  0  0  0  0  0  0  0  0  0
  143.4716  132.5503  150.7991 C   0  0  0  0  0  0  0  0  0  0  0  0
  143.0159  133.4641  151.6814 N   0  0  0  0  0  0  0  0  0  0  0  0
  143.8344  134.4832  152.0218 C   0  0  0  0  0  0  0  0  0  0  0  0
  147.7278  140.5788  154.8971 C   0  0  0  0  0  0  0  0  0  0  0  0
  149.0038  141.0378  154.1679 C   0  0  0  0  0  0  0  0  0  0  0  0
  150.0759  140.1656  154.5008 O   0  0  0  0  0  0  0  0  0  0  0  0
  149.8464  138.8220  154.0968 C   0  0  0  0  0  0  0  0  0  0  0  0
  148.6039  138.2521  154.8093 C   0  0  0  0  0  0  0  0  0  0  0  0
  144.4508  139.3434  154.3923 H   0  0  0  0  0  0  0  0  0  0  0  0
  145.1468  140.5308  155.5019 H   0  0  0  0  0  0  0  0  0  0  0  0
  144.2446  139.1765  156.1300 H   0  0  0  0  0  0  0  0  0  0  0  0
  145.6201  136.8799  154.3560 H   0  0  0  0  0  0  0  0  0  0  0  0
  144.9585  136.9842  155.9824 H   0  0  0  0  0  0  0  0  0  0  0  0
  146.6364  136.5768  155.7789 H   0  0  0  0  0  0  0  0  0  0  0  0
  145.9406  139.4865  152.8811 H   0  0  0  0  0  0  0  0  0  0  0  0
  147.5920  139.5364  152.4351 H   0  0  0  0  0  0  0  0  0  0  0  0
  147.7357  137.1843  152.3624 H   0  0  0  0  0  0  0  0  0  0  0  0
  147.0052  135.5102  151.6704 H   0  0  0  0  0  0  0  0  0  0  0  0
  146.5982  133.7350  150.1672 H   0  0  0  0  0  0  0  0  0  0  0  0
  145.0837  131.8486  149.5283 H   0  0  0  0  0  0  0  0  0  0  0  0
  142.7938  131.7485  150.5460 H   0  0  0  0  0  0  0  0  0  0  0  0
  143.4215  135.1645  152.7488 H   0  0  0  0  0  0  0  0  0  0  0  0
  146.9066  141.2651  154.6926 H   0  0  0  0  0  0  0  0  0  0  0  0
  147.9572  140.6917  155.9558 H   0  0  0  0  0  0  0  0  0  0  0  0
  148.8724  141.0901  153.0876 H   0  0  0  0  0  0  0  0  0  0  0  0
  149.2681  142.0446  154.4914 H   0  0  0  0  0  0  0  0  0  0  0  0
  149.7480  138.7670  153.0124 H   0  0  0  0  0  0  0  0  0  0  0  0
  150.7239  138.2299  154.3565 H   0  0  0  0  0  0  0  0  0  0  0  0
  148.8232  138.1971  155.8756 H   0  0  0  0  0  0  0  0  0  0  0  0
  148.4533  137.2246  154.4774 H   0  0  0  0  0  0  0  0  0  0  0  0
  146.5182  138.7749  156.3834 H   0  0  0  0  0  0  0  0  0  0  0  0
  1  2  1  0  0  0  0
  1 21  1  0  0  0  0
  1 22  1  0  0  0  0
  1 23  1  0  0  0  0
  2  3  1  0  0  0  0
  2  4  1  0  0  0  0
  2 43  1  0  0  0  0
  3 24  1  0  0  0  0
  3 25  1  0  0  0  0
  3 26  1  0  0  0  0
  4 20  1  0  0  0  0
  4  5  1  0  0  0  0
  4 16  1  0  0  0  0
  5  6  1  0  0  0  0
  5 27  1  0  0  0  0
  5 28  1  0  0  0  0
  6  7  1  0  0  0  0
  6 29  1  0  0  0  0
  7  8  2  0  0  0  0
  7  9  1  0  0  0  0
  9 10  1  0  0  0  0
  9 30  1  0  0  0  0
 10 15  1  0  0  0  0
 10 11  2  0  0  0  0
 11 12  1  0  0  0  0
 11 31  1  0  0  0  0
 12 13  2  0  0  0  0
 12 32  1  0  0  0  0
 13 14  1  0  0  0  0
 13 33  1  0  0  0  0
 14 15  2  0  0  0  0
 15 34  1  0  0  0  0
 16 17  1  0  0  0  0
 16 35  1  0  0  0  0
 16 36  1  0  0  0  0
 17 18  1  0  0  0  0
 17 37  1  0  0  0  0
 17 38  1  0  0  0  0
 18 19  1  0  0  0  0
 19 20  1  0  0  0  0
 19 39  1  0  0  0  0
 19 40  1  0  0  0  0
 20 41  1  0  0  0  0
 20 42  1  0  0  0  0
M  CHG  1   2   1
M  END
> <s_m_source_file>
AV-unprocessed.smi

> <i_m_source_file_index>
934

> <i_lp_mmshare_version>
43012

> <i_f3d_flags>
0

> <s_epik_input>
W0NIMl0xW0NIMl1PW0NIMl1bQ0gyXUMxKE4oW0NIM10pW0NIM10pW0NIMl1bTkhdQyg9TylbTkhdYzJbY0hdW2NIXVtjSF1uW2NIXTI=

> <s_epik_cmdline>
J2VwaWtfcHl0aG9uJywgJy1waCcsICc3LjAnLCAnLXRuJywgJzgnLCAnLW1hJywgJzIwMCcsICctbWV0YWxfYmluZGluZycsICctaW1hZScsICc8aW5maWxlLm1hZT4nLCAnLW9tYWUnLCAnPG91dGZpbGUubWFlPic=

> <r_epik_Ionization_Penalty>
0.0170741

> <r_epik_Ionization_Penalty_Charging>
0.0128317

> <r_epik_Ionization_Penalty_Neutral>
0.00424236

> <r_epik_State_Penalty>
0.00995429

> <r_epik_Charging_Adjusted_Penalty>
0.022786

> <i_epik_Tot_Q>
1

> <i_epik_Tot_abs_Q>
1

> <r_epik_Metal_State_Penalty>
0.00996615

> <b_epik_Metal_Only>
0

> <s_lp_Force_Field>
OPLS_2005

> <r_lp_Energy>
34.8396

> <b_lp_Chiralities_Consistent>
1

> <s_lp_Variant>
AV-unprocessed.smi:934-1

> <Gold.Version>
5.8.1

> <Gold.Id.Protein>
6NUR|6NUR_protein|mol2

> <Gold.PLP.Fitness>
38.4501

> <Gold.PLP.PLP>
-28.0254

> <Gold.PLP.part.hbond>
-3.0000

> <Gold.PLP.part.metal>
0.0000

> <Gold.PLP.part.buried>
-4.9608

> <Gold.PLP.part.nonpolar>
-21.6438

> <Gold.PLP.part.repulsive>
1.0270

> <Gold.PLP.ligand.clash>
0.0000

> <Gold.PLP.ligand.torsion>
0.4048

> <Gold.PLP.Chemscore.Hbond>
2.9440

> <Gold.PLP.Chemscore.CHOScore>
0.7594

> <Gold.PLP.Chemscore.Metal>
0.0000

> <Gold.Chemscore.Hbonds>
donor molecule, donor type, donor heavy atom, donor atom, acceptor molecule, acceptor atom, score
      L1  H     6    29       P1  7948  1.00
      L1  H     9    30       P1  7948  0.91
      P1  H  7989  7998       L1    18  1.00
      L1  C    13    33       P1 10952  0.81

> <Gold.PLP.Chemscore.Internal.Correction>
0.1240

> <Gold.Rescore>
     Score         DG    S(hbond)    S(metal)    S(lipo)     H(rot)  DE(clash)    DE(int)     intcor
     14.87     -17.16       2.26        0.00      67.97       1.49       0.02       2.27       ----

> <Gold.Chemscore.Fitness>
14.8704

> <Gold.Chemscore.DG>
-17.1617

> <Gold.Chemscore.ZeroCoef>
-5.4800

> <Gold.Chemscore.Hbond>
2.2621

> <Gold.Chemscore.Metal>
0.0000

> <Gold.Chemscore.Lipo>
67.9732

> <Gold.Chemscore.Internal_Hbond>
0.0000

> <Gold.Chemscore.DEClash>
0.0222

> <Gold.Chemscore.DEInternal>
2.2690

> <Gold.Chemscore.Rot>
1.4948

> <Gold.Chemscore.Internal.Correction>
   9.000000E+99

> <Gold.Chemscore.Hbonds>
donor molecule, donor type, donor heavy atom, donor atom, acceptor molecule, acceptor atom, score
      L1  H     6    29       P1  7948  0.99
      L1  H     9    30       P1  7948  0.83
      P1  H  7989  7998       L1    18  0.30

> <Gold.Chemscore.Hbond.Weighted>
-7.5555

> <Gold.Chemscore.Metal.Weighted>
-0.0000

> <Gold.Chemscore.Lipo.Weighted>
-7.9529

> <Gold.Chemscore.Internal_Hbond.Weighted>
0.0000

> <Gold.Chemscore.DEClash.Weighted>
0.0222

> <Gold.Chemscore.DEInternal.Weighted>
2.2690

> <Gold.Chemscore.Rot.Weighted>
3.8267

> <Gold.Chemscore.Internal.Correction.Weighted>
   9.000000E+99

> <Gold.Protein.RotatedTorsions>
[ 6907 6896 6895 6894 ] final  -29.42 input  -60.11 | X-H torsion
[ 7974 7965 7964 7962 ] final  153.46 input  175.53 | X-H torsion
[ 8008 7997 7996 7995 ] final  144.90 input   59.86 | X-H torsion
[ 10167 10162 10161 10158 ] final  136.06 input  -65.29 | X-H torsion
[ 10718 10713 10712 10709 ] final  115.39 input   66.30 | X-H torsion
[ 10763 10752 10751 10750 ] final   54.42 input  -60.55 | X-H torsion
[ 11005 11000 10999 10996 ] final   14.07 input  -57.11 | X-H torsion

> <Gold.Protein.ActiveResidues>
 VAL166  LYS551  ARG553  GLY616  TRP617  ASP618  TYR619  PRO620  LYS621  CYS622 
 ASP623  PHE694  ASN695  SER759  ASP760  ASP761  ALA762  ILE779  LEU786  VAL792 
 PHE793  MET794  SER795  GLU796  ALA797  LYS798  CYS799  TRP800  GLU811  SER814 

> <Gold.Protein.RotatedAtoms>
  151.1195  135.0071  159.8531 H   0  0  0  0  0  0  0  0  0  0  0  0  # atno 6907 bound_to 6896
  152.5447  134.1740  159.8618 H   0  0  0  0  0  0  0  0  0  0  0  0  # atno 6908 bound_to 6896
  151.1797  133.4688  159.2627 H   0  0  0  0  0  0  0  0  0  0  0  0  # atno 6909 bound_to 6896
  144.8153  139.6803  143.6124 H   0  0  0  0  0  0  0  0  0  0  0  0  # atno 7974 bound_to 7965
  156.2897  140.2223  156.5128 H   0  0  0  0  0  0  0  0  0  0  0  0  # atno 8008 bound_to 7997
  154.7594  140.0474  157.0983 H   0  0  0  0  0  0  0  0  0  0  0  0  # atno 8009 bound_to 7997
  155.0009  140.3101  155.4871 H   0  0  0  0  0  0  0  0  0  0  0  0  # atno 8010 bound_to 7997
  139.5194  144.6484  151.5373 H   0  0  0  0  0  0  0  0  0  0  0  0  # atno 10167 bound_to 10162
  157.6225  131.1012  150.7322 H   0  0  0  0  0  0  0  0  0  0  0  0  # atno 10718 bound_to 10713
  152.9804  135.5745  154.4901 H   0  0  0  0  0  0  0  0  0  0  0  0  # atno 10763 bound_to 10752
  154.4436  135.2776  155.1832 H   0  0  0  0  0  0  0  0  0  0  0  0  # atno 10764 bound_to 10752
  154.3490  135.6213  153.5687 H   0  0  0  0  0  0  0  0  0  0  0  0  # atno 10765 bound_to 10752
  140.4737  134.1005  155.7737 H   0  0  0  0  0  0  0  0  0  0  0  0  # atno 11005 bound_to 11000
  146.2456  139.6090  142.9462 LP  0  0  0  0  0  0  0  0  0  0  0  0  # atno 17320 bound_to 7965
  145.5229  141.0431  143.2425 LP  0  0  0  0  0  0  0  0  0  0  0  0  # atno 17321 bound_to 7965
  140.6279  143.9134  150.6580 LP  0  0  0  0  0  0  0  0  0  0  0  0  # atno 17342 bound_to 10162
  140.2428  143.3651  152.1472 LP  0  0  0  0  0  0  0  0  0  0  0  0  # atno 17343 bound_to 10162
  156.7677  130.4819  149.5424 LP  0  0  0  0  0  0  0  0  0  0  0  0  # atno 17370 bound_to 10713
  156.1378  130.6223  151.0425 LP  0  0  0  0  0  0  0  0  0  0  0  0  # atno 17371 bound_to 10713
  141.1565  133.8873  157.1964 LP  0  0  0  0  0  0  0  0  0  0  0  0  # atno 17394 bound_to 11000
  139.9869  135.0078  156.9884 LP  0  0  0  0  0  0  0  0  0  0  0  0  # atno 17395 bound_to 11000

$$$$
