AV-unprocessed.smi:37|AV-procd|sdf|330|dock9
  -GOLD-   2262016163D 1   1.00000     0.00000
 Structure written by MMmdl.
 43 44  0  0  0  0  0  0  0  0  2 V2000
  149.0569  132.5121  153.9758 C   0  0  0  0  0  0  0  0  0  0  0  0
  148.4853  131.2395  154.6153 C   0  0  0  0  0  0  0  0  0  0  0  0
  147.2001  131.5140  155.3924 C   0  0  0  0  0  0  0  0  0  0  0  0
  146.2211  132.0314  154.8542 O   0  0  0  0  0  0  0  0  0  0  0  0
  147.2845  131.1360  156.6759 O   0  0  0  0  0  0  0  0  0  0  0  0
  146.1778  131.3207  157.5414 C   0  0  0  0  0  0  0  0  0  0  0  0
  146.3248  132.6281  158.3325 C   0  0  1  0  0  0  0  0  0  0  0  0
  147.7076  132.9549  158.4864 O   0  0  0  0  0  0  0  0  0  0  0  0
  147.8915  134.3357  158.3775 C   0  0  2  0  0  0  0  0  0  0  0  0
  147.7478  135.0011  159.7401 N   0  0  0  0  0  0  0  0  0  0  0  0
  146.7735  134.6085  160.6461 C   0  0  0  0  0  0  0  0  0  0  0  0
  146.6551  135.1994  161.8524 C   0  0  0  0  0  0  0  0  0  0  0  0
  145.6962  134.7964  162.7037 F   0  0  0  0  0  0  0  0  0  0  0  0
  147.5779  136.2674  162.2280 C   0  0  0  0  0  0  0  0  0  0  0  0
  147.4418  136.8293  163.3134 O   0  0  0  0  0  0  0  0  0  0  0  0
  148.5654  136.5933  161.3458 N   0  5  0  0  0  0  0  0  0  0  0  0
  148.6997  135.9849  160.1314 C   0  0  0  0  0  0  0  0  0  0  0  0
  149.6172  136.2437  159.3528 O   0  0  0  0  0  0  0  0  0  0  0  0
  146.8003  134.8038  157.4032 C   0  0  1  0  0  0  0  0  0  0  0  0
  147.4300  134.5398  155.5323 Br  0  0  0  0  0  0  0  0  0  0  0  0
  145.6438  133.8533  157.6976 C   0  0  2  0  0  0  0  0  0  0  0  0
  144.7742  134.4328  158.6644 O   0  0  0  0  0  0  0  0  0  0  0  0
  143.4724  134.0967  158.7056 C   0  0  0  0  0  0  0  0  0  0  0  0
  142.9015  133.3233  157.9367 O   0  0  0  0  0  0  0  0  0  0  0  0
  142.7216  134.7927  159.8384 C   0  0  0  0  0  0  0  0  0  0  0  0
  142.0228  133.7924  160.7707 C   0  0  0  0  0  0  0  0  0  0  0  0
  149.9760  132.2888  153.4342 H   0  0  0  0  0  0  0  0  0  0  0  0
  149.2919  133.2637  154.7300 H   0  0  0  0  0  0  0  0  0  0  0  0
  148.3566  132.9551  153.2666 H   0  0  0  0  0  0  0  0  0  0  0  0
  148.2774  130.4964  153.8451 H   0  0  0  0  0  0  0  0  0  0  0  0
  149.2207  130.7996  155.2894 H   0  0  0  0  0  0  0  0  0  0  0  0
  145.2603  131.3460  156.9520 H   0  0  0  0  0  0  0  0  0  0  0  0
  146.0995  130.4782  158.2301 H   0  0  0  0  0  0  0  0  0  0  0  0
  145.9071  132.4510  159.3240 H   0  0  0  0  0  0  0  0  0  0  0  0
  148.9082  134.5756  158.0622 H   0  0  0  0  0  0  0  0  0  0  0  0
  146.0903  133.8089  160.4093 H   0  0  0  0  0  0  0  0  0  0  0  0
  146.5457  135.8575  157.5095 H   0  0  0  0  0  0  0  0  0  0  0  0
  145.0866  133.5940  156.7960 H   0  0  0  0  0  0  0  0  0  0  0  0
  143.4314  135.3923  160.4089 H   0  0  0  0  0  0  0  0  0  0  0  0
  141.9931  135.4831  159.4129 H   0  0  0  0  0  0  0  0  0  0  0  0
  141.5908  134.3042  161.6303 H   0  0  0  0  0  0  0  0  0  0  0  0
  142.7189  133.0420  161.1480 H   0  0  0  0  0  0  0  0  0  0  0  0
  141.2132  133.2711  160.2593 H   0  0  0  0  0  0  0  0  0  0  0  0
  1  2  1  0  0  0  0
  1 27  1  0  0  0  0
  1 28  1  0  0  0  0
  1 29  1  0  0  0  0
  2  3  1  0  0  0  0
  2 30  1  0  0  0  0
  2 31  1  0  0  0  0
  3  4  2  0  0  0  0
  3  5  1  0  0  0  0
  5  6  1  0  0  0  0
  6  7  1  0  0  0  0
  6 32  1  0  0  0  0
  6 33  1  0  0  0  0
  7 21  1  0  0  0  0
  7  8  1  0  0  0  0
  7 34  1  0  0  0  0
  8  9  1  0  0  0  0
  9 10  1  0  0  0  0
  9 19  1  0  0  0  0
  9 35  1  0  0  0  0
 10 17  1  0  0  0  0
 10 11  1  0  0  0  0
 11 12  2  0  0  0  0
 11 36  1  0  0  0  0
 12 13  1  0  0  0  0
 12 14  1  0  0  0  0
 14 15  2  0  0  0  0
 14 16  1  0  0  0  0
 16 17  1  0  0  0  0
 17 18  2  0  0  0  0
 19 20  1  0  0  0  0
 19 21  1  0  0  0  0
 19 37  1  0  0  0  0
 21 22  1  0  0  0  0
 21 38  1  0  0  0  0
 22 23  1  0  0  0  0
 23 24  2  0  0  0  0
 23 25  1  0  0  0  0
 25 26  1  0  0  0  0
 25 39  1  0  0  0  0
 25 40  1  0  0  0  0
 26 41  1  0  0  0  0
 26 42  1  0  0  0  0
 26 43  1  0  0  0  0
M  CHG  1  16  -1
M  END
> <s_m_source_file>
AV-unprocessed.smi

> <i_m_source_file_index>
37

> <i_lp_mmshare_version>
43012

> <i_f3d_flags>
0

> <s_epik_input>
W0NIM11bQ0gyXUMoPU8pT1tDSDJdW0NAQEhdMU9bQ0BASF0objJbY0hdYyhGKWMoPU8pW25IXWMyPU8pW0NAQEhdKEJyKVtDQEhdMU9DKD1PKVtDSDJdW0NIM10=

> <s_epik_cmdline>
J2VwaWtfcHl0aG9uJywgJy1waCcsICc3LjAnLCAnLXRuJywgJzgnLCAnLW1hJywgJzIwMCcsICctbWV0YWxfYmluZGluZycsICctaW1hZScsICc8aW5maWxlLm1hZT4nLCAnLW9tYWUnLCAnPG91dGZpbGUubWFlPic=

> <r_epik_Ionization_Penalty>
1.08158

> <r_epik_Ionization_Penalty_Charging>
9.05154e-09

> <r_epik_Ionization_Penalty_Neutral>
1.08158

> <r_epik_State_Penalty>
1.13706

> <r_epik_Charging_Adjusted_Penalty>
1.13706

> <i_epik_Tot_Q>
-1

> <i_epik_Tot_abs_Q>
1

> <r_epik_Metal_State_Penalty>
0.00343535

> <b_epik_Metal_Only>
0

> <s_epik_Chemistry_Notes>
This compound has an ester and may undergo hydrolysis at high or low pH. This compound contains an acetal/aminal-like group ( X-CH(R)-Y where X, Y are N, S, or O) that may be acid/base labile, releasing an aldehyde.

> <s_lp_Force_Field>
OPLS_2005

> <r_lp_Energy>
28.0261

> <b_lp_Chiralities_Consistent>
1

> <s_lp_Variant>
AV-unprocessed.smi:37-28

> <Gold.Version>
5.8.1

> <Gold.Id.Protein>
6NUR|6NUR_protein|mol2

> <Gold.PLP.Fitness>
34.3258

> <Gold.PLP.PLP>
-25.1506

> <Gold.PLP.part.hbond>
-2.9941

> <Gold.PLP.part.metal>
0.0000

> <Gold.PLP.part.buried>
-4.5519

> <Gold.PLP.part.nonpolar>
-19.4267

> <Gold.PLP.part.repulsive>
0.2599

> <Gold.PLP.ligand.clash>
0.0000

> <Gold.PLP.ligand.torsion>
1.4813

> <Gold.PLP.Chemscore.Hbond>
4.0000

> <Gold.PLP.Chemscore.CHOScore>
0.0000

> <Gold.PLP.Chemscore.Metal>
0.0000

> <Gold.Chemscore.Hbonds>
donor molecule, donor type, donor heavy atom, donor atom, acceptor molecule, acceptor atom, score
      P1  H  6896  6907       L1    18  1.00
      P1  H  6931  6943       L1    16  2.00
      P1  H 11000 11005       L1    24  1.00

> <Gold.PLP.Chemscore.Internal.Correction>
0.1379

> <Gold.Rescore>
     Score         DG    S(hbond)    S(metal)    S(lipo)     H(rot)  DE(clash)    DE(int)     intcor
      5.60     -10.03       2.72        0.00      32.68       3.27       1.01       3.42       ----

> <Gold.Chemscore.Fitness>
5.6001

> <Gold.Chemscore.DG>
-10.0278

> <Gold.Chemscore.ZeroCoef>
-5.4800

> <Gold.Chemscore.Hbond>
2.7209

> <Gold.Chemscore.Metal>
0.0000

> <Gold.Chemscore.Lipo>
32.6776

> <Gold.Chemscore.Internal_Hbond>
0.0000

> <Gold.Chemscore.DEClash>
1.0060

> <Gold.Chemscore.DEInternal>
3.4216

> <Gold.Chemscore.Rot>
3.2669

> <Gold.Chemscore.Internal.Correction>
   9.000000E+99

> <Gold.Chemscore.Hbonds>
donor molecule, donor type, donor heavy atom, donor atom, acceptor molecule, acceptor atom, score
      P1  H  6896  6907       L1    18  0.40
      P1  H  6931  6943       L1    16  0.35
      P1  H 11000 11005       L1    24  0.97

> <Gold.Chemscore.Hbond.Weighted>
-9.0879

> <Gold.Chemscore.Metal.Weighted>
-0.0000

> <Gold.Chemscore.Lipo.Weighted>
-3.8233

> <Gold.Chemscore.Internal_Hbond.Weighted>
0.0000

> <Gold.Chemscore.DEClash.Weighted>
1.0060

> <Gold.Chemscore.DEInternal.Weighted>
3.4216

> <Gold.Chemscore.Rot.Weighted>
8.3634

> <Gold.Chemscore.Internal.Correction.Weighted>
   9.000000E+99

> <Gold.Protein.RotatedTorsions>
[ 6907 6896 6895 6894 ] final  -45.99 input  -60.11 | X-H torsion
[ 7974 7965 7964 7962 ] final  -40.32 input  175.53 | X-H torsion
[ 8008 7997 7996 7995 ] final  -68.16 input   59.86 | X-H torsion
[ 10167 10162 10161 10158 ] final  -49.51 input  -65.29 | X-H torsion
[ 10718 10713 10712 10709 ] final   14.25 input   66.30 | X-H torsion
[ 10763 10752 10751 10750 ] final  115.26 input  -60.55 | X-H torsion
[ 11005 11000 10999 10996 ] final  -97.99 input  -57.11 | X-H torsion

> <Gold.Protein.ActiveResidues>
 VAL166  LYS551  ARG553  GLY616  TRP617  ASP618  TYR619  PRO620  LYS621  CYS622 
 ASP623  PHE694  ASN695  SER759  ASP760  ASP761  ALA762  ILE779  LEU786  VAL792 
 PHE793  MET794  SER795  GLU796  ALA797  LYS798  CYS799  TRP800  GLU811  SER814 

> <Gold.Protein.RotatedAtoms>
  150.9160  134.8577  159.7456 H   0  0  0  0  0  0  0  0  0  0  0  0  # atno 6907 bound_to 6896
  152.4968  134.4289  159.9515 H   0  0  0  0  0  0  0  0  0  0  0  0  # atno 6908 bound_to 6896
  151.4327  133.3626  159.2806 H   0  0  0  0  0  0  0  0  0  0  0  0  # atno 6909 bound_to 6896
  146.0315  140.6725  142.9130 H   0  0  0  0  0  0  0  0  0  0  0  0  # atno 7974 bound_to 7965
  154.4849  140.0878  156.7462 H   0  0  0  0  0  0  0  0  0  0  0  0  # atno 8008 bound_to 7997
  155.4376  140.3452  155.4268 H   0  0  0  0  0  0  0  0  0  0  0  0  # atno 8009 bound_to 7997
  156.1246  140.1484  156.9143 H   0  0  0  0  0  0  0  0  0  0  0  0  # atno 8010 bound_to 7997
  140.6682  143.2695  151.4225 H   0  0  0  0  0  0  0  0  0  0  0  0  # atno 10167 bound_to 10162
  157.0364  130.6213  149.5743 H   0  0  0  0  0  0  0  0  0  0  0  0  # atno 10718 bound_to 10713
  153.5196  135.3601  155.2625 H   0  0  0  0  0  0  0  0  0  0  0  0  # atno 10763 bound_to 10752
  154.8736  135.4042  154.3275 H   0  0  0  0  0  0  0  0  0  0  0  0  # atno 10764 bound_to 10752
  153.3943  135.7073  153.6539 H   0  0  0  0  0  0  0  0  0  0  0  0  # atno 10765 bound_to 10752
  141.1360  133.8212  157.0780 H   0  0  0  0  0  0  0  0  0  0  0  0  # atno 11005 bound_to 11000
  144.7033  140.3745  143.7139 LP  0  0  0  0  0  0  0  0  0  0  0  0  # atno 17320 bound_to 7965
  145.7032  139.1666  143.2581 LP  0  0  0  0  0  0  0  0  0  0  0  0  # atno 17321 bound_to 7965
  139.5939  144.1440  152.2120 LP  0  0  0  0  0  0  0  0  0  0  0  0  # atno 17342 bound_to 10162
  140.0803  144.5706  150.7127 LP  0  0  0  0  0  0  0  0  0  0  0  0  # atno 17343 bound_to 10162
  156.0052  130.5138  150.7805 LP  0  0  0  0  0  0  0  0  0  0  0  0  # atno 17370 bound_to 10713
  157.5138  131.0927  151.0165 LP  0  0  0  0  0  0  0  0  0  0  0  0  # atno 17371 bound_to 10713
  140.0469  134.9825  157.1066 LP  0  0  0  0  0  0  0  0  0  0  0  0  # atno 17394 bound_to 11000
  140.4049  134.2043  155.7163 LP  0  0  0  0  0  0  0  0  0  0  0  0  # atno 17395 bound_to 11000

$$$$
