AV-unprocessed.smi:1680|AV-procd|sdf|6739|dock9
  -GOLD-   22720 7493D 1   1.00000     0.00000
 Structure written by MMmdl.
 37 38  0  0  0  0  0  0  0  0  2 V2000
  152.1824  144.2698  161.5568 C   0  0  0  0  0  0  0  0  0  0  0  0
  152.7338  142.8530  161.3842 C   0  0  0  0  0  0  0  0  0  0  0  0
  153.0393  142.2236  162.3974 O   0  0  0  0  0  0  0  0  0  0  0  0
  152.8663  142.3424  160.1371 N   0  0  0  0  0  0  0  0  0  0  0  0
  152.4564  143.0580  158.9260 C   0  0  0  0  0  0  0  0  0  0  0  0
  151.2966  142.2905  158.2620 C   0  0  0  0  0  0  0  0  0  0  0  0
  151.7156  140.9256  157.9307 N   0  0  0  0  0  0  0  0  0  0  0  0
  150.6135  140.2265  157.2695 C   0  0  0  0  0  0  0  0  0  0  0  0
  150.7191  138.6901  157.3621 C   0  0  0  0  0  0  0  0  0  0  0  0
  149.4551  138.0804  157.7670 N   0  0  0  0  0  0  0  0  0  0  0  0
  149.2607  137.2934  158.8353 C   0  0  0  0  0  0  0  0  0  0  0  0
  150.2012  137.0296  159.5881 O   0  0  0  0  0  0  0  0  0  0  0  0
  147.9857  136.8612  158.9672 N   0  5  0  0  0  0  0  0  0  0  0  0
  147.5307  136.4698  160.1689 C   0  0  0  0  0  0  0  0  0  0  0  0
  147.3064  137.3372  161.1691 N   0  0  0  0  0  0  0  0  0  0  0  0
  146.8425  136.7274  162.3270 N   0  0  0  0  0  0  0  0  0  0  0  0
  146.7353  135.4080  162.1716 C   0  0  0  0  0  0  0  0  0  0  0  0
  147.1956  134.7899  160.5993 S   0  0  0  0  0  0  0  0  0  0  0  0
  152.1513  140.2246  159.1445 C   0  0  0  0  0  0  0  0  0  0  0  0
  153.3158  140.9868  159.8050 C   0  0  0  0  0  0  0  0  0  0  0  0
  152.8215  144.9973  161.0555 H   0  0  0  0  0  0  0  0  0  0  0  0
  152.1370  144.5387  162.6128 H   0  0  0  0  0  0  0  0  0  0  0  0
  151.1733  144.3432  161.1507 H   0  0  0  0  0  0  0  0  0  0  0  0
  152.1461  144.0839  159.1276 H   0  0  0  0  0  0  0  0  0  0  0  0
  153.3039  143.1297  158.2426 H   0  0  0  0  0  0  0  0  0  0  0  0
  150.4299  142.2671  158.9246 H   0  0  0  0  0  0  0  0  0  0  0  0
  150.9935  142.8102  157.3524 H   0  0  0  0  0  0  0  0  0  0  0  0
  149.6638  140.5643  157.6871 H   0  0  0  0  0  0  0  0  0  0  0  0
  150.5987  140.4991  156.2131 H   0  0  0  0  0  0  0  0  0  0  0  0
  151.1041  138.2454  156.4446 H   0  0  0  0  0  0  0  0  0  0  0  0
  151.4497  138.4396  158.1312 H   0  0  0  0  0  0  0  0  0  0  0  0
  148.6546  138.2640  157.1803 H   0  0  0  0  0  0  0  0  0  0  0  0
  146.3874  134.7944  162.9891 H   0  0  0  0  0  0  0  0  0  0  0  0
  151.3188  140.1268  159.8429 H   0  0  0  0  0  0  0  0  0  0  0  0
  152.4865  139.2174  158.9021 H   0  0  0  0  0  0  0  0  0  0  0  0
  154.1620  141.0459  159.1184 H   0  0  0  0  0  0  0  0  0  0  0  0
  153.6749  140.4232  160.6644 H   0  0  0  0  0  0  0  0  0  0  0  0
  1  2  1  0  0  0  0
  1 21  1  0  0  0  0
  1 22  1  0  0  0  0
  1 23  1  0  0  0  0
  2  3  2  0  0  0  0
  2  4  1  0  0  0  0
  4 20  1  0  0  0  0
  4  5  1  0  0  0  0
  5  6  1  0  0  0  0
  5 24  1  0  0  0  0
  5 25  1  0  0  0  0
  6  7  1  0  0  0  0
  6 26  1  0  0  0  0
  6 27  1  0  0  0  0
  7  8  1  0  0  0  0
  7 19  1  0  0  0  0
  8  9  1  0  0  0  0
  8 28  1  0  0  0  0
  8 29  1  0  0  0  0
  9 10  1  0  0  0  0
  9 30  1  0  0  0  0
  9 31  1  0  0  0  0
 10 11  1  0  0  0  0
 10 32  1  0  0  0  0
 11 12  2  0  0  0  0
 11 13  1  0  0  0  0
 13 14  1  0  0  0  0
 14 18  1  0  0  0  0
 14 15  2  0  0  0  0
 15 16  1  0  0  0  0
 16 17  2  0  0  0  0
 17 18  1  0  0  0  0
 17 33  1  0  0  0  0
 19 20  1  0  0  0  0
 19 34  1  0  0  0  0
 19 35  1  0  0  0  0
 20 36  1  0  0  0  0
 20 37  1  0  0  0  0
M  CHG  1  13  -1
M  END
> <s_m_source_file>
AV-unprocessed.smi

> <i_m_source_file_index>
1680

> <i_lp_mmshare_version>
43012

> <i_f3d_flags>
0

> <s_epik_input>
W0NIM11DKD1PKU4xW0NIMl1bQ0gyXU4oW0NIMl1bQ0gyXTEpW0NIMl1bQ0gyXVtOSF1DKD1PKVtOSF1jMm5uW2NIXXMy

> <s_epik_cmdline>
J2VwaWtfcHl0aG9uJywgJy1waCcsICc3LjAnLCAnLXRuJywgJzgnLCAnLW1hJywgJzIwMCcsICctbWV0YWxfYmluZGluZycsICctaW1hZScsICc8aW5maWxlLm1hZT4nLCAnLW9tYWUnLCAnPG91dGZpbGUubWFlPic=

> <r_lp_tautomer_probability>
1

> <r_epik_Ionization_Penalty>
3.80493

> <r_epik_Ionization_Penalty_Charging>
3.53258

> <r_epik_Ionization_Penalty_Neutral>
0.272353

> <r_epik_State_Penalty>
3.75006

> <r_epik_Charging_Adjusted_Penalty>
7.28264

> <i_epik_Tot_Q>
-1

> <i_epik_Tot_abs_Q>
1

> <r_epik_Metal_State_Penalty>
0.749383

> <b_epik_Metal_Only>
1

> <s_lp_Force_Field>
OPLS_2005

> <r_lp_Energy>
35.6067

> <b_lp_Chiralities_Consistent>
1

> <s_lp_Variant>
AV-unprocessed.smi:1680-3

> <Gold.Version>
5.8.1

> <Gold.Id.Protein>
6NUR|6NUR_protein|mol2

> <Gold.PLP.Fitness>
46.1124

> <Gold.PLP.PLP>
-40.4352

> <Gold.PLP.part.hbond>
-3.1933

> <Gold.PLP.part.metal>
0.0000

> <Gold.PLP.part.buried>
-6.3303

> <Gold.PLP.part.nonpolar>
-30.3320

> <Gold.PLP.part.repulsive>
0.1584

> <Gold.PLP.ligand.clash>
0.0000

> <Gold.PLP.ligand.torsion>
1.3667

> <Gold.PLP.Chemscore.Hbond>
2.7920

> <Gold.PLP.Chemscore.CHOScore>
0.0000

> <Gold.PLP.Chemscore.Metal>
0.0000

> <Gold.Chemscore.Hbonds>
donor molecule, donor type, donor heavy atom, donor atom, acceptor molecule, acceptor atom, score
      P1  H  6896  6907       L1    12  0.65
      P1  H  6931  6943       L1    15  0.69
      P1  H  6934  6947       L1    15  1.00

> <Gold.PLP.Chemscore.Internal.Correction>
0.0347

> <Gold.Rescore>
     Score         DG    S(hbond)    S(metal)    S(lipo)     H(rot)  DE(clash)    DE(int)     intcor
     15.70     -17.04       2.29        0.00      72.14       1.77       0.00       1.35       ----

> <Gold.Chemscore.Fitness>
15.6961

> <Gold.Chemscore.DG>
-17.0434

> <Gold.Chemscore.ZeroCoef>
-5.4800

> <Gold.Chemscore.Hbond>
2.2882

> <Gold.Chemscore.Metal>
0.0000

> <Gold.Chemscore.Lipo>
72.1436

> <Gold.Chemscore.Internal_Hbond>
0.0000

> <Gold.Chemscore.DEClash>
0.0000

> <Gold.Chemscore.DEInternal>
1.3473

> <Gold.Chemscore.Rot>
1.7657

> <Gold.Chemscore.Internal.Correction>
   9.000000E+99

> <Gold.Chemscore.Hbonds>
donor molecule, donor type, donor heavy atom, donor atom, acceptor molecule, acceptor atom, score
      P1  H  6896  6907       L1    12  0.64
      P1  H  6931  6943       L1    15  0.15
      P1  H  6934  6947       L1    15  0.94

> <Gold.Chemscore.Hbond.Weighted>
-7.6427

> <Gold.Chemscore.Metal.Weighted>
-0.0000

> <Gold.Chemscore.Lipo.Weighted>
-8.4408

> <Gold.Chemscore.Internal_Hbond.Weighted>
0.0000

> <Gold.Chemscore.DEClash.Weighted>
0.0000

> <Gold.Chemscore.DEInternal.Weighted>
1.3473

> <Gold.Chemscore.Rot.Weighted>
4.5201

> <Gold.Chemscore.Internal.Correction.Weighted>
   9.000000E+99

> <Gold.Protein.RotatedTorsions>
[ 6907 6896 6895 6894 ] final  -33.60 input  -60.11 | X-H torsion
[ 7974 7965 7964 7962 ] final -118.28 input  175.53 | X-H torsion
[ 8008 7997 7996 7995 ] final  112.77 input   59.86 | X-H torsion
[ 10167 10162 10161 10158 ] final  127.17 input  -65.29 | X-H torsion
[ 10718 10713 10712 10709 ] final -140.54 input   66.30 | X-H torsion
[ 10763 10752 10751 10750 ] final   70.26 input  -60.55 | X-H torsion
[ 11005 11000 10999 10996 ] final   54.05 input  -57.11 | X-H torsion

> <Gold.Protein.ActiveResidues>
 VAL166  LYS551  ARG553  GLY616  TRP617  ASP618  TYR619  PRO620  LYS621  CYS622 
 ASP623  PHE694  ASN695  SER759  ASP760  ASP761  ALA762  ILE779  LEU786  VAL792 
 PHE793  MET794  SER795  GLU796  ALA797  LYS798  CYS799  TRP800  GLU811  SER814 

> <Gold.Protein.RotatedAtoms>
  151.0635  134.9752  159.8272 H   0  0  0  0  0  0  0  0  0  0  0  0  # atno 6907 bound_to 6896
  152.5399  134.2388  159.8864 H   0  0  0  0  0  0  0  0  0  0  0  0  # atno 6908 bound_to 6896
  151.2409  133.4357  159.2641 H   0  0  0  0  0  0  0  0  0  0  0  0  # atno 6909 bound_to 6896
  145.0756  140.8390  143.4069 H   0  0  0  0  0  0  0  0  0  0  0  0  # atno 7974 bound_to 7965
  156.2214  140.2993  155.9963 H   0  0  0  0  0  0  0  0  0  0  0  0  # atno 8008 bound_to 7997
  155.2470  140.0424  157.2999 H   0  0  0  0  0  0  0  0  0  0  0  0  # atno 8009 bound_to 7997
  154.5847  140.2385  155.8012 H   0  0  0  0  0  0  0  0  0  0  0  0  # atno 8010 bound_to 7997
  139.5592  144.6870  151.4092 H   0  0  0  0  0  0  0  0  0  0  0  0  # atno 10167 bound_to 10162
  156.3235  130.7547  151.1650 H   0  0  0  0  0  0  0  0  0  0  0  0  # atno 10718 bound_to 10713
  153.0332  135.5180  154.7415 H   0  0  0  0  0  0  0  0  0  0  0  0  # atno 10763 bound_to 10752
  154.6413  135.2912  155.0103 H   0  0  0  0  0  0  0  0  0  0  0  0  # atno 10764 bound_to 10752
  154.1020  135.6635  153.4922 H   0  0  0  0  0  0  0  0  0  0  0  0  # atno 10765 bound_to 10752
  140.0718  134.5460  155.9039 H   0  0  0  0  0  0  0  0  0  0  0  0  # atno 11005 bound_to 11000
  145.1240  139.2675  143.5574 LP  0  0  0  0  0  0  0  0  0  0  0  0  # atno 17320 bound_to 7965
  146.3530  140.0872  142.8614 LP  0  0  0  0  0  0  0  0  0  0  0  0  # atno 17321 bound_to 7965
  140.6870  143.7951  150.7200 LP  0  0  0  0  0  0  0  0  0  0  0  0  # atno 17342 bound_to 10162
  140.1422  143.4431  152.2186 LP  0  0  0  0  0  0  0  0  0  0  0  0  # atno 17343 bound_to 10162
  157.7416  131.0501  150.5081 LP  0  0  0  0  0  0  0  0  0  0  0  0  # atno 17370 bound_to 10713
  156.5237  130.4168  149.6237 LP  0  0  0  0  0  0  0  0  0  0  0  0  # atno 17371 bound_to 10713
  141.2014  133.6618  156.5951 LP  0  0  0  0  0  0  0  0  0  0  0  0  # atno 17394 bound_to 11000
  140.3616  134.7682  157.4538 LP  0  0  0  0  0  0  0  0  0  0  0  0  # atno 17395 bound_to 11000

$$$$
