#       Name:                AV-unprocessed.smi:1071
#       Creating user name   scv26
#       Creation time:       Fri Mar 27 03:19:55 2020


#       File generated by GOLD software.
#

@<TRIPOS>MOLECULE
AV-unprocessed.smi:1071
    54    55     1
SMALL
NO_CHARGES


@<TRIPOS>ATOM
      1 ****        -8.1682   1.4953   2.4166 C.3            1 S1                 0.0000
      2 ****        -6.8777   1.5266   1.8330 O.3            1 S1                 0.0000
      3 ****        -6.8787   1.0798   0.4873 C.3            1 S1                 0.0000
      4 ****        -5.4505   1.1394  -0.0627 C.3            1 S1                 0.0000
      5 ****        -4.6966   0.0690   0.4987 O.3            1 S1                 0.0000
      6 ****        -3.3681  -0.0567   0.1481 C.ar           1 S1                 0.0000
      7 ****        -2.6219  -1.1133   0.7064 C.ar           1 S1                 0.0000
      8 ****        -1.2651  -1.2495   0.3561 C.ar           1 S1                 0.0000
      9 ****        -0.6929  -0.3142  -0.5388 C.ar           1 S1                 0.0000
     10 ****         0.6556  -0.3525  -0.9855 N.am           1 S1                 0.0000
     11 ****         1.7320  -0.8884  -0.3768 C.2            1 S1                 0.0000
     12 ****         1.6727  -1.5625   0.6508 O.2            1 S1                 0.0000
     13 ****         2.8732  -0.7117  -1.0874 N.am           1 S1                 0.0000
     14 ****         3.2724   0.6261  -1.5530 C.3            1 S1                 0.0000
     15 ****         4.2202   1.2542  -0.5092 C.3            1 S1                 0.0000
     16 ****         5.4021   0.4082  -0.3274 N.3            1 S1                 0.0000
     17 ****         6.2744   0.9924   0.6807 C.3            1 S1                 0.0000
     18 ****         5.0196  -0.9474   0.0768 C.3            1 S1                 0.0000
     19 ****         4.0791  -1.5590  -0.9838 C.3            1 S1                 0.0000
     20 ****         3.8142  -3.0593  -0.7399 C.3            1 S1                 0.0000
     21 ****        -1.5297   0.6972  -1.0543 C.ar           1 S1                 0.0000
     22 ****        -2.8307   0.8335  -0.7225 N.ar           1 S1                 0.0000
     23 ****        -8.1130   1.8498   3.4457 H              1 S1                 0.0000
     24 ****        -8.5699   0.4812   2.4309 H              1 S1                 0.0000
     25 ****        -8.8622   2.1398   1.8754 H              1 S1                 0.0000
     26 ****        -7.2758   0.0664   0.4104 H              1 S1                 0.0000
     27 ****        -7.5236   1.7304  -0.1053 H              1 S1                 0.0000
     28 ****        -5.4802   1.0297  -1.1479 H              1 S1                 0.0000
     29 ****        -5.0001   2.1074   0.1648 H              1 S1                 0.0000
     30 ****        -3.0839  -1.8112   1.3893 H              1 S1                 0.0000
     31 ****        -0.7018  -2.0717   0.7686 H              1 S1                 0.0000
     32 ****         0.8488   0.1817  -1.8202 H              1 S1                 0.0000
     33 ****         3.7697   0.5487  -2.5212 H              1 S1                 0.0000
     34 ****         2.4243   1.2927  -1.7138 H              1 S1                 0.0000
     35 ****         4.5311   2.2451  -0.8421 H              1 S1                 0.0000
     36 ****         3.7000   1.3827   0.4418 H              1 S1                 0.0000
     37 ****         7.1715   0.3855   0.8081 H              1 S1                 0.0000
     38 ****         5.7716   1.0673   1.6461 H              1 S1                 0.0000
     39 ****         6.5897   1.9923   0.3807 H              1 S1                 0.0000
     40 ****         5.9181  -1.5585   0.1733 H              1 S1                 0.0000
     41 ****         4.5337  -0.9310   1.0539 H              1 S1                 0.0000
     42 ****         4.5845  -1.5136  -1.9507 H              1 S1                 0.0000
     43 ****         4.7282  -3.6348  -0.8877 H              1 S1                 0.0000
     44 ****         3.0694  -3.4485  -1.4346 H              1 S1                 0.0000
     45 ****         3.4762  -3.2653   0.2753 H              1 S1                 0.0000
     46 ****        -1.1428   1.4255  -1.7522 H              1 S1                 0.0000
     47 ****        -6.2704   0.9374   2.3659 LP             1 S1                 0.0000
     48 ****        -6.5370   2.4665   1.8585 LP             1 S1                 0.0000
     49 ****        -5.1524  -0.7818   0.2372 LP             1 S1                 0.0000
     50 ****        -4.7307   0.1737   1.4926 LP             1 S1                 0.0000
     51 ****         0.7881  -1.7398   1.0821 LP             1 S1                 0.0000
     52 ****         2.5091  -1.9330   1.0546 LP             1 S1                 0.0000
     53 ****         5.8866   0.3526  -1.2005 LP             1 S1                 0.0000
     54 ****        -3.3840   1.5717  -1.1086 LP             1 S1                 0.0000
@<TRIPOS>BOND
    1    1    2 1     
    2    1   23 1     
    3    1   24 1     
    4    1   25 1     
    5    2    3 1     
    6    3    4 1     
    7    3   26 1     
    8    3   27 1     
    9    4    5 1     
   10    4   28 1     
   11    4   29 1     
   12    5    6 1     
   13    6   22 ar    
   14    6    7 ar    
   15    7    8 ar    
   16    7   30 1     
   17    8    9 ar    
   18    8   31 1     
   19    9   10 1     
   20    9   21 ar    
   21   10   11 am    
   22   10   32 1     
   23   11   12 2     
   24   11   13 am    
   25   13   19 1     
   26   13   14 1     
   27   14   15 1     
   28   14   33 1     
   29   14   34 1     
   30   15   16 1     
   31   15   35 1     
   32   15   36 1     
   33   16   17 1     
   34   16   18 1     
   35   17   37 1     
   36   17   38 1     
   37   17   39 1     
   38   18   19 1     
   39   18   40 1     
   40   18   41 1     
   41   19   20 1     
   42   19   42 1     
   43   20   43 1     
   44   20   44 1     
   45   20   45 1     
   46   21   22 ar    
   47   21   46 1     
   48    2   47 1     
   49    2   48 1     
   50    5   49 1     
   51    5   50 1     
   52   12   51 1     
   53   12   52 1     
   54   16   53 1     
   55   22   54 1     
@<TRIPOS>SUBSTRUCTURE
      1 S1             1
@<TRIPOS>SET
LONE_PAIRS      STATIC     ATOMS    <user>   **** ""
8 47 48 49 50 51 52 53 54
DONOR_HYDROGENS      STATIC     ATOMS    <user>   **** ""
1 32
ATOM$BLUE        STATIC     ATOMS    COLORGROUP SYSTEM
8 47 48 49 50 51 52 53 54
ATOM$RED        STATIC     ATOMS    COLORGROUP SYSTEM
1 32
