#       Name:                AV-unprocessed.smi:90
#       Creating user name   scv26
#       Creation time:       Thu Mar 26 17:25:15 2020


#       File generated by GOLD software.
#

@<TRIPOS>MOLECULE
AV-unprocessed.smi:90
    71    74     1
SMALL
NO_CHARGES


@<TRIPOS>ATOM
      1 ****        -1.9905  -2.6503   1.2843 C.3            1 S1                 0.0000
      2 ****        -1.3620  -1.3327   1.2480 N.pl3          1 S1                 0.0000
      3 ****        -2.1429  -0.1601   0.8597 C.3            1 S1                 0.0000
      4 ****        -3.3693   0.0658   1.7644 C.3            1 S1                 0.0000
      5 ****        -4.2202   1.3013   1.3629 C.3            1 S1                 0.0000
      6 ****        -3.4727   2.6468   1.5182 C.3            1 S1                 0.0000
      7 ****        -3.2701   3.0263   2.9939 C.3            1 S1                 0.0000
      8 ****        -4.6180   3.0324   3.7281 C.3            1 S1                 0.0000
      9 ****        -5.3688   1.7039   3.5360 C.3            1 S1                 0.0000
     10 ****        -5.5206   1.3865   2.0928 N.4            1 S1                 1.0000
     11 ****        -6.4473   0.2590   1.8424 C.3            1 S1                 0.0000
     12 ****        -0.0114  -1.3197   1.1027 C.ar           1 S1                 0.0000
     13 ****         0.7137  -2.1184   1.9288 N.ar           1 S1                 0.0000
     14 ****         2.0460  -2.1517   1.8417 C.ar           1 S1                 0.0000
     15 ****         2.8432  -1.4844   1.0069 N.ar           1 S1                 0.0000
     16 ****         2.1254  -0.6910   0.1621 C.ar           1 S1                 0.0000
     17 ****         0.7078  -0.5439   0.1439 C.ar           1 S1                 0.0000
     18 ****         0.3465   0.3495  -0.8592 N.2            1 S1                 0.0000
     19 ****         1.4798   0.7174  -1.3893 C.2            1 S1                 0.0000
     20 ****         2.5997   0.1253  -0.8514 N.pl3          1 S1                 0.0000
     21 ****         3.9817   0.3475  -1.2566 C.3            1 S1                 0.0000
     22 ****         4.4632  -0.5220  -2.4572 C.3            1 S1                 0.0000
     23 ****         4.3738  -2.0355  -2.1090 C.3            1 S1                 0.0000
     24 ****         5.1899  -2.3810  -1.0079 O.3            1 S1                 0.0000
     25 ****         3.5941  -0.2272  -3.7069 C.3            1 S1                 0.0000
     26 ****         4.1968  -0.7828  -5.0110 C.3            1 S1                 0.0000
     27 ****         5.5179  -0.2907  -5.1905 O.3            1 S1                 0.0000
     28 ****         6.3983  -0.6892  -4.1483 C.3            1 S1                 0.0000
     29 ****         5.9149  -0.1073  -2.8085 C.3            1 S1                 0.0000
     30 ****        -1.3775  -3.4031   0.7865 H              1 S1                 0.0000
     31 ****        -2.9575  -2.6378   0.7820 H              1 S1                 0.0000
     32 ****        -2.1455  -2.9631   2.3170 H              1 S1                 0.0000
     33 ****        -1.5061   0.7207   0.9196 H              1 S1                 0.0000
     34 ****        -2.4518  -0.2670  -0.1807 H              1 S1                 0.0000
     35 ****        -3.9892  -0.8274   1.7182 H              1 S1                 0.0000
     36 ****        -3.0387   0.1446   2.7996 H              1 S1                 0.0000
     37 ****        -4.4657   1.1928   0.3053 H              1 S1                 0.0000
     38 ****        -2.5162   2.6352   0.9976 H              1 S1                 0.0000
     39 ****        -4.0556   3.4311   1.0333 H              1 S1                 0.0000
     40 ****        -2.5866   2.3256   3.4742 H              1 S1                 0.0000
     41 ****        -2.8024   4.0087   3.0662 H              1 S1                 0.0000
     42 ****        -4.4642   3.2250   4.7904 H              1 S1                 0.0000
     43 ****        -5.2309   3.8525   3.3519 H              1 S1                 0.0000
     44 ****        -4.8511   0.8925   4.0484 H              1 S1                 0.0000
     45 ****        -6.3552   1.7813   3.9951 H              1 S1                 0.0000
     46 ****        -6.1284  -0.6487   2.3547 H              1 S1                 0.0000
     47 ****        -6.5256   0.0475   0.7756 H              1 S1                 0.0000
     48 ****        -7.4456   0.5081   2.2033 H              1 S1                 0.0000
     49 ****         2.5447  -2.8081   2.5396 H              1 S1                 0.0000
     50 ****         1.5290   1.4275  -2.2019 H              1 S1                 0.0000
     51 ****         4.0834   1.4064  -1.4987 H              1 S1                 0.0000
     52 ****         4.6219   0.1855  -0.3887 H              1 S1                 0.0000
     53 ****         3.3468  -2.3213  -1.8810 H              1 S1                 0.0000
     54 ****         4.6780  -2.6605  -2.9468 H              1 S1                 0.0000
     55 ****         5.0659  -3.2982  -0.8175 H              1 S1                 0.0000
     56 ****         2.5883  -0.6287  -3.5803 H              1 S1                 0.0000
     57 ****         3.4796   0.8514  -3.8213 H              1 S1                 0.0000
     58 ****         4.1964  -1.8729  -5.0227 H              1 S1                 0.0000
     59 ****         3.5916  -0.4656  -5.8603 H              1 S1                 0.0000
     60 ****         6.4761  -1.7762  -4.1106 H              1 S1                 0.0000
     61 ****         7.3960  -0.3135  -4.3757 H              1 S1                 0.0000
     62 ****         5.9744   0.9799  -2.8761 H              1 S1                 0.0000
     63 ****         6.6037  -0.3901  -2.0119 H              1 S1                 0.0000
     64 ****        -5.9838   2.1913   1.6951 H              1 S1                 0.0000
     65 ****         0.2464  -2.6855   2.6070 LP             1 S1                 0.0000
     66 ****         3.8406  -1.5567   1.0012 LP             1 S1                 0.0000
     67 ****        -0.5742   0.6433  -1.1159 LP             1 S1                 0.0000
     68 ****         4.9315  -1.8336  -0.2119 LP             1 S1                 0.0000
     69 ****         6.1493  -2.2101  -1.2327 LP             1 S1                 0.0000
     70 ****         5.4862   0.7084  -5.2178 LP             1 S1                 0.0000
     71 ****         5.8730  -0.6368  -6.0590 LP             1 S1                 0.0000
@<TRIPOS>BOND
    1    1    2 1     
    2    1   30 1     
    3    1   31 1     
    4    1   32 1     
    5    2    3 1     
    6    2   12 1     
    7    3    4 1     
    8    3   33 1     
    9    3   34 1     
   10    4    5 1     
   11    4   35 1     
   12    4   36 1     
   13    5   10 1     
   14    5    6 1     
   15    5   37 1     
   16    6    7 1     
   17    6   38 1     
   18    6   39 1     
   19    7    8 1     
   20    7   40 1     
   21    7   41 1     
   22    8    9 1     
   23    8   42 1     
   24    8   43 1     
   25    9   10 1     
   26    9   44 1     
   27    9   45 1     
   28   10   11 1     
   29   10   64 1     
   30   11   46 1     
   31   11   47 1     
   32   11   48 1     
   33   12   17 ar    
   34   12   13 ar    
   35   13   14 ar    
   36   14   15 ar    
   37   14   49 1     
   38   15   16 ar    
   39   16   20 1     
   40   16   17 ar    
   41   17   18 1     
   42   18   19 2     
   43   19   20 1     
   44   19   50 1     
   45   20   21 1     
   46   21   22 1     
   47   21   51 1     
   48   21   52 1     
   49   22   29 1     
   50   22   23 1     
   51   22   25 1     
   52   23   24 1     
   53   23   53 1     
   54   23   54 1     
   55   24   55 1     
   56   25   26 1     
   57   25   56 1     
   58   25   57 1     
   59   26   27 1     
   60   26   58 1     
   61   26   59 1     
   62   27   28 1     
   63   28   29 1     
   64   28   60 1     
   65   28   61 1     
   66   29   62 1     
   67   29   63 1     
   68   13   65 1     
   69   15   66 1     
   70   18   67 1     
   71   24   68 1     
   72   24   69 1     
   73   27   70 1     
   74   27   71 1     
@<TRIPOS>SUBSTRUCTURE
      1 S1             1
@<TRIPOS>SET
LONE_PAIRS      STATIC     ATOMS    <user>   **** ""
7 65 66 67 68 69 70 71
DONOR_HYDROGENS      STATIC     ATOMS    <user>   **** ""
2 64 55
ATOM$BLUE        STATIC     ATOMS    COLORGROUP SYSTEM
7 65 66 67 68 69 70 71
ATOM$RED        STATIC     ATOMS    COLORGROUP SYSTEM
2 64 55
