AV-unprocessed.smi:1991|AV-procd|sdf|8068|dock7
  -GOLD-   2272010273D 1   1.00000     0.00000
 Structure written by MMmdl.
 44 45  0  0  0  0  0  0  0  0  1 V2000
  147.9762  136.5814  163.0076 C   0  0  0  0  0  0  0  0  0  0  0  0
  147.6151  135.7611  161.7605 C   0  0  1  0  0  0  0  0  0  0  0  0
  146.2831  135.2836  161.9338 O   0  0  0  0  0  0  0  0  0  0  0  0
  145.3277  136.2578  162.3419 C   0  0  0  0  0  0  0  0  0  0  0  0
  143.9601  135.5861  162.5141 C   0  0  0  0  0  0  0  0  0  0  0  0
  144.0917  134.5169  163.2982 F   0  0  0  0  0  0  0  0  0  0  0  0
  143.1000  136.4307  163.0828 F   0  0  0  0  0  0  0  0  0  0  0  0
  143.4875  135.1934  161.3316 F   0  0  0  0  0  0  0  0  0  0  0  0
  147.7198  136.6116  160.4845 C   0  0  0  0  0  0  0  0  0  0  0  0
  147.1975  137.7255  160.4388 O   0  0  0  0  0  0  0  0  0  0  0  0
  148.3815  136.0595  159.4558 N   0  0  0  0  0  0  0  0  0  0  0  0
  148.6149  136.6862  158.1591 C   0  0  0  0  0  0  0  0  0  0  0  0
  149.1638  135.7049  157.1282 C   0  0  0  0  0  0  0  0  0  0  0  0
  148.9233  134.3250  157.3048 C   0  0  0  0  0  0  0  0  0  0  0  0
  149.3971  133.4124  156.3456 C   0  0  0  0  0  0  0  0  0  0  0  0
  150.0979  133.9178  155.2361 C   0  0  0  0  0  0  0  0  0  0  0  0
  150.3390  135.2320  155.0525 N   0  0  0  0  0  0  0  0  0  0  0  0
  149.8856  136.1162  155.9748 C   0  0  0  0  0  0  0  0  0  0  0  0
  150.1886  137.4721  155.7650 N   0  0  0  0  0  0  0  0  0  0  0  0
  151.6205  137.7334  155.7177 C   0  0  0  0  0  0  0  0  0  0  0  0
  151.8741  139.2502  155.7369 C   0  0  0  0  0  0  0  0  0  0  0  0
  151.1746  139.8642  154.6569 O   0  0  0  0  0  0  0  0  0  0  0  0
  149.7665  139.6577  154.7404 C   0  0  0  0  0  0  0  0  0  0  0  0
  149.4614  138.1504  154.6980 C   0  0  0  0  0  0  0  0  0  0  0  0
  148.9840  136.9920  162.9344 H   0  0  0  0  0  0  0  0  0  0  0  0
  147.9386  135.9600  163.9026 H   0  0  0  0  0  0  0  0  0  0  0  0
  147.2854  137.4123  163.1559 H   0  0  0  0  0  0  0  0  0  0  0  0
  148.2993  134.9125  161.6991 H   0  0  0  0  0  0  0  0  0  0  0  0
  145.6231  136.7238  163.2826 H   0  0  0  0  0  0  0  0  0  0  0  0
  145.2583  137.0483  161.5931 H   0  0  0  0  0  0  0  0  0  0  0  0
  148.7675  135.1360  159.5873 H   0  0  0  0  0  0  0  0  0  0  0  0
  147.6528  137.0461  157.7936 H   0  0  0  0  0  0  0  0  0  0  0  0
  149.2358  137.5773  158.2525 H   0  0  0  0  0  0  0  0  0  0  0  0
  148.3748  133.9684  158.1641 H   0  0  0  0  0  0  0  0  0  0  0  0
  149.2244  132.3521  156.4557 H   0  0  0  0  0  0  0  0  0  0  0  0
  150.4763  133.2497  154.4767 H   0  0  0  0  0  0  0  0  0  0  0  0
  152.1240  137.2545  156.5568 H   0  0  0  0  0  0  0  0  0  0  0  0
  152.0355  137.2977  154.8079 H   0  0  0  0  0  0  0  0  0  0  0  0
  151.5559  139.6853  156.6858 H   0  0  0  0  0  0  0  0  0  0  0  0
  152.9397  139.4543  155.6333 H   0  0  0  0  0  0  0  0  0  0  0  0
  149.3768  140.1075  155.6552 H   0  0  0  0  0  0  0  0  0  0  0  0
  149.2821  140.1630  153.9047 H   0  0  0  0  0  0  0  0  0  0  0  0
  149.7561  137.7427  153.7299 H   0  0  0  0  0  0  0  0  0  0  0  0
  148.3904  137.9788  154.8121 H   0  0  0  0  0  0  0  0  0  0  0  0
  1  2  1  0  0  0  0
  1 25  1  0  0  0  0
  1 26  1  0  0  0  0
  1 27  1  0  0  0  0
  2  3  1  0  0  0  0
  2  9  1  0  0  0  0
  2 28  1  0  0  0  0
  3  4  1  0  0  0  0
  4  5  1  0  0  0  0
  4 29  1  0  0  0  0
  4 30  1  0  0  0  0
  5  6  1  0  0  0  0
  5  7  1  0  0  0  0
  5  8  1  0  0  0  0
  9 10  2  0  0  0  0
  9 11  1  0  0  0  0
 11 12  1  0  0  0  0
 11 31  1  0  0  0  0
 12 13  1  0  0  0  0
 12 32  1  0  0  0  0
 12 33  1  0  0  0  0
 13 18  1  0  0  0  0
 13 14  2  0  0  0  0
 14 15  1  0  0  0  0
 14 34  1  0  0  0  0
 15 16  2  0  0  0  0
 15 35  1  0  0  0  0
 16 17  1  0  0  0  0
 16 36  1  0  0  0  0
 17 18  2  0  0  0  0
 18 19  1  0  0  0  0
 19 24  1  0  0  0  0
 19 20  1  0  0  0  0
 20 21  1  0  0  0  0
 20 37  1  0  0  0  0
 20 38  1  0  0  0  0
 21 22  1  0  0  0  0
 21 39  1  0  0  0  0
 21 40  1  0  0  0  0
 22 23  1  0  0  0  0
 23 24  1  0  0  0  0
 23 41  1  0  0  0  0
 23 42  1  0  0  0  0
 24 43  1  0  0  0  0
 24 44  1  0  0  0  0
M  END
> <s_m_source_file>
AV-unprocessed.smi

> <i_m_source_file_index>
1991

> <i_lp_mmshare_version>
43012

> <i_f3d_flags>
0

> <s_epik_input>
RkMoRikoRilbQ0gyXU9bQ0BASF0oW0NIM10pQyg9TylbTkhdW0NIMl1jMVtjSF1bY0hdW2NIXW5jMU4yW0NIMl1bQ0gyXU9bQ0gyXVtDSDJdMg==

> <s_epik_cmdline>
J2VwaWtfcHl0aG9uJywgJy1waCcsICc3LjAnLCAnLXRuJywgJzgnLCAnLW1hJywgJzIwMCcsICctbWV0YWxfYmluZGluZycsICctaW1hZScsICc8aW5maWxlLm1hZT4nLCAnLW9tYWUnLCAnPG91dGZpbGUubWFlPic=

> <r_lp_tautomer_probability>
1

> <r_epik_Ionization_Penalty>
0.00436412

> <r_epik_Ionization_Penalty_Charging>
0

> <r_epik_Ionization_Penalty_Neutral>
0.00436412

> <r_epik_State_Penalty>
0.00314317

> <r_epik_Charging_Adjusted_Penalty>
0.00314317

> <i_epik_Tot_Q>
0

> <i_epik_Tot_abs_Q>
0

> <r_epik_Metal_State_Penalty>
-0

> <b_epik_Metal_Only>
0

> <s_lp_Force_Field>
OPLS_2005

> <r_lp_Energy>
21.3683

> <b_lp_Chiralities_Consistent>
1

> <s_lp_Variant>
AV-unprocessed.smi:1991-2

> <Gold.Version>
5.8.1

> <Gold.Id.Protein>
6NUR|6NUR_protein|mol2

> <Gold.PLP.Fitness>
40.1986

> <Gold.PLP.PLP>
-35.7042

> <Gold.PLP.part.hbond>
-2.0000

> <Gold.PLP.part.metal>
0.0000

> <Gold.PLP.part.buried>
-7.6228

> <Gold.PLP.part.nonpolar>
-26.9936

> <Gold.PLP.part.repulsive>
0.3895

> <Gold.PLP.ligand.clash>
0.0023

> <Gold.PLP.ligand.torsion>
0.8944

> <Gold.PLP.Chemscore.Hbond>
2.0000

> <Gold.PLP.Chemscore.CHOScore>
0.0000

> <Gold.PLP.Chemscore.Metal>
0.0000

> <Gold.Chemscore.Hbonds>
donor molecule, donor type, donor heavy atom, donor atom, acceptor molecule, acceptor atom, score
      P1  H  6934  6947       L1    10  0.63
      P1  H  7989  7998       L1    22  1.00

> <Gold.PLP.Chemscore.Internal.Correction>
0.2854

> <Gold.Rescore>
     Score         DG    S(hbond)    S(metal)    S(lipo)     H(rot)  DE(clash)    DE(int)     intcor
     13.23     -14.13       1.98        0.00      71.74       2.49       0.02       0.88       ----

> <Gold.Chemscore.Fitness>
13.2275

> <Gold.Chemscore.DG>
-14.1265

> <Gold.Chemscore.ZeroCoef>
-5.4800

> <Gold.Chemscore.Hbond>
1.9841

> <Gold.Chemscore.Metal>
0.0000

> <Gold.Chemscore.Lipo>
71.7412

> <Gold.Chemscore.Internal_Hbond>
0.0000

> <Gold.Chemscore.DEClash>
0.0178

> <Gold.Chemscore.DEInternal>
0.8812

> <Gold.Chemscore.Rot>
2.4899

> <Gold.Chemscore.Internal.Correction>
   9.000000E+99

> <Gold.Chemscore.Hbonds>
donor molecule, donor type, donor heavy atom, donor atom, acceptor molecule, acceptor atom, score
      P1  H  6934  6947       L1    10  0.62
      P1  H  7989  7998       L1    22  0.89

> <Gold.Chemscore.Hbond.Weighted>
-6.6269

> <Gold.Chemscore.Metal.Weighted>
-0.0000

> <Gold.Chemscore.Lipo.Weighted>
-8.3937

> <Gold.Chemscore.Internal_Hbond.Weighted>
0.0000

> <Gold.Chemscore.DEClash.Weighted>
0.0178

> <Gold.Chemscore.DEInternal.Weighted>
0.8812

> <Gold.Chemscore.Rot.Weighted>
6.3741

> <Gold.Chemscore.Internal.Correction.Weighted>
   9.000000E+99

> <Gold.Protein.RotatedTorsions>
[ 6907 6896 6895 6894 ] final -173.27 input  -60.11 | X-H torsion
[ 7974 7965 7964 7962 ] final   29.19 input  175.53 | X-H torsion
[ 8008 7997 7996 7995 ] final  103.54 input   59.86 | X-H torsion
[ 10167 10162 10161 10158 ] final  168.16 input  -65.29 | X-H torsion
[ 10718 10713 10712 10709 ] final   20.69 input   66.30 | X-H torsion
[ 10763 10752 10751 10750 ] final  -80.55 input  -60.55 | X-H torsion
[ 11005 11000 10999 10996 ] final -153.35 input  -57.11 | X-H torsion

> <Gold.Protein.ActiveResidues>
 VAL166  LYS551  ARG553  GLY616  TRP617  ASP618  TYR619  PRO620  LYS621  CYS622 
 ASP623  PHE694  ASN695  SER759  ASP760  ASP761  ALA762  ILE779  LEU786  VAL792 
 PHE793  MET794  SER795  GLU796  ALA797  LYS798  CYS799  TRP800  GLU811  SER814 

> <Gold.Protein.RotatedAtoms>
  151.5534  133.3414  159.2957 H   0  0  0  0  0  0  0  0  0  0  0  0  # atno 6907 bound_to 6896
  150.8465  134.7778  159.6986 H   0  0  0  0  0  0  0  0  0  0  0  0  # atno 6908 bound_to 6896
  152.4521  134.5378  159.9881 H   0  0  0  0  0  0  0  0  0  0  0  0  # atno 6909 bound_to 6896
  146.1686  139.6955  142.8984 H   0  0  0  0  0  0  0  0  0  0  0  0  # atno 7974 bound_to 7965
  156.1493  140.3163  155.8622 H   0  0  0  0  0  0  0  0  0  0  0  0  # atno 8008 bound_to 7997
  155.4002  140.0499  157.3054 H   0  0  0  0  0  0  0  0  0  0  0  0  # atno 8009 bound_to 7997
  154.5044  140.2141  155.9292 H   0  0  0  0  0  0  0  0  0  0  0  0  # atno 8010 bound_to 7997
  139.4961  144.3844  151.9586 H   0  0  0  0  0  0  0  0  0  0  0  0  # atno 10167 bound_to 10162
  157.1280  130.6578  149.5943 H   0  0  0  0  0  0  0  0  0  0  0  0  # atno 10718 bound_to 10713
  154.5526  135.5657  153.6936 H   0  0  0  0  0  0  0  0  0  0  0  0  # atno 10763 bound_to 10752
  152.9994  135.6254  154.2353 H   0  0  0  0  0  0  0  0  0  0  0  0  # atno 10764 bound_to 10752
  154.2288  135.2866  155.2877 H   0  0  0  0  0  0  0  0  0  0  0  0  # atno 10765 bound_to 10752
  140.7091  134.3852  157.5200 H   0  0  0  0  0  0  0  0  0  0  0  0  # atno 11005 bound_to 11000
  145.4401  141.0422  143.2862 LP  0  0  0  0  0  0  0  0  0  0  0  0  # atno 17320 bound_to 7965
  144.8129  139.5930  143.7021 LP  0  0  0  0  0  0  0  0  0  0  0  0  # atno 17321 bound_to 7965
  140.3281  144.3348  150.5993 LP  0  0  0  0  0  0  0  0  0  0  0  0  # atno 17342 bound_to 10162
  140.5667  143.2185  151.7670 LP  0  0  0  0  0  0  0  0  0  0  0  0  # atno 17343 bound_to 10162
  155.9814  130.4821  150.6825 LP  0  0  0  0  0  0  0  0  0  0  0  0  # atno 17370 bound_to 10713
  157.4417  131.0862  151.0936 LP  0  0  0  0  0  0  0  0  0  0  0  0  # atno 17371 bound_to 10713
  139.8876  134.8878  156.2518 LP  0  0  0  0  0  0  0  0  0  0  0  0  # atno 17394 bound_to 11000
  141.0099  133.7101  156.1095 LP  0  0  0  0  0  0  0  0  0  0  0  0  # atno 17395 bound_to 11000

$$$$
