AV-unprocessed.smi:2198|AV-procd|sdf|8918|dock7
  -GOLD-   2272012133D 1   1.00000     0.00000
 Structure written by MMmdl.
 43 44  0  0  0  0  0  0  0  0  1 V2000
  151.2116  143.2969  157.4043 C   0  0  0  0  0  0  0  0  0  0  0  0
  151.1047  142.0128  156.6105 C   0  0  0  0  0  0  0  0  0  0  0  0
  149.9842  141.9505  155.7987 N   0  0  0  0  0  0  0  0  0  0  0  0
  149.7922  140.8049  155.0465 C   0  0  0  0  0  0  0  0  0  0  0  0
  148.5319  140.8117  154.1989 C   0  0  0  0  0  0  0  0  0  0  0  0
  150.6790  139.7781  155.0918 C   0  0  0  0  0  0  0  0  0  0  0  0
  150.5008  138.4945  154.2840 C   0  0  0  0  0  0  0  0  0  0  0  0
  150.5837  137.1975  155.0901 C   0  0  0  0  0  0  0  0  0  0  0  0
  150.9978  137.2183  156.2486 O   0  0  0  0  0  0  0  0  0  0  0  0
  150.1884  136.0784  154.4647 N   0  0  0  0  0  0  0  0  0  0  0  0
  150.1745  134.7369  155.0444 C   0  0  1  0  0  0  0  0  0  0  0  0
  149.3814  134.7073  156.3677 C   0  0  0  0  0  0  0  0  0  0  0  0
  147.8721  134.8996  156.1415 C   0  0  0  0  0  0  0  0  0  0  0  0
  147.3207  133.8707  155.1422 C   0  0  0  0  0  0  0  0  0  0  0  0
  148.0817  133.9162  153.8032 C   0  0  2  0  0  0  0  0  0  0  0  0
  147.5331  132.8813  152.8111 C   0  0  0  0  0  0  0  0  0  0  0  0
  149.5964  133.7269  154.0331 C   0  0  0  0  0  0  0  0  0  0  0  0
  151.8693  139.9114  155.9645 C   0  0  0  0  0  0  0  0  0  0  0  0
  152.7205  139.0257  156.0330 O   0  0  0  0  0  0  0  0  0  0  0  0
  152.0091  141.0876  156.7188 N   0  0  0  0  0  0  0  0  0  0  0  0
  149.2999  142.6904  155.7357 H   0  0  0  0  0  0  0  0  0  0  0  0
  152.0112  143.2324  158.1433 H   0  0  0  0  0  0  0  0  0  0  0  0
  150.2787  143.5000  157.9316 H   0  0  0  0  0  0  0  0  0  0  0  0
  151.4261  144.1354  156.7411 H   0  0  0  0  0  0  0  0  0  0  0  0
  147.8746  139.9905  154.4853 H   0  0  0  0  0  0  0  0  0  0  0  0
  148.7810  140.7037  153.1432 H   0  0  0  0  0  0  0  0  0  0  0  0
  147.9740  141.7416  154.3155 H   0  0  0  0  0  0  0  0  0  0  0  0
  151.2531  138.4749  153.4945 H   0  0  0  0  0  0  0  0  0  0  0  0
  149.5491  138.5035  153.7518 H   0  0  0  0  0  0  0  0  0  0  0  0
  149.8646  136.1613  153.5121 H   0  0  0  0  0  0  0  0  0  0  0  0
  151.2059  134.4453  155.2515 H   0  0  0  0  0  0  0  0  0  0  0  0
  149.5466  133.7481  156.8600 H   0  0  0  0  0  0  0  0  0  0  0  0
  149.7561  135.4663  157.0556 H   0  0  0  0  0  0  0  0  0  0  0  0
  147.3427  134.8139  157.0907 H   0  0  0  0  0  0  0  0  0  0  0  0
  147.6796  135.9081  155.7735 H   0  0  0  0  0  0  0  0  0  0  0  0
  147.3917  132.8715  155.5737 H   0  0  0  0  0  0  0  0  0  0  0  0
  146.2596  134.0590  154.9745 H   0  0  0  0  0  0  0  0  0  0  0  0
  147.9247  134.9013  153.3620 H   0  0  0  0  0  0  0  0  0  0  0  0
  147.6559  131.8655  153.1884 H   0  0  0  0  0  0  0  0  0  0  0  0
  148.0486  132.9450  151.8524 H   0  0  0  0  0  0  0  0  0  0  0  0
  146.4707  133.0409  152.6249 H   0  0  0  0  0  0  0  0  0  0  0  0
  150.1327  133.8031  153.0861 H   0  0  0  0  0  0  0  0  0  0  0  0
  149.7786  132.7162  154.4012 H   0  0  0  0  0  0  0  0  0  0  0  0
  1 22  1  0  0  0  0
  1 23  1  0  0  0  0
  1 24  1  0  0  0  0
  1  2  1  0  0  0  0
  2  3  1  0  0  0  0
  2 20  2  0  0  0  0
  3  4  1  0  0  0  0
  3 21  1  0  0  0  0
  4  6  2  0  0  0  0
  4  5  1  0  0  0  0
  5 25  1  0  0  0  0
  5 26  1  0  0  0  0
  5 27  1  0  0  0  0
  6 18  1  0  0  0  0
  6  7  1  0  0  0  0
  7  8  1  0  0  0  0
  7 28  1  0  0  0  0
  7 29  1  0  0  0  0
  8  9  2  0  0  0  0
  8 10  1  0  0  0  0
 10 11  1  0  0  0  0
 10 30  1  0  0  0  0
 11 17  1  0  0  0  0
 11 12  1  0  0  0  0
 11 31  1  0  0  0  0
 12 13  1  0  0  0  0
 12 32  1  0  0  0  0
 12 33  1  0  0  0  0
 13 14  1  0  0  0  0
 13 34  1  0  0  0  0
 13 35  1  0  0  0  0
 14 15  1  0  0  0  0
 14 36  1  0  0  0  0
 14 37  1  0  0  0  0
 15 16  1  0  0  0  0
 15 17  1  0  0  0  0
 15 38  1  0  0  0  0
 16 39  1  0  0  0  0
 16 40  1  0  0  0  0
 16 41  1  0  0  0  0
 17 42  1  0  0  0  0
 17 43  1  0  0  0  0
 18 19  2  0  0  0  0
 18 20  1  0  0  0  0
M  END
> <s_m_source_file>
AV-unprocessed.smi

> <i_m_source_file_index>
2198

> <i_lp_mmshare_version>
43012

> <i_f3d_flags>
0

> <s_epik_input>
W0NIM11jMW5jKFtDSDNdKWMoYyg9TylbbkhdMSlbQ0gyXUMoPU8pW05IXVtDQEBIXTJbQ0gyXVtDSDJdW0NIMl1bQ0BASF0oW0NIM10pW0NIMl0y

> <s_epik_cmdline>
J2VwaWtfcHl0aG9uJywgJy1waCcsICc3LjAnLCAnLXRuJywgJzgnLCAnLW1hJywgJzIwMCcsICctbWV0YWxfYmluZGluZycsICctaW1hZScsICc8aW5maWxlLm1hZT4nLCAnLW9tYWUnLCAnPG91dGZpbGUubWFlPic=

> <r_lp_tautomer_probability>
0.156392

> <r_epik_Ionization_Penalty>
0.0136514

> <r_epik_Ionization_Penalty_Charging>
0.0135207

> <r_epik_Ionization_Penalty_Neutral>
0.000130657

> <r_epik_State_Penalty>
1.15342

> <r_epik_Charging_Adjusted_Penalty>
1.16694

> <i_epik_Tot_Q>
0

> <i_epik_Tot_abs_Q>
0

> <r_epik_Metal_State_Penalty>
1.31404

> <b_epik_Metal_Only>
0

> <s_lp_Force_Field>
OPLS_2005

> <r_lp_Energy>
13.6567

> <b_lp_Chiralities_Consistent>
1

> <s_lp_Variant>
AV-unprocessed.smi:2198-8

> <Gold.Version>
5.8.1

> <Gold.Id.Protein>
6NUR|6NUR_protein|mol2

> <Gold.PLP.Fitness>
39.4522

> <Gold.PLP.PLP>
-31.8298

> <Gold.PLP.part.hbond>
-3.7383

> <Gold.PLP.part.metal>
0.0000

> <Gold.PLP.part.buried>
1.4895

> <Gold.PLP.part.nonpolar>
-29.3745

> <Gold.PLP.part.repulsive>
0.2091

> <Gold.PLP.ligand.clash>
0.0000

> <Gold.PLP.ligand.torsion>
0.2042

> <Gold.PLP.Chemscore.Hbond>
2.6746

> <Gold.PLP.Chemscore.CHOScore>
0.0000

> <Gold.PLP.Chemscore.Metal>
0.0000

> <Gold.Chemscore.Hbonds>
donor molecule, donor type, donor heavy atom, donor atom, acceptor molecule, acceptor atom, score
      L1  H     3    21       P1  8028  0.87
      L1  H    10    30       P1  7948  0.80
      P1  H  7997  8009       L1    19  1.00

> <Gold.PLP.Chemscore.Internal.Correction>
0.0068

> <Gold.Rescore>
     Score         DG    S(hbond)    S(metal)    S(lipo)     H(rot)  DE(clash)    DE(int)     intcor
      9.98     -16.06       2.17        0.00      60.91       1.48       0.36       5.72       ----

> <Gold.Chemscore.Fitness>
9.9792

> <Gold.Chemscore.DG>
-16.0604

> <Gold.Chemscore.ZeroCoef>
-5.4800

> <Gold.Chemscore.Hbond>
2.1685

> <Gold.Chemscore.Metal>
0.0000

> <Gold.Chemscore.Lipo>
60.9129

> <Gold.Chemscore.Internal_Hbond>
0.0000

> <Gold.Chemscore.DEClash>
0.3569

> <Gold.Chemscore.DEInternal>
5.7243

> <Gold.Chemscore.Rot>
1.4801

> <Gold.Chemscore.Internal.Correction>
   9.000000E+99

> <Gold.Chemscore.Hbonds>
donor molecule, donor type, donor heavy atom, donor atom, acceptor molecule, acceptor atom, score
      L1  H     3    21       P1  8028  0.81
      L1  H    10    30       P1  7948  0.12
      P1  H  7997  8009       L1    19  0.25

> <Gold.Chemscore.Hbond.Weighted>
-7.2427

> <Gold.Chemscore.Metal.Weighted>
-0.0000

> <Gold.Chemscore.Lipo.Weighted>
-7.1268

> <Gold.Chemscore.Internal_Hbond.Weighted>
0.0000

> <Gold.Chemscore.DEClash.Weighted>
0.3569

> <Gold.Chemscore.DEInternal.Weighted>
5.7243

> <Gold.Chemscore.Rot.Weighted>
3.7891

> <Gold.Chemscore.Internal.Correction.Weighted>
   9.000000E+99

> <Gold.Protein.RotatedTorsions>
[ 6907 6896 6895 6894 ] final    4.72 input  -60.11 | X-H torsion
[ 7974 7965 7964 7962 ] final -158.45 input  175.53 | X-H torsion
[ 8008 7997 7996 7995 ] final -156.27 input   59.86 | X-H torsion
[ 10167 10162 10161 10158 ] final -157.86 input  -65.29 | X-H torsion
[ 10718 10713 10712 10709 ] final   34.66 input   66.30 | X-H torsion
[ 10763 10752 10751 10750 ] final  -29.86 input  -60.55 | X-H torsion
[ 11005 11000 10999 10996 ] final  149.45 input  -57.11 | X-H torsion

> <Gold.Protein.ActiveResidues>
 VAL166  LYS551  ARG553  GLY616  TRP617  ASP618  TYR619  PRO620  LYS621  CYS622 
 ASP623  PHE694  ASN695  SER759  ASP760  ASP761  ALA762  ILE779  LEU786  VAL792 
 PHE793  MET794  SER795  GLU796  ALA797  LYS798  CYS799  TRP800  GLU811  SER814 

> <Gold.Protein.RotatedAtoms>
  151.6458  135.1007  160.0150 H   0  0  0  0  0  0  0  0  0  0  0  0  # atno 6907 bound_to 6896
  152.4028  133.6840  159.6339 H   0  0  0  0  0  0  0  0  0  0  0  0  # atno 6908 bound_to 6896
  150.7926  133.8678  159.3291 H   0  0  0  0  0  0  0  0  0  0  0  0  # atno 6909 bound_to 6896
  144.7505  140.3825  143.6052 H   0  0  0  0  0  0  0  0  0  0  0  0  # atno 7974 bound_to 7965
  155.7146  140.0782  157.2356 H   0  0  0  0  0  0  0  0  0  0  0  0  # atno 8008 bound_to 7997
  154.4053  140.1624  156.2388 H   0  0  0  0  0  0  0  0  0  0  0  0  # atno 8009 bound_to 7997
  155.9252  140.3395  155.6207 H   0  0  0  0  0  0  0  0  0  0  0  0  # atno 8010 bound_to 7997
  139.6737  143.9701  152.2298 H   0  0  0  0  0  0  0  0  0  0  0  0  # atno 10167 bound_to 10162
  157.3131  130.7409  149.6737 H   0  0  0  0  0  0  0  0  0  0  0  0  # atno 10718 bound_to 10713
  153.7716  135.6912  153.4905 H   0  0  0  0  0  0  0  0  0  0  0  0  # atno 10763 bound_to 10752
  153.1871  135.4485  155.0101 H   0  0  0  0  0  0  0  0  0  0  0  0  # atno 10764 bound_to 10752
  154.8116  135.3380  154.7225 H   0  0  0  0  0  0  0  0  0  0  0  0  # atno 10765 bound_to 10752
  140.1046  134.8962  157.1847 H   0  0  0  0  0  0  0  0  0  0  0  0  # atno 11005 bound_to 11000
  145.6962  139.1650  143.2619 LP  0  0  0  0  0  0  0  0  0  0  0  0  # atno 17320 bound_to 7965
  146.1448  140.7008  142.9350 LP  0  0  0  0  0  0  0  0  0  0  0  0  # atno 17321 bound_to 7965
  139.9472  144.6644  150.8208 LP  0  0  0  0  0  0  0  0  0  0  0  0  # atno 17342 bound_to 10162
  140.7627  143.3206  151.2631 LP  0  0  0  0  0  0  0  0  0  0  0  0  # atno 17343 bound_to 10162
  155.9679  130.4245  150.4613 LP  0  0  0  0  0  0  0  0  0  0  0  0  # atno 17370 bound_to 10713
  157.2615  131.0568  151.2317 LP  0  0  0  0  0  0  0  0  0  0  0  0  # atno 17371 bound_to 10713
  140.3173  134.2956  155.7253 LP  0  0  0  0  0  0  0  0  0  0  0  0  # atno 17394 bound_to 11000
  141.2115  133.7688  156.9861 LP  0  0  0  0  0  0  0  0  0  0  0  0  # atno 17395 bound_to 11000

$$$$
