AV-unprocessed.smi:3281|AV-procd|sdf|12556|dock9
  -GOLD-   2272018473D 1   1.00000     0.00000
 Structure written by MMmdl.
 37 38  0  0  0  0  0  0  0  0  2 V2000
  144.3519  143.9422  155.0824 C   0  0  0  0  0  0  0  0  0  0  0  0
  144.6090  142.7145  155.9625 C   0  0  0  0  0  0  0  0  0  0  0  0
  145.9089  142.0413  155.6684 C   0  0  0  0  0  0  0  0  0  0  0  0
  146.2519  141.3384  154.5399 C   0  0  0  0  0  0  0  0  0  0  0  0
  147.5525  140.8293  154.5650 N   0  0  0  0  0  0  0  0  0  0  0  0
  148.1915  141.1201  155.7001 C   0  0  0  0  0  0  0  0  0  0  0  0
  149.6048  140.7281  155.9720 C   0  0  0  0  0  0  0  0  0  0  0  0
  150.1885  141.4599  157.1870 C   0  0  0  0  0  0  0  0  0  0  0  0
  150.7234  142.7823  156.8005 N   0  3  0  0  0  0  0  0  0  0  0  0
  151.4490  143.5106  157.8655 C   0  0  2  0  0  0  0  0  0  0  0  0
  152.6127  142.6641  158.4285 C   0  0  0  0  0  0  0  0  0  0  0  0
  153.4221  143.4025  159.5081 C   0  0  0  0  0  0  0  0  0  0  0  0
  152.5688  143.7907  160.7227 C   0  0  0  0  0  0  0  0  0  0  0  0
  151.2408  144.9281  160.2471 S   0  0  0  0  0  0  0  0  0  0  0  0
  150.4558  143.9021  158.9748 C   0  0  0  0  0  0  0  0  0  0  0  0
  147.2255  142.0806  156.8133 S   0  0  0  0  0  0  0  0  0  0  0  0
  143.3962  144.4042  155.3304 H   0  0  0  0  0  0  0  0  0  0  0  0
  144.3265  143.6732  154.0260 H   0  0  0  0  0  0  0  0  0  0  0  0
  145.1307  144.6931  155.2190 H   0  0  0  0  0  0  0  0  0  0  0  0
  144.5816  143.0124  157.0111 H   0  0  0  0  0  0  0  0  0  0  0  0
  143.7954  142.0005  155.8314 H   0  0  0  0  0  0  0  0  0  0  0  0
  145.6356  141.1552  153.6719 H   0  0  0  0  0  0  0  0  0  0  0  0
  149.6408  139.6494  156.1284 H   0  0  0  0  0  0  0  0  0  0  0  0
  150.2028  140.9358  155.0833 H   0  0  0  0  0  0  0  0  0  0  0  0
  149.4158  141.5795  157.9465 H   0  0  0  0  0  0  0  0  0  0  0  0
  150.9871  140.8622  157.6288 H   0  0  0  0  0  0  0  0  0  0  0  0
  151.3731  142.6293  156.0424 H   0  0  0  0  0  0  0  0  0  0  0  0
  151.8489  144.4294  157.4329 H   0  0  0  0  0  0  0  0  0  0  0  0
  152.2265  141.7299  158.8387 H   0  0  0  0  0  0  0  0  0  0  0  0
  153.2969  142.3841  157.6281 H   0  0  0  0  0  0  0  0  0  0  0  0
  154.2443  142.7667  159.8374 H   0  0  0  0  0  0  0  0  0  0  0  0
  153.8805  144.2952  159.0803 H   0  0  0  0  0  0  0  0  0  0  0  0
  152.1321  142.9031  161.1820 H   0  0  0  0  0  0  0  0  0  0  0  0
  153.1870  144.2721  161.4809 H   0  0  0  0  0  0  0  0  0  0  0  0
  149.6204  144.4643  158.5562 H   0  0  0  0  0  0  0  0  0  0  0  0
  150.0367  143.0131  159.4479 H   0  0  0  0  0  0  0  0  0  0  0  0
  149.9691  143.3625  156.4620 H   0  0  0  0  0  0  0  0  0  0  0  0
  1  2  1  0  0  0  0
  1 17  1  0  0  0  0
  1 18  1  0  0  0  0
  1 19  1  0  0  0  0
  2  3  1  0  0  0  0
  2 20  1  0  0  0  0
  2 21  1  0  0  0  0
  3 16  1  0  0  0  0
  3  4  2  0  0  0  0
  4  5  1  0  0  0  0
  4 22  1  0  0  0  0
  5  6  2  0  0  0  0
  6  7  1  0  0  0  0
  6 16  1  0  0  0  0
  7  8  1  0  0  0  0
  7 23  1  0  0  0  0
  7 24  1  0  0  0  0
  8  9  1  0  0  0  0
  8 25  1  0  0  0  0
  8 26  1  0  0  0  0
  9 10  1  0  0  0  0
  9 27  1  0  0  0  0
  9 37  1  0  0  0  0
 10 15  1  0  0  0  0
 10 11  1  0  0  0  0
 10 28  1  0  0  0  0
 11 12  1  0  0  0  0
 11 29  1  0  0  0  0
 11 30  1  0  0  0  0
 12 13  1  0  0  0  0
 12 31  1  0  0  0  0
 12 32  1  0  0  0  0
 13 14  1  0  0  0  0
 13 33  1  0  0  0  0
 13 34  1  0  0  0  0
 14 15  1  0  0  0  0
 15 35  1  0  0  0  0
 15 36  1  0  0  0  0
M  CHG  1   9   1
M  END
> <s_m_source_file>
AV-unprocessed.smi

> <i_m_source_file_index>
3281

> <i_lp_mmshare_version>
43012

> <i_f3d_flags>
0

> <s_epik_input>
W0NIM11bQ0gyXWMxW2NIXW5jKHMxKVtDSDJdW0NIMl1bTkhdW0NAQEhdMltDSDJdW0NIMl1bQ0gyXVNbQ0gyXTI=

> <s_epik_cmdline>
J2VwaWtfcHl0aG9uJywgJy1waCcsICc3LjAnLCAnLXRuJywgJzgnLCAnLW1hJywgJzIwMCcsICctbWV0YWxfYmluZGluZycsICctaW1hZScsICc8aW5maWxlLm1hZT4nLCAnLW9tYWUnLCAnPG91dGZpbGUubWFlPic=

> <r_epik_Ionization_Penalty>
0.00827702

> <r_epik_Ionization_Penalty_Charging>
0.00826679

> <r_epik_Ionization_Penalty_Neutral>
1.02314e-05

> <r_epik_State_Penalty>
0.00622064

> <r_epik_Charging_Adjusted_Penalty>
0.0144874

> <i_epik_Tot_Q>
1

> <i_epik_Tot_abs_Q>
1

> <r_epik_Metal_State_Penalty>
0.0062521

> <b_epik_Metal_Only>
0

> <s_lp_Force_Field>
OPLS_2005

> <r_lp_Energy>
-1.10641

> <b_lp_Chiralities_Consistent>
1

> <s_lp_Variant>
AV-unprocessed.smi:3281-1

> <Gold.Version>
5.8.1

> <Gold.Id.Protein>
6NUR|6NUR_protein|mol2

> <Gold.PLP.Fitness>
41.2129

> <Gold.PLP.PLP>
-32.9477

> <Gold.PLP.part.hbond>
-1.0000

> <Gold.PLP.part.metal>
0.0000

> <Gold.PLP.part.buried>
-5.0624

> <Gold.PLP.part.nonpolar>
-29.0101

> <Gold.PLP.part.repulsive>
0.1737

> <Gold.PLP.ligand.clash>
0.0000

> <Gold.PLP.ligand.torsion>
0.3710

> <Gold.PLP.Chemscore.Hbond>
2.0000

> <Gold.PLP.Chemscore.CHOScore>
0.9940

> <Gold.PLP.Chemscore.Metal>
0.0000

> <Gold.Chemscore.Hbonds>
donor molecule, donor type, donor heavy atom, donor atom, acceptor molecule, acceptor atom, score
      L1  H     9    37       P1  8028  2.00
      L1  C     4    22       P1 10175  1.00

> <Gold.PLP.Chemscore.Internal.Correction>
0.0252

> <Gold.Rescore>
     Score         DG    S(hbond)    S(metal)    S(lipo)     H(rot)  DE(clash)    DE(int)     intcor
     17.12     -17.87       0.99        0.00     107.67       1.38       0.36       0.39       ----

> <Gold.Chemscore.Fitness>
17.1216

> <Gold.Chemscore.DG>
-17.8717

> <Gold.Chemscore.ZeroCoef>
-5.4800

> <Gold.Chemscore.Hbond>
0.9937

> <Gold.Chemscore.Metal>
0.0000

> <Gold.Chemscore.Lipo>
107.6656

> <Gold.Chemscore.Internal_Hbond>
0.0000

> <Gold.Chemscore.DEClash>
0.3650

> <Gold.Chemscore.DEInternal>
0.3851

> <Gold.Chemscore.Rot>
1.3767

> <Gold.Chemscore.Internal.Correction>
   9.000000E+99

> <Gold.Chemscore.Hbonds>
donor molecule, donor type, donor heavy atom, donor atom, acceptor molecule, acceptor atom, score
      L1  H     9    37       P1  8028  1.00

> <Gold.Chemscore.Hbond.Weighted>
-3.3191

> <Gold.Chemscore.Metal.Weighted>
-0.0000

> <Gold.Chemscore.Lipo.Weighted>
-12.5969

> <Gold.Chemscore.Internal_Hbond.Weighted>
0.0000

> <Gold.Chemscore.DEClash.Weighted>
0.3650

> <Gold.Chemscore.DEInternal.Weighted>
0.3851

> <Gold.Chemscore.Rot.Weighted>
3.5243

> <Gold.Chemscore.Internal.Correction.Weighted>
   9.000000E+99

> <Gold.Protein.RotatedTorsions>
[ 6907 6896 6895 6894 ] final -172.79 input  -60.11 | X-H torsion
[ 7974 7965 7964 7962 ] final   96.38 input  175.53 | X-H torsion
[ 8008 7997 7996 7995 ] final   56.26 input   59.86 | X-H torsion
[ 10167 10162 10161 10158 ] final  -64.72 input  -65.29 | X-H torsion
[ 10718 10713 10712 10709 ] final   62.85 input   66.30 | X-H torsion
[ 10763 10752 10751 10750 ] final  127.54 input  -60.55 | X-H torsion
[ 11005 11000 10999 10996 ] final -128.86 input  -57.11 | X-H torsion

> <Gold.Protein.ActiveResidues>
 VAL166  LYS551  ARG553  GLY616  TRP617  ASP618  TYR619  PRO620  LYS621  CYS622 
 ASP623  PHE694  ASN695  SER759  ASP760  ASP761  ALA762  ILE779  LEU786  VAL792 
 PHE793  MET794  SER795  GLU796  ALA797  LYS798  CYS799  TRP800  GLU811  SER814 

> <Gold.Protein.RotatedAtoms>
  151.5456  133.3425  159.2943 H   0  0  0  0  0  0  0  0  0  0  0  0  # atno 6907 bound_to 6896
  150.8509  134.7836  159.7019 H   0  0  0  0  0  0  0  0  0  0  0  0  # atno 6908 bound_to 6896
  152.4555  134.5308  159.9862 H   0  0  0  0  0  0  0  0  0  0  0  0  # atno 6909 bound_to 6896
  145.4395  139.2302  143.3099 H   0  0  0  0  0  0  0  0  0  0  0  0  # atno 7974 bound_to 7965
  155.5145  140.3478  155.4395 H   0  0  0  0  0  0  0  0  0  0  0  0  # atno 8008 bound_to 7997
  156.0827  140.1390  156.9720 H   0  0  0  0  0  0  0  0  0  0  0  0  # atno 8009 bound_to 7997
  154.4589  140.0942  156.6812 H   0  0  0  0  0  0  0  0  0  0  0  0  # atno 8010 bound_to 7997
  140.5781  143.2324  151.6400 H   0  0  0  0  0  0  0  0  0  0  0  0  # atno 10167 bound_to 10162
  157.5930  130.9073  149.9640 H   0  0  0  0  0  0  0  0  0  0  0  0  # atno 10718 bound_to 10713
  153.7111  135.3268  155.3246 H   0  0  0  0  0  0  0  0  0  0  0  0  # atno 10763 bound_to 10752
  154.8384  135.4477  154.1313 H   0  0  0  0  0  0  0  0  0  0  0  0  # atno 10764 bound_to 10752
  153.2407  135.6970  153.7866 H   0  0  0  0  0  0  0  0  0  0  0  0  # atno 10765 bound_to 10752
  140.9480  134.1103  157.4088 H   0  0  0  0  0  0  0  0  0  0  0  0  # atno 11005 bound_to 11000
  146.2564  140.5142  142.8872 LP  0  0  0  0  0  0  0  0  0  0  0  0  # atno 17320 bound_to 7965
  144.8130  140.6419  143.6402 LP  0  0  0  0  0  0  0  0  0  0  0  0  # atno 17321 bound_to 7965
  139.5154  144.3379  152.0767 LP  0  0  0  0  0  0  0  0  0  0  0  0  # atno 17342 bound_to 10162
  140.2526  144.4153  150.6216 LP  0  0  0  0  0  0  0  0  0  0  0  0  # atno 17343 bound_to 10162
  156.0987  130.3657  150.0257 LP  0  0  0  0  0  0  0  0  0  0  0  0  # atno 17370 bound_to 10713
  156.8376  130.9414  151.3634 LP  0  0  0  0  0  0  0  0  0  0  0  0  # atno 17371 bound_to 10713
  139.8839  135.0057  156.6333 LP  0  0  0  0  0  0  0  0  0  0  0  0  # atno 17394 bound_to 11000
  140.7642  133.8792  155.8441 LP  0  0  0  0  0  0  0  0  0  0  0  0  # atno 17395 bound_to 11000

$$$$
