#       Name:                AV-unprocessed.smi:500
#       Creating user name   scv26
#       Creation time:       Thu Mar 26 23:19:42 2020


#       File generated by GOLD software.
#

@<TRIPOS>MOLECULE
AV-unprocessed.smi:500
    52    54     1
SMALL
NO_CHARGES


@<TRIPOS>ATOM
      1 ****        -1.3908   2.9423  -1.0928 C.3            1 S1                 0.0000
      2 ****        -2.6220   2.2239  -0.5244 C.3            1 S1                 0.0000
      3 ****        -2.3763   0.8328  -0.3989 O.3            1 S1                 0.0000
      4 ****        -2.6095   0.0891  -1.5836 C.3            1 S1                 0.0000
      5 ****        -2.0361  -1.3254  -1.4194 C.3            1 S1                 0.0000
      6 ****        -0.5807  -1.3063  -1.2417 N.pl3          1 S1                 0.0000
      7 ****         0.1922  -1.3785  -0.1122 C.2            1 S1                 0.0000
      8 ****        -0.3565  -1.5162   1.2998 C.3            1 S1                 0.0000
      9 ****        -0.3537  -2.9847   1.7469 C.3            1 S1                 0.0000
     10 ****         0.3933  -0.7246   2.2808 N.pl3          1 S1                -1.0000
     11 ****         0.1716   0.5958   2.5348 C.2            1 S1                 0.0000
     12 ****        -0.6876   1.3557   2.0775 O.2            1 S1                 0.0000
     13 ****         1.1123   1.1326   3.5441 C.2            1 S1                 0.0000
     14 ****         2.2961   0.6511   4.0429 C.2            1 S1                 0.0000
     15 ****         2.7731   1.6154   4.9731 C.2            1 S1                 0.0000
     16 ****         1.8535   2.6238   4.9714 C.2            1 S1                 0.0000
     17 ****         0.8423   2.3492   4.1037 O.3            1 S1                 0.0000
     18 ****         1.5123  -1.3560  -0.3331 N.2            1 S1                 0.0000
     19 ****         1.6074  -1.2283  -1.7018 C.ar           1 S1                 0.0000
     20 ****         2.7426  -1.1357  -2.5384 C.ar           1 S1                 0.0000
     21 ****         2.5918  -1.0121  -3.9349 C.ar           1 S1                 0.0000
     22 ****         1.3062  -0.9805  -4.5125 C.ar           1 S1                 0.0000
     23 ****         0.1634  -1.0726  -3.6950 C.ar           1 S1                 0.0000
     24 ****         0.3193  -1.1949  -2.3005 C.ar           1 S1                 0.0000
     25 ****        -1.5514   4.0200  -1.1215 H              1 S1                 0.0000
     26 ****        -1.1609   2.6161  -2.1067 H              1 S1                 0.0000
     27 ****        -0.5126   2.7531  -0.4749 H              1 S1                 0.0000
     28 ****        -2.8273   2.6135   0.4727 H              1 S1                 0.0000
     29 ****        -3.5114   2.4177  -1.1258 H              1 S1                 0.0000
     30 ****        -3.6817   0.0424  -1.7768 H              1 S1                 0.0000
     31 ****        -2.1482   0.5703  -2.4464 H              1 S1                 0.0000
     32 ****        -2.5245  -1.8509  -0.5997 H              1 S1                 0.0000
     33 ****        -2.2594  -1.9117  -2.3110 H              1 S1                 0.0000
     34 ****        -1.3996  -1.2000   1.2805 H              1 S1                 0.0000
     35 ****        -0.9427  -3.5990   1.0656 H              1 S1                 0.0000
     36 ****        -0.7826  -3.0957   2.7433 H              1 S1                 0.0000
     37 ****         0.6575  -3.3930   1.7713 H              1 S1                 0.0000
     38 ****         2.7623  -0.2841   3.7694 H              1 S1                 0.0000
     39 ****         3.6757   1.5772   5.5646 H              1 S1                 0.0000
     40 ****         1.7681   3.5639   5.4961 H              1 S1                 0.0000
     41 ****         3.7307  -1.1594  -2.1031 H              1 S1                 0.0000
     42 ****         3.4662  -0.9417  -4.5650 H              1 S1                 0.0000
     43 ****         1.1981  -0.8860  -5.5829 H              1 S1                 0.0000
     44 ****        -0.8223  -1.0485  -4.1351 H              1 S1                 0.0000
     45 ****        -2.9724   0.4731   0.3189 LP             1 S1                 0.0000
     46 ****        -1.4206   0.7064  -0.1330 LP             1 S1                 0.0000
     47 ****         1.1154  -1.1845   2.7977 LP             1 S1                 0.0000
     48 ****        -1.3545   1.0152   1.4147 LP             1 S1                 0.0000
     49 ****        -0.7164   2.3115   2.3699 LP             1 S1                 0.0000
     50 ****        -0.0295   2.3161   4.5924 LP             1 S1                 0.0000
     51 ****         0.7997   3.0517   3.3933 LP             1 S1                 0.0000
     52 ****         2.2531  -1.4173   0.3359 LP             1 S1                 0.0000
@<TRIPOS>BOND
    1    1    2 1     
    2    1   25 1     
    3    1   26 1     
    4    1   27 1     
    5    2    3 1     
    6    2   28 1     
    7    2   29 1     
    8    3    4 1     
    9    4    5 1     
   10    4   30 1     
   11    4   31 1     
   12    5    6 1     
   13    5   32 1     
   14    5   33 1     
   15    6   24 1     
   16    6    7 1     
   17    7    8 1     
   18    7   18 2     
   19    8    9 1     
   20    8   10 1     
   21    8   34 1     
   22    9   35 1     
   23    9   36 1     
   24    9   37 1     
   25   10   11 1     
   26   11   12 2     
   27   11   13 1     
   28   13   17 1     
   29   13   14 2     
   30   14   15 1     
   31   14   38 1     
   32   15   16 2     
   33   15   39 1     
   34   16   17 1     
   35   16   40 1     
   36   18   19 1     
   37   19   24 ar    
   38   19   20 ar    
   39   20   21 ar    
   40   20   41 1     
   41   21   22 ar    
   42   21   42 1     
   43   22   23 ar    
   44   22   43 1     
   45   23   24 ar    
   46   23   44 1     
   47    3   45 1     
   48    3   46 1     
   49   10   47 1     
   50   12   48 1     
   51   12   49 1     
   52   17   50 1     
   53   17   51 1     
   54   18   52 1     
@<TRIPOS>SUBSTRUCTURE
      1 S1             1
@<TRIPOS>SET
LONE_PAIRS      STATIC     ATOMS    <user>   **** ""
8 45 46 47 48 49 50 51 52
ATOM$BLUE        STATIC     ATOMS    COLORGROUP SYSTEM
8 45 46 47 48 49 50 51 52
