AV-unprocessed.smi:2935|AV-procd|sdf|11256|dock8
  -GOLD-   2272016153D 1   1.00000     0.00000
 Structure written by MMmdl.
 36 37  0  0  0  0  0  0  0  0  1 V2000
  152.4801  144.7317  157.6539 C   0  0  0  0  0  0  0  0  0  0  0  0
  151.7748  143.6776  158.5337 C   0  0  0  0  0  0  0  0  0  0  0  0
  151.5392  142.4056  157.6875 C   0  0  0  0  0  0  0  0  0  0  0  0
  152.1012  141.3568  158.0077 O   0  0  0  0  0  0  0  0  0  0  0  0
  150.6958  142.5125  156.6422 N   0  0  0  0  0  0  0  0  0  0  0  0
  150.3218  141.5042  155.7180 C   0  0  0  0  0  0  0  0  0  0  0  0
  149.2101  141.6917  154.8514 C   0  0  0  0  0  0  0  0  0  0  0  0
  149.1718  140.5304  154.1332 C   0  0  0  0  0  0  0  0  0  0  0  0
  150.2104  139.7343  154.5750 N   0  0  0  0  0  0  0  0  0  0  0  0
  150.5812  138.4045  154.1250 C   0  0  0  0  0  0  0  0  0  0  0  0
  151.8531  137.9178  154.8216 C   0  0  0  0  0  0  0  0  0  0  0  0
  152.9503  138.6664  154.6808 N   0  0  0  0  0  0  0  0  0  0  0  0
  151.8458  136.8774  155.4755 O   0  0  0  0  0  0  0  0  0  0  0  0
  150.9232  140.3342  155.5535 N   0  0  0  0  0  0  0  0  0  0  0  0
  152.5667  143.4109  159.8330 C   0  0  0  0  0  0  0  0  0  0  0  0
  152.1743  144.5304  160.7993 C   0  0  0  0  0  0  0  0  0  0  0  0
  150.7616  144.9620  160.3930 C   0  0  0  0  0  0  0  0  0  0  0  0
  150.4416  144.2361  159.0785 C   0  0  0  0  0  0  0  0  0  0  0  0
  152.6288  145.6697  158.1894 H   0  0  0  0  0  0  0  0  0  0  0  0
  151.8988  144.9605  156.7596 H   0  0  0  0  0  0  0  0  0  0  0  0
  153.4613  144.3842  157.3278 H   0  0  0  0  0  0  0  0  0  0  0  0
  150.2794  143.4199  156.4927 H   0  0  0  0  0  0  0  0  0  0  0  0
  148.5457  142.5392  154.7697 H   0  0  0  0  0  0  0  0  0  0  0  0
  148.4986  140.2049  153.3537 H   0  0  0  0  0  0  0  0  0  0  0  0
  149.7563  137.7224  154.3349 H   0  0  0  0  0  0  0  0  0  0  0  0
  150.7255  138.4100  153.0433 H   0  0  0  0  0  0  0  0  0  0  0  0
  153.8146  138.3777  155.1162 H   0  0  0  0  0  0  0  0  0  0  0  0
  152.9137  139.5132  154.1321 H   0  0  0  0  0  0  0  0  0  0  0  0
  152.2739  142.4574  160.2766 H   0  0  0  0  0  0  0  0  0  0  0  0
  153.6451  143.3770  159.6722 H   0  0  0  0  0  0  0  0  0  0  0  0
  152.2241  144.2067  161.8393 H   0  0  0  0  0  0  0  0  0  0  0  0
  152.8595  145.3715  160.6879 H   0  0  0  0  0  0  0  0  0  0  0  0
  150.0313  144.7066  161.1614 H   0  0  0  0  0  0  0  0  0  0  0  0
  150.7246  146.0434  160.2570 H   0  0  0  0  0  0  0  0  0  0  0  0
  149.9453  144.8975  158.3670 H   0  0  0  0  0  0  0  0  0  0  0  0
  149.7432  143.4251  159.2931 H   0  0  0  0  0  0  0  0  0  0  0  0
  1  2  1  0  0  0  0
  1 19  1  0  0  0  0
  1 20  1  0  0  0  0
  1 21  1  0  0  0  0
  2 18  1  0  0  0  0
  2  3  1  0  0  0  0
  2 15  1  0  0  0  0
  3  4  2  0  0  0  0
  3  5  1  0  0  0  0
  5  6  1  0  0  0  0
  5 22  1  0  0  0  0
  6 14  2  0  0  0  0
  6  7  1  0  0  0  0
  7  8  2  0  0  0  0
  7 23  1  0  0  0  0
  8  9  1  0  0  0  0
  8 24  1  0  0  0  0
  9 10  1  0  0  0  0
  9 14  1  0  0  0  0
 10 11  1  0  0  0  0
 10 25  1  0  0  0  0
 10 26  1  0  0  0  0
 11 12  1  0  0  0  0
 11 13  2  0  0  0  0
 12 27  1  0  0  0  0
 12 28  1  0  0  0  0
 15 16  1  0  0  0  0
 15 29  1  0  0  0  0
 15 30  1  0  0  0  0
 16 17  1  0  0  0  0
 16 31  1  0  0  0  0
 16 32  1  0  0  0  0
 17 18  1  0  0  0  0
 17 33  1  0  0  0  0
 17 34  1  0  0  0  0
 18 35  1  0  0  0  0
 18 36  1  0  0  0  0
M  END
> <s_m_source_file>
AV-unprocessed.smi

> <i_m_source_file_index>
2935

> <i_lp_mmshare_version>
43012

> <i_f3d_flags>
0

> <s_epik_input>
W0NIMl0xW0NIMl1bQ0gyXVtDSDJdQzEoW0NIM10pQyg9TylbTkhdYzJbY0hdW2NIXW4objIpW0NIMl1DKD1PKVtOSDJd

> <s_epik_cmdline>
J2VwaWtfcHl0aG9uJywgJy1waCcsICc3LjAnLCAnLXRuJywgJzgnLCAnLW1hJywgJzIwMCcsICctbWV0YWxfYmluZGluZycsICctaW1hZScsICc8aW5maWxlLm1hZT4nLCAnLW9tYWUnLCAnPG91dGZpbGUubWFlPic=

> <r_lp_tautomer_probability>
1

> <r_epik_Ionization_Penalty>
1.6611e-05

> <r_epik_Ionization_Penalty_Charging>
0

> <r_epik_Ionization_Penalty_Neutral>
1.6611e-05

> <r_epik_State_Penalty>
-0

> <r_epik_Charging_Adjusted_Penalty>
0

> <i_epik_Tot_Q>
0

> <i_epik_Tot_abs_Q>
0

> <r_epik_Metal_State_Penalty>
-0

> <b_epik_Metal_Only>
0

> <s_lp_Force_Field>
OPLS_2005

> <r_lp_Energy>
27.108

> <b_lp_Chiralities_Consistent>
1

> <s_lp_Variant>
AV-unprocessed.smi:2935-1

> <Gold.Version>
5.8.1

> <Gold.Id.Protein>
6NUR|6NUR_protein|mol2

> <Gold.PLP.Fitness>
48.9952

> <Gold.PLP.PLP>
-41.2210

> <Gold.PLP.part.hbond>
-2.5905

> <Gold.PLP.part.metal>
0.0000

> <Gold.PLP.part.buried>
-3.1032

> <Gold.PLP.part.nonpolar>
-35.4280

> <Gold.PLP.part.repulsive>
0.3846

> <Gold.PLP.ligand.clash>
0.0000

> <Gold.PLP.ligand.torsion>
0.1600

> <Gold.PLP.Chemscore.Hbond>
2.0000

> <Gold.PLP.Chemscore.CHOScore>
0.6819

> <Gold.PLP.Chemscore.Metal>
0.0000

> <Gold.Chemscore.Hbonds>
donor molecule, donor type, donor heavy atom, donor atom, acceptor molecule, acceptor atom, score
      L1  H     5    22       P1  8028  0.89
      P1  H 10752 10764       L1    13  1.00
      L1  C     8    24       P1  7957  0.66

> <Gold.PLP.Chemscore.Internal.Correction>
0.0484

> <Gold.Rescore>
     Score         DG    S(hbond)    S(metal)    S(lipo)     H(rot)  DE(clash)    DE(int)     intcor
     14.68     -17.80       1.91        0.00      92.63       1.91       0.28       2.84       ----

> <Gold.Chemscore.Fitness>
14.6848

> <Gold.Chemscore.DG>
-17.8043

> <Gold.Chemscore.ZeroCoef>
-5.4800

> <Gold.Chemscore.Hbond>
1.9095

> <Gold.Chemscore.Metal>
0.0000

> <Gold.Chemscore.Lipo>
92.6343

> <Gold.Chemscore.Internal_Hbond>
0.0000

> <Gold.Chemscore.DEClash>
0.2842

> <Gold.Chemscore.DEInternal>
2.8352

> <Gold.Chemscore.Rot>
1.9108

> <Gold.Chemscore.Internal.Correction>
   9.000000E+99

> <Gold.Chemscore.Hbonds>
donor molecule, donor type, donor heavy atom, donor atom, acceptor molecule, acceptor atom, score
      L1  H     5    22       P1  8028  0.85
      P1  H 10752 10764       L1    13  0.77

> <Gold.Chemscore.Hbond.Weighted>
-6.3777

> <Gold.Chemscore.Metal.Weighted>
-0.0000

> <Gold.Chemscore.Lipo.Weighted>
-10.8382

> <Gold.Chemscore.Internal_Hbond.Weighted>
0.0000

> <Gold.Chemscore.DEClash.Weighted>
0.2842

> <Gold.Chemscore.DEInternal.Weighted>
2.8352

> <Gold.Chemscore.Rot.Weighted>
4.8916

> <Gold.Chemscore.Internal.Correction.Weighted>
   9.000000E+99

> <Gold.Protein.RotatedTorsions>
[ 6907 6896 6895 6894 ] final   45.44 input  -60.11 | X-H torsion
[ 7974 7965 7964 7962 ] final  -84.85 input  175.53 | X-H torsion
[ 8008 7997 7996 7995 ] final  -76.61 input   59.86 | X-H torsion
[ 10167 10162 10161 10158 ] final  -55.96 input  -65.29 | X-H torsion
[ 10718 10713 10712 10709 ] final  119.76 input   66.30 | X-H torsion
[ 10763 10752 10751 10750 ] final  -52.81 input  -60.55 | X-H torsion
[ 11005 11000 10999 10996 ] final  145.32 input  -57.11 | X-H torsion

> <Gold.Protein.ActiveResidues>
 VAL166  LYS551  ARG553  GLY616  TRP617  ASP618  TYR619  PRO620  LYS621  CYS622 
 ASP623  PHE694  ASN695  SER759  ASP760  ASP761  ALA762  ILE779  LEU786  VAL792 
 PHE793  MET794  SER795  GLU796  ALA797  LYS798  CYS799  TRP800  GLU811  SER814 

> <Gold.Protein.RotatedAtoms>
  152.2446  134.8194  160.0455 H   0  0  0  0  0  0  0  0  0  0  0  0  # atno 6907 bound_to 6896
  151.8896  133.3508  159.3802 H   0  0  0  0  0  0  0  0  0  0  0  0  # atno 6908 bound_to 6896
  150.7064  134.4863  159.5538 H   0  0  0  0  0  0  0  0  0  0  0  0  # atno 6909 bound_to 6896
  145.5011  140.9547  143.1759 H   0  0  0  0  0  0  0  0  0  0  0  0  # atno 7974 bound_to 7965
  154.5521  140.0724  156.8685 H   0  0  0  0  0  0  0  0  0  0  0  0  # atno 8008 bound_to 7997
  155.2973  140.3382  155.4231 H   0  0  0  0  0  0  0  0  0  0  0  0  # atno 8009 bound_to 7997
  156.1970  140.1707  156.7963 H   0  0  0  0  0  0  0  0  0  0  0  0  # atno 8010 bound_to 7997
  140.6345  143.2475  151.5155 H   0  0  0  0  0  0  0  0  0  0  0  0  # atno 10167 bound_to 10162
  157.5939  131.1060  150.7941 H   0  0  0  0  0  0  0  0  0  0  0  0  # atno 10718 bound_to 10713
  154.1488  135.6493  153.4958 H   0  0  0  0  0  0  0  0  0  0  0  0  # atno 10763 bound_to 10752
  153.0144  135.5333  154.6830 H   0  0  0  0  0  0  0  0  0  0  0  0  # atno 10764 bound_to 10752
  154.6111  135.2954  155.0402 H   0  0  0  0  0  0  0  0  0  0  0  0  # atno 10765 bound_to 10752
  140.0703  134.9155  157.1333 H   0  0  0  0  0  0  0  0  0  0  0  0  # atno 11005 bound_to 11000
  144.7779  139.6589  143.7167 LP  0  0  0  0  0  0  0  0  0  0  0  0  # atno 17320 bound_to 7965
  146.2225  139.5662  142.9609 LP  0  0  0  0  0  0  0  0  0  0  0  0  # atno 17321 bound_to 7965
  139.5556  144.2284  152.1606 LP  0  0  0  0  0  0  0  0  0  0  0  0  # atno 17342 bound_to 10162
  140.1537  144.5091  150.6672 LP  0  0  0  0  0  0  0  0  0  0  0  0  # atno 17343 bound_to 10162
  156.8356  130.5030  149.5326 LP  0  0  0  0  0  0  0  0  0  0  0  0  # atno 17370 bound_to 10713
  156.0998  130.5960  150.9875 LP  0  0  0  0  0  0  0  0  0  0  0  0  # atno 17371 bound_to 10713
  140.3637  134.2466  155.7184 LP  0  0  0  0  0  0  0  0  0  0  0  0  # atno 17394 bound_to 11000
  141.2009  133.7976  157.0467 LP  0  0  0  0  0  0  0  0  0  0  0  0  # atno 17395 bound_to 11000

$$$$
