AV-unprocessed.smi:2142|AV-procd|sdf|8720|dock7
  -GOLD-   2272011483D 1   1.00000     0.00000
 Structure written by MMmdl.
 40 41  0  0  0  0  0  0  0  0  1 V2000
  152.1381  144.6333  159.3133 C   0  0  0  0  0  0  0  0  0  0  0  0
  151.1246  144.1022  158.4780 O   0  0  0  0  0  0  0  0  0  0  0  0
  151.6513  143.3532  157.3954 C   0  0  0  0  0  0  0  0  0  0  0  0
  150.8744  142.0398  157.2664 C   0  0  0  0  0  0  0  0  0  0  0  0
  150.9649  141.5830  155.9199 O   0  0  0  0  0  0  0  0  0  0  0  0
  150.6648  140.2637  155.6504 C   0  0  0  0  0  0  0  0  0  0  0  0
  150.5455  139.3660  156.7300 C   0  0  0  0  0  0  0  0  0  0  0  0
  150.2462  138.0161  156.4642 C   0  0  0  0  0  0  0  0  0  0  0  0
  150.0815  137.6051  155.1204 C   0  0  0  0  0  0  0  0  0  0  0  0
  149.7584  136.2802  154.7236 N   0  0  0  0  0  0  0  0  0  0  0  0
  149.9725  135.1246  155.3867 C   0  0  0  0  0  0  0  0  0  0  0  0
  150.5296  135.0488  156.4818 O   0  0  0  0  0  0  0  0  0  0  0  0
  149.5109  133.8946  154.6862 C   0  0  0  0  0  0  0  0  0  0  0  0
  148.6320  133.9802  153.7368 N   0  0  0  0  0  0  0  0  0  0  0  0
  148.1840  132.8752  153.0439 N   0  0  0  0  0  0  0  0  0  0  0  0
  147.4088  133.2092  151.8490 C   0  0  0  0  0  0  0  0  0  0  0  0
  148.4006  131.5902  153.4258 C   0  0  0  0  0  0  0  0  0  0  0  0
  148.0181  130.6072  152.7917 O   0  0  0  0  0  0  0  0  0  0  0  0
  149.1433  131.3882  154.7499 C   0  0  0  0  0  0  0  0  0  0  0  0
  150.1025  132.5519  155.0665 C   0  0  0  0  0  0  0  0  0  0  0  0
  150.2041  138.5848  154.1137 C   0  0  0  0  0  0  0  0  0  0  0  0
  150.4936  139.8793  154.3613 N   0  0  0  0  0  0  0  0  0  0  0  0
  151.6839  145.2023  160.1245 H   0  0  0  0  0  0  0  0  0  0  0  0
  152.7959  145.3040  158.7588 H   0  0  0  0  0  0  0  0  0  0  0  0
  152.7402  143.8385  159.7556 H   0  0  0  0  0  0  0  0  0  0  0  0
  151.5435  143.9302  156.4756 H   0  0  0  0  0  0  0  0  0  0  0  0
  152.7151  143.1554  157.5360 H   0  0  0  0  0  0  0  0  0  0  0  0
  151.2668  141.2990  157.9651 H   0  0  0  0  0  0  0  0  0  0  0  0
  149.8280  142.2187  157.5189 H   0  0  0  0  0  0  0  0  0  0  0  0
  150.6774  139.7075  157.7461 H   0  0  0  0  0  0  0  0  0  0  0  0
  150.1365  137.3318  157.2909 H   0  0  0  0  0  0  0  0  0  0  0  0
  149.3722  136.1873  153.7948 H   0  0  0  0  0  0  0  0  0  0  0  0
  147.0328  132.3396  151.3086 H   0  0  0  0  0  0  0  0  0  0  0  0
  148.0216  133.7850  151.1544 H   0  0  0  0  0  0  0  0  0  0  0  0
  146.5469  133.8199  152.1206 H   0  0  0  0  0  0  0  0  0  0  0  0
  148.3924  131.3081  155.5367 H   0  0  0  0  0  0  0  0  0  0  0  0
  149.6859  130.4424  154.7364 H   0  0  0  0  0  0  0  0  0  0  0  0
  151.0457  132.4123  154.5371 H   0  0  0  0  0  0  0  0  0  0  0  0
  150.3396  132.5213  156.1307 H   0  0  0  0  0  0  0  0  0  0  0  0
  150.0726  138.3219  153.0742 H   0  0  0  0  0  0  0  0  0  0  0  0
  1  2  1  0  0  0  0
  1 23  1  0  0  0  0
  1 24  1  0  0  0  0
  1 25  1  0  0  0  0
  2  3  1  0  0  0  0
  3  4  1  0  0  0  0
  3 26  1  0  0  0  0
  3 27  1  0  0  0  0
  4  5  1  0  0  0  0
  4 28  1  0  0  0  0
  4 29  1  0  0  0  0
  5  6  1  0  0  0  0
  6 22  1  0  0  0  0
  6  7  2  0  0  0  0
  7  8  1  0  0  0  0
  7 30  1  0  0  0  0
  8  9  2  0  0  0  0
  8 31  1  0  0  0  0
  9 10  1  0  0  0  0
  9 21  1  0  0  0  0
 10 11  1  0  0  0  0
 10 32  1  0  0  0  0
 11 12  2  0  0  0  0
 11 13  1  0  0  0  0
 13 20  1  0  0  0  0
 13 14  2  0  0  0  0
 14 15  1  0  0  0  0
 15 16  1  0  0  0  0
 15 17  1  0  0  0  0
 16 33  1  0  0  0  0
 16 34  1  0  0  0  0
 16 35  1  0  0  0  0
 17 18  2  0  0  0  0
 17 19  1  0  0  0  0
 19 20  1  0  0  0  0
 19 36  1  0  0  0  0
 19 37  1  0  0  0  0
 20 38  1  0  0  0  0
 20 39  1  0  0  0  0
 21 22  2  0  0  0  0
 21 40  1  0  0  0  0
M  END
> <s_m_source_file>
AV-unprocessed.smi

> <i_m_source_file_index>
2142

> <i_lp_mmshare_version>
43012

> <i_f3d_flags>
0

> <s_epik_input>
W0NIM11PW0NIMl1bQ0gyXU9jMVtjSF1bY0hdYyhbY0hdbjEpW05IXUMoPU8pQzI9Tk4oW0NIM10pQyg9TylbQ0gyXVtDSDJdMg==

> <s_epik_cmdline>
J2VwaWtfcHl0aG9uJywgJy1waCcsICc3LjAnLCAnLXRuJywgJzgnLCAnLW1hJywgJzIwMCcsICctbWV0YWxfYmluZGluZycsICctaW1hZScsICc8aW5maWxlLm1hZT4nLCAnLW9tYWUnLCAnPG91dGZpbGUubWFlPic=

> <r_lp_tautomer_probability>
1

> <r_epik_Ionization_Penalty>
2.74522e-05

> <r_epik_Ionization_Penalty_Charging>
0

> <r_epik_Ionization_Penalty_Neutral>
2.74522e-05

> <r_epik_State_Penalty>
-0

> <r_epik_Charging_Adjusted_Penalty>
0

> <i_epik_Tot_Q>
0

> <i_epik_Tot_abs_Q>
0

> <r_epik_Metal_State_Penalty>
0.0227286

> <b_epik_Metal_Only>
0

> <s_epik_Chemistry_Notes>
This compound has an imine and may undergo hydrolysis.

> <s_lp_Force_Field>
OPLS_2005

> <r_lp_Energy>
20.7246

> <b_lp_Chiralities_Consistent>
1

> <s_lp_Variant>
AV-unprocessed.smi:2142-1

> <Gold.Version>
5.8.1

> <Gold.Id.Protein>
6NUR|6NUR_protein|mol2

> <Gold.PLP.Fitness>
44.6049

> <Gold.PLP.PLP>
-35.3500

> <Gold.PLP.part.hbond>
-2.3960

> <Gold.PLP.part.metal>
0.0000

> <Gold.PLP.part.buried>
-6.0181

> <Gold.PLP.part.nonpolar>
-30.3686

> <Gold.PLP.part.repulsive>
3.9334

> <Gold.PLP.ligand.clash>
0.1156

> <Gold.PLP.ligand.torsion>
0.9659

> <Gold.PLP.Chemscore.Hbond>
2.0000

> <Gold.PLP.Chemscore.CHOScore>
1.7451

> <Gold.PLP.Chemscore.Metal>
0.0000

> <Gold.Chemscore.Hbonds>
donor molecule, donor type, donor heavy atom, donor atom, acceptor molecule, acceptor atom, score
      L1  H    10    32       P1  7948  1.00
      P1  H  7989  7998       L1    22  1.00
      L1  C    21    40       P1  7948  0.79
      L1  C    21    40       P1  7957  0.77

> <Gold.PLP.Chemscore.Internal.Correction>
0.0670

> <Gold.Rescore>
     Score         DG    S(hbond)    S(metal)    S(lipo)     H(rot)  DE(clash)    DE(int)     intcor
     11.35     -14.09       1.58        0.00      66.66       1.74       0.35       2.38       ----

> <Gold.Chemscore.Fitness>
11.3530

> <Gold.Chemscore.DG>
-14.0851

> <Gold.Chemscore.ZeroCoef>
-5.4800

> <Gold.Chemscore.Hbond>
1.5761

> <Gold.Chemscore.Metal>
0.0000

> <Gold.Chemscore.Lipo>
66.6570

> <Gold.Chemscore.Internal_Hbond>
0.0000

> <Gold.Chemscore.DEClash>
0.3484

> <Gold.Chemscore.DEInternal>
2.3837

> <Gold.Chemscore.Rot>
1.7414

> <Gold.Chemscore.Internal.Correction>
   9.000000E+99

> <Gold.Chemscore.Hbonds>
donor molecule, donor type, donor heavy atom, donor atom, acceptor molecule, acceptor atom, score
      L1  H    10    32       P1  7948  0.78
      P1  H  7989  7998       L1    22  0.45

> <Gold.Chemscore.Hbond.Weighted>
-5.2642

> <Gold.Chemscore.Metal.Weighted>
-0.0000

> <Gold.Chemscore.Lipo.Weighted>
-7.7989

> <Gold.Chemscore.Internal_Hbond.Weighted>
0.0000

> <Gold.Chemscore.DEClash.Weighted>
0.3484

> <Gold.Chemscore.DEInternal.Weighted>
2.3837

> <Gold.Chemscore.Rot.Weighted>
4.4580

> <Gold.Chemscore.Internal.Correction.Weighted>
   9.000000E+99

> <Gold.Protein.RotatedTorsions>
[ 6907 6896 6895 6894 ] final -107.07 input  -60.11 | X-H torsion
[ 7974 7965 7964 7962 ] final  -99.94 input  175.53 | X-H torsion
[ 8008 7997 7996 7995 ] final   61.51 input   59.86 | X-H torsion
[ 10167 10162 10161 10158 ] final  151.04 input  -65.29 | X-H torsion
[ 10718 10713 10712 10709 ] final  176.67 input   66.30 | X-H torsion
[ 10763 10752 10751 10750 ] final  -99.50 input  -60.55 | X-H torsion
[ 11005 11000 10999 10996 ] final -155.99 input  -57.11 | X-H torsion

> <Gold.Protein.ActiveResidues>
 VAL166  LYS551  ARG553  GLY616  TRP617  ASP618  TYR619  PRO620  LYS621  CYS622 
 ASP623  PHE694  ASN695  SER759  ASP760  ASP761  ALA762  ILE779  LEU786  VAL792 
 PHE793  MET794  SER795  GLU796  ALA797  LYS798  CYS799  TRP800  GLU811  SER814 

> <Gold.Protein.RotatedAtoms>
  150.7424  133.9881  159.3597 H   0  0  0  0  0  0  0  0  0  0  0  0  # atno 6907 bound_to 6896
  151.7827  135.0755  160.0385 H   0  0  0  0  0  0  0  0  0  0  0  0  # atno 6908 bound_to 6896
  152.3263  133.5872  159.5815 H   0  0  0  0  0  0  0  0  0  0  0  0  # atno 6909 bound_to 6896
  145.3010  140.9377  143.2823 H   0  0  0  0  0  0  0  0  0  0  0  0  # atno 7974 bound_to 7965
  155.5995  140.3494  155.4589 H   0  0  0  0  0  0  0  0  0  0  0  0  # atno 8008 bound_to 7997
  156.0239  140.1260  157.0353 H   0  0  0  0  0  0  0  0  0  0  0  0  # atno 8009 bound_to 7997
  154.4326  140.1057  156.5989 H   0  0  0  0  0  0  0  0  0  0  0  0  # atno 8010 bound_to 7997
  139.4844  144.5473  151.7461 H   0  0  0  0  0  0  0  0  0  0  0  0  # atno 10167 bound_to 10162
  156.9166  130.9927  151.3011 H   0  0  0  0  0  0  0  0  0  0  0  0  # atno 10718 bound_to 10713
  154.7503  135.4970  153.9277 H   0  0  0  0  0  0  0  0  0  0  0  0  # atno 10763 bound_to 10752
  153.1136  135.6715  153.9465 H   0  0  0  0  0  0  0  0  0  0  0  0  # atno 10764 bound_to 10752
  153.9217  135.3087  155.3426 H   0  0  0  0  0  0  0  0  0  0  0  0  # atno 10765 bound_to 10752
  140.6804  134.4150  157.5227 H   0  0  0  0  0  0  0  0  0  0  0  0  # atno 11005 bound_to 11000
  144.9093  139.4548  143.6594 LP  0  0  0  0  0  0  0  0  0  0  0  0  # atno 17320 bound_to 7965
  146.3152  139.7893  142.8989 LP  0  0  0  0  0  0  0  0  0  0  0  0  # atno 17321 bound_to 7965
  140.5022  144.1152  150.5974 LP  0  0  0  0  0  0  0  0  0  0  0  0  # atno 17342 bound_to 10162
  140.4049  143.2685  151.9903 LP  0  0  0  0  0  0  0  0  0  0  0  0  # atno 17343 bound_to 10162
  157.5934  130.8460  149.8692 LP  0  0  0  0  0  0  0  0  0  0  0  0  # atno 17370 bound_to 10713
  156.0510  130.3717  150.1201 LP  0  0  0  0  0  0  0  0  0  0  0  0  # atno 17371 bound_to 10713
  139.8953  134.8685  156.2136 LP  0  0  0  0  0  0  0  0  0  0  0  0  # atno 17394 bound_to 11000
  141.0322  133.6983  156.1449 LP  0  0  0  0  0  0  0  0  0  0  0  0  # atno 17395 bound_to 11000

$$$$
