AV-unprocessed.smi:19|AV-procd|sdf|112|dock1
  -GOLD-   2262015273D 1   1.00000     0.00000
 Structure written by MMmdl.
 57 60  0  0  0  0  0  0  0  0  1 V2000
  152.6738  142.6411  160.3818 C   0  0  0  0  0  0  0  0  0  0  0  0
  152.8948  142.6388  158.9823 O   0  0  0  0  0  0  0  0  0  0  0  0
  151.8862  141.9361  158.2736 C   0  0  0  0  0  0  0  0  0  0  0  0
  151.8877  140.4560  158.6811 C   0  0  1  0  0  0  0  0  0  0  0  0
  150.7241  139.6596  158.0622 C   0  0  0  0  0  0  0  0  0  0  0  0
  150.8414  138.2485  158.4103 N   0  0  0  0  0  0  0  0  0  0  0  0
  149.7262  137.5081  158.1827 C   0  0  0  0  0  0  0  0  0  0  0  0
  149.3264  137.2553  156.9073 N   0  0  0  0  0  0  0  0  0  0  0  0
  148.2229  136.5396  156.6739 C   0  0  0  0  0  0  0  0  0  0  0  0
  147.3871  135.9853  157.5532 N   0  0  0  0  0  0  0  0  0  0  0  0
  147.7884  136.2198  158.8350 C   0  0  0  0  0  0  0  0  0  0  0  0
  148.9330  136.9673  159.2346 C   0  0  0  0  0  0  0  0  0  0  0  0
  149.0199  136.9900  160.6213 N   0  0  0  0  0  0  0  0  0  0  0  0
  147.9805  136.3085  161.0177 C   0  0  0  0  0  0  0  0  0  0  0  0
  147.1938  135.7941  160.0112 N   0  0  0  0  0  0  0  0  0  0  0  0
  145.9805  135.0031  160.1723 C   0  0  0  0  0  0  0  0  0  0  0  0
  145.2442  135.1938  161.5323 C   0  0  0  0  0  0  0  0  0  0  0  0
  146.1188  134.6711  162.7079 C   0  0  0  0  0  0  0  0  0  0  0  0
  146.7412  133.4387  162.4057 O   0  0  0  0  0  0  0  0  0  0  0  0
  144.9216  136.6938  161.7547 C   0  0  0  0  0  0  0  0  0  0  0  0
  143.9185  136.9351  162.8987 C   0  0  0  0  0  0  0  0  0  0  0  0
  142.7276  136.1923  162.6742 O   0  0  0  0  0  0  0  0  0  0  0  0
  142.9537  134.7894  162.6352 C   0  0  0  0  0  0  0  0  0  0  0  0
  143.8880  134.4465  161.4617 C   0  0  0  0  0  0  0  0  0  0  0  0
  152.1332  137.6766  158.0382 C   0  0  0  0  0  0  0  0  0  0  0  0
  153.2912  138.5005  158.6345 C   0  0  2  0  0  0  0  0  0  0  0  0
  153.4789  138.2859  160.1466 C   0  0  0  0  0  0  0  0  0  0  0  0
  153.1386  139.8822  158.3019 O   0  0  0  0  0  0  0  0  0  0  0  0
  153.4699  143.1962  160.8779 H   0  0  0  0  0  0  0  0  0  0  0  0
  152.6713  141.6265  160.7823 H   0  0  0  0  0  0  0  0  0  0  0  0
  151.7252  143.1187  160.6307 H   0  0  0  0  0  0  0  0  0  0  0  0
  150.9073  142.3750  158.4728 H   0  0  0  0  0  0  0  0  0  0  0  0
  152.0679  142.0212  157.2010 H   0  0  0  0  0  0  0  0  0  0  0  0
  151.8013  140.4218  159.7672 H   0  0  0  0  0  0  0  0  0  0  0  0
  149.7777  140.0797  158.4000 H   0  0  0  0  0  0  0  0  0  0  0  0
  150.7383  139.7494  156.9752 H   0  0  0  0  0  0  0  0  0  0  0  0
  147.9732  136.3899  155.6338 H   0  0  0  0  0  0  0  0  0  0  0  0
  147.7614  136.1558  162.0645 H   0  0  0  0  0  0  0  0  0  0  0  0
  145.3133  135.2603  159.3486 H   0  0  0  0  0  0  0  0  0  0  0  0
  146.2353  133.9533  160.0222 H   0  0  0  0  0  0  0  0  0  0  0  0
  146.8912  135.3944  162.9692 H   0  0  0  0  0  0  0  0  0  0  0  0
  145.5317  134.5231  163.6125 H   0  0  0  0  0  0  0  0  0  0  0  0
  147.6775  133.5669  162.4045 H   0  0  0  0  0  0  0  0  0  0  0  0
  145.8331  137.2580  161.9541 H   0  0  0  0  0  0  0  0  0  0  0  0
  144.4980  137.1122  160.8405 H   0  0  0  0  0  0  0  0  0  0  0  0
  144.3447  136.6783  163.8688 H   0  0  0  0  0  0  0  0  0  0  0  0
  143.6613  137.9932  162.9462 H   0  0  0  0  0  0  0  0  0  0  0  0
  143.3577  134.4420  163.5866 H   0  0  0  0  0  0  0  0  0  0  0  0
  141.9953  134.2874  162.5030 H   0  0  0  0  0  0  0  0  0  0  0  0
  143.3740  134.7131  160.5371 H   0  0  0  0  0  0  0  0  0  0  0  0
  144.0403  133.3680  161.4122 H   0  0  0  0  0  0  0  0  0  0  0  0
  152.2036  136.6414  158.3752 H   0  0  0  0  0  0  0  0  0  0  0  0
  152.2148  137.6676  156.9504 H   0  0  0  0  0  0  0  0  0  0  0  0
  154.2132  138.1731  158.1533 H   0  0  0  0  0  0  0  0  0  0  0  0
  153.7316  137.2470  160.3599 H   0  0  0  0  0  0  0  0  0  0  0  0
  152.5781  138.5212  160.7126 H   0  0  0  0  0  0  0  0  0  0  0  0
  154.2883  138.9073  160.5300 H   0  0  0  0  0  0  0  0  0  0  0  0
  1  2  1  0  0  0  0
  1 29  1  0  0  0  0
  1 30  1  0  0  0  0
  1 31  1  0  0  0  0
  2  3  1  0  0  0  0
  3  4  1  0  0  0  0
  3 32  1  0  0  0  0
  3 33  1  0  0  0  0
  4 28  1  0  0  0  0
  4  5  1  0  0  0  0
  4 34  1  0  0  0  0
  5  6  1  0  0  0  0
  5 35  1  0  0  0  0
  5 36  1  0  0  0  0
  6  7  1  0  0  0  0
  6 25  1  0  0  0  0
  7 12  1  0  0  0  0
  7  8  2  0  0  0  0
  8  9  1  0  0  0  0
  9 10  2  0  0  0  0
  9 37  1  0  0  0  0
 10 11  1  0  0  0  0
 11 15  1  0  0  0  0
 11 12  2  0  0  0  0
 12 13  1  0  0  0  0
 13 14  2  0  0  0  0
 14 15  1  0  0  0  0
 14 38  1  0  0  0  0
 15 16  1  0  0  0  0
 16 17  1  0  0  0  0
 16 39  1  0  0  0  0
 16 40  1  0  0  0  0
 17 24  1  0  0  0  0
 17 18  1  0  0  0  0
 17 20  1  0  0  0  0
 18 19  1  0  0  0  0
 18 41  1  0  0  0  0
 18 42  1  0  0  0  0
 19 43  1  0  0  0  0
 20 21  1  0  0  0  0
 20 44  1  0  0  0  0
 20 45  1  0  0  0  0
 21 22  1  0  0  0  0
 21 46  1  0  0  0  0
 21 47  1  0  0  0  0
 22 23  1  0  0  0  0
 23 24  1  0  0  0  0
 23 48  1  0  0  0  0
 23 49  1  0  0  0  0
 24 50  1  0  0  0  0
 24 51  1  0  0  0  0
 25 26  1  0  0  0  0
 25 52  1  0  0  0  0
 25 53  1  0  0  0  0
 26 27  1  0  0  0  0
 26 28  1  0  0  0  0
 26 54  1  0  0  0  0
 27 55  1  0  0  0  0
 27 56  1  0  0  0  0
 27 57  1  0  0  0  0
M  END
> <s_m_source_file>
AV-unprocessed.smi

> <i_m_source_file_index>
19

> <i_lp_mmshare_version>
43012

> <i_f3d_flags>
0

> <s_epik_input>
W0NIM11PW0NIMl1bQ0BASF0xW0NIMl1OKFtDSDJdW0NASF0oTzEpW0NIM10pYyhuW2NIXW4yKWMoYzIzKW5bY0hdbjNbQ0gyXUM0KFtDSDJdW09IXSlbQ0gyXVtDSDJdT1tDSDJdW0NIMl00

> <s_epik_cmdline>
J2VwaWtfcHl0aG9uJywgJy1waCcsICc3LjAnLCAnLXRuJywgJzgnLCAnLW1hJywgJzIwMCcsICctbWV0YWxfYmluZGluZycsICctaW1hZScsICc8aW5maWxlLm1hZT4nLCAnLW9tYWUnLCAnPG91dGZpbGUubWFlPic=

> <r_lp_tautomer_probability>
1

> <r_epik_Ionization_Penalty>
6.20357e-05

> <r_epik_Ionization_Penalty_Charging>
0

> <r_epik_Ionization_Penalty_Neutral>
6.20357e-05

> <r_epik_State_Penalty>
-0

> <r_epik_Charging_Adjusted_Penalty>
0

> <i_epik_Tot_Q>
0

> <i_epik_Tot_abs_Q>
0

> <r_epik_Metal_State_Penalty>
-0

> <b_epik_Metal_Only>
0

> <s_lp_Force_Field>
OPLS_2005

> <r_lp_Energy>
39.077

> <b_lp_Chiralities_Consistent>
1

> <s_lp_Variant>
AV-unprocessed.smi:19-4

> <Gold.Version>
5.8.1

> <Gold.Id.Protein>
6NUR|6NUR_protein|mol2

> <Gold.PLP.Fitness>
39.0186

> <Gold.PLP.PLP>
-34.8523

> <Gold.PLP.part.hbond>
-2.0409

> <Gold.PLP.part.metal>
0.0000

> <Gold.PLP.part.buried>
-7.1866

> <Gold.PLP.part.nonpolar>
-26.9349

> <Gold.PLP.part.repulsive>
0.0691

> <Gold.PLP.ligand.clash>
0.0000

> <Gold.PLP.ligand.torsion>
0.7319

> <Gold.PLP.Chemscore.Hbond>
1.7680

> <Gold.PLP.Chemscore.CHOScore>
0.0000

> <Gold.PLP.Chemscore.Metal>
0.0000

> <Gold.Chemscore.Hbonds>
donor molecule, donor type, donor heavy atom, donor atom, acceptor molecule, acceptor atom, score
      P1  H  6931  6943       L1    13  0.74
      P1  H  7997  8010       L1    28  0.95

> <Gold.PLP.Chemscore.Internal.Correction>
0.3261

> <Gold.Rescore>
     Score         DG    S(hbond)    S(metal)    S(lipo)     H(rot)  DE(clash)    DE(int)     intcor
      9.30     -10.85       0.74        0.00      87.61       2.87       0.15       1.39       ----

> <Gold.Chemscore.Fitness>
9.3047

> <Gold.Chemscore.DG>
-10.8517

> <Gold.Chemscore.ZeroCoef>
-5.4800

> <Gold.Chemscore.Hbond>
0.7412

> <Gold.Chemscore.Metal>
0.0000

> <Gold.Chemscore.Lipo>
87.6134

> <Gold.Chemscore.Internal_Hbond>
0.0000

> <Gold.Chemscore.DEClash>
0.1538

> <Gold.Chemscore.DEInternal>
1.3932

> <Gold.Chemscore.Rot>
2.8729

> <Gold.Chemscore.Internal.Correction>
   9.000000E+99

> <Gold.Chemscore.Hbonds>
donor molecule, donor type, donor heavy atom, donor atom, acceptor molecule, acceptor atom, score
      P1  H  6931  6943       L1    13  0.19
      P1  H  7997  8010       L1    28  0.21

> <Gold.Chemscore.Hbond.Weighted>
-2.4756

> <Gold.Chemscore.Metal.Weighted>
-0.0000

> <Gold.Chemscore.Lipo.Weighted>
-10.2508

> <Gold.Chemscore.Internal_Hbond.Weighted>
0.0000

> <Gold.Chemscore.DEClash.Weighted>
0.1538

> <Gold.Chemscore.DEInternal.Weighted>
1.3932

> <Gold.Chemscore.Rot.Weighted>
7.3546

> <Gold.Chemscore.Internal.Correction.Weighted>
   9.000000E+99

> <Gold.Protein.RotatedTorsions>
[ 6907 6896 6895 6894 ] final   95.62 input  -60.11 | X-H torsion
[ 7974 7965 7964 7962 ] final  -97.80 input  175.53 | X-H torsion
[ 8008 7997 7996 7995 ] final   35.45 input   59.86 | X-H torsion
[ 10167 10162 10161 10158 ] final -136.18 input  -65.29 | X-H torsion
[ 10718 10713 10712 10709 ] final   -5.21 input   66.30 | X-H torsion
[ 10763 10752 10751 10750 ] final -151.09 input  -60.55 | X-H torsion
[ 11005 11000 10999 10996 ] final -129.69 input  -57.11 | X-H torsion

> <Gold.Protein.ActiveResidues>
 VAL166  LYS551  ARG553  GLY616  TRP617  ASP618  TYR619  PRO620  LYS621  CYS622 
 ASP623  PHE694  ASN695  SER759  ASP760  ASP761  ALA762  ILE779  LEU786  VAL792 
 PHE793  MET794  SER795  GLU796  ALA797  LYS798  CYS799  TRP800  GLU811  SER814 

> <Gold.Protein.RotatedAtoms>
  152.5442  134.1012  159.8318 H   0  0  0  0  0  0  0  0  0  0  0  0  # atno 6907 bound_to 6896
  151.1089  133.5180  159.2614 H   0  0  0  0  0  0  0  0  0  0  0  0  # atno 6908 bound_to 6896
  151.1906  135.0410  159.8885 H   0  0  0  0  0  0  0  0  0  0  0  0  # atno 6909 bound_to 6896
  145.3290  140.9437  143.2672 H   0  0  0  0  0  0  0  0  0  0  0  0  # atno 7974 bound_to 7965
  155.1713  140.3292  155.4392 H   0  0  0  0  0  0  0  0  0  0  0  0  # atno 8008 bound_to 7997
  156.2509  140.1943  156.6767 H   0  0  0  0  0  0  0  0  0  0  0  0  # atno 8009 bound_to 7997
  154.6335  140.0579  156.9747 H   0  0  0  0  0  0  0  0  0  0  0  0  # atno 8010 bound_to 7997
  139.8704  143.6965  152.2640 H   0  0  0  0  0  0  0  0  0  0  0  0  # atno 10167 bound_to 10162
  156.7499  130.5236  149.5806 H   0  0  0  0  0  0  0  0  0  0  0  0  # atno 10718 bound_to 10713
  154.8079  135.3268  154.7383 H   0  0  0  0  0  0  0  0  0  0  0  0  # atno 10763 bound_to 10752
  153.8038  135.6901  153.4856 H   0  0  0  0  0  0  0  0  0  0  0  0  # atno 10764 bound_to 10752
  153.1837  135.4577  155.0006 H   0  0  0  0  0  0  0  0  0  0  0  0  # atno 10765 bound_to 10752
  140.9410  134.1193  157.4151 H   0  0  0  0  0  0  0  0  0  0  0  0  # atno 11005 bound_to 11000
  144.8879  139.4814  143.6692 LP  0  0  0  0  0  0  0  0  0  0  0  0  # atno 17320 bound_to 7965
  146.3053  139.7559  142.9061 LP  0  0  0  0  0  0  0  0  0  0  0  0  # atno 17321 bound_to 7965
  139.7290  144.7586  151.0833 LP  0  0  0  0  0  0  0  0  0  0  0  0  # atno 17342 bound_to 10162
  140.7761  143.5112  150.9650 LP  0  0  0  0  0  0  0  0  0  0  0  0  # atno 17343 bound_to 10162
  156.1408  130.6243  151.0464 LP  0  0  0  0  0  0  0  0  0  0  0  0  # atno 17370 bound_to 10713
  157.6782  131.0845  150.7440 LP  0  0  0  0  0  0  0  0  0  0  0  0  # atno 17371 bound_to 10713
  139.8820  135.0036  156.6199 LP  0  0  0  0  0  0  0  0  0  0  0  0  # atno 17394 bound_to 11000
  140.7734  133.8719  155.8510 LP  0  0  0  0  0  0  0  0  0  0  0  0  # atno 17395 bound_to 11000

$$$$
