AV-unprocessed.smi:1225|AV-procd|sdf|5143|dock3
  -GOLD-   22720 4213D 1   1.00000     0.00000
 Structure written by MMmdl.
 49 51  0  0  0  0  0  0  0  0  2 V2000
  145.9202  144.8354  160.4050 C   0  0  0  0  0  0  0  0  0  0  0  0
  145.9198  144.1231  159.0957 C   0  0  0  0  0  0  0  0  0  0  0  0
  145.0537  144.3812  158.1132 N   0  0  0  0  0  0  0  0  0  0  0  0
  145.2609  143.5741  156.9929 C   0  0  0  0  0  0  0  0  0  0  0  0
  146.3051  142.6924  157.1298 C   0  0  0  0  0  0  0  0  0  0  0  0
  146.7983  141.6958  156.1309 C   0  0  0  0  0  0  0  0  0  0  0  0
  147.2821  142.3282  154.8771 N   0  3  2  0  0  0  0  0  0  0  0  0
  146.2049  143.0390  154.1435 C   0  0  0  0  0  0  0  0  0  0  0  0
  148.0279  141.3732  154.0166 C   0  0  0  0  0  0  0  0  0  0  0  0
  149.2343  140.7387  154.7441 C   0  0  1  0  0  0  0  0  0  0  0  0
  150.0667  140.1176  153.7859 O   0  0  0  0  0  0  0  0  0  0  0  0
  150.0903  141.7596  155.5205 C   0  0  0  0  0  0  0  0  0  0  0  0
  150.8955  141.1398  156.5572 N   0  0  0  0  0  0  0  0  0  0  0  0
  151.3052  139.8574  156.6110 C   0  0  0  0  0  0  0  0  0  0  0  0
  152.0499  139.4998  157.6525 N   0  0  0  0  0  0  0  0  0  0  0  0
  152.1205  140.6842  158.3658 C   0  0  0  0  0  0  0  0  0  0  0  0
  152.7694  140.9841  159.5833 C   0  0  0  0  0  0  0  0  0  0  0  0
  152.7068  142.2826  160.1371 C   0  0  0  0  0  0  0  0  0  0  0  0
  153.4188  142.5608  161.4495 C   0  0  0  0  0  0  0  0  0  0  0  0
  151.9856  143.3056  159.4704 C   0  0  0  0  0  0  0  0  0  0  0  0
  151.9002  144.7067  160.0495 C   0  0  0  0  0  0  0  0  0  0  0  0
  151.3329  143.0233  158.2522 C   0  0  0  0  0  0  0  0  0  0  0  0
  151.4042  141.7279  157.7102 C   0  0  0  0  0  0  0  0  0  0  0  0
  147.0671  142.8522  158.6917 S   0  0  0  0  0  0  0  0  0  0  0  0
  145.1596  145.6166  160.4183 H   0  0  0  0  0  0  0  0  0  0  0  0
  146.8939  145.2930  160.5803 H   0  0  0  0  0  0  0  0  0  0  0  0
  145.7127  144.1320  161.2116 H   0  0  0  0  0  0  0  0  0  0  0  0
  144.6167  143.6969  156.1347 H   0  0  0  0  0  0  0  0  0  0  0  0
  147.6082  141.1297  156.5925 H   0  0  0  0  0  0  0  0  0  0  0  0
  146.0149  140.9734  155.8967 H   0  0  0  0  0  0  0  0  0  0  0  0
  145.4206  142.3462  153.8362 H   0  0  0  0  0  0  0  0  0  0  0  0
  146.5846  143.5345  153.2513 H   0  0  0  0  0  0  0  0  0  0  0  0
  145.7498  143.8121  154.7626 H   0  0  0  0  0  0  0  0  0  0  0  0
  147.3710  140.5664  153.6882 H   0  0  0  0  0  0  0  0  0  0  0  0
  148.3404  141.8938  153.1104 H   0  0  0  0  0  0  0  0  0  0  0  0
  148.8977  139.9715  155.4403 H   0  0  0  0  0  0  0  0  0  0  0  0
  149.6187  140.1152  152.9530 H   0  0  0  0  0  0  0  0  0  0  0  0
  150.7600  142.2893  154.8415 H   0  0  0  0  0  0  0  0  0  0  0  0
  149.4529  142.5148  155.9835 H   0  0  0  0  0  0  0  0  0  0  0  0
  151.0504  139.1482  155.8367 H   0  0  0  0  0  0  0  0  0  0  0  0
  153.3174  140.2045  160.0919 H   0  0  0  0  0  0  0  0  0  0  0  0
  152.7127  142.9134  162.2012 H   0  0  0  0  0  0  0  0  0  0  0  0
  154.1878  143.3211  161.3124 H   0  0  0  0  0  0  0  0  0  0  0  0
  153.9008  141.6640  161.8393 H   0  0  0  0  0  0  0  0  0  0  0  0
  151.3317  145.3721  159.3995 H   0  0  0  0  0  0  0  0  0  0  0  0
  152.8964  145.1318  160.1736 H   0  0  0  0  0  0  0  0  0  0  0  0
  151.4077  144.6874  161.0219 H   0  0  0  0  0  0  0  0  0  0  0  0
  150.7783  143.7933  157.7368 H   0  0  0  0  0  0  0  0  0  0  0  0
  147.9573  143.0235  155.1623 H   0  0  0  0  0  0  0  0  0  0  0  0
  1  2  1  0  0  0  0
  1 25  1  0  0  0  0
  1 26  1  0  0  0  0
  1 27  1  0  0  0  0
  2 24  1  0  0  0  0
  2  3  2  0  0  0  0
  3  4  1  0  0  0  0
  4  5  2  0  0  0  0
  4 28  1  0  0  0  0
  5  6  1  0  0  0  0
  5 24  1  0  0  0  0
  6  7  1  0  0  0  0
  6 29  1  0  0  0  0
  6 30  1  0  0  0  0
  7  8  1  0  0  0  0
  7  9  1  0  0  0  0
  7 49  1  0  0  0  0
  8 31  1  0  0  0  0
  8 32  1  0  0  0  0
  8 33  1  0  0  0  0
  9 10  1  0  0  0  0
  9 34  1  0  0  0  0
  9 35  1  0  0  0  0
 10 11  1  0  0  0  0
 10 12  1  0  0  0  0
 10 36  1  0  0  0  0
 11 37  1  0  0  0  0
 12 13  1  0  0  0  0
 12 38  1  0  0  0  0
 12 39  1  0  0  0  0
 13 23  1  0  0  0  0
 13 14  1  0  0  0  0
 14 15  2  0  0  0  0
 14 40  1  0  0  0  0
 15 16  1  0  0  0  0
 16 23  2  0  0  0  0
 16 17  1  0  0  0  0
 17 18  2  0  0  0  0
 17 41  1  0  0  0  0
 18 19  1  0  0  0  0
 18 20  1  0  0  0  0
 19 42  1  0  0  0  0
 19 43  1  0  0  0  0
 19 44  1  0  0  0  0
 20 21  1  0  0  0  0
 20 22  2  0  0  0  0
 21 45  1  0  0  0  0
 21 46  1  0  0  0  0
 21 47  1  0  0  0  0
 22 23  1  0  0  0  0
 22 48  1  0  0  0  0
M  CHG  1   7   1
M  END
> <s_m_source_file>
AV-unprocessed.smi

> <i_m_source_file_index>
1225

> <i_lp_mmshare_version>
43012

> <i_f3d_flags>
0

> <s_epik_input>
W0NIM11jMW5bY0hdYyhzMSlbQ0gyXU4oW0NIM10pW0NIMl1bQ0BIXShbT0hdKVtDSDJdbihbY0hdbjIpYyhjMjMpW2NIXWMoW0NIM10pYyhbY0hdMylbQ0gzXQ==

> <s_epik_cmdline>
J2VwaWtfcHl0aG9uJywgJy1waCcsICc3LjAnLCAnLXRuJywgJzgnLCAnLW1hJywgJzIwMCcsICctbWV0YWxfYmluZGluZycsICctaW1hZScsICc8aW5maWxlLm1hZT4nLCAnLW9tYWUnLCAnPG91dGZpbGUubWFlPic=

> <r_epik_Ionization_Penalty>
1.62543

> <r_epik_Ionization_Penalty_Charging>
1.53932

> <r_epik_Ionization_Penalty_Neutral>
0.0861152

> <r_epik_State_Penalty>
1.73127

> <r_epik_Charging_Adjusted_Penalty>
3.27059

> <i_epik_Tot_Q>
1

> <i_epik_Tot_abs_Q>
1

> <r_epik_Metal_State_Penalty>
1.71387

> <b_epik_Metal_Only>
0

> <s_lp_Force_Field>
OPLS_2005

> <r_lp_Energy>
12.5396

> <b_lp_Chiralities_Consistent>
1

> <s_lp_Variant>
AV-unprocessed.smi:1225-8

> <Gold.Version>
5.8.1

> <Gold.Id.Protein>
6NUR|6NUR_protein|mol2

> <Gold.PLP.Fitness>
60.6853

> <Gold.PLP.PLP>
-50.4119

> <Gold.PLP.part.hbond>
-3.0000

> <Gold.PLP.part.metal>
0.0000

> <Gold.PLP.part.buried>
-7.0607

> <Gold.PLP.part.nonpolar>
-39.9666

> <Gold.PLP.part.repulsive>
0.2266

> <Gold.PLP.ligand.clash>
0.0000

> <Gold.PLP.ligand.torsion>
0.6892

> <Gold.PLP.Chemscore.Hbond>
3.8320

> <Gold.PLP.Chemscore.CHOScore>
0.0000

> <Gold.PLP.Chemscore.Metal>
0.0000

> <Gold.Chemscore.Hbonds>
donor molecule, donor type, donor heavy atom, donor atom, acceptor molecule, acceptor atom, score
      L1  H     7    49       P1  8028  2.00
      L1  H    11    37       P1  7957  1.00
      P1  H  7989  7998       L1    11  0.80

> <Gold.PLP.Chemscore.Internal.Correction>
0.1558

> <Gold.Rescore>
     Score         DG    S(hbond)    S(metal)    S(lipo)     H(rot)  DE(clash)    DE(int)     intcor
     20.43     -22.03       2.46        0.00     123.15       2.37       0.03       1.57       ----

> <Gold.Chemscore.Fitness>
20.4310

> <Gold.Chemscore.DG>
-22.0330

> <Gold.Chemscore.ZeroCoef>
-5.4800

> <Gold.Chemscore.Hbond>
2.4626

> <Gold.Chemscore.Metal>
0.0000

> <Gold.Chemscore.Lipo>
123.1452

> <Gold.Chemscore.Internal_Hbond>
0.0000

> <Gold.Chemscore.DEClash>
0.0344

> <Gold.Chemscore.DEInternal>
1.5676

> <Gold.Chemscore.Rot>
2.3750

> <Gold.Chemscore.Internal.Correction>
   9.000000E+99

> <Gold.Chemscore.Hbonds>
donor molecule, donor type, donor heavy atom, donor atom, acceptor molecule, acceptor atom, score
      L1  H     7    49       P1  8028  0.84
      L1  H    11    37       P1  7957  0.96
      P1  H  7989  7998       L1    11  0.38

> <Gold.Chemscore.Hbond.Weighted>
-8.2250

> <Gold.Chemscore.Metal.Weighted>
-0.0000

> <Gold.Chemscore.Lipo.Weighted>
-14.4080

> <Gold.Chemscore.Internal_Hbond.Weighted>
0.0000

> <Gold.Chemscore.DEClash.Weighted>
0.0344

> <Gold.Chemscore.DEInternal.Weighted>
1.5676

> <Gold.Chemscore.Rot.Weighted>
6.0800

> <Gold.Chemscore.Internal.Correction.Weighted>
   9.000000E+99

> <Gold.Protein.RotatedTorsions>
[ 6907 6896 6895 6894 ] final   57.33 input  -60.11 | X-H torsion
[ 7974 7965 7964 7962 ] final -155.31 input  175.53 | X-H torsion
[ 8008 7997 7996 7995 ] final  -98.59 input   59.86 | X-H torsion
[ 10167 10162 10161 10158 ] final  -10.31 input  -65.29 | X-H torsion
[ 10718 10713 10712 10709 ] final  118.41 input   66.30 | X-H torsion
[ 10763 10752 10751 10750 ] final  -44.41 input  -60.55 | X-H torsion
[ 11005 11000 10999 10996 ] final    6.18 input  -57.11 | X-H torsion

> <Gold.Protein.ActiveResidues>
 VAL166  LYS551  ARG553  GLY616  TRP617  ASP618  TYR619  PRO620  LYS621  CYS622 
 ASP623  PHE694  ASN695  SER759  ASP760  ASP761  ALA762  ILE779  LEU786  VAL792 
 PHE793  MET794  SER795  GLU796  ALA797  LYS798  CYS799  TRP800  GLU811  SER814 

> <Gold.Protein.RotatedAtoms>
  152.3721  134.6718  160.0172 H   0  0  0  0  0  0  0  0  0  0  0  0  # atno 6907 bound_to 6896
  151.7008  133.3305  159.3274 H   0  0  0  0  0  0  0  0  0  0  0  0  # atno 6908 bound_to 6896
  150.7682  134.6553  159.6354 H   0  0  0  0  0  0  0  0  0  0  0  0  # atno 6909 bound_to 6896
  144.7646  140.4266  143.5951 H   0  0  0  0  0  0  0  0  0  0  0  0  # atno 7974 bound_to 7965
  154.8033  140.0454  157.1289 H   0  0  0  0  0  0  0  0  0  0  0  0  # atno 8008 bound_to 7997
  154.9453  140.3058  155.5081 H   0  0  0  0  0  0  0  0  0  0  0  0  # atno 8009 bound_to 7997
  156.2964  140.2298  156.4526 H   0  0  0  0  0  0  0  0  0  0  0  0  # atno 8010 bound_to 7997
  140.7110  143.5762  150.9039 H   0  0  0  0  0  0  0  0  0  0  0  0  # atno 10167 bound_to 10162
  157.6032  131.1047  150.7752 H   0  0  0  0  0  0  0  0  0  0  0  0  # atno 10718 bound_to 10713
  154.0115  135.6681  153.4765 H   0  0  0  0  0  0  0  0  0  0  0  0  # atno 10763 bound_to 10752
  153.0618  135.5023  154.8108 H   0  0  0  0  0  0  0  0  0  0  0  0  # atno 10764 bound_to 10752
  154.6992  135.3075  154.9330 H   0  0  0  0  0  0  0  0  0  0  0  0  # atno 10765 bound_to 10752
  140.5623  134.0180  155.7976 H   0  0  0  0  0  0  0  0  0  0  0  0  # atno 11005 bound_to 11000
  145.6510  139.1565  143.2862 LP  0  0  0  0  0  0  0  0  0  0  0  0  # atno 17320 bound_to 7965
  146.1742  140.6599  142.9219 LP  0  0  0  0  0  0  0  0  0  0  0  0  # atno 17321 bound_to 7965
  139.9488  143.6296  152.3034 LP  0  0  0  0  0  0  0  0  0  0  0  0  # atno 17342 bound_to 10162
  139.6807  144.7655  151.1614 LP  0  0  0  0  0  0  0  0  0  0  0  0  # atno 17343 bound_to 10162
  156.8146  130.4964  149.5351 LP  0  0  0  0  0  0  0  0  0  0  0  0  # atno 17370 bound_to 10713
  156.1111  130.6041  151.0048 LP  0  0  0  0  0  0  0  0  0  0  0  0  # atno 17371 bound_to 10713
  141.1107  133.9622  157.2916 LP  0  0  0  0  0  0  0  0  0  0  0  0  # atno 17394 bound_to 11000
  139.9401  135.0192  156.8682 LP  0  0  0  0  0  0  0  0  0  0  0  0  # atno 17395 bound_to 11000

$$$$
