#       Name:                AV-unprocessed.smi:2060
#       Creating user name   scv26
#       Creation time:       Fri Mar 27 11:02:24 2020


#       File generated by GOLD software.
#

@<TRIPOS>MOLECULE
AV-unprocessed.smi:2060
    53    54     1
SMALL
NO_CHARGES


@<TRIPOS>ATOM
      1 ****        -2.9999  -2.0160   0.9352 C.3            1 S1                 0.0000
      2 ****        -1.4868  -1.7308   0.9442 C.3            1 S1                 0.0000
      3 ****        -0.9145  -1.0763  -0.3536 C.3            1 S1                 0.0000
      4 ****        -1.5172   0.3528  -0.4245 C.3            1 S1                 0.0000
      5 ****         0.6375  -0.9580  -0.2002 C.3            1 S1                 0.0000
      6 ****         1.0643  -0.2066   0.9805 N.am           1 S1                 0.0000
      7 ****         1.5037   1.0605   0.9880 C.2            1 S1                 0.0000
      8 ****         1.6015   1.7527  -0.0251 O.2            1 S1                 0.0000
      9 ****         1.8109   1.4578   2.2341 N.am           1 S1                 0.0000
     10 ****         2.2775   2.7263   2.6658 C.2            1 S1                 0.0000
     11 ****         2.4903   3.8727   1.8456 C.2            1 S1                 0.0000
     12 ****         2.9237   4.8118   2.7383 C.2            1 S1                 0.0000
     13 ****         3.3276   6.2390   2.5931 C.3            1 S1                 0.0000
     14 ****         2.9730   4.2868   3.9922 O.3            1 S1                 0.0000
     15 ****         2.5572   2.9514   3.9365 N.2            1 S1                 0.0000
     16 ****        -1.2974  -1.8607  -1.5622 N.3            1 S1                 0.0000
     17 ****        -0.8501  -3.2589  -1.5680 C.3            1 S1                 0.0000
     18 ****        -1.4054  -4.0377  -2.7725 C.3            1 S1                 0.0000
     19 ****        -1.0268  -3.3874  -3.9796 O.3            1 S1                 0.0000
     20 ****        -1.4893  -2.0436  -4.0406 C.3            1 S1                 0.0000
     21 ****        -0.9346  -1.2488  -2.8462 C.3            1 S1                 0.0000
     22 ****        -3.3064  -2.4746   1.8753 H              1 S1                 0.0000
     23 ****        -3.2802  -2.7005   0.1346 H              1 S1                 0.0000
     24 ****        -3.5833  -1.1036   0.8161 H              1 S1                 0.0000
     25 ****        -1.2835  -1.0914   1.8038 H              1 S1                 0.0000
     26 ****        -0.9576  -2.6576   1.1657 H              1 S1                 0.0000
     27 ****        -1.4683   0.8669   0.5357 H              1 S1                 0.0000
     28 ****        -2.5654   0.3346  -0.7241 H              1 S1                 0.0000
     29 ****        -0.9869   0.9840  -1.1379 H              1 S1                 0.0000
     30 ****         1.0849  -1.9463  -0.0999 H              1 S1                 0.0000
     31 ****         1.0877  -0.5214  -1.0919 H              1 S1                 0.0000
     32 ****         1.0187  -0.6949   1.8630 H              1 S1                 0.0000
     33 ****         1.6906   0.7724   2.9652 H              1 S1                 0.0000
     34 ****         2.3510   4.0036   0.7833 H              1 S1                 0.0000
     35 ****         3.4302   6.5097   1.5421 H              1 S1                 0.0000
     36 ****         4.2830   6.4238   3.0844 H              1 S1                 0.0000
     37 ****         2.5830   6.8973   3.0408 H              1 S1                 0.0000
     38 ****         0.2383  -3.3073  -1.5968 H              1 S1                 0.0000
     39 ****        -1.1658  -3.7748  -0.6633 H              1 S1                 0.0000
     40 ****        -1.0132  -5.0548  -2.7789 H              1 S1                 0.0000
     41 ****        -2.4923  -4.1138  -2.7153 H              1 S1                 0.0000
     42 ****        -1.1601  -1.5962  -4.9784 H              1 S1                 0.0000
     43 ****        -2.5802  -2.0254  -4.0429 H              1 S1                 0.0000
     44 ****        -1.3202  -0.2332  -2.9174 H              1 S1                 0.0000
     45 ****         0.1489  -1.1845  -2.9435 H              1 S1                 0.0000
     46 ****         1.3464   1.3751  -0.9152 LP             1 S1                 0.0000
     47 ****         1.9361   2.6927   0.0419 LP             1 S1                 0.0000
     48 ****         2.3668   4.8030   4.5972 LP             1 S1                 0.0000
     49 ****         3.9095   4.3334   4.3399 LP             1 S1                 0.0000
     50 ****         2.4870   2.3057   4.6968 LP             1 S1                 0.0000
     51 ****        -2.2938  -1.8490  -1.4784 LP             1 S1                 0.0000
     52 ****        -1.4106  -3.8943  -4.7514 LP             1 S1                 0.0000
     53 ****        -0.0289  -3.3867  -4.0445 LP             1 S1                 0.0000
@<TRIPOS>BOND
    1    1    2 1     
    2    1   22 1     
    3    1   23 1     
    4    1   24 1     
    5    2    3 1     
    6    2   25 1     
    7    2   26 1     
    8    3    4 1     
    9    3    5 1     
   10    3   16 1     
   11    4   27 1     
   12    4   28 1     
   13    4   29 1     
   14    5    6 1     
   15    5   30 1     
   16    5   31 1     
   17    6    7 am    
   18    6   32 1     
   19    7    8 2     
   20    7    9 am    
   21    9   10 1     
   22    9   33 1     
   23   10   15 2     
   24   10   11 1     
   25   11   12 2     
   26   11   34 1     
   27   12   13 1     
   28   12   14 1     
   29   13   35 1     
   30   13   36 1     
   31   13   37 1     
   32   14   15 1     
   33   16   21 1     
   34   16   17 1     
   35   17   18 1     
   36   17   38 1     
   37   17   39 1     
   38   18   19 1     
   39   18   40 1     
   40   18   41 1     
   41   19   20 1     
   42   20   21 1     
   43   20   42 1     
   44   20   43 1     
   45   21   44 1     
   46   21   45 1     
   47    8   46 1     
   48    8   47 1     
   49   14   48 1     
   50   14   49 1     
   51   15   50 1     
   52   16   51 1     
   53   19   52 1     
   54   19   53 1     
@<TRIPOS>SUBSTRUCTURE
      1 S1             1
@<TRIPOS>SET
LONE_PAIRS      STATIC     ATOMS    <user>   **** ""
8 46 47 48 49 50 51 52 53
DONOR_HYDROGENS      STATIC     ATOMS    <user>   **** ""
2 32 33
ATOM$BLUE        STATIC     ATOMS    COLORGROUP SYSTEM
8 46 47 48 49 50 51 52 53
ATOM$RED        STATIC     ATOMS    COLORGROUP SYSTEM
2 32 33
