AV-unprocessed.smi:3228|AV-procd|sdf|12320|dock5
  -GOLD-   2272018173D 1   1.00000     0.00000
 Structure written by MMmdl.
 31 32  0  0  0  0  0  0  0  0  1 V2000
  145.2465  138.4617  152.7266 O   0  0  0  0  0  0  0  0  0  0  0  0
  146.2628  137.8154  152.4700 C   0  0  0  0  0  0  0  0  0  0  0  0
  146.2432  136.6162  151.8706 N   0  0  0  0  0  0  0  0  0  0  0  0
  145.0372  135.9131  151.4460 C   0  0  0  0  0  0  0  0  0  0  0  0
  145.3598  134.5550  150.7870 C   0  0  1  0  0  0  0  0  0  0  0  0
  146.1705  133.5855  151.6577 C   0  0  0  0  0  0  0  0  0  0  0  0
  145.8822  132.1828  151.1009 C   0  0  0  0  0  0  0  0  0  0  0  0
  144.7222  132.3351  150.1041 C   0  0  0  0  0  0  0  0  0  0  0  0
  144.1413  133.7326  150.3424 C   0  0  1  0  0  0  0  0  0  0  0  0
  143.1637  133.6567  151.3636 O   0  0  0  0  0  0  0  0  0  0  0  0
  147.5210  138.2042  152.7417 N   0  0  0  0  0  0  0  0  0  0  0  0
  147.9526  139.3996  153.3745 C   0  0  0  0  0  0  0  0  0  0  0  0
  149.0497  139.4982  154.1348 N   0  0  0  0  0  0  0  0  0  0  0  0
  149.2323  140.7928  154.6271 C   0  0  0  0  0  0  0  0  0  0  0  0
  148.2584  141.6741  154.2279 C   0  0  0  0  0  0  0  0  0  0  0  0
  147.0657  140.9083  153.2126 S   0  0  0  0  0  0  0  0  0  0  0  0
  147.1240  136.1544  151.6966 H   0  0  0  0  0  0  0  0  0  0  0  0
  144.4125  135.7707  152.3279 H   0  0  0  0  0  0  0  0  0  0  0  0
  144.4642  136.5391  150.7602 H   0  0  0  0  0  0  0  0  0  0  0  0
  145.9473  134.7476  149.8873 H   0  0  0  0  0  0  0  0  0  0  0  0
  147.2353  133.8210  151.6507 H   0  0  0  0  0  0  0  0  0  0  0  0
  145.8308  133.6407  152.6928 H   0  0  0  0  0  0  0  0  0  0  0  0
  146.7595  131.7653  150.6059 H   0  0  0  0  0  0  0  0  0  0  0  0
  145.6122  131.5043  151.9110 H   0  0  0  0  0  0  0  0  0  0  0  0
  145.1194  132.2836  149.0893 H   0  0  0  0  0  0  0  0  0  0  0  0
  143.9793  131.5417  150.1973 H   0  0  0  0  0  0  0  0  0  0  0  0
  143.6797  134.1400  149.4422 H   0  0  0  0  0  0  0  0  0  0  0  0
  142.3272  133.8980  150.9962 H   0  0  0  0  0  0  0  0  0  0  0  0
  148.2564  137.5706  152.4653 H   0  0  0  0  0  0  0  0  0  0  0  0
  150.0853  140.9997  155.2566 H   0  0  0  0  0  0  0  0  0  0  0  0
  148.1711  142.7230  154.4693 H   0  0  0  0  0  0  0  0  0  0  0  0
  1  2  2  0  0  0  0
  2  3  1  0  0  0  0
  2 11  1  0  0  0  0
  3  4  1  0  0  0  0
  3 17  1  0  0  0  0
  4  5  1  0  0  0  0
  4 18  1  0  0  0  0
  4 19  1  0  0  0  0
  5  9  1  0  0  0  0
  5  6  1  0  0  0  0
  5 20  1  0  0  0  0
  6  7  1  0  0  0  0
  6 21  1  0  0  0  0
  6 22  1  0  0  0  0
  7  8  1  0  0  0  0
  7 23  1  0  0  0  0
  7 24  1  0  0  0  0
  8  9  1  0  0  0  0
  8 25  1  0  0  0  0
  8 26  1  0  0  0  0
  9 10  1  0  0  0  0
  9 27  1  0  0  0  0
 10 28  1  0  0  0  0
 11 12  1  0  0  0  0
 11 29  1  0  0  0  0
 12 16  1  0  0  0  0
 12 13  2  0  0  0  0
 13 14  1  0  0  0  0
 14 15  2  0  0  0  0
 14 30  1  0  0  0  0
 15 16  1  0  0  0  0
 15 31  1  0  0  0  0
M  END
> <s_m_source_file>
AV-unprocessed.smi

> <i_m_source_file_index>
3228

> <i_lp_mmshare_version>
43012

> <i_f3d_flags>
0

> <s_epik_input>
czFbY0hdW2NIXW5jMVtOSF1DKD1PKVtOSF1bQ0gyXVtDQEBIXTJbQ0gyXVtDSDJdW0NIMl1bQ0BIXTJbT0hd

> <s_epik_cmdline>
J2VwaWtfcHl0aG9uJywgJy1waCcsICc3LjAnLCAnLXRuJywgJzgnLCAnLW1hJywgJzIwMCcsICctbWV0YWxfYmluZGluZycsICctaW1hZScsICc8aW5maWxlLm1hZT4nLCAnLW9tYWUnLCAnPG91dGZpbGUubWFlPic=

> <r_lp_tautomer_probability>
0.999

> <r_epik_Ionization_Penalty>
0.000399498

> <r_epik_Ionization_Penalty_Charging>
0

> <r_epik_Ionization_Penalty_Neutral>
0.000399498

> <r_epik_State_Penalty>
0.000177984

> <r_epik_Charging_Adjusted_Penalty>
0.000177984

> <i_epik_Tot_Q>
0

> <i_epik_Tot_abs_Q>
0

> <r_epik_Metal_State_Penalty>
0.0060793

> <b_epik_Metal_Only>
0

> <s_lp_Force_Field>
OPLS_2005

> <r_lp_Energy>
23.3764

> <b_lp_Chiralities_Consistent>
1

> <s_lp_Variant>
AV-unprocessed.smi:3228-2

> <Gold.Version>
5.8.1

> <Gold.Id.Protein>
6NUR|6NUR_protein|mol2

> <Gold.PLP.Fitness>
39.7030

> <Gold.PLP.PLP>
-28.2361

> <Gold.PLP.part.hbond>
-3.5401

> <Gold.PLP.part.metal>
0.0000

> <Gold.PLP.part.buried>
-2.9922

> <Gold.PLP.part.nonpolar>
-26.1238

> <Gold.PLP.part.repulsive>
4.5142

> <Gold.PLP.ligand.clash>
0.0000

> <Gold.PLP.ligand.torsion>
0.2075

> <Gold.PLP.Chemscore.Hbond>
2.9600

> <Gold.PLP.Chemscore.CHOScore>
1.0000

> <Gold.PLP.Chemscore.Metal>
0.0000

> <Gold.Chemscore.Hbonds>
donor molecule, donor type, donor heavy atom, donor atom, acceptor molecule, acceptor atom, score
      L1  H     3    17       P1  7948  0.96
      L1  H    10    28       P1 10186  1.00
      L1  H    11    29       P1  7948  1.00
      L1  C    15    31       P1  8028  1.00

> <Gold.PLP.Chemscore.Internal.Correction>
0.0018

> <Gold.Rescore>
     Score         DG    S(hbond)    S(metal)    S(lipo)     H(rot)  DE(clash)    DE(int)     intcor
     16.00     -18.10       2.94        0.00      65.12       1.88       1.86       0.23       ----

> <Gold.Chemscore.Fitness>
15.9990

> <Gold.Chemscore.DG>
-18.0953

> <Gold.Chemscore.ZeroCoef>
-5.4800

> <Gold.Chemscore.Hbond>
2.9358

> <Gold.Chemscore.Metal>
0.0000

> <Gold.Chemscore.Lipo>
65.1200

> <Gold.Chemscore.Internal_Hbond>
0.0000

> <Gold.Chemscore.DEClash>
1.8644

> <Gold.Chemscore.DEInternal>
0.2319

> <Gold.Chemscore.Rot>
1.8786

> <Gold.Chemscore.Internal.Correction>
   9.000000E+99

> <Gold.Chemscore.Hbonds>
donor molecule, donor type, donor heavy atom, donor atom, acceptor molecule, acceptor atom, score
      L1  H     3    17       P1  7948  0.92
      L1  H    10    28       P1 10186  0.42
      L1  H    11    29       P1  7948  0.98

> <Gold.Chemscore.Hbond.Weighted>
-9.8054

> <Gold.Chemscore.Metal.Weighted>
-0.0000

> <Gold.Chemscore.Lipo.Weighted>
-7.6190

> <Gold.Chemscore.Internal_Hbond.Weighted>
0.0000

> <Gold.Chemscore.DEClash.Weighted>
1.8644

> <Gold.Chemscore.DEInternal.Weighted>
0.2319

> <Gold.Chemscore.Rot.Weighted>
4.8091

> <Gold.Chemscore.Internal.Correction.Weighted>
   9.000000E+99

> <Gold.Protein.RotatedTorsions>
[ 6907 6896 6895 6894 ] final  -89.88 input  -60.11 | X-H torsion
[ 7974 7965 7964 7962 ] final  -49.28 input  175.53 | X-H torsion
[ 8008 7997 7996 7995 ] final  -15.54 input   59.86 | X-H torsion
[ 10167 10162 10161 10158 ] final -136.48 input  -65.29 | X-H torsion
[ 10718 10713 10712 10709 ] final  -84.33 input   66.30 | X-H torsion
[ 10763 10752 10751 10750 ] final -121.84 input  -60.55 | X-H torsion
[ 11005 11000 10999 10996 ] final  -91.44 input  -57.11 | X-H torsion

> <Gold.Protein.ActiveResidues>
 VAL166  LYS551  ARG553  GLY616  TRP617  ASP618  TYR619  PRO620  LYS621  CYS622 
 ASP623  PHE694  ASN695  SER759  ASP760  ASP761  ALA762  ILE779  LEU786  VAL792 
 PHE793  MET794  SER795  GLU796  ALA797  LYS798  CYS799  TRP800  GLU811  SER814 

> <Gold.Protein.RotatedAtoms>
  150.6877  134.2518  159.4513 H   0  0  0  0  0  0  0  0  0  0  0  0  # atno 6907 bound_to 6896
  152.0455  134.9683  160.0583 H   0  0  0  0  0  0  0  0  0  0  0  0  # atno 6908 bound_to 6896
  152.1168  133.4296  159.4694 H   0  0  0  0  0  0  0  0  0  0  0  0  # atno 6909 bound_to 6896
  145.9422  140.7651  142.9546 H   0  0  0  0  0  0  0  0  0  0  0  0  # atno 7974 bound_to 7965
  154.5123  140.2193  155.9133 H   0  0  0  0  0  0  0  0  0  0  0  0  # atno 8008 bound_to 7997
  156.1566  140.3150  155.8703 H   0  0  0  0  0  0  0  0  0  0  0  0  # atno 8009 bound_to 7997
  155.3834  140.0474  157.3033 H   0  0  0  0  0  0  0  0  0  0  0  0  # atno 8010 bound_to 7997
  139.8673  143.7001  152.2644 H   0  0  0  0  0  0  0  0  0  0  0  0  # atno 10167 bound_to 10162
  156.0007  130.4694  150.4394 H   0  0  0  0  0  0  0  0  0  0  0  0  # atno 10718 bound_to 10713
  154.8677  135.4154  154.2685 H   0  0  0  0  0  0  0  0  0  0  0  0  # atno 10763 bound_to 10752
  153.3600  135.7003  153.6725 H   0  0  0  0  0  0  0  0  0  0  0  0  # atno 10764 bound_to 10752
  153.5630  135.3606  155.2779 H   0  0  0  0  0  0  0  0  0  0  0  0  # atno 10765 bound_to 10752
  141.1544  133.7756  156.9880 H   0  0  0  0  0  0  0  0  0  0  0  0  # atno 11005 bound_to 11000
  144.6781  140.2299  143.7356 LP  0  0  0  0  0  0  0  0  0  0  0  0  # atno 17320 bound_to 7965
  145.8284  139.2075  143.1897 LP  0  0  0  0  0  0  0  0  0  0  0  0  # atno 17321 bound_to 7965
  139.7317  144.7581  151.0792 LP  0  0  0  0  0  0  0  0  0  0  0  0  # atno 17342 bound_to 10162
  140.7766  143.5080  150.9687 LP  0  0  0  0  0  0  0  0  0  0  0  0  # atno 17343 bound_to 10162
  157.2436  131.0531  151.2422 LP  0  0  0  0  0  0  0  0  0  0  0  0  # atno 17370 bound_to 10713
  157.3596  130.7124  149.6493 LP  0  0  0  0  0  0  0  0  0  0  0  0  # atno 17371 bound_to 10713
  140.1022  134.9528  157.1940 LP  0  0  0  0  0  0  0  0  0  0  0  0  # atno 17394 bound_to 11000
  140.3304  134.2816  155.7229 LP  0  0  0  0  0  0  0  0  0  0  0  0  # atno 17395 bound_to 11000

$$$$
