AV-unprocessed.smi:21|AV-procd|sdf|145|dock8
  -GOLD-   2262015353D 1   1.00000     0.00000
 Structure written by MMmdl.
 62 65  0  0  0  0  0  0  0  0  2 V2000
  143.8731  133.6031  149.2970 C   0  0  0  0  0  0  0  0  0  0  0  0
  144.3747  134.0600  150.5429 O   0  0  0  0  0  0  0  0  0  0  0  0
  145.6687  133.5634  150.8516 C   0  0  1  0  0  0  0  0  0  0  0  0
  146.0685  133.7925  152.3051 C   0  0  0  0  0  0  0  0  0  0  0  0
  147.1349  132.7185  152.5623 C   0  0  1  0  0  0  0  0  0  0  0  0
  147.2968  132.3429  154.0563 C   0  0  0  0  0  0  0  0  0  0  0  0
  148.6608  131.9178  154.3831 N   0  0  0  0  0  0  0  0  0  0  0  0
  149.1801  130.7223  153.7302 C   0  0  0  0  0  0  0  0  0  0  0  0
  149.5147  132.7739  155.0147 C   0  0  0  0  0  0  0  0  0  0  0  0
  150.6918  132.2771  155.4805 N   0  0  0  0  0  0  0  0  0  0  0  0
  151.5671  133.0622  156.1125 C   0  0  0  0  0  0  0  0  0  0  0  0
  151.4716  134.3626  156.3854 N   0  0  0  0  0  0  0  0  0  0  0  0
  150.2982  134.8779  155.9230 C   0  0  0  0  0  0  0  0  0  0  0  0
  149.2707  134.1649  155.2376 C   0  0  0  0  0  0  0  0  0  0  0  0
  148.2214  135.0341  154.9534 N   0  0  0  0  0  0  0  0  0  0  0  0
  148.6090  136.1856  155.4275 C   0  0  0  0  0  0  0  0  0  0  0  0
  149.8546  136.1862  156.0099 N   0  0  0  0  0  0  0  0  0  0  0  0
  150.5260  137.3199  156.6211 C   0  0  0  0  0  0  0  0  0  0  0  0
  150.3693  138.6586  155.8518 C   0  0  2  0  0  0  0  0  0  0  0  0
  151.6557  138.9339  155.0395 C   0  0  0  0  0  0  0  0  0  0  0  0
  152.0389  137.8117  154.2702 O   0  0  0  0  0  0  0  0  0  0  0  0
  149.9545  139.8681  156.7404 C   0  0  1  0  0  0  0  0  0  0  0  0
  151.0733  140.4350  157.6009 C   0  0  0  0  0  0  0  0  0  0  0  0
  150.5334  141.8091  157.9687 C   0  0  0  0  0  0  0  0  0  0  0  0
  149.8660  142.2539  156.7977 O   0  0  0  0  0  0  0  0  0  0  0  0
  149.5173  141.1351  155.9871 C   0  0  0  0  0  0  0  0  0  0  0  0
  146.8019  131.5938  151.6381 N   0  3  1  0  0  0  0  0  0  0  0  0
  146.5670  130.2570  152.2332 C   0  0  0  0  0  0  0  0  0  0  0  0
  145.6969  132.0397  150.7579 C   0  0  0  0  0  0  0  0  0  0  0  0
  146.4205  133.9817  150.1797 H   0  0  0  0  0  0  0  0  0  0  0  0
  148.0893  133.1053  152.2020 H   0  0  0  0  0  0  0  0  0  0  0  0
  142.8678  133.9954  149.1443 H   0  0  0  0  0  0  0  0  0  0  0  0
  143.8152  132.5141  149.2699 H   0  0  0  0  0  0  0  0  0  0  0  0
  144.4919  133.9421  148.4655 H   0  0  0  0  0  0  0  0  0  0  0  0
  146.4364  134.8021  152.4910 H   0  0  0  0  0  0  0  0  0  0  0  0
  145.2038  133.6256  152.9491 H   0  0  0  0  0  0  0  0  0  0  0  0
  146.9661  133.1599  154.6970 H   0  0  0  0  0  0  0  0  0  0  0  0
  146.6410  131.5052  154.2941 H   0  0  0  0  0  0  0  0  0  0  0  0
  149.7049  130.9821  152.8106 H   0  0  0  0  0  0  0  0  0  0  0  0
  148.3706  130.0396  153.4716 H   0  0  0  0  0  0  0  0  0  0  0  0
  149.8630  130.1840  154.3884 H   0  0  0  0  0  0  0  0  0  0  0  0
  152.4737  132.5794  156.4465 H   0  0  0  0  0  0  0  0  0  0  0  0
  147.9970  137.0729  155.3545 H   0  0  0  0  0  0  0  0  0  0  0  0
  150.1578  137.4283  157.6420 H   0  0  0  0  0  0  0  0  0  0  0  0
  151.5819  137.0601  156.7036 H   0  0  0  0  0  0  0  0  0  0  0  0
  149.5812  138.5207  155.1111 H   0  0  0  0  0  0  0  0  0  0  0  0
  151.5073  139.7806  154.3686 H   0  0  0  0  0  0  0  0  0  0  0  0
  152.4827  139.2103  155.6933 H   0  0  0  0  0  0  0  0  0  0  0  0
  151.4719  137.7561  153.5164 H   0  0  0  0  0  0  0  0  0  0  0  0
  149.1432  139.5648  157.4042 H   0  0  0  0  0  0  0  0  0  0  0  0
  151.2901  139.8279  158.4801 H   0  0  0  0  0  0  0  0  0  0  0  0
  151.9907  140.5383  157.0193 H   0  0  0  0  0  0  0  0  0  0  0  0
  149.8095  141.7308  158.7808 H   0  0  0  0  0  0  0  0  0  0  0  0
  151.3167  142.5035  158.2732 H   0  0  0  0  0  0  0  0  0  0  0  0
  150.0442  141.2325  155.0373 H   0  0  0  0  0  0  0  0  0  0  0  0
  148.4472  141.1435  155.7831 H   0  0  0  0  0  0  0  0  0  0  0  0
  145.7242  130.2699  152.9252 H   0  0  0  0  0  0  0  0  0  0  0  0
  147.4511  129.8979  152.7599 H   0  0  0  0  0  0  0  0  0  0  0  0
  146.3438  129.5342  151.4479 H   0  0  0  0  0  0  0  0  0  0  0  0
  144.7515  131.6392  151.1290 H   0  0  0  0  0  0  0  0  0  0  0  0
  145.8282  131.6849  149.7353 H   0  0  0  0  0  0  0  0  0  0  0  0
  147.6111  131.4936  151.0419 H   0  0  0  0  0  0  0  0  0  0  0  0
  1  2  1  0  0  0  0
  1 32  1  0  0  0  0
  1 33  1  0  0  0  0
  1 34  1  0  0  0  0
  2  3  1  0  0  0  0
  3 30  1  0  0  0  0
  3 29  1  0  0  0  0
  3  4  1  0  0  0  0
  4  5  1  0  0  0  0
  4 35  1  0  0  0  0
  4 36  1  0  0  0  0
  5 31  1  0  0  0  0
  5  6  1  0  0  0  0
  5 27  1  0  0  0  0
  6  7  1  0  0  0  0
  6 37  1  0  0  0  0
  6 38  1  0  0  0  0
  7  8  1  0  0  0  0
  7  9  1  0  0  0  0
  8 39  1  0  0  0  0
  8 40  1  0  0  0  0
  8 41  1  0  0  0  0
  9 14  1  0  0  0  0
  9 10  2  0  0  0  0
 10 11  1  0  0  0  0
 11 12  2  0  0  0  0
 11 42  1  0  0  0  0
 12 13  1  0  0  0  0
 13 17  1  0  0  0  0
 13 14  2  0  0  0  0
 14 15  1  0  0  0  0
 15 16  2  0  0  0  0
 16 17  1  0  0  0  0
 16 43  1  0  0  0  0
 17 18  1  0  0  0  0
 18 19  1  0  0  0  0
 18 44  1  0  0  0  0
 18 45  1  0  0  0  0
 19 20  1  0  0  0  0
 19 22  1  0  0  0  0
 19 46  1  0  0  0  0
 20 21  1  0  0  0  0
 20 47  1  0  0  0  0
 20 48  1  0  0  0  0
 21 49  1  0  0  0  0
 22 26  1  0  0  0  0
 22 23  1  0  0  0  0
 22 50  1  0  0  0  0
 23 24  1  0  0  0  0
 23 51  1  0  0  0  0
 23 52  1  0  0  0  0
 24 25  1  0  0  0  0
 24 53  1  0  0  0  0
 24 54  1  0  0  0  0
 25 26  1  0  0  0  0
 26 55  1  0  0  0  0
 26 56  1  0  0  0  0
 27 28  1  0  0  0  0
 27 29  1  0  0  0  0
 27 62  1  0  0  0  0
 28 57  1  0  0  0  0
 28 58  1  0  0  0  0
 28 59  1  0  0  0  0
 29 60  1  0  0  0  0
 29 61  1  0  0  0  0
M  CHG  1  27   1
M  END
> <s_m_source_file>
AV-unprocessed.smi

> <i_m_source_file_index>
21

> <i_lp_mmshare_version>
43012

> <i_f3d_flags>
0

> <s_epik_input>
W0NIM11PW0NASF0xW0NIMl1bQ0BIXShOKFtDSDNdKVtDSDJdMSlbQ0gyXU4oW0NIM10pYyhuW2NIXW4yKWMoYzIzKW5bY0hdbjNbQ0gyXVtDQEhdKFtDSDJdW09IXSlbQ0BASF00W0NIMl1bQ0gyXU9bQ0gyXTQ=

> <s_epik_cmdline>
J2VwaWtfcHl0aG9uJywgJy1waCcsICc3LjAnLCAnLXRuJywgJzgnLCAnLW1hJywgJzIwMCcsICctbWV0YWxfYmluZGluZycsICctaW1hZScsICc8aW5maWxlLm1hZT4nLCAnLW9tYWUnLCAnPG91dGZpbGUubWFlPic=

> <r_lp_tautomer_probability>
1

> <r_epik_Ionization_Penalty>
0.0157465

> <r_epik_Ionization_Penalty_Charging>
0.015354

> <r_epik_Ionization_Penalty_Neutral>
0.000392529

> <r_epik_State_Penalty>
0.0120612

> <r_epik_Charging_Adjusted_Penalty>
0.0274152

> <i_epik_Tot_Q>
1

> <i_epik_Tot_abs_Q>
1

> <r_epik_Metal_State_Penalty>
0.0121253

> <b_epik_Metal_Only>
0

> <s_lp_Force_Field>
OPLS_2005

> <r_lp_Energy>
60.8003

> <b_lp_Chiralities_Consistent>
1

> <s_lp_Variant>
AV-unprocessed.smi:21-25

> <Gold.Version>
5.8.1

> <Gold.Id.Protein>
6NUR|6NUR_protein|mol2

> <Gold.PLP.Fitness>
52.3436

> <Gold.PLP.PLP>
-46.3512

> <Gold.PLP.part.hbond>
-2.8883

> <Gold.PLP.part.metal>
0.0000

> <Gold.PLP.part.buried>
-6.4908

> <Gold.PLP.part.nonpolar>
-37.4920

> <Gold.PLP.part.repulsive>
0.3922

> <Gold.PLP.ligand.clash>
0.0000

> <Gold.PLP.ligand.torsion>
1.7553

> <Gold.PLP.Chemscore.Hbond>
3.0000

> <Gold.PLP.Chemscore.CHOScore>
0.0000

> <Gold.PLP.Chemscore.Metal>
0.0000

> <Gold.Chemscore.Hbonds>
donor molecule, donor type, donor heavy atom, donor atom, acceptor molecule, acceptor atom, score
      L1  H    27    62       P1 10747  1.00
      P1  H 10752 10764       L1    21  0.21

> <Gold.PLP.Chemscore.Internal.Correction>
0.5030

> <Gold.Rescore>
     Score         DG    S(hbond)    S(metal)    S(lipo)     H(rot)  DE(clash)    DE(int)     intcor
     15.58     -18.87       2.81        0.00     101.52       3.08       0.22       3.07       ----

> <Gold.Chemscore.Fitness>
15.5806

> <Gold.Chemscore.DG>
-18.8702

> <Gold.Chemscore.ZeroCoef>
-5.4800

> <Gold.Chemscore.Hbond>
2.8102

> <Gold.Chemscore.Metal>
0.0000

> <Gold.Chemscore.Lipo>
101.5229

> <Gold.Chemscore.Internal_Hbond>
0.0000

> <Gold.Chemscore.DEClash>
0.2237

> <Gold.Chemscore.DEInternal>
3.0659

> <Gold.Chemscore.Rot>
3.0758

> <Gold.Chemscore.Internal.Correction>
   9.000000E+99

> <Gold.Chemscore.Hbonds>
donor molecule, donor type, donor heavy atom, donor atom, acceptor molecule, acceptor atom, score
      L1  H    27    62       P1 10747  1.00
      P1  H 10752 10764       L1    21  0.05

> <Gold.Chemscore.Hbond.Weighted>
-9.3862

> <Gold.Chemscore.Metal.Weighted>
-0.0000

> <Gold.Chemscore.Lipo.Weighted>
-11.8782

> <Gold.Chemscore.Internal_Hbond.Weighted>
0.0000

> <Gold.Chemscore.DEClash.Weighted>
0.2237

> <Gold.Chemscore.DEInternal.Weighted>
3.0659

> <Gold.Chemscore.Rot.Weighted>
7.8741

> <Gold.Chemscore.Internal.Correction.Weighted>
   9.000000E+99

> <Gold.Protein.RotatedTorsions>
[ 6907 6896 6895 6894 ] final -141.32 input  -60.11 | X-H torsion
[ 7974 7965 7964 7962 ] final  -84.90 input  175.53 | X-H torsion
[ 8008 7997 7996 7995 ] final  -89.88 input   59.86 | X-H torsion
[ 10167 10162 10161 10158 ] final -102.46 input  -65.29 | X-H torsion
[ 10718 10713 10712 10709 ] final -164.45 input   66.30 | X-H torsion
[ 10763 10752 10751 10750 ] final  -84.09 input  -60.55 | X-H torsion
[ 11005 11000 10999 10996 ] final   99.34 input  -57.11 | X-H torsion

> <Gold.Protein.ActiveResidues>
 VAL166  LYS551  ARG553  GLY616  TRP617  ASP618  TYR619  PRO620  LYS621  CYS622 
 ASP623  PHE694  ASN695  SER759  ASP760  ASP761  ALA762  ILE779  LEU786  VAL792 
 PHE793  MET794  SER795  GLU796  ALA797  LYS798  CYS799  TRP800  GLU811  SER814 

> <Gold.Protein.RotatedAtoms>
  151.0723  133.5456  159.2626 H   0  0  0  0  0  0  0  0  0  0  0  0  # atno 6907 bound_to 6896
  151.2391  135.0582  159.9028 H   0  0  0  0  0  0  0  0  0  0  0  0  # atno 6908 bound_to 6896
  152.5413  134.0500  159.8159 H   0  0  0  0  0  0  0  0  0  0  0  0  # atno 6909 bound_to 6896
  145.5004  140.9547  143.1762 H   0  0  0  0  0  0  0  0  0  0  0  0  # atno 7974 bound_to 7965
  154.6919  140.0536  157.0372 H   0  0  0  0  0  0  0  0  0  0  0  0  # atno 8008 bound_to 7997
  155.0805  140.3209  155.4584 H   0  0  0  0  0  0  0  0  0  0  0  0  # atno 8009 bound_to 7997
  156.2731  140.2066  156.5932 H   0  0  0  0  0  0  0  0  0  0  0  0  # atno 8010 bound_to 7997
  140.2304  143.3611  152.0891 H   0  0  0  0  0  0  0  0  0  0  0  0  # atno 10167 bound_to 10162
  156.6392  130.8962  151.2993 H   0  0  0  0  0  0  0  0  0  0  0  0  # atno 10718 bound_to 10713
  154.5954  135.5533  153.7320 H   0  0  0  0  0  0  0  0  0  0  0  0  # atno 10763 bound_to 10752
  153.0133  135.6353  154.1790 H   0  0  0  0  0  0  0  0  0  0  0  0  # atno 10764 bound_to 10752
  154.1731  135.2891  155.3055 H   0  0  0  0  0  0  0  0  0  0  0  0  # atno 10765 bound_to 10752
  139.8771  134.9091  156.4591 H   0  0  0  0  0  0  0  0  0  0  0  0  # atno 11005 bound_to 11000
  144.7783  139.6581  143.7165 LP  0  0  0  0  0  0  0  0  0  0  0  0  # atno 17320 bound_to 7965
  146.2229  139.5669  142.9606 LP  0  0  0  0  0  0  0  0  0  0  0  0  # atno 17321 bound_to 7965
  139.5112  144.6896  151.5794 LP  0  0  0  0  0  0  0  0  0  0  0  0  # atno 17342 bound_to 10162
  140.6189  143.9296  150.6510 LP  0  0  0  0  0  0  0  0  0  0  0  0  # atno 17343 bound_to 10162
  157.7176  130.9517  150.1314 LP  0  0  0  0  0  0  0  0  0  0  0  0  # atno 17370 bound_to 10713
  156.2172  130.3671  149.8599 LP  0  0  0  0  0  0  0  0  0  0  0  0  # atno 17371 bound_to 10713
  140.8877  133.7871  155.9536 LP  0  0  0  0  0  0  0  0  0  0  0  0  # atno 17394 bound_to 11000
  140.8787  134.2638  157.5155 LP  0  0  0  0  0  0  0  0  0  0  0  0  # atno 17395 bound_to 11000

$$$$
