AV-unprocessed.smi:160|AV-procd|sdf|1351|dock1
  -GOLD-   2262019 53D 1   1.00000     0.00000
 Structure written by MMmdl.
 29 30  0  0  0  0  0  0  0  0  1 V2000
  150.4558  133.4023  155.2662 N   0  0  0  0  0  0  0  0  0  0  0  0
  150.8052  133.7990  156.4945 C   0  0  0  0  0  0  0  0  0  0  0  0
  150.7545  133.0492  157.4681 O   0  0  0  0  0  0  0  0  0  0  0  0
  151.2656  135.2244  156.6261 C   0  0  0  0  0  0  0  0  0  0  0  0
  151.3409  135.8328  157.8465 N   0  0  0  0  0  0  0  0  0  0  0  0
  151.7777  137.0240  157.4583 C   0  0  0  0  0  0  0  0  0  0  0  0
  151.9645  137.1374  156.1392 N   0  0  0  0  0  0  0  0  0  0  0  0
  152.4236  138.3189  155.3354 C   0  0  2  0  0  0  0  0  0  0  0  0
  152.4900  139.4096  156.2010 O   0  0  0  0  0  0  0  0  0  0  0  0
  151.4422  140.3459  155.9426 C   0  0  2  0  0  0  0  0  0  0  0  0
  150.7294  140.7090  157.2553 C   0  0  0  0  0  0  0  0  0  0  0  0
  149.6432  141.5730  156.9974 O   0  0  0  0  0  0  0  0  0  0  0  0
  150.5179  139.6743  154.9143 C   0  0  1  0  0  0  0  0  0  0  0  0
  150.0194  140.6274  153.9972 O   0  0  0  0  0  0  0  0  0  0  0  0
  151.4423  138.6924  154.2118 C   0  0  2  0  0  0  0  0  0  0  0  0
  150.7256  137.5925  153.6801 O   0  0  0  0  0  0  0  0  0  0  0  0
  151.6183  135.9560  155.5681 N   0  0  0  0  0  0  0  0  0  0  0  0
  153.4123  138.0321  154.9752 H   0  0  0  0  0  0  0  0  0  0  0  0
  151.8990  141.2307  155.4944 H   0  0  0  0  0  0  0  0  0  0  0  0
  149.6939  139.1566  155.4075 H   0  0  0  0  0  0  0  0  0  0  0  0
  152.0115  139.1907  153.4253 H   0  0  0  0  0  0  0  0  0  0  0  0
  150.1383  132.4563  155.1138 H   0  0  0  0  0  0  0  0  0  0  0  0
  150.5126  134.0547  154.4975 H   0  0  0  0  0  0  0  0  0  0  0  0
  151.9668  137.8310  158.1508 H   0  0  0  0  0  0  0  0  0  0  0  0
  150.3257  139.8105  157.7229 H   0  0  0  0  0  0  0  0  0  0  0  0
  151.4154  141.1648  157.9696 H   0  0  0  0  0  0  0  0  0  0  0  0
  149.8292  142.4141  157.3860 H   0  0  0  0  0  0  0  0  0  0  0  0
  149.7911  140.1787  153.1971 H   0  0  0  0  0  0  0  0  0  0  0  0
  151.2194  137.2303  152.9605 H   0  0  0  0  0  0  0  0  0  0  0  0
  1  2  1  0  0  0  0
  1 22  1  0  0  0  0
  1 23  1  0  0  0  0
  2  3  2  0  0  0  0
  2  4  1  0  0  0  0
  4 17  2  0  0  0  0
  4  5  1  0  0  0  0
  5  6  2  0  0  0  0
  6  7  1  0  0  0  0
  6 24  1  0  0  0  0
  7  8  1  0  0  0  0
  7 17  1  0  0  0  0
  8 18  1  0  0  0  0
  8 15  1  0  0  0  0
  8  9  1  0  0  0  0
  9 10  1  0  0  0  0
 10 19  1  0  0  0  0
 10 11  1  0  0  0  0
 10 13  1  0  0  0  0
 11 12  1  0  0  0  0
 11 25  1  0  0  0  0
 11 26  1  0  0  0  0
 12 27  1  0  0  0  0
 13 20  1  0  0  0  0
 13 14  1  0  0  0  0
 13 15  1  0  0  0  0
 14 28  1  0  0  0  0
 15 21  1  0  0  0  0
 15 16  1  0  0  0  0
 16 29  1  0  0  0  0
M  END
> <s_m_source_file>
AV-unprocessed.smi

> <i_m_source_file_index>
160

> <i_lp_mmshare_version>
43012

> <i_f3d_flags>
0

> <s_epik_input>
W05IMl1DKD1PKWMxbltjSF1uKG4xKVtDQEBIXTJPW0NASF0oW0NIMl1bT0hdKVtDQEBIXShbT0hdKVtDQEhdMltPSF0=

> <s_epik_cmdline>
J2VwaWtfcHl0aG9uJywgJy1waCcsICc3LjAnLCAnLXRuJywgJzgnLCAnLW1hJywgJzIwMCcsICctbWV0YWxfYmluZGluZycsICctaW1hZScsICc8aW5maWxlLm1hZT4nLCAnLW9tYWUnLCAnPG91dGZpbGUubWFlPic=

> <r_lp_tautomer_probability>
1

> <r_epik_Ionization_Penalty>
1.06932e-05

> <r_epik_Ionization_Penalty_Charging>
0

> <r_epik_Ionization_Penalty_Neutral>
1.06932e-05

> <r_epik_State_Penalty>
-0

> <r_epik_Charging_Adjusted_Penalty>
0

> <i_epik_Tot_Q>
0

> <i_epik_Tot_abs_Q>
0

> <r_epik_Metal_State_Penalty>
0.0142097

> <b_epik_Metal_Only>
0

> <s_epik_Chemistry_Notes>
This compound contains an acetal/aminal-like group ( X-CH(R)-Y where X, Y are N, S, or O) that may be acid/base labile, releasing an aldehyde.

> <s_lp_Force_Field>
OPLS_2005

> <r_lp_Energy>
40.6447

> <b_lp_Chiralities_Consistent>
1

> <s_lp_Variant>
AV-unprocessed.smi:160-9

> <Gold.Version>
5.8.1

> <Gold.Id.Protein>
6NUR|6NUR_protein|mol2

> <Gold.PLP.Fitness>
40.4667

> <Gold.PLP.PLP>
-24.7750

> <Gold.PLP.part.hbond>
-7.9582

> <Gold.PLP.part.metal>
0.0000

> <Gold.PLP.part.buried>
-1.8393

> <Gold.PLP.part.nonpolar>
-14.3231

> <Gold.PLP.part.repulsive>
0.1338

> <Gold.PLP.ligand.clash>
0.0000

> <Gold.PLP.ligand.torsion>
0.2113

> <Gold.PLP.Chemscore.Hbond>
5.3596

> <Gold.PLP.Chemscore.CHOScore>
0.0000

> <Gold.PLP.Chemscore.Metal>
0.0000

> <Gold.Chemscore.Hbonds>
donor molecule, donor type, donor heavy atom, donor atom, acceptor molecule, acceptor atom, score
      L1  H    14    28       P1  7957  0.96
      L1  H    16    29       P1  7949  0.90
      P1  H  6896  6907       L1     3  1.00
      P1  H  6896  6908       L1     5  0.22
      P1  H  7989  7998       L1    14  0.18
      P1  H  7997  8009       L1     9  1.00
      P1  H 10752 10764       L1    17  1.00

> <Gold.PLP.Chemscore.Internal.Correction>
0.0356

> <Gold.Rescore>
     Score         DG    S(hbond)    S(metal)    S(lipo)     H(rot)  DE(clash)    DE(int)     intcor
     10.69     -12.74       4.32        0.00      27.60       4.06       0.30       1.75       ----

> <Gold.Chemscore.Fitness>
10.6881

> <Gold.Chemscore.DG>
-12.7413

> <Gold.Chemscore.ZeroCoef>
-5.4800

> <Gold.Chemscore.Hbond>
4.3192

> <Gold.Chemscore.Metal>
0.0000

> <Gold.Chemscore.Lipo>
27.5971

> <Gold.Chemscore.Internal_Hbond>
0.0000

> <Gold.Chemscore.DEClash>
0.3027

> <Gold.Chemscore.DEInternal>
1.7505

> <Gold.Chemscore.Rot>
4.0600

> <Gold.Chemscore.Internal.Correction>
   9.000000E+99

> <Gold.Chemscore.Hbonds>
donor molecule, donor type, donor heavy atom, donor atom, acceptor molecule, acceptor atom, score
      L1  H    14    28       P1  7957  0.88
      L1  H    16    29       P1  7949  0.53
      P1  H  6896  6907       L1     3  0.95
      P1  H  6896  6908       L1     5  0.22
      P1  H  7997  8009       L1     9  0.72
      P1  H 10752 10764       L1    17  0.39

> <Gold.Chemscore.Hbond.Weighted>
-14.4260

> <Gold.Chemscore.Metal.Weighted>
-0.0000

> <Gold.Chemscore.Lipo.Weighted>
-3.2289

> <Gold.Chemscore.Internal_Hbond.Weighted>
0.0000

> <Gold.Chemscore.DEClash.Weighted>
0.3027

> <Gold.Chemscore.DEInternal.Weighted>
1.7505

> <Gold.Chemscore.Rot.Weighted>
10.3936

> <Gold.Chemscore.Internal.Correction.Weighted>
   9.000000E+99

> <Gold.Protein.RotatedTorsions>
[ 6907 6896 6895 6894 ] final -152.94 input  -60.11 | X-H torsion
[ 7974 7965 7964 7962 ] final  -18.15 input  175.53 | X-H torsion
[ 8008 7997 7996 7995 ] final -161.69 input   59.86 | X-H torsion
[ 10167 10162 10161 10158 ] final -137.80 input  -65.29 | X-H torsion
[ 10718 10713 10712 10709 ] final  -49.20 input   66.30 | X-H torsion
[ 10763 10752 10751 10750 ] final  -55.71 input  -60.55 | X-H torsion
[ 11005 11000 10999 10996 ] final  -16.31 input  -57.11 | X-H torsion

> <Gold.Protein.ActiveResidues>
 VAL166  LYS551  ARG553  GLY616  TRP617  ASP618  TYR619  PRO620  LYS621  CYS622 
 ASP623  PHE694  ASN695  SER759  ASP760  ASP761  ALA762  ILE779  LEU786  VAL792 
 PHE793  MET794  SER795  GLU796  ALA797  LYS798  CYS799  TRP800  GLU811  SER814 

> <Gold.Protein.RotatedAtoms>
  151.2351  133.4429  159.2604 H   0  0  0  0  0  0  0  0  0  0  0  0  # atno 6907 bound_to 6896
  151.0757  134.9827  159.8341 H   0  0  0  0  0  0  0  0  0  0  0  0  # atno 6908 bound_to 6896
  152.5418  134.2294  159.8872 H   0  0  0  0  0  0  0  0  0  0  0  0  # atno 6909 bound_to 6896
  146.1906  140.3880  142.8459 H   0  0  0  0  0  0  0  0  0  0  0  0  # atno 7974 bound_to 7965
  155.7959  140.0885  157.1984 H   0  0  0  0  0  0  0  0  0  0  0  0  # atno 8008 bound_to 7997
  154.3983  140.1481  156.3276 H   0  0  0  0  0  0  0  0  0  0  0  0  # atno 8009 bound_to 7997
  155.8512  140.3434  155.5697 H   0  0  0  0  0  0  0  0  0  0  0  0  # atno 8010 bound_to 7997
  139.8542  143.7160  152.2655 H   0  0  0  0  0  0  0  0  0  0  0  0  # atno 10167 bound_to 10162
  156.1916  130.4153  149.9364 H   0  0  0  0  0  0  0  0  0  0  0  0  # atno 10718 bound_to 10713
  154.1952  135.6420  153.5071 H   0  0  0  0  0  0  0  0  0  0  0  0  # atno 10763 bound_to 10752
  153.0025  135.5438  154.6374 H   0  0  0  0  0  0  0  0  0  0  0  0  # atno 10764 bound_to 10752
  154.5772  135.2922  155.0741 H   0  0  0  0  0  0  0  0  0  0  0  0  # atno 10765 bound_to 10752
  140.8054  133.8181  155.9511 H   0  0  0  0  0  0  0  0  0  0  0  0  # atno 11005 bound_to 11000
  144.8480  140.6958  143.6186 LP  0  0  0  0  0  0  0  0  0  0  0  0  # atno 17320 bound_to 7965
  145.3803  139.1638  143.4284 LP  0  0  0  0  0  0  0  0  0  0  0  0  # atno 17321 bound_to 7965
  139.7436  144.7553  151.0614 LP  0  0  0  0  0  0  0  0  0  0  0  0  # atno 17342 bound_to 10162
  140.7783  143.4943  150.9853 LP  0  0  0  0  0  0  0  0  0  0  0  0  # atno 17343 bound_to 10162
  156.7103  130.8967  151.3608 LP  0  0  0  0  0  0  0  0  0  0  0  0  # atno 17370 bound_to 10713
  157.6932  130.9255  150.0571 LP  0  0  0  0  0  0  0  0  0  0  0  0  # atno 17371 bound_to 10713
  140.9252  134.2092  157.4901 LP  0  0  0  0  0  0  0  0  0  0  0  0  # atno 17394 bound_to 11000
  139.8718  134.9809  156.5095 LP  0  0  0  0  0  0  0  0  0  0  0  0  # atno 17395 bound_to 11000

$$$$
