AV-unprocessed.smi:3208|AV-procd|sdf|12262|dock2
  -GOLD-   2272018 93D 1   1.00000     0.00000
 Structure written by MMmdl.
 30 30  0  0  0  0  0  0  0  0  3 V2000
  153.3108  142.4911  162.4038 C   0  0  0  0  0  0  0  0  0  0  0  0
  152.5519  143.0745  161.4639 C   0  0  0  0  0  0  0  0  0  0  0  0
  152.8108  142.9870  159.9761 C   0  0  0  0  0  0  0  0  0  0  0  0
  151.6526  142.5083  159.3031 O   0  0  0  0  0  0  0  0  0  0  0  0
  151.6043  142.7688  157.9024 C   0  0  2  0  0  0  0  0  0  0  0  0
  151.6167  144.2935  157.7148 C   0  0  0  0  0  0  0  0  0  0  0  0
  150.3477  142.1366  157.2819 C   0  0  0  0  0  0  0  0  0  0  0  0
  149.5357  141.5548  158.0032 O   0  0  0  0  0  0  0  0  0  0  0  0
  150.2335  142.2591  155.9463 N   0  0  0  0  0  0  0  0  0  0  0  0
  149.2003  141.7829  155.0925 C   0  0  0  0  0  0  0  0  0  0  0  0
  148.0217  142.4393  154.9485 N   0  3  0  0  0  0  0  0  0  0  0  0
  147.0231  142.0147  154.1448 C   0  0  0  0  0  0  0  0  0  0  0  0
  147.1794  140.8298  153.4006 C   0  0  0  0  0  0  0  0  0  0  0  0
  148.3842  140.1079  153.5125 C   0  0  0  0  0  0  0  0  0  0  0  0
  149.4030  140.5856  154.3641 C   0  0  0  0  0  0  0  0  0  0  0  0
  150.5712  139.8840  154.4732 O   0  5  0  0  0  0  0  0  0  0  0  0
  154.1794  141.9050  162.1413 H   0  0  0  0  0  0  0  0  0  0  0  0
  153.0708  142.5929  163.4520 H   0  0  0  0  0  0  0  0  0  0  0  0
  151.6905  143.6527  161.7649 H   0  0  0  0  0  0  0  0  0  0  0  0
  153.0705  143.9832  159.6157 H   0  0  0  0  0  0  0  0  0  0  0  0
  153.6673  142.3364  159.7943 H   0  0  0  0  0  0  0  0  0  0  0  0
  152.4986  142.3606  157.4274 H   0  0  0  0  0  0  0  0  0  0  0  0
  151.5680  144.5641  156.6594 H   0  0  0  0  0  0  0  0  0  0  0  0
  152.5318  144.7242  158.1218 H   0  0  0  0  0  0  0  0  0  0  0  0
  150.7767  144.7689  158.2229 H   0  0  0  0  0  0  0  0  0  0  0  0
  150.9783  142.7518  155.4744 H   0  0  0  0  0  0  0  0  0  0  0  0
  146.1370  142.6321  154.1219 H   0  0  0  0  0  0  0  0  0  0  0  0
  146.3888  140.4792  152.7538 H   0  0  0  0  0  0  0  0  0  0  0  0
  148.5240  139.1967  152.9493 H   0  0  0  0  0  0  0  0  0  0  0  0
  147.8844  143.3015  155.4775 H   0  0  0  0  0  0  0  0  0  0  0  0
  1  2  2  0  0  0  0
  1 17  1  0  0  0  0
  1 18  1  0  0  0  0
  2  3  1  0  0  0  0
  2 19  1  0  0  0  0
  3  4  1  0  0  0  0
  3 20  1  0  0  0  0
  3 21  1  0  0  0  0
  4  5  1  0  0  0  0
  5  6  1  0  0  0  0
  5  7  1  0  0  0  0
  5 22  1  0  0  0  0
  6 23  1  0  0  0  0
  6 24  1  0  0  0  0
  6 25  1  0  0  0  0
  7  8  2  0  0  0  0
  7  9  1  0  0  0  0
  9 26  1  0  0  0  0
  9 10  1  0  0  0  0
 10 15  2  0  0  0  0
 10 11  1  0  0  0  0
 11 30  1  0  0  0  0
 11 12  2  0  0  0  0
 12 27  1  0  0  0  0
 12 13  1  0  0  0  0
 13 28  1  0  0  0  0
 13 14  2  0  0  0  0
 14 15  1  0  0  0  0
 14 29  1  0  0  0  0
 15 16  1  0  0  0  0
M  CHG  1  11   1
M  CHG  1  16  -1
M  END
> <s_m_source_file>
AV-unprocessed.smi

> <i_m_source_file_index>
3208

> <i_lp_mmshare_version>
43012

> <i_f3d_flags>
0

> <s_epik_input>
W0NIMl09W0NIXVtDSDJdT1tDQEhdKFtDSDNdKUMoPU8pW05IXWMxbltjSF1bY0hdW2NIXWMxW09IXQ==

> <s_epik_cmdline>
J2VwaWtfcHl0aG9uJywgJy1waCcsICc3LjAnLCAnLXRuJywgJzgnLCAnLW1hJywgJzIwMCcsICctbWV0YWxfYmluZGluZycsICctaW1hZScsICc8aW5maWxlLm1hZT4nLCAnLW9tYWUnLCAnPG91dGZpbGUubWFlPic=

> <r_lp_tautomer_probability>
0.56342

> <r_epik_Ionization_Penalty>
0.29395

> <r_epik_Ionization_Penalty_Charging>
0.0267837

> <r_epik_Ionization_Penalty_Neutral>
0.267166

> <r_epik_State_Penalty>
0.587031

> <r_epik_Charging_Adjusted_Penalty>
0.613815

> <i_epik_Tot_Q>
0

> <i_epik_Tot_abs_Q>
2

> <r_epik_Metal_State_Penalty>
2.67911

> <b_epik_Metal_Only>
0

> <s_lp_Force_Field>
OPLS_2005

> <r_lp_Energy>
5.5941

> <b_lp_Chiralities_Consistent>
1

> <s_lp_Variant>
AV-unprocessed.smi:3208-3

> <Gold.Version>
5.8.1

> <Gold.Id.Protein>
6NUR|6NUR_protein|mol2

> <Gold.PLP.Fitness>
43.9734

> <Gold.PLP.PLP>
-37.9991

> <Gold.PLP.part.hbond>
-2.9630

> <Gold.PLP.part.metal>
0.0000

> <Gold.PLP.part.buried>
-0.5723

> <Gold.PLP.part.nonpolar>
-34.4924

> <Gold.PLP.part.repulsive>
0.4637

> <Gold.PLP.ligand.clash>
0.0000

> <Gold.PLP.ligand.torsion>
0.8530

> <Gold.PLP.Chemscore.Hbond>
2.3400

> <Gold.PLP.Chemscore.CHOScore>
0.0000

> <Gold.PLP.Chemscore.Metal>
0.0000

> <Gold.Chemscore.Hbonds>
donor molecule, donor type, donor heavy atom, donor atom, acceptor molecule, acceptor atom, score
      L1  H    11    30       P1  8028  1.31
      P1  H  7989  7998       L1    16  1.00

> <Gold.PLP.Chemscore.Internal.Correction>
0.6603

> <Gold.Rescore>
     Score         DG    S(hbond)    S(metal)    S(lipo)     H(rot)  DE(clash)    DE(int)     intcor
     13.48     -14.50       0.97        0.00      86.46       1.70       0.02       1.00       ----

> <Gold.Chemscore.Fitness>
13.4772

> <Gold.Chemscore.DG>
-14.4980

> <Gold.Chemscore.ZeroCoef>
-5.4800

> <Gold.Chemscore.Hbond>
0.9729

> <Gold.Chemscore.Metal>
0.0000

> <Gold.Chemscore.Lipo>
86.4553

> <Gold.Chemscore.Internal_Hbond>
0.0000

> <Gold.Chemscore.DEClash>
0.0222

> <Gold.Chemscore.DEInternal>
0.9986

> <Gold.Chemscore.Rot>
1.6979

> <Gold.Chemscore.Internal.Correction>
   9.000000E+99

> <Gold.Chemscore.Hbonds>
donor molecule, donor type, donor heavy atom, donor atom, acceptor molecule, acceptor atom, score
      L1  H    11    30       P1  8028  0.33
      P1  H  7989  7998       L1    16  0.26

> <Gold.Chemscore.Hbond.Weighted>
-3.2494

> <Gold.Chemscore.Metal.Weighted>
-0.0000

> <Gold.Chemscore.Lipo.Weighted>
-10.1153

> <Gold.Chemscore.Internal_Hbond.Weighted>
0.0000

> <Gold.Chemscore.DEClash.Weighted>
0.0222

> <Gold.Chemscore.DEInternal.Weighted>
0.9986

> <Gold.Chemscore.Rot.Weighted>
4.3467

> <Gold.Chemscore.Internal.Correction.Weighted>
   9.000000E+99

> <Gold.Protein.RotatedTorsions>
[ 6907 6896 6895 6894 ] final  -50.52 input  -60.11 | X-H torsion
[ 7974 7965 7964 7962 ] final  141.50 input  175.53 | X-H torsion
[ 8008 7997 7996 7995 ] final  -44.45 input   59.86 | X-H torsion
[ 10167 10162 10161 10158 ] final  -75.41 input  -65.29 | X-H torsion
[ 10718 10713 10712 10709 ] final   26.85 input   66.30 | X-H torsion
[ 10763 10752 10751 10750 ] final  -56.65 input  -60.55 | X-H torsion
[ 11005 11000 10999 10996 ] final -111.92 input  -57.11 | X-H torsion

> <Gold.Protein.ActiveResidues>
 VAL166  LYS551  ARG553  GLY616  TRP617  ASP618  TYR619  PRO620  LYS621  CYS622 
 ASP623  PHE694  ASN695  SER759  ASP760  ASP761  ALA762  ILE779  LEU786  VAL792 
 PHE793  MET794  SER795  GLU796  ALA797  LYS798  CYS799  TRP800  GLU811  SER814 

> <Gold.Protein.RotatedAtoms>
  150.8700  134.8071  159.7146 H   0  0  0  0  0  0  0  0  0  0  0  0  # atno 6907 bound_to 6896
  152.4708  134.4963  159.9720 H   0  0  0  0  0  0  0  0  0  0  0  0  # atno 6908 bound_to 6896
  151.5053  133.3457  159.2911 H   0  0  0  0  0  0  0  0  0  0  0  0  # atno 6909 bound_to 6896
  144.9091  139.5318  143.5717 H   0  0  0  0  0  0  0  0  0  0  0  0  # atno 7974 bound_to 7965
  154.3997  140.1422  156.3684 H   0  0  0  0  0  0  0  0  0  0  0  0  # atno 8008 bound_to 7997
  155.8115  140.3472  155.5440 H   0  0  0  0  0  0  0  0  0  0  0  0  # atno 8009 bound_to 7997
  155.8381  140.0922  157.1742 H   0  0  0  0  0  0  0  0  0  0  0  0  # atno 8010 bound_to 7997
  140.4945  143.2373  151.7853 H   0  0  0  0  0  0  0  0  0  0  0  0  # atno 10167 bound_to 10162
  157.2124  130.6940  149.6234 H   0  0  0  0  0  0  0  0  0  0  0  0  # atno 10718 bound_to 10713
  154.2101  135.6396  153.5112 H   0  0  0  0  0  0  0  0  0  0  0  0  # atno 10763 bound_to 10752
  152.9992  135.5472  154.6224 H   0  0  0  0  0  0  0  0  0  0  0  0  # atno 10764 bound_to 10752
  154.5659  135.2913  155.0848 H   0  0  0  0  0  0  0  0  0  0  0  0  # atno 10765 bound_to 10752
  141.0705  133.9387  157.2493 H   0  0  0  0  0  0  0  0  0  0  0  0  # atno 11005 bound_to 11000
  146.3149  139.7882  142.8991 LP  0  0  0  0  0  0  0  0  0  0  0  0  # atno 17320 bound_to 7965
  145.3485  141.0302  143.3352 LP  0  0  0  0  0  0  0  0  0  0  0  0  # atno 17321 bound_to 7965
  139.4858  144.4605  151.9546 LP  0  0  0  0  0  0  0  0  0  0  0  0  # atno 17342 bound_to 10162
  140.3693  144.2876  150.5922 LP  0  0  0  0  0  0  0  0  0  0  0  0  # atno 17343 bound_to 10162
  155.9689  130.4547  150.5858 LP  0  0  0  0  0  0  0  0  0  0  0  0  # atno 17370 bound_to 10713
  157.3659  131.0757  151.1598 LP  0  0  0  0  0  0  0  0  0  0  0  0  # atno 17371 bound_to 10713
  139.9519  135.0173  156.9018 LP  0  0  0  0  0  0  0  0  0  0  0  0  # atno 17394 bound_to 11000
  140.5682  134.0468  155.7421 LP  0  0  0  0  0  0  0  0  0  0  0  0  # atno 17395 bound_to 11000

$$$$
