AV-unprocessed.smi:1681|AV-procd|sdf|6741|dock7
  -GOLD-   22720 7493D 1   1.00000     0.00000
 Structure written by MMmdl.
 40 41  0  0  0  0  0  0  0  0  1 V2000
  150.4706  138.0139  154.4236 C   0  0  0  0  0  0  0  0  0  0  0  0
  150.0297  139.4721  154.5709 C   0  0  0  0  0  0  0  0  0  0  0  0
  150.7712  140.2410  155.1831 O   0  0  0  0  0  0  0  0  0  0  0  0
  148.8533  139.8674  154.0273 N   0  0  0  0  0  0  0  0  0  0  0  0
  148.2658  141.2072  154.1569 C   0  0  0  0  0  0  0  0  0  0  0  0
  147.0382  141.1200  155.0810 C   0  0  0  0  0  0  0  0  0  0  0  0
  146.0234  140.0880  154.5523 C   0  0  0  0  0  0  0  0  0  0  0  0
  146.6942  138.7266  154.2521 C   0  0  1  0  0  0  0  0  0  0  0  0
  145.7039  137.7511  153.6018 C   0  0  0  0  0  0  0  0  0  0  0  0
  144.4943  137.9003  153.7761 O   0  0  0  0  0  0  0  0  0  0  0  0
  146.2474  136.7697  152.8609 N   0  0  0  0  0  0  0  0  0  0  0  0
  145.5689  135.7409  152.1615 C   0  0  0  0  0  0  0  0  0  0  0  0
  144.1826  135.4171  152.1515 C   0  0  0  0  0  0  0  0  0  0  0  0
  143.9439  134.3751  151.3691 N   0  0  0  0  0  0  0  0  0  0  0  0
  145.1557  134.0205  150.8724 N   0  0  0  0  0  0  0  0  0  0  0  0
  145.2598  132.8910  149.9656 C   0  0  0  0  0  0  0  0  0  0  0  0
  144.1471  132.9176  148.9162 C   0  0  0  0  0  0  0  0  0  0  0  0
  144.2013  133.8818  147.9933 N   0  0  0  0  0  0  0  0  0  0  0  0
  143.2509  132.0768  148.9376 O   0  0  0  0  0  0  0  0  0  0  0  0
  146.1679  134.8383  151.3355 C   0  0  0  0  0  0  0  0  0  0  0  0
  147.9367  138.9361  153.3568 C   0  0  0  0  0  0  0  0  0  0  0  0
  150.5548  137.7384  153.3718 H   0  0  0  0  0  0  0  0  0  0  0  0
  149.7612  137.3446  154.9112 H   0  0  0  0  0  0  0  0  0  0  0  0
  151.4457  137.8586  154.8866 H   0  0  0  0  0  0  0  0  0  0  0  0
  148.9609  141.9563  154.5332 H   0  0  0  0  0  0  0  0  0  0  0  0
  147.9641  141.5616  153.1701 H   0  0  0  0  0  0  0  0  0  0  0  0
  147.3576  140.8386  156.0854 H   0  0  0  0  0  0  0  0  0  0  0  0
  146.5639  142.0977  155.1695 H   0  0  0  0  0  0  0  0  0  0  0  0
  145.2159  139.9618  155.2745 H   0  0  0  0  0  0  0  0  0  0  0  0
  145.5646  140.4842  153.6450 H   0  0  0  0  0  0  0  0  0  0  0  0
  147.0295  138.2977  155.1984 H   0  0  0  0  0  0  0  0  0  0  0  0
  147.2550  136.7565  152.7961 H   0  0  0  0  0  0  0  0  0  0  0  0
  143.3566  135.8825  152.6678 H   0  0  0  0  0  0  0  0  0  0  0  0
  146.2358  132.8984  149.4772 H   0  0  0  0  0  0  0  0  0  0  0  0
  145.2001  131.9706  150.5481 H   0  0  0  0  0  0  0  0  0  0  0  0
  143.4910  133.9332  147.2770 H   0  0  0  0  0  0  0  0  0  0  0  0
  144.9564  134.5519  148.0111 H   0  0  0  0  0  0  0  0  0  0  0  0
  147.1999  134.7046  151.0458 H   0  0  0  0  0  0  0  0  0  0  0  0
  147.6495  139.3552  152.3908 H   0  0  0  0  0  0  0  0  0  0  0  0
  148.4070  137.9772  153.1324 H   0  0  0  0  0  0  0  0  0  0  0  0
  1  2  1  0  0  0  0
  1 22  1  0  0  0  0
  1 23  1  0  0  0  0
  1 24  1  0  0  0  0
  2  3  2  0  0  0  0
  2  4  1  0  0  0  0
  4 21  1  0  0  0  0
  4  5  1  0  0  0  0
  5  6  1  0  0  0  0
  5 25  1  0  0  0  0
  5 26  1  0  0  0  0
  6  7  1  0  0  0  0
  6 27  1  0  0  0  0
  6 28  1  0  0  0  0
  7  8  1  0  0  0  0
  7 29  1  0  0  0  0
  7 30  1  0  0  0  0
  8  9  1  0  0  0  0
  8 21  1  0  0  0  0
  8 31  1  0  0  0  0
  9 10  2  0  0  0  0
  9 11  1  0  0  0  0
 11 12  1  0  0  0  0
 11 32  1  0  0  0  0
 12 20  2  0  0  0  0
 12 13  1  0  0  0  0
 13 14  2  0  0  0  0
 13 33  1  0  0  0  0
 14 15  1  0  0  0  0
 15 16  1  0  0  0  0
 15 20  1  0  0  0  0
 16 17  1  0  0  0  0
 16 34  1  0  0  0  0
 16 35  1  0  0  0  0
 17 18  1  0  0  0  0
 17 19  2  0  0  0  0
 18 36  1  0  0  0  0
 18 37  1  0  0  0  0
 20 38  1  0  0  0  0
 21 39  1  0  0  0  0
 21 40  1  0  0  0  0
M  END
> <s_m_source_file>
AV-unprocessed.smi

> <i_m_source_file_index>
1681

> <i_lp_mmshare_version>
43012

> <i_f3d_flags>
0

> <s_epik_input>
W0NIM11DKD1PKU4xW0NIMl1bQ0gyXVtDSDJdW0NASF0oW0NIMl0xKUMoPU8pW05IXWMyW2NIXW5uKFtjSF0yKVtDSDJdQyg9TylbTkgyXQ==

> <s_epik_cmdline>
J2VwaWtfcHl0aG9uJywgJy1waCcsICc3LjAnLCAnLXRuJywgJzgnLCAnLW1hJywgJzIwMCcsICctbWV0YWxfYmluZGluZycsICctaW1hZScsICc8aW5maWxlLm1hZT4nLCAnLW9tYWUnLCAnPG91dGZpbGUubWFlPic=

> <r_lp_tautomer_probability>
1

> <r_epik_Ionization_Penalty>
6.05275e-06

> <r_epik_Ionization_Penalty_Charging>
0

> <r_epik_Ionization_Penalty_Neutral>
6.05275e-06

> <r_epik_State_Penalty>
-0

> <r_epik_Charging_Adjusted_Penalty>
0

> <i_epik_Tot_Q>
0

> <i_epik_Tot_abs_Q>
0

> <r_epik_Metal_State_Penalty>
-0

> <b_epik_Metal_Only>
0

> <s_lp_Force_Field>
OPLS_2005

> <r_lp_Energy>
29.0931

> <b_lp_Chiralities_Consistent>
1

> <s_lp_Variant>
AV-unprocessed.smi:1681-1

> <Gold.Version>
5.8.1

> <Gold.Id.Protein>
6NUR|6NUR_protein|mol2

> <Gold.PLP.Fitness>
41.5940

> <Gold.PLP.PLP>
-29.9030

> <Gold.PLP.part.hbond>
-3.8424

> <Gold.PLP.part.metal>
0.0000

> <Gold.PLP.part.buried>
-2.3497

> <Gold.PLP.part.nonpolar>
-26.3005

> <Gold.PLP.part.repulsive>
2.5729

> <Gold.PLP.ligand.clash>
0.0000

> <Gold.PLP.ligand.torsion>
1.0058

> <Gold.PLP.Chemscore.Hbond>
3.6960

> <Gold.PLP.Chemscore.CHOScore>
0.8630

> <Gold.PLP.Chemscore.Metal>
0.0000

> <Gold.Chemscore.Hbonds>
donor molecule, donor type, donor heavy atom, donor atom, acceptor molecule, acceptor atom, score
      L1  H    11    32       P1  7948  1.00
      L1  H    18    37       P1  7921  0.26
      P1  H  7989  7998       L1     3  0.60
      P1  H 10785 10796       L1    19  0.98
      L1  C    20    38       P1  7948  0.85

> <Gold.PLP.Chemscore.Internal.Correction>
0.0257

> <Gold.Rescore>
     Score         DG    S(hbond)    S(metal)    S(lipo)     H(rot)  DE(clash)    DE(int)     intcor
     12.35     -17.52       3.17        0.00      55.26       1.96       3.02       2.15       ----

> <Gold.Chemscore.Fitness>
12.3501

> <Gold.Chemscore.DG>
-17.5180

> <Gold.Chemscore.ZeroCoef>
-5.4800

> <Gold.Chemscore.Hbond>
3.1722

> <Gold.Chemscore.Metal>
0.0000

> <Gold.Chemscore.Lipo>
55.2560

> <Gold.Chemscore.Internal_Hbond>
0.0000

> <Gold.Chemscore.DEClash>
3.0185

> <Gold.Chemscore.DEInternal>
2.1493

> <Gold.Chemscore.Rot>
1.9617

> <Gold.Chemscore.Internal.Correction>
   9.000000E+99

> <Gold.Chemscore.Hbonds>
donor molecule, donor type, donor heavy atom, donor atom, acceptor molecule, acceptor atom, score
      L1  H    11    32       P1  7948  0.92
      L1  H    18    36       P1 10195  0.01
      L1  H    18    37       P1  7921  0.26
      P1  H  7989  7998       L1     3  0.04
      P1  H 10785 10796       L1    19  0.93

> <Gold.Chemscore.Hbond.Weighted>
-10.5951

> <Gold.Chemscore.Metal.Weighted>
-0.0000

> <Gold.Chemscore.Lipo.Weighted>
-6.4650

> <Gold.Chemscore.Internal_Hbond.Weighted>
0.0000

> <Gold.Chemscore.DEClash.Weighted>
3.0185

> <Gold.Chemscore.DEInternal.Weighted>
2.1493

> <Gold.Chemscore.Rot.Weighted>
5.0220

> <Gold.Chemscore.Internal.Correction.Weighted>
   9.000000E+99

> <Gold.Protein.RotatedTorsions>
[ 6907 6896 6895 6894 ] final  -40.56 input  -60.11 | X-H torsion
[ 7974 7965 7964 7962 ] final   99.01 input  175.53 | X-H torsion
[ 8008 7997 7996 7995 ] final  123.08 input   59.86 | X-H torsion
[ 10167 10162 10161 10158 ] final -167.05 input  -65.29 | X-H torsion
[ 10718 10713 10712 10709 ] final   26.83 input   66.30 | X-H torsion
[ 10763 10752 10751 10750 ] final  106.23 input  -60.55 | X-H torsion
[ 11005 11000 10999 10996 ] final  -41.90 input  -57.11 | X-H torsion

> <Gold.Protein.ActiveResidues>
 VAL166  LYS551  ARG553  GLY616  TRP617  ASP618  TYR619  PRO620  LYS621  CYS622 
 ASP623  PHE694  ASN695  SER759  ASP760  ASP761  ALA762  ILE779  LEU786  VAL792 
 PHE793  MET794  SER795  GLU796  ALA797  LYS798  CYS799  TRP800  GLU811  SER814 

> <Gold.Protein.RotatedAtoms>
  150.9770  134.9133  159.7821 H   0  0  0  0  0  0  0  0  0  0  0  0  # atno 6907 bound_to 6896
  152.5209  134.3462  159.9245 H   0  0  0  0  0  0  0  0  0  0  0  0  # atno 6908 bound_to 6896
  151.3470  133.3899  159.2711 H   0  0  0  0  0  0  0  0  0  0  0  0  # atno 6909 bound_to 6896
  145.4046  139.2342  143.3281 H   0  0  0  0  0  0  0  0  0  0  0  0  # atno 7974 bound_to 7965
  156.2752  140.2771  156.1570 H   0  0  0  0  0  0  0  0  0  0  0  0  # atno 8008 bound_to 7997
  155.0794  140.0387  157.2652 H   0  0  0  0  0  0  0  0  0  0  0  0  # atno 8009 bound_to 7997
  154.6976  140.2642  155.6756 H   0  0  0  0  0  0  0  0  0  0  0  0  # atno 8010 bound_to 7997
  139.6074  144.0884  152.1807 H   0  0  0  0  0  0  0  0  0  0  0  0  # atno 10167 bound_to 10162
  157.2120  130.6939  149.6233 H   0  0  0  0  0  0  0  0  0  0  0  0  # atno 10718 bound_to 10713
  153.3901  135.3884  155.1917 H   0  0  0  0  0  0  0  0  0  0  0  0  # atno 10763 bound_to 10752
  154.8718  135.3746  154.4748 H   0  0  0  0  0  0  0  0  0  0  0  0  # atno 10764 bound_to 10752
  153.5234  135.7086  153.5781 H   0  0  0  0  0  0  0  0  0  0  0  0  # atno 10765 bound_to 10752
  141.0278  133.6833  156.2520 H   0  0  0  0  0  0  0  0  0  0  0  0  # atno 11005 bound_to 11000
  146.2735  140.4748  142.8805 LP  0  0  0  0  0  0  0  0  0  0  0  0  # atno 17320 bound_to 7965
  144.8351  140.6768  143.6266 LP  0  0  0  0  0  0  0  0  0  0  0  0  # atno 17321 bound_to 7965
  140.0495  144.5944  150.7347 LP  0  0  0  0  0  0  0  0  0  0  0  0  # atno 17342 bound_to 10162
  140.7295  143.2673  151.4003 LP  0  0  0  0  0  0  0  0  0  0  0  0  # atno 17343 bound_to 10162
  155.9690  130.4548  150.5863 LP  0  0  0  0  0  0  0  0  0  0  0  0  # atno 17370 bound_to 10713
  157.3662  131.0758  151.1595 LP  0  0  0  0  0  0  0  0  0  0  0  0  # atno 17371 bound_to 10713
  140.6460  134.5116  157.5573 LP  0  0  0  0  0  0  0  0  0  0  0  0  # atno 17394 bound_to 11000
  139.9187  134.8192  156.1280 LP  0  0  0  0  0  0  0  0  0  0  0  0  # atno 17395 bound_to 11000

$$$$
