AV-unprocessed.smi:3146|AV-procd|sdf|11986|dock4
  -GOLD-   2272017393D 1   1.00000     0.00000
 Structure written by MMmdl.
 34 35  0  0  0  0  0  0  0  0  1 V2000
  152.2529  140.7464  157.7960 O   0  0  0  0  0  0  0  0  0  0  0  0
  151.8502  141.7636  158.3637 C   0  0  0  0  0  0  0  0  0  0  0  0
  150.8418  142.6878  157.6612 C   0  0  0  0  0  0  0  0  0  0  0  0
  150.6999  142.4053  156.2269 N   0  0  0  0  0  0  0  0  0  0  0  0
  150.1707  141.0666  156.0163 C   0  0  0  0  0  0  0  0  0  0  0  0
  149.6392  140.9459  154.5807 C   0  0  0  0  0  0  0  0  0  0  0  0
  148.3120  141.5160  154.4524 N   0  0  0  0  0  0  0  0  0  0  0  0
  147.5566  141.6811  153.3103 C   0  0  0  0  0  0  0  0  0  0  0  0
  146.3790  142.2632  153.6831 C   0  0  0  0  0  0  0  0  0  0  0  0
  146.5090  142.4167  155.0921 C   0  0  0  0  0  0  0  0  0  0  0  0
  147.6673  141.9693  155.5494 N   0  0  0  0  0  0  0  0  0  0  0  0
  152.2705  142.1056  159.5997 N   0  0  0  0  0  0  0  0  0  0  0  0
  151.8074  143.2964  160.3099 C   0  0  0  0  0  0  0  0  0  0  0  0
  152.3107  143.1439  161.7453 C   0  0  0  0  0  0  0  0  0  0  0  0
  153.5357  142.2495  161.6167 C   0  0  0  0  0  0  0  0  0  0  0  0
  153.2239  141.3549  160.4164 C   0  0  0  0  0  0  0  0  0  0  0  0
  149.8710  142.5746  158.1460 H   0  0  0  0  0  0  0  0  0  0  0  0
  151.1592  143.7231  157.7940 H   0  0  0  0  0  0  0  0  0  0  0  0
  150.0966  143.0795  155.7775 H   0  0  0  0  0  0  0  0  0  0  0  0
  150.9541  140.3274  156.1908 H   0  0  0  0  0  0  0  0  0  0  0  0
  149.3681  140.8698  156.7287 H   0  0  0  0  0  0  0  0  0  0  0  0
  150.3036  141.4582  153.8832 H   0  0  0  0  0  0  0  0  0  0  0  0
  149.6005  139.9001  154.2711 H   0  0  0  0  0  0  0  0  0  0  0  0
  147.9162  141.3751  152.3386 H   0  0  0  0  0  0  0  0  0  0  0  0
  145.5505  142.5372  153.0470 H   0  0  0  0  0  0  0  0  0  0  0  0
  145.8010  142.8376  155.7911 H   0  0  0  0  0  0  0  0  0  0  0  0
  152.2441  144.1801  159.8421 H   0  0  0  0  0  0  0  0  0  0  0  0
  150.7213  143.3984  160.2802 H   0  0  0  0  0  0  0  0  0  0  0  0
  152.5322  144.1003  162.2199 H   0  0  0  0  0  0  0  0  0  0  0  0
  151.5528  142.6398  162.3467 H   0  0  0  0  0  0  0  0  0  0  0  0
  154.4117  142.8616  161.3983 H   0  0  0  0  0  0  0  0  0  0  0  0
  153.7428  141.6821  162.5245 H   0  0  0  0  0  0  0  0  0  0  0  0
  152.7573  140.4253  160.7458 H   0  0  0  0  0  0  0  0  0  0  0  0
  154.1344  141.1057  159.8701 H   0  0  0  0  0  0  0  0  0  0  0  0
  1  2  2  0  0  0  0
  2  3  1  0  0  0  0
  2 12  1  0  0  0  0
  3  4  1  0  0  0  0
  3 17  1  0  0  0  0
  3 18  1  0  0  0  0
  4  5  1  0  0  0  0
  4 19  1  0  0  0  0
  5  6  1  0  0  0  0
  5 20  1  0  0  0  0
  5 21  1  0  0  0  0
  6  7  1  0  0  0  0
  6 22  1  0  0  0  0
  6 23  1  0  0  0  0
  7 11  1  0  0  0  0
  7  8  1  0  0  0  0
  8  9  2  0  0  0  0
  8 24  1  0  0  0  0
  9 10  1  0  0  0  0
  9 25  1  0  0  0  0
 10 11  2  0  0  0  0
 10 26  1  0  0  0  0
 12 16  1  0  0  0  0
 12 13  1  0  0  0  0
 13 14  1  0  0  0  0
 13 27  1  0  0  0  0
 13 28  1  0  0  0  0
 14 15  1  0  0  0  0
 14 29  1  0  0  0  0
 14 30  1  0  0  0  0
 15 16  1  0  0  0  0
 15 31  1  0  0  0  0
 15 32  1  0  0  0  0
 16 33  1  0  0  0  0
 16 34  1  0  0  0  0
M  END
> <s_m_source_file>
AV-unprocessed.smi

> <i_m_source_file_index>
3146

> <i_lp_mmshare_version>
43012

> <i_f3d_flags>
0

> <s_epik_input>
W0NIMl0xW0NIMl1bQ0gyXVtDSDJdTjFDKD1PKVtDSDJdW05IXVtDSDJdW0NIMl1uMltjSF1bY0hdW2NIXW4y

> <s_epik_cmdline>
J2VwaWtfcHl0aG9uJywgJy1waCcsICc3LjAnLCAnLXRuJywgJzgnLCAnLW1hJywgJzIwMCcsICctbWV0YWxfYmluZGluZycsICctaW1hZScsICc8aW5maWxlLm1hZT4nLCAnLW9tYWUnLCAnPG91dGZpbGUubWFlPic=

> <r_lp_tautomer_probability>
1

> <r_epik_Ionization_Penalty>
0.734549

> <r_epik_Ionization_Penalty_Charging>
0

> <r_epik_Ionization_Penalty_Neutral>
0.734549

> <r_epik_State_Penalty>
0.75825

> <r_epik_Charging_Adjusted_Penalty>
0.75825

> <i_epik_Tot_Q>
0

> <i_epik_Tot_abs_Q>
0

> <r_epik_Metal_State_Penalty>
0.757003

> <b_epik_Metal_Only>
0

> <s_lp_Force_Field>
OPLS_2005

> <r_lp_Energy>
29.6194

> <b_lp_Chiralities_Consistent>
1

> <s_lp_Variant>
AV-unprocessed.smi:3146-2

> <Gold.Version>
5.8.1

> <Gold.Id.Protein>
6NUR|6NUR_protein|mol2

> <Gold.PLP.Fitness>
43.6948

> <Gold.PLP.PLP>
-38.6688

> <Gold.PLP.part.hbond>
-1.0000

> <Gold.PLP.part.metal>
0.0000

> <Gold.PLP.part.buried>
-4.6375

> <Gold.PLP.part.nonpolar>
-32.9851

> <Gold.PLP.part.repulsive>
1.1357

> <Gold.PLP.ligand.clash>
0.0000

> <Gold.PLP.ligand.torsion>
0.3613

> <Gold.PLP.Chemscore.Hbond>
0.9588

> <Gold.PLP.Chemscore.CHOScore>
0.9547

> <Gold.PLP.Chemscore.Metal>
0.0000

> <Gold.Chemscore.Hbonds>
donor molecule, donor type, donor heavy atom, donor atom, acceptor molecule, acceptor atom, score
      L1  H     4    19       P1  8028  0.98
      L1  C     8    24       P1  7957  1.00

> <Gold.PLP.Chemscore.Internal.Correction>
0.0082

> <Gold.Rescore>
     Score         DG    S(hbond)    S(metal)    S(lipo)     H(rot)  DE(clash)    DE(int)     intcor
     12.36     -14.18       0.98        0.00      86.39       1.82       0.10       1.73       ----

> <Gold.Chemscore.Fitness>
12.3579

> <Gold.Chemscore.DG>
-14.1815

> <Gold.Chemscore.ZeroCoef>
-5.4800

> <Gold.Chemscore.Hbond>
0.9774

> <Gold.Chemscore.Metal>
0.0000

> <Gold.Chemscore.Lipo>
86.3943

> <Gold.Chemscore.Internal_Hbond>
0.0000

> <Gold.Chemscore.DEClash>
0.0980

> <Gold.Chemscore.DEInternal>
1.7256

> <Gold.Chemscore.Rot>
1.8246

> <Gold.Chemscore.Internal.Correction>
   9.000000E+99

> <Gold.Chemscore.Hbonds>
donor molecule, donor type, donor heavy atom, donor atom, acceptor molecule, acceptor atom, score
      L1  H     4    19       P1  8028  0.91
      P1  H  7997  8009       L1     1  0.01

> <Gold.Chemscore.Hbond.Weighted>
-3.2644

> <Gold.Chemscore.Metal.Weighted>
-0.0000

> <Gold.Chemscore.Lipo.Weighted>
-10.1081

> <Gold.Chemscore.Internal_Hbond.Weighted>
0.0000

> <Gold.Chemscore.DEClash.Weighted>
0.0980

> <Gold.Chemscore.DEInternal.Weighted>
1.7256

> <Gold.Chemscore.Rot.Weighted>
4.6710

> <Gold.Chemscore.Internal.Correction.Weighted>
   9.000000E+99

> <Gold.Protein.RotatedTorsions>
[ 6907 6896 6895 6894 ] final  145.88 input  -60.11 | X-H torsion
[ 7974 7965 7964 7962 ] final -101.09 input  175.53 | X-H torsion
[ 8008 7997 7996 7995 ] final  164.73 input   59.86 | X-H torsion
[ 10167 10162 10161 10158 ] final   10.88 input  -65.29 | X-H torsion
[ 10718 10713 10712 10709 ] final  116.22 input   66.30 | X-H torsion
[ 10763 10752 10751 10750 ] final   10.80 input  -60.55 | X-H torsion
[ 11005 11000 10999 10996 ] final  162.74 input  -57.11 | X-H torsion

> <Gold.Protein.ActiveResidues>
 VAL166  LYS551  ARG553  GLY616  TRP617  ASP618  TYR619  PRO620  LYS621  CYS622 
 ASP623  PHE694  ASN695  SER759  ASP760  ASP761  ALA762  ILE779  LEU786  VAL792 
 PHE793  MET794  SER795  GLU796  ALA797  LYS798  CYS799  TRP800  GLU811  SER814 

> <Gold.Protein.RotatedAtoms>
  152.1751  133.4669  159.4928 H   0  0  0  0  0  0  0  0  0  0  0  0  # atno 6907 bound_to 6896
  150.6925  134.1904  159.4292 H   0  0  0  0  0  0  0  0  0  0  0  0  # atno 6908 bound_to 6896
  151.9813  135.0027  160.0608 H   0  0  0  0  0  0  0  0  0  0  0  0  # atno 6909 bound_to 6896
  145.2861  140.9340  143.2904 H   0  0  0  0  0  0  0  0  0  0  0  0  # atno 7974 bound_to 7965
  156.1857  140.1689  156.8190 H   0  0  0  0  0  0  0  0  0  0  0  0  # atno 8008 bound_to 7997
  154.5411  140.0736  156.8544 H   0  0  0  0  0  0  0  0  0  0  0  0  # atno 8009 bound_to 7997
  155.3213  140.3373  155.4243 H   0  0  0  0  0  0  0  0  0  0  0  0  # atno 8010 bound_to 7997
  140.6166  143.8294  150.7126 H   0  0  0  0  0  0  0  0  0  0  0  0  # atno 10167 bound_to 10162
  157.6174  131.1022  150.7441 H   0  0  0  0  0  0  0  0  0  0  0  0  # atno 10718 bound_to 10713
  153.1994  135.6854  153.8251 H   0  0  0  0  0  0  0  0  0  0  0  0  # atno 10763 bound_to 10752
  153.7522  135.3222  155.3324 H   0  0  0  0  0  0  0  0  0  0  0  0  # atno 10764 bound_to 10752
  154.8163  135.4683  154.0753 H   0  0  0  0  0  0  0  0  0  0  0  0  # atno 10765 bound_to 10752
  140.2288  134.8140  157.3295 H   0  0  0  0  0  0  0  0  0  0  0  0  # atno 11005 bound_to 11000
  144.9212  139.4409  143.6540 LP  0  0  0  0  0  0  0  0  0  0  0  0  # atno 17320 bound_to 7965
  146.3200  139.8074  142.8953 LP  0  0  0  0  0  0  0  0  0  0  0  0  # atno 17321 bound_to 7965
  140.1874  143.4064  152.1888 LP  0  0  0  0  0  0  0  0  0  0  0  0  # atno 17342 bound_to 10162
  139.5404  144.7251  151.4753 LP  0  0  0  0  0  0  0  0  0  0  0  0  # atno 17343 bound_to 10162
  156.7806  130.4858  149.5402 LP  0  0  0  0  0  0  0  0  0  0  0  0  # atno 17370 bound_to 10713
  156.1303  130.6173  151.0323 LP  0  0  0  0  0  0  0  0  0  0  0  0  # atno 17371 bound_to 10713
  140.1772  134.4534  155.7794 LP  0  0  0  0  0  0  0  0  0  0  0  0  # atno 17394 bound_to 11000
  141.2219  133.6968  156.7808 LP  0  0  0  0  0  0  0  0  0  0  0  0  # atno 17395 bound_to 11000

$$$$
