AV-unprocessed.smi:848|AV-procd|sdf|3939|dock6
  -GOLD-   22720 1403D 1   1.00000     0.00000
 Structure written by MMmdl.
 46 48  0  0  0  0  0  0  0  0  1 V2000
  154.7865  134.1061  163.5916 C   0  0  0  0  0  0  0  0  0  0  0  0
  154.6677  135.6143  163.5135 C   0  0  0  0  0  0  0  0  0  0  0  0
  154.9947  136.4123  164.6278 C   0  0  0  0  0  0  0  0  0  0  0  0
  154.8819  137.8138  164.5498 C   0  0  0  0  0  0  0  0  0  0  0  0
  155.2329  138.6660  165.7521 C   0  0  0  0  0  0  0  0  0  0  0  0
  154.4449  138.4146  163.3518 C   0  0  0  0  0  0  0  0  0  0  0  0
  154.1165  137.6312  162.2266 C   0  0  0  0  0  0  0  0  0  0  0  0
  153.7028  138.3044  161.0971 O   0  0  0  0  0  0  0  0  0  0  0  0
  153.7464  137.6227  159.8507 C   0  0  0  0  0  0  0  0  0  0  0  0
  153.3330  138.5967  158.7357 C   0  0  2  0  0  0  0  0  0  0  0  0
  154.3006  139.6252  158.6547 O   0  0  0  0  0  0  0  0  0  0  0  0
  151.9478  139.2206  159.0053 C   0  0  0  0  0  0  0  0  0  0  0  0
  151.7209  140.4488  158.2543 N   0  0  0  0  0  0  0  0  0  0  0  0
  151.3432  140.5774  156.9572 C   0  0  0  0  0  0  0  0  0  0  0  0
  151.0894  139.3742  156.0933 C   0  0  0  0  0  0  0  0  0  0  0  0
  150.9898  139.6670  154.7139 O   0  0  0  0  0  0  0  0  0  0  0  0
  151.2071  141.8312  156.5182 N   0  0  0  0  0  0  0  0  0  0  0  0
  151.5234  142.5826  157.6325 C   0  0  0  0  0  0  0  0  0  0  0  0
  151.5659  143.9835  157.8134 C   0  0  0  0  0  0  0  0  0  0  0  0
  151.9181  144.5314  159.0643 C   0  0  0  0  0  0  0  0  0  0  0  0
  152.2318  143.6882  160.1497 C   0  0  0  0  0  0  0  0  0  0  0  0
  152.1975  142.2896  159.9903 C   0  0  0  0  0  0  0  0  0  0  0  0
  151.8460  141.7477  158.7392 C   0  0  0  0  0  0  0  0  0  0  0  0
  154.2306  136.2210  162.3183 C   0  0  0  0  0  0  0  0  0  0  0  0
  154.9876  133.7743  164.6106 H   0  0  0  0  0  0  0  0  0  0  0  0
  155.5987  133.7589  162.9526 H   0  0  0  0  0  0  0  0  0  0  0  0
  153.8614  133.6347  163.2584 H   0  0  0  0  0  0  0  0  0  0  0  0
  155.3319  135.9513  165.5451 H   0  0  0  0  0  0  0  0  0  0  0  0
  154.9543  139.7086  165.5958 H   0  0  0  0  0  0  0  0  0  0  0  0
  156.3051  138.6234  165.9438 H   0  0  0  0  0  0  0  0  0  0  0  0
  154.7103  138.3049  166.6383 H   0  0  0  0  0  0  0  0  0  0  0  0
  154.3593  139.4898  163.2897 H   0  0  0  0  0  0  0  0  0  0  0  0
  154.7718  137.2928  159.6762 H   0  0  0  0  0  0  0  0  0  0  0  0
  153.1067  136.7382  159.8512 H   0  0  0  0  0  0  0  0  0  0  0  0
  153.3087  138.0673  157.7828 H   0  0  0  0  0  0  0  0  0  0  0  0
  153.9253  140.4205  159.0004 H   0  0  0  0  0  0  0  0  0  0  0  0
  151.1581  138.5099  158.7606 H   0  0  0  0  0  0  0  0  0  0  0  0
  151.8332  139.4389  160.0680 H   0  0  0  0  0  0  0  0  0  0  0  0
  151.8941  138.6530  156.2316 H   0  0  0  0  0  0  0  0  0  0  0  0
  150.1629  138.8968  156.4128 H   0  0  0  0  0  0  0  0  0  0  0  0
  150.8672  138.8576  154.2423 H   0  0  0  0  0  0  0  0  0  0  0  0
  151.3266  144.6375  156.9879 H   0  0  0  0  0  0  0  0  0  0  0  0
  151.9475  145.6036  159.1910 H   0  0  0  0  0  0  0  0  0  0  0  0
  152.4997  144.1160  161.1047 H   0  0  0  0  0  0  0  0  0  0  0  0
  152.4402  141.6422  160.8195 H   0  0  0  0  0  0  0  0  0  0  0  0
  153.9893  135.5826  161.4821 H   0  0  0  0  0  0  0  0  0  0  0  0
  1  2  1  0  0  0  0
  1 25  1  0  0  0  0
  1 26  1  0  0  0  0
  1 27  1  0  0  0  0
  2 24  1  0  0  0  0
  2  3  2  0  0  0  0
  3  4  1  0  0  0  0
  3 28  1  0  0  0  0
  4  5  1  0  0  0  0
  4  6  2  0  0  0  0
  5 29  1  0  0  0  0
  5 30  1  0  0  0  0
  5 31  1  0  0  0  0
  6  7  1  0  0  0  0
  6 32  1  0  0  0  0
  7  8  1  0  0  0  0
  7 24  2  0  0  0  0
  8  9  1  0  0  0  0
  9 10  1  0  0  0  0
  9 33  1  0  0  0  0
  9 34  1  0  0  0  0
 10 11  1  0  0  0  0
 10 12  1  0  0  0  0
 10 35  1  0  0  0  0
 11 36  1  0  0  0  0
 12 13  1  0  0  0  0
 12 37  1  0  0  0  0
 12 38  1  0  0  0  0
 13 23  1  0  0  0  0
 13 14  1  0  0  0  0
 14 15  1  0  0  0  0
 14 17  2  0  0  0  0
 15 16  1  0  0  0  0
 15 39  1  0  0  0  0
 15 40  1  0  0  0  0
 16 41  1  0  0  0  0
 17 18  1  0  0  0  0
 18 23  2  0  0  0  0
 18 19  1  0  0  0  0
 19 20  2  0  0  0  0
 19 42  1  0  0  0  0
 20 21  1  0  0  0  0
 20 43  1  0  0  0  0
 21 22  2  0  0  0  0
 21 44  1  0  0  0  0
 22 23  1  0  0  0  0
 22 45  1  0  0  0  0
 24 46  1  0  0  0  0
M  END
> <s_m_source_file>
AV-unprocessed.smi

> <i_m_source_file_index>
848

> <i_lp_mmshare_version>
43012

> <i_f3d_flags>
0

> <s_epik_input>
W0NIM11jMVtjSF1jKFtDSDNdKVtjSF1jKFtjSF0xKU9bQ0gyXVtDQEhdKFtPSF0pW0NIMl1uKGMobjIpW0NIMl1bT0hdKWMoYzIzKVtjSF1bY0hdW2NIXVtjSF0z

> <s_epik_cmdline>
J2VwaWtfcHl0aG9uJywgJy1waCcsICc3LjAnLCAnLXRuJywgJzgnLCAnLW1hJywgJzIwMCcsICctbWV0YWxfYmluZGluZycsICctaW1hZScsICc8aW5maWxlLm1hZT4nLCAnLW9tYWUnLCAnPG91dGZpbGUubWFlPic=

> <r_lp_tautomer_probability>
1

> <r_epik_Ionization_Penalty>
0.0554234

> <r_epik_Ionization_Penalty_Charging>
0

> <r_epik_Ionization_Penalty_Neutral>
0.0554234

> <r_epik_State_Penalty>
0.0476717

> <r_epik_Charging_Adjusted_Penalty>
0.0476717

> <i_epik_Tot_Q>
0

> <i_epik_Tot_abs_Q>
0

> <r_epik_Metal_State_Penalty>
4.96399e-05

> <b_epik_Metal_Only>
0

> <s_lp_Force_Field>
OPLS_2005

> <r_lp_Energy>
17.4445

> <b_lp_Chiralities_Consistent>
1

> <s_lp_Variant>
AV-unprocessed.smi:848-1

> <Gold.Version>
5.8.1

> <Gold.Id.Protein>
6NUR|6NUR_protein|mol2

> <Gold.PLP.Fitness>
52.0559

> <Gold.PLP.PLP>
-47.8432

> <Gold.PLP.part.hbond>
-1.8696

> <Gold.PLP.part.metal>
0.0000

> <Gold.PLP.part.buried>
-5.3388

> <Gold.PLP.part.nonpolar>
-40.8428

> <Gold.PLP.part.repulsive>
0.0695

> <Gold.PLP.ligand.clash>
0.0000

> <Gold.PLP.ligand.torsion>
0.8897

> <Gold.PLP.Chemscore.Hbond>
1.9588

> <Gold.PLP.Chemscore.CHOScore>
0.0000

> <Gold.PLP.Chemscore.Metal>
0.0000

> <Gold.Chemscore.Hbonds>
donor molecule, donor type, donor heavy atom, donor atom, acceptor molecule, acceptor atom, score
      P1  H  7989  7998       L1    16  1.00
      P1  H  7997  8009       L1    11  1.00

> <Gold.PLP.Chemscore.Internal.Correction>
0.1160

> <Gold.Rescore>
     Score         DG    S(hbond)    S(metal)    S(lipo)     H(rot)  DE(clash)    DE(int)     intcor
     18.96     -20.00       1.87        0.00     135.57       2.96       0.14       0.90       ----

> <Gold.Chemscore.Fitness>
18.9642

> <Gold.Chemscore.DG>
-20.0033

> <Gold.Chemscore.ZeroCoef>
-5.4800

> <Gold.Chemscore.Hbond>
1.8650

> <Gold.Chemscore.Metal>
0.0000

> <Gold.Chemscore.Lipo>
135.5706

> <Gold.Chemscore.Internal_Hbond>
0.0000

> <Gold.Chemscore.DEClash>
0.1438

> <Gold.Chemscore.DEInternal>
0.8953

> <Gold.Chemscore.Rot>
2.9561

> <Gold.Chemscore.Internal.Correction>
   9.000000E+99

> <Gold.Chemscore.Hbonds>
donor molecule, donor type, donor heavy atom, donor atom, acceptor molecule, acceptor atom, score
      P1  H  7989  7998       L1    16  0.55
      P1  H  7997  8009       L1    11  0.40

> <Gold.Chemscore.Hbond.Weighted>
-6.2292

> <Gold.Chemscore.Metal.Weighted>
-0.0000

> <Gold.Chemscore.Lipo.Weighted>
-15.8618

> <Gold.Chemscore.Internal_Hbond.Weighted>
0.0000

> <Gold.Chemscore.DEClash.Weighted>
0.1438

> <Gold.Chemscore.DEInternal.Weighted>
0.8953

> <Gold.Chemscore.Rot.Weighted>
7.5677

> <Gold.Chemscore.Internal.Correction.Weighted>
   9.000000E+99

> <Gold.Protein.RotatedTorsions>
[ 6907 6896 6895 6894 ] final   80.52 input  -60.11 | X-H torsion
[ 7974 7965 7964 7962 ] final  -98.84 input  175.53 | X-H torsion
[ 8008 7997 7996 7995 ] final  143.68 input   59.86 | X-H torsion
[ 10167 10162 10161 10158 ] final  -82.61 input  -65.29 | X-H torsion
[ 10718 10713 10712 10709 ] final  107.82 input   66.30 | X-H torsion
[ 10763 10752 10751 10750 ] final   69.41 input  -60.55 | X-H torsion
[ 11005 11000 10999 10996 ] final  -48.06 input  -57.11 | X-H torsion

> <Gold.Protein.ActiveResidues>
 VAL166  LYS551  ARG553  GLY616  TRP617  ASP618  TYR619  PRO620  LYS621  CYS622 
 ASP623  PHE694  ASN695  SER759  ASP760  ASP761  ALA762  ILE779  LEU786  VAL792 
 PHE793  MET794  SER795  GLU796  ALA797  LYS798  CYS799  TRP800  GLU811  SER814 

> <Gold.Protein.RotatedAtoms>
  152.5237  134.3345  159.9194 H   0  0  0  0  0  0  0  0  0  0  0  0  # atno 6907 bound_to 6896
  151.3294  133.4000  159.2669 H   0  0  0  0  0  0  0  0  0  0  0  0  # atno 6908 bound_to 6896
  150.9893  134.9249  159.7947 H   0  0  0  0  0  0  0  0  0  0  0  0  # atno 6909 bound_to 6896
  145.3154  140.9410  143.2746 H   0  0  0  0  0  0  0  0  0  0  0  0  # atno 7974 bound_to 7965
  156.2925  140.2256  156.4930 H   0  0  0  0  0  0  0  0  0  0  0  0  # atno 8008 bound_to 7997
  154.7754  140.0464  157.1106 H   0  0  0  0  0  0  0  0  0  0  0  0  # atno 8009 bound_to 7997
  154.9823  140.3080  155.4944 H   0  0  0  0  0  0  0  0  0  0  0  0  # atno 8010 bound_to 7997
  140.4304  143.2551  151.8767 H   0  0  0  0  0  0  0  0  0  0  0  0  # atno 10167 bound_to 10162
  157.6612  131.0881  150.6214 H   0  0  0  0  0  0  0  0  0  0  0  0  # atno 10718 bound_to 10713
  153.0286  135.5212  154.7284 H   0  0  0  0  0  0  0  0  0  0  0  0  # atno 10763 bound_to 10752
  154.6319  135.2901  155.0209 H   0  0  0  0  0  0  0  0  0  0  0  0  # atno 10764 bound_to 10752
  154.1158  135.6615  153.4946 H   0  0  0  0  0  0  0  0  0  0  0  0  # atno 10765 bound_to 10752
  141.0678  133.6688  156.3387 H   0  0  0  0  0  0  0  0  0  0  0  0  # atno 11005 bound_to 11000
  144.8982  139.4684  143.6645 LP  0  0  0  0  0  0  0  0  0  0  0  0  # atno 17320 bound_to 7965
  146.3102  139.7720  142.9025 LP  0  0  0  0  0  0  0  0  0  0  0  0  # atno 17321 bound_to 7965
  139.4785  144.5341  151.8624 LP  0  0  0  0  0  0  0  0  0  0  0  0  # atno 17342 bound_to 10162
  140.4434  144.1955  150.5892 LP  0  0  0  0  0  0  0  0  0  0  0  0  # atno 17343 bound_to 10162
  156.6517  130.4487  149.5717 LP  0  0  0  0  0  0  0  0  0  0  0  0  # atno 17370 bound_to 10713
  156.2133  130.6692  151.1292 LP  0  0  0  0  0  0  0  0  0  0  0  0  # atno 17371 bound_to 10713
  140.5736  134.5815  157.5463 LP  0  0  0  0  0  0  0  0  0  0  0  0  # atno 17394 bound_to 11000
  139.9494  134.7644  156.0485 LP  0  0  0  0  0  0  0  0  0  0  0  0  # atno 17395 bound_to 11000

$$$$
