AV-unprocessed.smi:762|AV-procd|sdf|3633|dock4
  -GOLD-   22720 1 23D 1   1.00000     0.00000
 Structure written by MMmdl.
 42 44  0  0  0  0  0  0  0  0  1 V2000
  149.8799  141.7091  157.2931 O   0  0  0  0  0  0  0  0  0  0  0  0
  150.9982  141.2645  157.0345 C   0  0  0  0  0  0  0  0  0  0  0  0
  152.2284  141.8296  157.7445 C   0  0  0  0  0  0  0  0  0  0  0  0
  151.9378  142.9300  158.7501 C   0  0  0  0  0  0  0  0  0  0  0  0
  151.2172  144.0216  158.4270 C   0  0  0  0  0  0  0  0  0  0  0  0
  150.9458  145.1746  159.3763 C   0  0  0  0  0  0  0  0  0  0  0  0
  151.8817  145.1558  160.5963 C   0  0  0  0  0  0  0  0  0  0  0  0
  152.0098  143.7406  161.1732 C   0  0  0  0  0  0  0  0  0  0  0  0
  152.5616  142.7518  160.1298 C   0  0  0  0  0  0  0  0  0  0  0  0
  151.2170  140.2922  156.1360 N   0  0  0  0  0  0  0  0  0  0  0  0
  150.1829  139.6417  155.3411 C   0  0  0  0  0  0  0  0  0  0  0  0
  149.3716  140.6603  154.5228 C   0  0  0  0  0  0  0  0  0  0  0  0
  148.0648  140.1390  154.1667 N   0  0  0  0  0  0  0  0  0  0  0  0
  147.7694  138.9735  153.5713 C   0  0  0  0  0  0  0  0  0  0  0  0
  146.4723  138.7665  153.3483 N   0  0  0  0  0  0  0  0  0  0  0  0
  145.8514  139.8995  153.8348 N   0  0  0  0  0  0  0  0  0  0  0  0
  146.8339  140.6700  154.3169 C   0  0  0  0  0  0  0  0  0  0  0  0
  146.6066  142.0214  154.9156 C   0  0  0  0  0  0  0  0  0  0  0  0
  145.2095  142.5199  155.2122 C   0  0  0  0  0  0  0  0  0  0  0  0
  146.0097  143.1477  154.1010 C   0  0  0  0  0  0  0  0  0  0  0  0
  152.7085  140.9999  158.2653 H   0  0  0  0  0  0  0  0  0  0  0  0
  152.9617  142.1855  157.0194 H   0  0  0  0  0  0  0  0  0  0  0  0
  150.7919  144.1099  157.4379 H   0  0  0  0  0  0  0  0  0  0  0  0
  151.0577  146.1163  158.8387 H   0  0  0  0  0  0  0  0  0  0  0  0
  149.9053  145.1122  159.6960 H   0  0  0  0  0  0  0  0  0  0  0  0
  152.8699  145.5131  160.3030 H   0  0  0  0  0  0  0  0  0  0  0  0
  151.5168  145.8461  161.3574 H   0  0  0  0  0  0  0  0  0  0  0  0
  152.6519  143.7469  162.0546 H   0  0  0  0  0  0  0  0  0  0  0  0
  151.0286  143.4032  161.5098 H   0  0  0  0  0  0  0  0  0  0  0  0
  152.3984  141.7312  160.4773 H   0  0  0  0  0  0  0  0  0  0  0  0
  153.6397  142.8817  160.0298 H   0  0  0  0  0  0  0  0  0  0  0  0
  152.1687  139.9899  155.9845 H   0  0  0  0  0  0  0  0  0  0  0  0
  150.6340  138.8939  154.6863 H   0  0  0  0  0  0  0  0  0  0  0  0
  149.5265  139.0999  156.0218 H   0  0  0  0  0  0  0  0  0  0  0  0
  149.2496  141.5899  155.0794 H   0  0  0  0  0  0  0  0  0  0  0  0
  149.8948  140.9153  153.6005 H   0  0  0  0  0  0  0  0  0  0  0  0
  148.5263  138.2563  153.2891 H   0  0  0  0  0  0  0  0  0  0  0  0
  147.3977  142.2672  155.6214 H   0  0  0  0  0  0  0  0  0  0  0  0
  144.3710  141.8889  154.9254 H   0  0  0  0  0  0  0  0  0  0  0  0
  145.0677  143.1000  156.1217 H   0  0  0  0  0  0  0  0  0  0  0  0
  146.4019  144.1490  154.2665 H   0  0  0  0  0  0  0  0  0  0  0  0
  145.7038  142.9297  153.0795 H   0  0  0  0  0  0  0  0  0  0  0  0
  1  2  2  0  0  0  0
  2  3  1  0  0  0  0
  2 10  1  0  0  0  0
  3  4  1  0  0  0  0
  3 21  1  0  0  0  0
  3 22  1  0  0  0  0
  4  9  1  0  0  0  0
  4  5  2  0  0  0  0
  5  6  1  0  0  0  0
  5 23  1  0  0  0  0
  6  7  1  0  0  0  0
  6 24  1  0  0  0  0
  6 25  1  0  0  0  0
  7  8  1  0  0  0  0
  7 26  1  0  0  0  0
  7 27  1  0  0  0  0
  8  9  1  0  0  0  0
  8 28  1  0  0  0  0
  8 29  1  0  0  0  0
  9 30  1  0  0  0  0
  9 31  1  0  0  0  0
 10 11  1  0  0  0  0
 10 32  1  0  0  0  0
 11 12  1  0  0  0  0
 11 33  1  0  0  0  0
 11 34  1  0  0  0  0
 12 13  1  0  0  0  0
 12 35  1  0  0  0  0
 12 36  1  0  0  0  0
 13 17  1  0  0  0  0
 13 14  1  0  0  0  0
 14 15  2  0  0  0  0
 14 37  1  0  0  0  0
 15 16  1  0  0  0  0
 16 17  2  0  0  0  0
 17 18  1  0  0  0  0
 18 20  1  0  0  0  0
 18 19  1  0  0  0  0
 18 38  1  0  0  0  0
 19 20  1  0  0  0  0
 19 39  1  0  0  0  0
 19 40  1  0  0  0  0
 20 41  1  0  0  0  0
 20 42  1  0  0  0  0
M  END
> <s_m_source_file>
AV-unprocessed.smi

> <i_m_source_file_index>
762

> <i_lp_mmshare_version>
43012

> <i_f3d_flags>
0

> <s_epik_input>
W0NIMl0xW0NIMl1bQ0gyXVtDSDJdW0NIXT1DMVtDSDJdQyg9TylbTkhdW0NIMl1bQ0gyXW4yW2NIXW5uYzJbQ0hdM1tDSDJdW0NIMl0z

> <s_epik_cmdline>
J2VwaWtfcHl0aG9uJywgJy1waCcsICc3LjAnLCAnLXRuJywgJzgnLCAnLW1hJywgJzIwMCcsICctbWV0YWxfYmluZGluZycsICctaW1hZScsICc8aW5maWxlLm1hZT4nLCAnLW9tYWUnLCAnPG91dGZpbGUubWFlPic=

> <r_lp_tautomer_probability>
1

> <r_epik_Ionization_Penalty>
0.000270947

> <r_epik_Ionization_Penalty_Charging>
0

> <r_epik_Ionization_Penalty_Neutral>
0.000270947

> <r_epik_State_Penalty>
-0

> <r_epik_Charging_Adjusted_Penalty>
0

> <i_epik_Tot_Q>
0

> <i_epik_Tot_abs_Q>
0

> <r_epik_Metal_State_Penalty>
-0

> <b_epik_Metal_Only>
0

> <s_lp_Force_Field>
OPLS_2005

> <r_lp_Energy>
11.3747

> <b_lp_Chiralities_Consistent>
1

> <s_lp_Variant>
AV-unprocessed.smi:762-1

> <Gold.Version>
5.8.1

> <Gold.Id.Protein>
6NUR|6NUR_protein|mol2

> <Gold.PLP.Fitness>
40.6439

> <Gold.PLP.PLP>
-38.1248

> <Gold.PLP.part.hbond>
0.0000

> <Gold.PLP.part.metal>
0.0000

> <Gold.PLP.part.buried>
-5.4776

> <Gold.PLP.part.nonpolar>
-35.4881

> <Gold.PLP.part.repulsive>
4.0238

> <Gold.PLP.ligand.clash>
0.0000

> <Gold.PLP.ligand.torsion>
0.3403

> <Gold.PLP.Chemscore.Hbond>
0.0000

> <Gold.PLP.Chemscore.CHOScore>
1.0000

> <Gold.PLP.Chemscore.Metal>
0.0000

> <Gold.Chemscore.Hbonds>
donor molecule, donor type, donor heavy atom, donor atom, acceptor molecule, acceptor atom, score
      L1  C    14    37       P1  7948  1.00

> <Gold.PLP.Chemscore.Internal.Correction>
0.1997

> <Gold.Rescore>
     Score         DG    S(hbond)    S(metal)    S(lipo)     H(rot)  DE(clash)    DE(int)     intcor
      9.11     -12.75       0.00        0.00     108.16       2.10       1.58       2.07       ----

> <Gold.Chemscore.Fitness>
9.1061

> <Gold.Chemscore.DG>
-12.7508

> <Gold.Chemscore.ZeroCoef>
-5.4800

> <Gold.Chemscore.Hbond>
0.0000

> <Gold.Chemscore.Metal>
0.0000

> <Gold.Chemscore.Lipo>
108.1593

> <Gold.Chemscore.Internal_Hbond>
0.0000

> <Gold.Chemscore.DEClash>
1.5793

> <Gold.Chemscore.DEInternal>
2.0654

> <Gold.Chemscore.Rot>
2.1031

> <Gold.Chemscore.Internal.Correction>
   9.000000E+99

> <Gold.Chemscore.Hbond.Weighted>
-0.0000

> <Gold.Chemscore.Metal.Weighted>
-0.0000

> <Gold.Chemscore.Lipo.Weighted>
-12.6546

> <Gold.Chemscore.Internal_Hbond.Weighted>
0.0000

> <Gold.Chemscore.DEClash.Weighted>
1.5793

> <Gold.Chemscore.DEInternal.Weighted>
2.0654

> <Gold.Chemscore.Rot.Weighted>
5.3838

> <Gold.Chemscore.Internal.Correction.Weighted>
   9.000000E+99

> <Gold.Protein.RotatedTorsions>
[ 6907 6896 6895 6894 ] final -168.71 input  -60.11 | X-H torsion
[ 7974 7965 7964 7962 ] final  -82.61 input  175.53 | X-H torsion
[ 8008 7997 7996 7995 ] final -128.12 input   59.86 | X-H torsion
[ 10167 10162 10161 10158 ] final   38.89 input  -65.29 | X-H torsion
[ 10718 10713 10712 10709 ] final -138.56 input   66.30 | X-H torsion
[ 10763 10752 10751 10750 ] final  165.00 input  -60.55 | X-H torsion
[ 11005 11000 10999 10996 ] final  139.26 input  -57.11 | X-H torsion

> <Gold.Protein.ActiveResidues>
 VAL166  LYS551  ARG553  GLY616  TRP617  ASP618  TYR619  PRO620  LYS621  CYS622 
 ASP623  PHE694  ASN695  SER759  ASP760  ASP761  ALA762  ILE779  LEU786  VAL792 
 PHE793  MET794  SER795  GLU796  ALA797  LYS798  CYS799  TRP800  GLU811  SER814 

> <Gold.Protein.RotatedAtoms>
  151.4799  133.3549  159.2836 H   0  0  0  0  0  0  0  0  0  0  0  0  # atno 6907 bound_to 6896
  150.8904  134.8309  159.7300 H   0  0  0  0  0  0  0  0  0  0  0  0  # atno 6908 bound_to 6896
  152.4819  134.4708  159.9686 H   0  0  0  0  0  0  0  0  0  0  0  0  # atno 6909 bound_to 6896
  145.5310  140.9521  143.1603 H   0  0  0  0  0  0  0  0  0  0  0  0  # atno 7974 bound_to 7965
  155.2575  140.0434  157.2993 H   0  0  0  0  0  0  0  0  0  0  0  0  # atno 8008 bound_to 7997
  154.5731  140.2379  155.8132 H   0  0  0  0  0  0  0  0  0  0  0  0  # atno 8009 bound_to 7997
  156.2137  140.2991  155.9799 H   0  0  0  0  0  0  0  0  0  0  0  0  # atno 8010 bound_to 7997
  140.3893  144.1875  150.6130 H   0  0  0  0  0  0  0  0  0  0  0  0  # atno 10167 bound_to 10162
  156.3008  130.7427  151.1478 H   0  0  0  0  0  0  0  0  0  0  0  0  # atno 10718 bound_to 10713
  154.3174  135.2756  155.2536 H   0  0  0  0  0  0  0  0  0  0  0  0  # atno 10763 bound_to 10752
  154.4905  135.5835  153.6459 H   0  0  0  0  0  0  0  0  0  0  0  0  # atno 10764 bound_to 10752
  152.9880  135.6133  154.3356 H   0  0  0  0  0  0  0  0  0  0  0  0  # atno 10765 bound_to 10752
  140.0242  134.9383  157.0534 H   0  0  0  0  0  0  0  0  0  0  0  0  # atno 11005 bound_to 11000
  144.7626  139.6921  143.7228 LP  0  0  0  0  0  0  0  0  0  0  0  0  # atno 17320 bound_to 7965
  146.2044  139.5359  142.9722 LP  0  0  0  0  0  0  0  0  0  0  0  0  # atno 17321 bound_to 7965
  140.4857  143.2364  151.8892 LP  0  0  0  0  0  0  0  0  0  0  0  0  # atno 17342 bound_to 10162
  139.4790  144.5221  151.8786 LP  0  0  0  0  0  0  0  0  0  0  0  0  # atno 17343 bound_to 10162
  157.7367  131.0559  150.5397 LP  0  0  0  0  0  0  0  0  0  0  0  0  # atno 17370 bound_to 10713
  156.5525  130.4235  149.6101 LP  0  0  0  0  0  0  0  0  0  0  0  0  # atno 17371 bound_to 10713
  140.4336  134.1755  155.7169 LP  0  0  0  0  0  0  0  0  0  0  0  0  # atno 17394 bound_to 11000
  141.1792  133.8449  157.1316 LP  0  0  0  0  0  0  0  0  0  0  0  0  # atno 17395 bound_to 11000

$$$$
