#       Name:                AV-unprocessed.smi:1983
#       Creating user name   scv26
#       Creation time:       Fri Mar 27 10:22:17 2020


#       File generated by GOLD software.
#

@<TRIPOS>MOLECULE
AV-unprocessed.smi:1983
    57    58     1
SMALL
NO_CHARGES


@<TRIPOS>ATOM
      1 ****        -4.3507   1.4857   2.1446 C.3            1 S1                 0.0000
      2 ****        -3.8894   1.4622   3.6127 C.3            1 S1                 0.0000
      3 ****        -4.9753   0.9171   4.5561 C.3            1 S1                 0.0000
      4 ****        -6.0295   1.8464   4.6883 O.3            1 S1                 0.0000
      5 ****        -2.6830   0.6514   3.7543 N.am           1 S1                 0.0000
      6 ****        -1.4371   1.0608   3.4768 C.2            1 S1                 0.0000
      7 ****        -1.1556   2.1837   3.0574 O.2            1 S1                 0.0000
      8 ****        -0.5344   0.0971   3.7055 N.am           1 S1                 0.0000
      9 ****         0.8979   0.2303   3.4675 C.3            1 S1                 0.0000
     10 ****         1.2692   0.0560   2.0057 C.ar           1 S1                 0.0000
     11 ****         1.8361   1.1150   1.2707 C.ar           1 S1                 0.0000
     12 ****         2.1568   0.9081  -0.0844 C.ar           1 S1                 0.0000
     13 ****         1.9031  -0.3553  -0.6691 C.ar           1 S1                 0.0000
     14 ****         2.2193  -0.5813  -2.0255 N.3            1 S1                 0.0000
     15 ****         1.6218   0.3555  -2.9722 C.3            1 S1                 0.0000
     16 ****         2.2795   0.2125  -4.3581 C.3            1 S1                 0.0000
     17 ****         1.5938   1.0881  -5.4121 C.3            1 S1                 0.0000
     18 ****         2.1954  -1.1459  -4.7820 O.3            1 S1                 0.0000
     19 ****         2.8787  -2.0349  -3.9020 C.3            1 S1                 0.0000
     20 ****         2.8117  -3.4464  -4.4939 C.3            1 S1                 0.0000
     21 ****         2.2299  -1.9603  -2.5074 C.3            1 S1                 0.0000
     22 ****         1.3615  -1.3733   0.0447 N.ar           1 S1                 0.0000
     23 ****         1.0515  -1.1680   1.3421 C.ar           1 S1                 0.0000
     24 ****        -5.2419   2.1014   2.0222 H              1 S1                 0.0000
     25 ****        -4.5874   0.4838   1.7857 H              1 S1                 0.0000
     26 ****        -3.5805   1.8991   1.4928 H              1 S1                 0.0000
     27 ****        -3.6511   2.4813   3.9242 H              1 S1                 0.0000
     28 ****        -5.3674  -0.0353   4.1973 H              1 S1                 0.0000
     29 ****        -4.5626   0.7420   5.5505 H              1 S1                 0.0000
     30 ****        -6.6726   1.4893   5.2814 H              1 S1                 0.0000
     31 ****        -2.8083  -0.2915   4.0920 H              1 S1                 0.0000
     32 ****        -0.8604  -0.7928   4.0529 H              1 S1                 0.0000
     33 ****         1.2544   1.1928   3.8388 H              1 S1                 0.0000
     34 ****         1.4146  -0.5331   4.0493 H              1 S1                 0.0000
     35 ****         2.0221   2.0727   1.7343 H              1 S1                 0.0000
     36 ****         2.6030   1.7101  -0.6533 H              1 S1                 0.0000
     37 ****         0.5529   0.1483  -3.0402 H              1 S1                 0.0000
     38 ****         1.7229   1.3857  -2.6328 H              1 S1                 0.0000
     39 ****         3.3299   0.5030  -4.2968 H              1 S1                 0.0000
     40 ****         1.6379   2.1417  -5.1355 H              1 S1                 0.0000
     41 ****         0.5442   0.8162  -5.5290 H              1 S1                 0.0000
     42 ****         2.0767   0.9789  -6.3835 H              1 S1                 0.0000
     43 ****         3.9269  -1.7373  -3.8359 H              1 S1                 0.0000
     44 ****         3.3352  -4.1628  -3.8603 H              1 S1                 0.0000
     45 ****         3.2736  -3.4768  -5.4810 H              1 S1                 0.0000
     46 ****         1.7797  -3.7829  -4.5982 H              1 S1                 0.0000
     47 ****         2.7843  -2.5946  -1.8143 H              1 S1                 0.0000
     48 ****         1.2064  -2.3359  -2.5474 H              1 S1                 0.0000
     49 ****         0.6181  -2.0071   1.8659 H              1 S1                 0.0000
     50 ****        -6.4487   2.0099   3.7953 LP             1 S1                 0.0000
     51 ****        -5.6759   2.7076   5.0533 LP             1 S1                 0.0000
     52 ****        -1.8797   2.8560   2.9036 LP             1 S1                 0.0000
     53 ****        -0.2029   2.4233   2.8706 LP             1 S1                 0.0000
     54 ****         3.1941  -0.3601  -1.9988 LP             1 S1                 0.0000
     55 ****         2.5995  -1.2232  -5.6934 LP             1 S1                 0.0000
     56 ****         1.2319  -1.4107  -4.8210 LP             1 S1                 0.0000
     57 ****         1.1945  -2.2616  -0.3832 LP             1 S1                 0.0000
@<TRIPOS>BOND
    1    1    2 1     
    2    1   24 1     
    3    1   25 1     
    4    1   26 1     
    5    2    3 1     
    6    2    5 1     
    7    2   27 1     
    8    3    4 1     
    9    3   28 1     
   10    3   29 1     
   11    4   30 1     
   12    5    6 am    
   13    5   31 1     
   14    6    7 2     
   15    6    8 am    
   16    8    9 1     
   17    8   32 1     
   18    9   10 1     
   19    9   33 1     
   20    9   34 1     
   21   10   23 ar    
   22   10   11 ar    
   23   11   12 ar    
   24   11   35 1     
   25   12   13 ar    
   26   12   36 1     
   27   13   14 1     
   28   13   22 ar    
   29   14   21 1     
   30   14   15 1     
   31   15   16 1     
   32   15   37 1     
   33   15   38 1     
   34   16   17 1     
   35   16   18 1     
   36   16   39 1     
   37   17   40 1     
   38   17   41 1     
   39   17   42 1     
   40   18   19 1     
   41   19   20 1     
   42   19   21 1     
   43   19   43 1     
   44   20   44 1     
   45   20   45 1     
   46   20   46 1     
   47   21   47 1     
   48   21   48 1     
   49   22   23 ar    
   50   23   49 1     
   51    4   50 1     
   52    4   51 1     
   53    7   52 1     
   54    7   53 1     
   55   14   54 1     
   56   18   55 1     
   57   18   56 1     
   58   22   57 1     
@<TRIPOS>SUBSTRUCTURE
      1 S1             1
@<TRIPOS>SET
LONE_PAIRS      STATIC     ATOMS    <user>   **** ""
8 50 51 52 53 54 55 56 57
DONOR_HYDROGENS      STATIC     ATOMS    <user>   **** ""
3 30 31 32
ATOM$BLUE        STATIC     ATOMS    COLORGROUP SYSTEM
8 50 51 52 53 54 55 56 57
ATOM$RED        STATIC     ATOMS    COLORGROUP SYSTEM
3 30 31 32
