AV-unprocessed.smi:1954|AV-procd|sdf|7894|dock1
  -GOLD-   2272010 53D 1   1.00000     0.00000
 Structure written by MMmdl.
 44 46  0  0  0  0  0  0  0  0  1 V2000
  150.8008  141.2465  156.9247 O   0  0  0  0  0  0  0  0  0  0  0  0
  150.0670  142.1891  156.6257 C   0  0  0  0  0  0  0  0  0  0  0  0
  149.3745  142.2488  155.4814 N   0  0  0  0  0  0  0  0  0  0  0  0
  149.3847  141.2172  154.4485 C   0  0  0  0  0  0  0  0  0  0  0  0
  148.9651  139.8212  155.0117 C   0  0  1  0  0  0  0  0  0  0  0  0
  150.1223  139.1710  155.7006 N   0  0  0  0  0  0  0  0  0  0  0  0
  149.8796  137.8272  156.2456 C   0  0  0  0  0  0  0  0  0  0  0  0
  151.0977  137.2728  157.0044 C   0  0  0  0  0  0  0  0  0  0  0  0
  152.2345  137.2656  156.1519 O   0  0  0  0  0  0  0  0  0  0  0  0
  152.5489  138.5640  155.6678 C   0  0  0  0  0  0  0  0  0  0  0  0
  151.3488  139.1313  154.8921 C   0  0  0  0  0  0  0  0  0  0  0  0
  147.7362  140.0418  155.9413 C   0  0  0  0  0  0  0  0  0  0  0  0
  146.5121  140.3930  155.0882 C   0  0  0  0  0  0  0  0  0  0  0  0
  146.6848  139.5250  153.5113 S   0  0  0  0  0  0  0  0  0  0  0  0
  148.3826  138.9806  153.8469 C   0  0  0  0  0  0  0  0  0  0  0  0
  149.8464  143.2770  157.3848 N   0  0  0  0  0  0  0  0  0  0  0  0
  150.4048  143.5905  158.6526 C   0  0  0  0  0  0  0  0  0  0  0  0
  150.1822  144.9144  159.0947 C   0  0  0  0  0  0  0  0  0  0  0  0
  150.6977  145.3254  160.3392 C   0  0  0  0  0  0  0  0  0  0  0  0
  151.4250  144.4013  161.1104 C   0  0  0  0  0  0  0  0  0  0  0  0
  151.6015  143.1033  160.5968 C   0  0  0  0  0  0  0  0  0  0  0  0
  151.1075  142.7070  159.4048 N   0  0  0  0  0  0  0  0  0  0  0  0
  148.7906  143.0547  155.3112 H   0  0  0  0  0  0  0  0  0  0  0  0
  148.7305  141.5319  153.6357 H   0  0  0  0  0  0  0  0  0  0  0  0
  150.3751  141.1841  153.9952 H   0  0  0  0  0  0  0  0  0  0  0  0
  149.0539  137.8339  156.9528 H   0  0  0  0  0  0  0  0  0  0  0  0
  149.6173  137.1307  155.4502 H   0  0  0  0  0  0  0  0  0  0  0  0
  151.3046  137.8707  157.8933 H   0  0  0  0  0  0  0  0  0  0  0  0
  150.9014  136.2555  157.3427 H   0  0  0  0  0  0  0  0  0  0  0  0
  152.8156  139.2180  156.4995 H   0  0  0  0  0  0  0  0  0  0  0  0
  153.4219  138.4990  155.0188 H   0  0  0  0  0  0  0  0  0  0  0  0
  151.1867  138.5275  153.9985 H   0  0  0  0  0  0  0  0  0  0  0  0
  151.6280  140.1260  154.5523 H   0  0  0  0  0  0  0  0  0  0  0  0
  147.4648  139.1265  156.4621 H   0  0  0  0  0  0  0  0  0  0  0  0
  147.9175  140.7918  156.7117 H   0  0  0  0  0  0  0  0  0  0  0  0
  145.5813  140.1126  155.5816 H   0  0  0  0  0  0  0  0  0  0  0  0
  146.4659  141.4654  154.8975 H   0  0  0  0  0  0  0  0  0  0  0  0
  148.9855  139.0454  152.9406 H   0  0  0  0  0  0  0  0  0  0  0  0
  148.3176  137.9257  154.1078 H   0  0  0  0  0  0  0  0  0  0  0  0
  149.2054  143.9613  157.0118 H   0  0  0  0  0  0  0  0  0  0  0  0
  149.6215  145.6118  158.4893 H   0  0  0  0  0  0  0  0  0  0  0  0
  150.5372  146.3325  160.6950 H   0  0  0  0  0  0  0  0  0  0  0  0
  151.8366  144.6791  162.0693 H   0  0  0  0  0  0  0  0  0  0  0  0
  152.1536  142.3632  161.1569 H   0  0  0  0  0  0  0  0  0  0  0  0
  1  2  2  0  0  0  0
  2  3  1  0  0  0  0
  2 16  1  0  0  0  0
  3  4  1  0  0  0  0
  3 23  1  0  0  0  0
  4  5  1  0  0  0  0
  4 24  1  0  0  0  0
  4 25  1  0  0  0  0
  5 15  1  0  0  0  0
  5  6  1  0  0  0  0
  5 12  1  0  0  0  0
  6 11  1  0  0  0  0
  6  7  1  0  0  0  0
  7  8  1  0  0  0  0
  7 26  1  0  0  0  0
  7 27  1  0  0  0  0
  8  9  1  0  0  0  0
  8 28  1  0  0  0  0
  8 29  1  0  0  0  0
  9 10  1  0  0  0  0
 10 11  1  0  0  0  0
 10 30  1  0  0  0  0
 10 31  1  0  0  0  0
 11 32  1  0  0  0  0
 11 33  1  0  0  0  0
 12 13  1  0  0  0  0
 12 34  1  0  0  0  0
 12 35  1  0  0  0  0
 13 14  1  0  0  0  0
 13 36  1  0  0  0  0
 13 37  1  0  0  0  0
 14 15  1  0  0  0  0
 15 38  1  0  0  0  0
 15 39  1  0  0  0  0
 16 17  1  0  0  0  0
 16 40  1  0  0  0  0
 17 22  1  0  0  0  0
 17 18  2  0  0  0  0
 18 19  1  0  0  0  0
 18 41  1  0  0  0  0
 19 20  2  0  0  0  0
 19 42  1  0  0  0  0
 20 21  1  0  0  0  0
 20 43  1  0  0  0  0
 21 22  2  0  0  0  0
 21 44  1  0  0  0  0
M  END
> <s_m_source_file>
AV-unprocessed.smi

> <i_m_source_file_index>
1954

> <i_lp_mmshare_version>
43012

> <i_f3d_flags>
0

> <s_epik_input>
bjFbY0hdW2NIXVtjSF1bY0hdYzFbTkhdQyg9TylbTkhdW0NIMl1bQ0BdMihbQ0gyXVtDSDJdU1tDSDJdMilOM1tDSDJdW0NIMl1PW0NIMl1bQ0gyXTM=

> <s_epik_cmdline>
J2VwaWtfcHl0aG9uJywgJy1waCcsICc3LjAnLCAnLXRuJywgJzgnLCAnLW1hJywgJzIwMCcsICctbWV0YWxfYmluZGluZycsICctaW1hZScsICc8aW5maWxlLm1hZT4nLCAnLW9tYWUnLCAnPG91dGZpbGUubWFlPic=

> <r_epik_Ionization_Penalty>
0.0195535

> <r_epik_Ionization_Penalty_Charging>
0

> <r_epik_Ionization_Penalty_Neutral>
0.0195535

> <r_epik_State_Penalty>
0.0155843

> <r_epik_Charging_Adjusted_Penalty>
0.0155843

> <i_epik_Tot_Q>
0

> <i_epik_Tot_abs_Q>
0

> <r_epik_Metal_State_Penalty>
0.0155842

> <b_epik_Metal_Only>
0

> <s_lp_Force_Field>
OPLS_2005

> <r_lp_Energy>
55.5144

> <b_lp_Chiralities_Consistent>
1

> <s_lp_Variant>
AV-unprocessed.smi:1954-1

> <Gold.Version>
5.8.1

> <Gold.Id.Protein>
6NUR|6NUR_protein|mol2

> <Gold.PLP.Fitness>
45.2387

> <Gold.PLP.PLP>
-37.1120

> <Gold.PLP.part.hbond>
-3.0000

> <Gold.PLP.part.metal>
0.0000

> <Gold.PLP.part.buried>
-4.2730

> <Gold.PLP.part.nonpolar>
-30.6452

> <Gold.PLP.part.repulsive>
0.2758

> <Gold.PLP.ligand.clash>
0.0000

> <Gold.PLP.ligand.torsion>
0.4105

> <Gold.PLP.Chemscore.Hbond>
2.9600

> <Gold.PLP.Chemscore.CHOScore>
0.0000

> <Gold.PLP.Chemscore.Metal>
0.0000

> <Gold.Chemscore.Hbonds>
donor molecule, donor type, donor heavy atom, donor atom, acceptor molecule, acceptor atom, score
      L1  H     3    23       P1  8028  0.74
      L1  H    16    40       P1  8028  0.83
      P1  H 10752 10765       L1     9  0.32

> <Gold.PLP.Chemscore.Internal.Correction>
0.0678

> <Gold.Rescore>
     Score         DG    S(hbond)    S(metal)    S(lipo)     H(rot)  DE(clash)    DE(int)     intcor
     17.84     -21.64       2.64        0.00      95.50       1.49       0.39       3.42       ----

> <Gold.Chemscore.Fitness>
17.8380

> <Gold.Chemscore.DG>
-21.6404

> <Gold.Chemscore.ZeroCoef>
-5.4800

> <Gold.Chemscore.Hbond>
2.6381

> <Gold.Chemscore.Metal>
0.0000

> <Gold.Chemscore.Lipo>
95.5010

> <Gold.Chemscore.Internal_Hbond>
0.0000

> <Gold.Chemscore.DEClash>
0.3866

> <Gold.Chemscore.DEInternal>
3.4158

> <Gold.Chemscore.Rot>
1.4940

> <Gold.Chemscore.Internal.Correction>
   9.000000E+99

> <Gold.Chemscore.Hbonds>
donor molecule, donor type, donor heavy atom, donor atom, acceptor molecule, acceptor atom, score
      L1  H     3    23       P1  8028  0.74
      L1  H    16    40       P1  8028  0.32
      P1  H 10752 10765       L1     9  0.30

> <Gold.Chemscore.Hbond.Weighted>
-8.8114

> <Gold.Chemscore.Metal.Weighted>
-0.0000

> <Gold.Chemscore.Lipo.Weighted>
-11.1736

> <Gold.Chemscore.Internal_Hbond.Weighted>
0.0000

> <Gold.Chemscore.DEClash.Weighted>
0.3866

> <Gold.Chemscore.DEInternal.Weighted>
3.4158

> <Gold.Chemscore.Rot.Weighted>
3.8246

> <Gold.Chemscore.Internal.Correction.Weighted>
   9.000000E+99

> <Gold.Protein.RotatedTorsions>
[ 6907 6896 6895 6894 ] final -112.26 input  -60.11 | X-H torsion
[ 7974 7965 7964 7962 ] final   26.57 input  175.53 | X-H torsion
[ 8008 7997 7996 7995 ] final  158.00 input   59.86 | X-H torsion
[ 10167 10162 10161 10158 ] final   99.24 input  -65.29 | X-H torsion
[ 10718 10713 10712 10709 ] final   22.23 input   66.30 | X-H torsion
[ 10763 10752 10751 10750 ] final -162.24 input  -60.55 | X-H torsion
[ 11005 11000 10999 10996 ] final    6.32 input  -57.11 | X-H torsion

> <Gold.Protein.ActiveResidues>
 VAL166  LYS551  ARG553  GLY616  TRP617  ASP618  TYR619  PRO620  LYS621  CYS622 
 ASP623  PHE694  ASN695  SER759  ASP760  ASP761  ALA762  ILE779  LEU786  VAL792 
 PHE793  MET794  SER795  GLU796  ALA797  LYS798  CYS799  TRP800  GLU811  SER814 

> <Gold.Protein.RotatedAtoms>
  150.7746  133.9116  159.3370 H   0  0  0  0  0  0  0  0  0  0  0  0  # atno 6907 bound_to 6896
  151.6994  135.0931  160.0257 H   0  0  0  0  0  0  0  0  0  0  0  0  # atno 6908 bound_to 6896
  152.3777  133.6465  159.6172 H   0  0  0  0  0  0  0  0  0  0  0  0  # atno 6909 bound_to 6896
  146.1831  139.7310  142.8886 H   0  0  0  0  0  0  0  0  0  0  0  0  # atno 7974 bound_to 7965
  156.2330  140.1870  156.7193 H   0  0  0  0  0  0  0  0  0  0  0  0  # atno 8008 bound_to 7997
  154.6056  140.0629  156.9454 H   0  0  0  0  0  0  0  0  0  0  0  0  # atno 8009 bound_to 7997
  155.2102  140.3299  155.4332 H   0  0  0  0  0  0  0  0  0  0  0  0  # atno 8010 bound_to 7997
  139.7635  144.6946  151.0258 H   0  0  0  0  0  0  0  0  0  0  0  0  # atno 10167 bound_to 10162
  157.1495  130.6668  149.6007 H   0  0  0  0  0  0  0  0  0  0  0  0  # atno 10718 bound_to 10713
  154.7232  135.3030  154.9014 H   0  0  0  0  0  0  0  0  0  0  0  0  # atno 10763 bound_to 10752
  153.9880  135.6722  153.4757 H   0  0  0  0  0  0  0  0  0  0  0  0  # atno 10764 bound_to 10752
  153.0852  135.4988  154.8500 H   0  0  0  0  0  0  0  0  0  0  0  0  # atno 10765 bound_to 10752
  140.5608  134.0194  155.7971 H   0  0  0  0  0  0  0  0  0  0  0  0  # atno 11005 bound_to 11000
  145.4019  141.0386  143.3065 LP  0  0  0  0  0  0  0  0  0  0  0  0  # atno 17320 bound_to 7965
  144.8349  139.5567  143.6927 LP  0  0  0  0  0  0  0  0  0  0  0  0  # atno 17321 bound_to 7965
  140.7809  143.4670  151.0199 LP  0  0  0  0  0  0  0  0  0  0  0  0  # atno 17342 bound_to 10162
  139.8355  143.7633  152.3180 LP  0  0  0  0  0  0  0  0  0  0  0  0  # atno 17343 bound_to 10162
  155.9773  130.4749  150.6585 LP  0  0  0  0  0  0  0  0  0  0  0  0  # atno 17370 bound_to 10713
  157.4233  131.0840  151.1109 LP  0  0  0  0  0  0  0  0  0  0  0  0  # atno 17371 bound_to 10713
  141.1116  133.9608  157.2900 LP  0  0  0  0  0  0  0  0  0  0  0  0  # atno 17394 bound_to 11000
  139.9409  135.0191  156.8704 LP  0  0  0  0  0  0  0  0  0  0  0  0  # atno 17395 bound_to 11000

$$$$
