AV-unprocessed.smi:2784|AV-procd|sdf|10733|dock2
  -GOLD-   2272015173D 1   1.00000     0.00000
 Structure written by MMmdl.
 32 33  0  0  0  0  0  0  0  0  2 V2000
  153.3803  141.1745  160.4960 C   0  0  0  0  0  0  0  0  0  0  0  0
  153.1415  141.8032  159.2467 O   0  0  0  0  0  0  0  0  0  0  0  0
  152.0606  142.7257  159.2655 C   0  0  1  0  0  0  0  0  0  0  0  0
  152.1152  143.6636  160.4786 C   0  0  0  0  0  0  0  0  0  0  0  0
  151.4526  144.9476  159.9931 C   0  0  0  0  0  0  0  0  0  0  0  0
  151.9317  145.0841  158.5487 C   0  0  0  0  0  0  0  0  0  0  0  0
  152.1254  143.6455  158.0273 C   0  0  2  0  0  0  0  0  0  0  0  0
  151.0875  143.2869  157.0633 N   0  0  0  0  0  0  0  0  0  0  0  0
  150.8985  142.0586  156.5596 C   0  0  0  0  0  0  0  0  0  0  0  0
  151.5966  141.0864  156.8495 O   0  0  0  0  0  0  0  0  0  0  0  0
  149.8634  142.0274  155.7066 N   0  0  0  0  0  0  0  0  0  0  0  0
  149.4070  140.8877  155.0053 C   0  0  0  0  0  0  0  0  0  0  0  0
  148.1311  140.6661  154.6935 N   0  3  0  0  0  0  0  0  0  0  0  0
  148.0432  139.4746  154.0171 C   0  0  0  0  0  0  0  0  0  0  0  0
  149.3282  138.9934  153.9398 C   0  0  0  0  0  0  0  0  0  0  0  0
  150.1972  139.8712  154.5565 O   0  0  0  0  0  0  0  0  0  0  0  0
  154.1961  140.4592  160.3927 H   0  0  0  0  0  0  0  0  0  0  0  0
  152.4999  140.6300  160.8393 H   0  0  0  0  0  0  0  0  0  0  0  0
  153.6666  141.8962  161.2615 H   0  0  0  0  0  0  0  0  0  0  0  0
  151.1095  142.1886  159.2751 H   0  0  0  0  0  0  0  0  0  0  0  0
  151.6253  143.2449  161.3583 H   0  0  0  0  0  0  0  0  0  0  0  0
  153.1532  143.8716  160.7423 H   0  0  0  0  0  0  0  0  0  0  0  0
  150.3679  144.8340  160.0141 H   0  0  0  0  0  0  0  0  0  0  0  0
  151.7114  145.8122  160.6053 H   0  0  0  0  0  0  0  0  0  0  0  0
  151.2454  145.6805  157.9459 H   0  0  0  0  0  0  0  0  0  0  0  0
  152.8931  145.5996  158.5381 H   0  0  0  0  0  0  0  0  0  0  0  0
  153.1072  143.5651  157.5558 H   0  0  0  0  0  0  0  0  0  0  0  0
  150.4678  144.0285  156.7713 H   0  0  0  0  0  0  0  0  0  0  0  0
  147.3315  141.2514  154.9007 H   0  0  0  0  0  0  0  0  0  0  0  0
  147.0944  139.0946  153.6658 H   0  0  0  0  0  0  0  0  0  0  0  0
  149.7678  138.1046  153.5105 H   0  0  0  0  0  0  0  0  0  0  0  0
  149.3622  142.8883  155.5453 H   0  0  0  0  0  0  0  0  0  0  0  0
  1  2  1  0  0  0  0
  1 17  1  0  0  0  0
  1 18  1  0  0  0  0
  1 19  1  0  0  0  0
  2  3  1  0  0  0  0
  3  7  1  0  0  0  0
  3  4  1  0  0  0  0
  3 20  1  0  0  0  0
  4  5  1  0  0  0  0
  4 21  1  0  0  0  0
  4 22  1  0  0  0  0
  5  6  1  0  0  0  0
  5 23  1  0  0  0  0
  5 24  1  0  0  0  0
  6  7  1  0  0  0  0
  6 25  1  0  0  0  0
  6 26  1  0  0  0  0
  7  8  1  0  0  0  0
  7 27  1  0  0  0  0
  8 28  1  0  0  0  0
  8  9  1  0  0  0  0
  9 11  1  0  0  0  0
  9 10  2  0  0  0  0
 11 12  1  0  0  0  0
 11 32  1  0  0  0  0
 12 16  1  0  0  0  0
 12 13  2  0  0  0  0
 13 29  1  0  0  0  0
 13 14  1  0  0  0  0
 14 30  1  0  0  0  0
 14 15  2  0  0  0  0
 15 31  1  0  0  0  0
 15 16  1  0  0  0  0
M  CHG  1  13   1
M  END
> <s_m_source_file>
AV-unprocessed.smi

> <i_m_source_file_index>
2784

> <i_lp_mmshare_version>
43012

> <i_f3d_flags>
0

> <s_epik_input>
W0NIM11PW0NAQEhdMVtDSDJdW0NIMl1bQ0gyXVtDQEhdMVtOSF1DKD1PKVtOSF1jMm5bY0hdW2NIXW8y

> <s_epik_cmdline>
J2VwaWtfcHl0aG9uJywgJy1waCcsICc3LjAnLCAnLXRuJywgJzgnLCAnLW1hJywgJzIwMCcsICctbWV0YWxfYmluZGluZycsICctaW1hZScsICc8aW5maWxlLm1hZT4nLCAnLW9tYWUnLCAnPG91dGZpbGUubWFlPic=

> <r_epik_Ionization_Penalty>
6.73843

> <r_epik_Ionization_Penalty_Charging>
6.66704

> <r_epik_Ionization_Penalty_Neutral>
0.0713889

> <r_epik_State_Penalty>
1.94951

> <r_epik_Charging_Adjusted_Penalty>
8.61656

> <i_epik_Tot_Q>
1

> <i_epik_Tot_abs_Q>
1

> <r_epik_Metal_State_Penalty>
1.97013

> <b_epik_Metal_Only>
0

> <s_lp_Force_Field>
OPLS_2005

> <r_lp_Energy>
26.913

> <b_lp_Chiralities_Consistent>
1

> <s_lp_Variant>
AV-unprocessed.smi:2784-8

> <Gold.Version>
5.8.1

> <Gold.Id.Protein>
6NUR|6NUR_protein|mol2

> <Gold.PLP.Fitness>
45.4642

> <Gold.PLP.PLP>
-34.6485

> <Gold.PLP.part.hbond>
-3.0000

> <Gold.PLP.part.metal>
0.0000

> <Gold.PLP.part.buried>
-3.7293

> <Gold.PLP.part.nonpolar>
-28.3141

> <Gold.PLP.part.repulsive>
0.3513

> <Gold.PLP.ligand.clash>
0.0000

> <Gold.PLP.ligand.torsion>
0.3827

> <Gold.PLP.Chemscore.Hbond>
3.0000

> <Gold.PLP.Chemscore.CHOScore>
0.8565

> <Gold.PLP.Chemscore.Metal>
0.0000

> <Gold.Chemscore.Hbonds>
donor molecule, donor type, donor heavy atom, donor atom, acceptor molecule, acceptor atom, score
      L1  H     8    28       P1  8028  0.99
      L1  H    11    32       P1  8028  1.00
      P1  H  7989  7998       L1    16  0.98
      L1  C    15    31       P1  7948  0.86

> <Gold.PLP.Chemscore.Internal.Correction>
0.0117

> <Gold.Rescore>
     Score         DG    S(hbond)    S(metal)    S(lipo)     H(rot)  DE(clash)    DE(int)     intcor
     16.19     -20.77       2.72        0.00      82.19       1.34       0.79       3.79       ----

> <Gold.Chemscore.Fitness>
16.1854

> <Gold.Chemscore.DG>
-20.7675

> <Gold.Chemscore.ZeroCoef>
-5.4800

> <Gold.Chemscore.Hbond>
2.7214

> <Gold.Chemscore.Metal>
0.0000

> <Gold.Chemscore.Lipo>
82.1873

> <Gold.Chemscore.Internal_Hbond>
0.0000

> <Gold.Chemscore.DEClash>
0.7880

> <Gold.Chemscore.DEInternal>
3.7941

> <Gold.Chemscore.Rot>
1.3351

> <Gold.Chemscore.Internal.Correction>
   9.000000E+99

> <Gold.Chemscore.Hbonds>
donor molecule, donor type, donor heavy atom, donor atom, acceptor molecule, acceptor atom, score
      L1  H     8    28       P1  8028  0.89
      L1  H    11    32       P1  8028  0.99
      P1  H  7989  7998       L1    16  0.31

> <Gold.Chemscore.Hbond.Weighted>
-9.0893

> <Gold.Chemscore.Metal.Weighted>
-0.0000

> <Gold.Chemscore.Lipo.Weighted>
-9.6159

> <Gold.Chemscore.Internal_Hbond.Weighted>
0.0000

> <Gold.Chemscore.DEClash.Weighted>
0.7880

> <Gold.Chemscore.DEInternal.Weighted>
3.7941

> <Gold.Chemscore.Rot.Weighted>
3.4177

> <Gold.Chemscore.Internal.Correction.Weighted>
   9.000000E+99

> <Gold.Protein.RotatedTorsions>
[ 6907 6896 6895 6894 ] final  142.64 input  -60.11 | X-H torsion
[ 7974 7965 7964 7962 ] final -140.17 input  175.53 | X-H torsion
[ 8008 7997 7996 7995 ] final  141.36 input   59.86 | X-H torsion
[ 10167 10162 10161 10158 ] final   86.66 input  -65.29 | X-H torsion
[ 10718 10713 10712 10709 ] final -156.87 input   66.30 | X-H torsion
[ 10763 10752 10751 10750 ] final -130.56 input  -60.55 | X-H torsion
[ 11005 11000 10999 10996 ] final  121.15 input  -57.11 | X-H torsion

> <Gold.Protein.ActiveResidues>
 VAL166  LYS551  ARG553  GLY616  TRP617  ASP618  TYR619  PRO620  LYS621  CYS622 
 ASP623  PHE694  ASN695  SER759  ASP760  ASP761  ALA762  ILE779  LEU786  VAL792 
 PHE793  MET794  SER795  GLU796  ALA797  LYS798  CYS799  TRP800  GLU811  SER814 

> <Gold.Protein.RotatedAtoms>
  152.2163  133.4949  159.5137 H   0  0  0  0  0  0  0  0  0  0  0  0  # atno 6907 bound_to 6896
  150.7002  134.1402  159.4111 H   0  0  0  0  0  0  0  0  0  0  0  0  # atno 6908 bound_to 6896
  151.9322  135.0251  160.0580 H   0  0  0  0  0  0  0  0  0  0  0  0  # atno 6909 bound_to 6896
  144.8619  140.6232  143.5323 H   0  0  0  0  0  0  0  0  0  0  0  0  # atno 7974 bound_to 7965
  156.2967  140.2317  156.4551 H   0  0  0  0  0  0  0  0  0  0  0  0  # atno 8008 bound_to 7997
  154.8067  140.0445  157.1333 H   0  0  0  0  0  0  0  0  0  0  0  0  # atno 8009 bound_to 7997
  154.9470  140.3037  155.5096 H   0  0  0  0  0  0  0  0  0  0  0  0  # atno 8010 bound_to 7997
  139.8852  144.6417  150.8798 H   0  0  0  0  0  0  0  0  0  0  0  0  # atno 10167 bound_to 10162
  156.5325  130.8527  151.2721 H   0  0  0  0  0  0  0  0  0  0  0  0  # atno 10718 bound_to 10713
  154.8755  135.3858  154.4104 H   0  0  0  0  0  0  0  0  0  0  0  0  # atno 10763 bound_to 10752
  153.4818  135.7030  153.5939 H   0  0  0  0  0  0  0  0  0  0  0  0  # atno 10764 bound_to 10752
  153.4351  135.3869  155.2161 H   0  0  0  0  0  0  0  0  0  0  0  0  # atno 10765 bound_to 10752
  139.9214  134.9638  156.7915 H   0  0  0  0  0  0  0  0  0  0  0  0  # atno 11005 bound_to 11000
  145.4296  139.1551  143.4029 LP  0  0  0  0  0  0  0  0  0  0  0  0  # atno 17320 bound_to 7965
  146.2866  140.4412  142.8755 LP  0  0  0  0  0  0  0  0  0  0  0  0  # atno 17321 bound_to 7965
  140.7737  143.3553  151.1933 LP  0  0  0  0  0  0  0  0  0  0  0  0  # atno 17342 bound_to 10162
  139.7159  143.9301  152.2966 LP  0  0  0  0  0  0  0  0  0  0  0  0  # atno 17343 bound_to 10162
  157.7419  130.9880  150.2479 LP  0  0  0  0  0  0  0  0  0  0  0  0  # atno 17370 bound_to 10713
  156.3046  130.3763  149.7718 LP  0  0  0  0  0  0  0  0  0  0  0  0  # atno 17371 bound_to 10713
  140.6463  133.9772  155.7732 LP  0  0  0  0  0  0  0  0  0  0  0  0  # atno 17394 bound_to 11000
  141.0738  134.0166  157.3488 LP  0  0  0  0  0  0  0  0  0  0  0  0  # atno 17395 bound_to 11000

$$$$
