#       Name:                AV-unprocessed.smi:2234
#       Creating user name   scv26
#       Creation time:       Fri Mar 27 12:25:09 2020


#       File generated by GOLD software.
#

@<TRIPOS>MOLECULE
AV-unprocessed.smi:2234
    27    28     1
SMALL
NO_CHARGES


@<TRIPOS>ATOM
      1 ****        -3.5051   2.2232   1.2920 O.co2          1 S1                 0.0000
      2 ****        -3.1081   1.3223   2.0644 C.2            1 S1                 0.0000
      3 ****        -3.7941   0.7910   2.9653 O.co2          1 S1                -1.0000
      4 ****        -1.6557   0.8517   1.9129 C.3            1 S1                 0.0000
      5 ****        -1.1945   0.7654   0.4696 C.3            1 S1                 0.0000
      6 ****        -0.2092  -0.3523   0.5683 C.2            1 S1                 0.0000
      7 ****         0.8621  -0.6150  -0.4232 C.ar           1 S1                 0.0000
      8 ****         0.8956   0.0774  -1.6542 C.ar           1 S1                 0.0000
      9 ****         1.9285  -0.2072  -2.5684 C.ar           1 S1                 0.0000
     10 ****         2.8882  -1.1764  -2.2169 C.ar           1 S1                 0.0000
     11 ****         2.8678  -1.8487  -1.0466 N.ar           1 S1                 0.0000
     12 ****         1.8743  -1.5715  -0.1740 C.ar           1 S1                 0.0000
     13 ****        -0.3862  -1.0301   1.6245 N.2            1 S1                 0.0000
     14 ****        -1.4691  -0.4861   2.3590 O.3            1 S1                 0.0000
     15 ****        -0.9986   1.5083   2.4863 H              1 S1                 0.0000
     16 ****        -1.9925   0.4909  -0.2225 H              1 S1                 0.0000
     17 ****        -0.7244   1.6911   0.1370 H              1 S1                 0.0000
     18 ****         0.1471   0.8136  -1.9080 H              1 S1                 0.0000
     19 ****         1.9825   0.3049  -3.5177 H              1 S1                 0.0000
     20 ****         3.6930  -1.4195  -2.8949 H              1 S1                 0.0000
     21 ****         1.8987  -2.1340   0.7478 H              1 S1                 0.0000
     22 ****        -4.4388   2.5729   1.3696 LP             1 S1                 0.0000
     23 ****        -2.8887   2.5936   0.5971 LP             1 S1                 0.0000
     24 ****        -4.7396   1.0822   3.1112 LP             1 S1                 0.0000
     25 ****        -3.3971   0.0751   3.5396 LP             1 S1                 0.0000
     26 ****         3.5666  -2.5310  -0.8321 LP             1 S1                 0.0000
     27 ****         0.1547  -1.8257   1.8973 LP             1 S1                 0.0000
@<TRIPOS>BOND
    1    1    2 ar    
    2    2    3 ar    
    3    2    4 1     
    4    4   14 1     
    5    4    5 1     
    6    4   15 1     
    7    5    6 1     
    8    5   16 1     
    9    5   17 1     
   10    6    7 1     
   11    6   13 2     
   12    7   12 ar    
   13    7    8 ar    
   14    8    9 ar    
   15    8   18 1     
   16    9   10 ar    
   17    9   19 1     
   18   10   11 ar    
   19   10   20 1     
   20   11   12 ar    
   21   12   21 1     
   22   13   14 1     
   23    1   22 1     
   24    1   23 1     
   25    3   24 1     
   26    3   25 1     
   27   11   26 1     
   28   13   27 1     
@<TRIPOS>SUBSTRUCTURE
      1 S1             1
@<TRIPOS>SET
LONE_PAIRS      STATIC     ATOMS    <user>   **** ""
6 22 23 24 25 26 27
ATOM$BLUE        STATIC     ATOMS    COLORGROUP SYSTEM
6 22 23 24 25 26 27
