#       Name:                AV-unprocessed.smi:1027
#       Creating user name   scv26
#       Creation time:       Fri Mar 27 02:44:46 2020


#       File generated by GOLD software.
#

@<TRIPOS>MOLECULE
AV-unprocessed.smi:1027
    39    40     1
SMALL
NO_CHARGES


@<TRIPOS>ATOM
      1 ****        -3.9650  -1.9089  -2.7503 C.3            1 S1                 0.0000
      2 ****        -3.2709  -1.6931  -1.3931 C.3            1 S1                 0.0000
      3 ****        -3.8906  -0.4691  -0.6904 C.3            1 S1                 0.0000
      4 ****        -1.7295  -1.5738  -1.5280 C.3            1 S1                 0.0000
      5 ****        -1.0738  -2.8194  -2.1542 C.3            1 S1                 0.0000
      6 ****        -1.1271  -1.3323  -0.2162 N.am           1 S1                 0.0000
      7 ****        -0.0102  -0.6325   0.0327 C.2            1 S1                 0.0000
      8 ****         0.6237  -0.1294  -0.8979 O.2            1 S1                 0.0000
      9 ****         0.3023  -0.5583   1.3467 N.pl3          1 S1                -1.0000
     10 ****         1.3985   0.1117   1.7391 C.2            1 S1                 0.0000
     11 ****         2.5526  -0.5054   2.0286 N.2            1 S1                 0.0000
     12 ****         3.5566   0.3709   2.4142 N.2            1 S1                 0.0000
     13 ****         3.1433   1.6404   2.4182 C.2            1 S1                 0.0000
     14 ****         4.0409   2.7720   2.7930 C.3            1 S1                 0.0000
     15 ****         3.9371   4.1222   2.1177 C.3            1 S1                 0.0000
     16 ****         5.1291   3.2384   1.8533 C.3            1 S1                 0.0000
     17 ****         1.4646   1.8610   1.9507 S.3            1 S1                 0.0000
     18 ****        -3.7330  -1.1022  -3.4462 H              1 S1                 0.0000
     19 ****        -5.0487  -1.9447  -2.6352 H              1 S1                 0.0000
     20 ****        -3.6678  -2.8490  -3.2136 H              1 S1                 0.0000
     21 ****        -3.4891  -2.5647  -0.7741 H              1 S1                 0.0000
     22 ****        -3.6689   0.4505  -1.2329 H              1 S1                 0.0000
     23 ****        -3.5197  -0.3517   0.3280 H              1 S1                 0.0000
     24 ****        -4.9749  -0.5613  -0.6237 H              1 S1                 0.0000
     25 ****        -1.5196  -0.7183  -2.1727 H              1 S1                 0.0000
     26 ****        -1.3968  -2.9731  -3.1831 H              1 S1                 0.0000
     27 ****        -1.3121  -3.7201  -1.5878 H              1 S1                 0.0000
     28 ****         0.0122  -2.7222  -2.1783 H              1 S1                 0.0000
     29 ****        -1.6075  -1.7254   0.5799 H              1 S1                 0.0000
     30 ****         4.2606   2.7516   3.8586 H              1 S1                 0.0000
     31 ****         3.2177   4.2404   1.3098 H              1 S1                 0.0000
     32 ****         4.0928   5.0043   2.7351 H              1 S1                 0.0000
     33 ****         6.0805   3.5301   2.2933 H              1 S1                 0.0000
     34 ****         5.1926   2.7608   0.8775 H              1 S1                 0.0000
     35 ****         0.3051  -0.2430  -1.8389 LP             1 S1                 0.0000
     36 ****         1.4563   0.3922  -0.7114 LP             1 S1                 0.0000
     37 ****        -0.2825  -1.0020   2.0258 LP             1 S1                 0.0000
     38 ****         2.6772  -1.4960   1.9724 LP             1 S1                 0.0000
     39 ****         4.4826   0.0848   2.6606 LP             1 S1                 0.0000
@<TRIPOS>BOND
    1    1    2 1     
    2    1   18 1     
    3    1   19 1     
    4    1   20 1     
    5    2    3 1     
    6    2    4 1     
    7    2   21 1     
    8    3   22 1     
    9    3   23 1     
   10    3   24 1     
   11    4    5 1     
   12    4    6 1     
   13    4   25 1     
   14    5   26 1     
   15    5   27 1     
   16    5   28 1     
   17    6    7 am    
   18    6   29 1     
   19    7    8 2     
   20    7    9 1     
   21    9   10 1     
   22   10   17 1     
   23   10   11 2     
   24   11   12 1     
   25   12   13 2     
   26   13   14 1     
   27   13   17 1     
   28   14   16 1     
   29   14   15 1     
   30   14   30 1     
   31   15   16 1     
   32   15   31 1     
   33   15   32 1     
   34   16   33 1     
   35   16   34 1     
   36    8   35 1     
   37    8   36 1     
   38    9   37 1     
   39   11   38 1     
   40   12   39 1     
@<TRIPOS>SUBSTRUCTURE
      1 S1             1
@<TRIPOS>SET
LONE_PAIRS      STATIC     ATOMS    <user>   **** ""
5 35 36 37 38 39
DONOR_HYDROGENS      STATIC     ATOMS    <user>   **** ""
1 29
ATOM$BLUE        STATIC     ATOMS    COLORGROUP SYSTEM
5 35 36 37 38 39
ATOM$RED        STATIC     ATOMS    COLORGROUP SYSTEM
1 29
