AV-unprocessed.smi:2424|AV-procd|sdf|9574|dock5
  -GOLD-   2272013203D 1   1.00000     0.00000
 Structure written by MMmdl.
 49 50  0  0  0  0  0  0  0  0  2 V2000
  150.0905  139.8603  157.2062 C   0  0  0  0  0  0  0  0  0  0  0  0
  149.1771  138.6355  157.0233 C   0  0  0  0  0  0  0  0  0  0  0  0
  148.6927  138.3736  155.5753 C   0  0  0  0  0  0  0  0  0  0  0  0
  149.9310  138.0622  154.6947 C   0  0  0  0  0  0  0  0  0  0  0  0
  150.7229  136.8090  155.1050 C   0  0  0  0  0  0  0  0  0  0  0  0
  147.4965  137.3804  155.4882 C   0  0  2  0  0  0  0  0  0  0  0  0
  147.4290  136.6580  154.2155 N   0  0  0  0  0  0  0  0  0  0  0  0
  146.4867  135.7701  153.8753 C   0  0  0  0  0  0  0  0  0  0  0  0
  145.5461  135.4675  154.6086 O   0  0  0  0  0  0  0  0  0  0  0  0
  146.7238  135.2764  152.6475 N   0  0  0  0  0  0  0  0  0  0  0  0
  146.0007  134.3112  151.9353 C   0  0  0  0  0  0  0  0  0  0  0  0
  144.7056  134.0036  152.3004 C   0  0  0  0  0  0  0  0  0  0  0  0
  143.8548  133.1170  151.7401 N   0  5  0  0  0  0  0  0  0  0  0  0
  144.2883  132.4047  150.6611 C   0  0  0  0  0  0  0  0  0  0  0  0
  143.5688  131.5799  150.0988 O   0  0  0  0  0  0  0  0  0  0  0  0
  145.6583  132.6346  150.1593 C   0  0  0  0  0  0  0  0  0  0  0  0
  146.1359  131.8416  148.9548 C   0  0  0  0  0  0  0  0  0  0  0  0
  146.4555  133.5421  150.7771 C   0  0  0  0  0  0  0  0  0  0  0  0
  146.5266  138.5737  155.5204 C   0  0  2  0  0  0  0  0  0  0  0  0
  145.2070  138.5599  154.7506 C   0  0  0  0  0  0  0  0  0  0  0  0
  147.6982  139.4492  155.0463 C   0  0  2  0  0  0  0  0  0  0  0  0
  147.6852  139.5843  153.6296 O   0  0  0  0  0  0  0  0  0  0  0  0
  147.1246  140.8117  153.1953 C   0  0  0  0  0  0  0  0  0  0  0  0
  150.2638  140.0498  158.2654 H   0  0  0  0  0  0  0  0  0  0  0  0
  149.6498  140.7619  156.7816 H   0  0  0  0  0  0  0  0  0  0  0  0
  151.0674  139.7131  156.7471 H   0  0  0  0  0  0  0  0  0  0  0  0
  149.6744  137.7553  157.4295 H   0  0  0  0  0  0  0  0  0  0  0  0
  148.3177  138.7793  157.6782 H   0  0  0  0  0  0  0  0  0  0  0  0
  149.6287  137.9228  153.6570 H   0  0  0  0  0  0  0  0  0  0  0  0
  150.6096  138.9128  154.6584 H   0  0  0  0  0  0  0  0  0  0  0  0
  151.4971  136.5894  154.3697 H   0  0  0  0  0  0  0  0  0  0  0  0
  150.0796  135.9319  155.1745 H   0  0  0  0  0  0  0  0  0  0  0  0
  151.2212  136.9384  156.0650 H   0  0  0  0  0  0  0  0  0  0  0  0
  147.4125  136.7402  156.3683 H   0  0  0  0  0  0  0  0  0  0  0  0
  148.1612  136.8507  153.5479 H   0  0  0  0  0  0  0  0  0  0  0  0
  147.5346  135.6377  152.1665 H   0  0  0  0  0  0  0  0  0  0  0  0
  144.2905  134.5537  153.1723 H   0  0  0  0  0  0  0  0  0  0  0  0
  147.1614  132.0995  148.6892 H   0  0  0  0  0  0  0  0  0  0  0  0
  145.5032  132.0444  148.0903 H   0  0  0  0  0  0  0  0  0  0  0  0
  146.1013  130.7722  149.1647 H   0  0  0  0  0  0  0  0  0  0  0  0
  147.4476  133.6849  150.3814 H   0  0  0  0  0  0  0  0  0  0  0  0
  146.3236  138.8126  156.5656 H   0  0  0  0  0  0  0  0  0  0  0  0
  145.3530  138.3704  153.6870 H   0  0  0  0  0  0  0  0  0  0  0  0
  144.6906  139.5154  154.8424 H   0  0  0  0  0  0  0  0  0  0  0  0
  144.5395  137.7869  155.1320 H   0  0  0  0  0  0  0  0  0  0  0  0
  147.7231  140.4070  155.5687 H   0  0  0  0  0  0  0  0  0  0  0  0
  147.1858  140.8771  152.1091 H   0  0  0  0  0  0  0  0  0  0  0  0
  147.6530  141.6675  153.6154 H   0  0  0  0  0  0  0  0  0  0  0  0
  146.0733  140.8816  153.4768 H   0  0  0  0  0  0  0  0  0  0  0  0
  1  2  1  0  0  0  0
  1 24  1  0  0  0  0
  1 25  1  0  0  0  0
  1 26  1  0  0  0  0
  2  3  1  0  0  0  0
  2 27  1  0  0  0  0
  2 28  1  0  0  0  0
  3 21  1  0  0  0  0
  3  4  1  0  0  0  0
  3  6  1  0  0  0  0
  4  5  1  0  0  0  0
  4 29  1  0  0  0  0
  4 30  1  0  0  0  0
  5 31  1  0  0  0  0
  5 32  1  0  0  0  0
  5 33  1  0  0  0  0
  6  7  1  0  0  0  0
  6 19  1  0  0  0  0
  6 34  1  0  0  0  0
  7  8  1  0  0  0  0
  7 35  1  0  0  0  0
  8  9  2  0  0  0  0
  8 10  1  0  0  0  0
 10 11  1  0  0  0  0
 10 36  1  0  0  0  0
 11 18  1  0  0  0  0
 11 12  2  0  0  0  0
 12 13  1  0  0  0  0
 12 37  1  0  0  0  0
 13 14  1  0  0  0  0
 14 15  2  0  0  0  0
 14 16  1  0  0  0  0
 16 17  1  0  0  0  0
 16 18  2  0  0  0  0
 17 38  1  0  0  0  0
 17 39  1  0  0  0  0
 17 40  1  0  0  0  0
 18 41  1  0  0  0  0
 19 20  1  0  0  0  0
 19 21  1  0  0  0  0
 19 42  1  0  0  0  0
 20 43  1  0  0  0  0
 20 44  1  0  0  0  0
 20 45  1  0  0  0  0
 21 22  1  0  0  0  0
 21 46  1  0  0  0  0
 22 23  1  0  0  0  0
 23 47  1  0  0  0  0
 23 48  1  0  0  0  0
 23 49  1  0  0  0  0
M  CHG  1  13  -1
M  END
> <s_m_source_file>
AV-unprocessed.smi

> <i_m_source_file_index>
2424

> <i_lp_mmshare_version>
43012

> <i_f3d_flags>
0

> <s_epik_input>
W0NIM11PW0NAQEhdMVtDQEhdKFtDSDNdKVtDQEBIXShDMShbQ0gyXVtDSDNdKVtDSDJdW0NIM10pW05IXUMoPU8pW05IXWMyW2NIXVtuSF1jKD1PKWMoW0NIM10pW2NIXTI=

> <s_epik_cmdline>
J2VwaWtfcHl0aG9uJywgJy1waCcsICc3LjAnLCAnLXRuJywgJzgnLCAnLW1hJywgJzIwMCcsICctbWV0YWxfYmluZGluZycsICctaW1hZScsICc8aW5maWxlLm1hZT4nLCAnLW9tYWUnLCAnPG91dGZpbGUubWFlPic=

> <r_lp_tautomer_probability>
1

> <r_epik_Ionization_Penalty>
7.6122

> <r_epik_Ionization_Penalty_Charging>
1.53843

> <r_epik_Ionization_Penalty_Neutral>
6.07377

> <r_epik_State_Penalty>
6.07371

> <r_epik_Charging_Adjusted_Penalty>
7.61214

> <i_epik_Tot_Q>
-1

> <i_epik_Tot_abs_Q>
1

> <r_epik_Metal_State_Penalty>
2.02136

> <b_epik_Metal_Only>
1

> <s_lp_Force_Field>
OPLS_2005

> <r_lp_Energy>
42.0535

> <b_lp_Chiralities_Consistent>
1

> <s_lp_Variant>
AV-unprocessed.smi:2424-16

> <Gold.Version>
5.8.1

> <Gold.Id.Protein>
6NUR|6NUR_protein|mol2

> <Gold.PLP.Fitness>
35.0561

> <Gold.PLP.PLP>
-27.4534

> <Gold.PLP.part.hbond>
-2.9936

> <Gold.PLP.part.metal>
0.0000

> <Gold.PLP.part.buried>
-5.0948

> <Gold.PLP.part.nonpolar>
-19.8898

> <Gold.PLP.part.repulsive>
0.8947

> <Gold.PLP.ligand.clash>
0.0000

> <Gold.PLP.ligand.torsion>
0.7005

> <Gold.PLP.Chemscore.Hbond>
2.7760

> <Gold.PLP.Chemscore.CHOScore>
0.0000

> <Gold.PLP.Chemscore.Metal>
0.0000

> <Gold.Chemscore.Hbonds>
donor molecule, donor type, donor heavy atom, donor atom, acceptor molecule, acceptor atom, score
      L1  H     7    35       P1  7948  0.88
      L1  H    10    36       P1  7948  1.00
      P1  H 10785 10796       L1    15  0.93

> <Gold.PLP.Chemscore.Internal.Correction>
0.6756

> <Gold.Rescore>
     Score         DG    S(hbond)    S(metal)    S(lipo)     H(rot)  DE(clash)    DE(int)     intcor
     16.56     -19.30       2.83        0.00      70.47       1.52       0.73       2.00       ----

> <Gold.Chemscore.Fitness>
16.5643

> <Gold.Chemscore.DG>
-19.3007

> <Gold.Chemscore.ZeroCoef>
-5.4800

> <Gold.Chemscore.Hbond>
2.8346

> <Gold.Chemscore.Metal>
0.0000

> <Gold.Chemscore.Lipo>
70.4726

> <Gold.Chemscore.Internal_Hbond>
0.0000

> <Gold.Chemscore.DEClash>
0.7337

> <Gold.Chemscore.DEInternal>
2.0027

> <Gold.Chemscore.Rot>
1.5204

> <Gold.Chemscore.Internal.Correction>
   9.000000E+99

> <Gold.Chemscore.Hbonds>
donor molecule, donor type, donor heavy atom, donor atom, acceptor molecule, acceptor atom, score
      L1  H     7    35       P1  7948  0.85
      L1  H    10    36       P1  7948  0.94
      P1  H 10785 10796       L1    15  0.85

> <Gold.Chemscore.Hbond.Weighted>
-9.4676

> <Gold.Chemscore.Metal.Weighted>
-0.0000

> <Gold.Chemscore.Lipo.Weighted>
-8.2453

> <Gold.Chemscore.Internal_Hbond.Weighted>
0.0000

> <Gold.Chemscore.DEClash.Weighted>
0.7337

> <Gold.Chemscore.DEInternal.Weighted>
2.0027

> <Gold.Chemscore.Rot.Weighted>
3.8922

> <Gold.Chemscore.Internal.Correction.Weighted>
   9.000000E+99

> <Gold.Protein.RotatedTorsions>
[ 6907 6896 6895 6894 ] final -119.70 input  -60.11 | X-H torsion
[ 7974 7965 7964 7962 ] final   26.24 input  175.53 | X-H torsion
[ 8008 7997 7996 7995 ] final   15.08 input   59.86 | X-H torsion
[ 10167 10162 10161 10158 ] final   43.63 input  -65.29 | X-H torsion
[ 10718 10713 10712 10709 ] final -115.29 input   66.30 | X-H torsion
[ 10763 10752 10751 10750 ] final -131.74 input  -60.55 | X-H torsion
[ 11005 11000 10999 10996 ] final  -27.50 input  -57.11 | X-H torsion

> <Gold.Protein.ActiveResidues>
 VAL166  LYS551  ARG553  GLY616  TRP617  ASP618  TYR619  PRO620  LYS621  CYS622 
 ASP623  PHE694  ASN695  SER759  ASP760  ASP761  ALA762  ILE779  LEU786  VAL792 
 PHE793  MET794  SER795  GLU796  ALA797  LYS798  CYS799  TRP800  GLU811  SER814 

> <Gold.Protein.RotatedAtoms>
  150.8328  133.8063  159.3091 H   0  0  0  0  0  0  0  0  0  0  0  0  # atno 6907 bound_to 6896
  151.5788  135.1058  160.0022 H   0  0  0  0  0  0  0  0  0  0  0  0  # atno 6908 bound_to 6896
  152.4405  133.7397  159.6690 H   0  0  0  0  0  0  0  0  0  0  0  0  # atno 6909 bound_to 6896
  146.1847  139.7355  142.8875 H   0  0  0  0  0  0  0  0  0  0  0  0  # atno 7974 bound_to 7965
  154.8576  140.2939  155.5559 H   0  0  0  0  0  0  0  0  0  0  0  0  # atno 8008 bound_to 7997
  156.3019  140.2484  156.3477 H   0  0  0  0  0  0  0  0  0  0  0  0  # atno 8009 bound_to 7997
  154.8953  140.0393  157.1851 H   0  0  0  0  0  0  0  0  0  0  0  0  # atno 8010 bound_to 7997
  140.3425  144.2453  150.6154 H   0  0  0  0  0  0  0  0  0  0  0  0  # atno 10167 bound_to 10162
  156.0886  130.6073  150.8886 H   0  0  0  0  0  0  0  0  0  0  0  0  # atno 10718 bound_to 10713
  154.8748  135.3820  154.4296 H   0  0  0  0  0  0  0  0  0  0  0  0  # atno 10763 bound_to 10752
  153.4991  135.7030  153.5846 H   0  0  0  0  0  0  0  0  0  0  0  0  # atno 10764 bound_to 10752
  153.4186  135.3907  155.2063 H   0  0  0  0  0  0  0  0  0  0  0  0  # atno 10765 bound_to 10752
  140.9125  133.7451  156.0690 H   0  0  0  0  0  0  0  0  0  0  0  0  # atno 11005 bound_to 11000
  145.3973  141.0380  143.3090 LP  0  0  0  0  0  0  0  0  0  0  0  0  # atno 17320 bound_to 7965
  144.8377  139.5523  143.6915 LP  0  0  0  0  0  0  0  0  0  0  0  0  # atno 17321 bound_to 7965
  140.5296  143.2246  151.8260 LP  0  0  0  0  0  0  0  0  0  0  0  0  # atno 17342 bound_to 10162
  139.4838  144.4737  151.9393 LP  0  0  0  0  0  0  0  0  0  0  0  0  # atno 17343 bound_to 10162
  157.6028  131.0940  150.8931 LP  0  0  0  0  0  0  0  0  0  0  0  0  # atno 17370 bound_to 10713
  156.9085  130.5272  149.5281 LP  0  0  0  0  0  0  0  0  0  0  0  0  # atno 17371 bound_to 10713
  140.8092  134.3419  157.5417 LP  0  0  0  0  0  0  0  0  0  0  0  0  # atno 17394 bound_to 11000
  139.8760  134.9244  156.3348 LP  0  0  0  0  0  0  0  0  0  0  0  0  # atno 17395 bound_to 11000

$$$$
