#       Name:                AV-unprocessed.smi:3189
#       Creating user name   scv26
#       Creation time:       Fri Mar 27 18:03:02 2020


#       File generated by GOLD software.
#

@<TRIPOS>MOLECULE
AV-unprocessed.smi:3189
    33    34     1
SMALL
NO_CHARGES


@<TRIPOS>ATOM
      1 ****        -4.4394   1.5683  -0.3403 C.3            1 S1                 0.0000
      2 ****        -3.6341   0.3322   0.0135 C.ar           1 S1                 0.0000
      3 ****        -4.3522  -0.7380   0.4181 N.ar           1 S1                 0.0000
      4 ****        -3.6848  -1.8655   0.7381 C.ar           1 S1                 0.0000
      5 ****        -2.2829  -1.9810   0.6765 C.ar           1 S1                 0.0000
      6 ****        -1.5260  -0.8572   0.2657 C.ar           1 S1                 0.0000
      7 ****        -0.1076  -0.8528   0.1526 N.am           1 S1                 0.0000
      8 ****         0.8034  -1.6978   0.6747 C.2            1 S1                 0.0000
      9 ****         0.5405  -2.6772   1.3691 O.2            1 S1                 0.0000
     10 ****         2.0771  -1.3504   0.4180 N.am           1 S1                 0.0000
     11 ****         3.2635  -2.0368   0.8308 C.3            1 S1                 0.0000
     12 ****         4.5810  -1.3403   0.5732 C.3            1 S1                 0.0000
     13 ****         4.2049  -2.5549  -0.2357 C.3            1 S1                 0.0000
     14 ****         4.9463  -3.8596  -0.0409 C.3            1 S1                 0.0000
     15 ****        -2.2229   0.3233  -0.0845 C.ar           1 S1                 0.0000
     16 ****        -1.3654   1.7309  -0.6194 Cl             1 S1                 0.0000
     17 ****        -4.1128   2.4195   0.2577 H              1 S1                 0.0000
     18 ****        -5.5044   1.4193  -0.1573 H              1 S1                 0.0000
     19 ****        -4.3083   1.8154  -1.3941 H              1 S1                 0.0000
     20 ****        -4.2882  -2.7057   1.0483 H              1 S1                 0.0000
     21 ****        -1.8280  -2.9243   0.9338 H              1 S1                 0.0000
     22 ****         0.2742  -0.0580  -0.3395 H              1 S1                 0.0000
     23 ****         2.2195  -0.4720  -0.0596 H              1 S1                 0.0000
     24 ****         3.2184  -2.5908   1.7677 H              1 S1                 0.0000
     25 ****         4.5609  -0.3773   0.0664 H              1 S1                 0.0000
     26 ****         5.3613  -1.4529   1.3236 H              1 S1                 0.0000
     27 ****         3.9130  -2.3685  -1.2676 H              1 S1                 0.0000
     28 ****         5.2036  -4.0063   1.0084 H              1 S1                 0.0000
     29 ****         5.8644  -3.8606  -0.6284 H              1 S1                 0.0000
     30 ****         4.3234  -4.6936  -0.3648 H              1 S1                 0.0000
     31 ****        -5.3495  -0.6956   0.4786 LP             1 S1                 0.0000
     32 ****        -0.4111  -2.8963   1.5849 LP             1 S1                 0.0000
     33 ****         1.2781  -3.2551   1.7184 LP             1 S1                 0.0000
@<TRIPOS>BOND
    1    1    2 1     
    2    1   17 1     
    3    1   18 1     
    4    1   19 1     
    5    2   15 ar    
    6    2    3 ar    
    7    3    4 ar    
    8    4    5 ar    
    9    4   20 1     
   10    5    6 ar    
   11    5   21 1     
   12    6    7 1     
   13    6   15 ar    
   14    7    8 am    
   15    7   22 1     
   16    8    9 2     
   17    8   10 am    
   18   10   11 1     
   19   10   23 1     
   20   11   13 1     
   21   11   12 1     
   22   11   24 1     
   23   12   13 1     
   24   12   25 1     
   25   12   26 1     
   26   13   14 1     
   27   13   27 1     
   28   14   28 1     
   29   14   29 1     
   30   14   30 1     
   31   15   16 1     
   32    3   31 1     
   33    9   32 1     
   34    9   33 1     
@<TRIPOS>SUBSTRUCTURE
      1 S1             1
@<TRIPOS>SET
LONE_PAIRS      STATIC     ATOMS    <user>   **** ""
3 31 32 33
DONOR_HYDROGENS      STATIC     ATOMS    <user>   **** ""
2 22 23
ATOM$BLUE        STATIC     ATOMS    COLORGROUP SYSTEM
3 31 32 33
ATOM$RED        STATIC     ATOMS    COLORGROUP SYSTEM
2 22 23
