#       Name:                AV-unprocessed.smi:3345
#       Creating user name   scv26
#       Creation time:       Fri Mar 27 19:31:54 2020


#       File generated by GOLD software.
#

@<TRIPOS>MOLECULE
AV-unprocessed.smi:3345
    47    48     1
SMALL
NO_CHARGES


@<TRIPOS>ATOM
      1 ****        -1.9409  -1.3017   2.4379 C.3            1 S1                 0.0000
      2 ****        -1.4381  -0.5529   1.1962 C.3            1 S1                 0.0000
      3 ****        -2.0554  -1.1320  -0.0981 C.3            1 S1                 0.0000
      4 ****        -1.6106  -0.4195  -1.3225 N.4            1 S1                 1.0000
      5 ****        -1.6561  -1.2624  -2.5397 C.3            1 S1                 0.0000
      6 ****        -1.0966  -0.4840  -3.7431 C.3            1 S1                 0.0000
      7 ****        -1.8322   0.7209  -3.9182 O.3            1 S1                 0.0000
      8 ****        -1.7377   1.5748  -2.7842 C.3            1 S1                 0.0000
      9 ****        -2.3216   0.8610  -1.5539 C.3            1 S1                 0.0000
     10 ****         0.0239  -0.6140   1.1638 N.am           1 S1                 0.0000
     11 ****         0.8468   0.3509   0.7205 C.2            1 S1                 0.0000
     12 ****         0.4436   1.4163   0.2529 O.2            1 S1                 0.0000
     13 ****         2.3517   0.0593   0.8120 C.3            1 S1                 0.0000
     14 ****         3.1276   0.6132  -0.4000 C.3            1 S1                 0.0000
     15 ****         2.8801   0.5453   2.0804 N.pl3          1 S1                 0.0000
     16 ****         3.0676  -0.1004   3.2338 C.2            1 S1                 0.0000
     17 ****         3.5266   0.6664   4.2125 N.2            1 S1                 0.0000
     18 ****         3.5950   1.8610   3.5535 C.2            1 S1                 0.0000
     19 ****         3.2073   1.8469   2.2783 N.2            1 S1                 0.0000
     20 ****        -3.0282  -1.2582   2.5084 H              1 S1                 0.0000
     21 ****        -1.5358  -0.8644   3.3512 H              1 S1                 0.0000
     22 ****        -1.6513  -2.3529   2.4147 H              1 S1                 0.0000
     23 ****        -1.7503   0.4863   1.3086 H              1 S1                 0.0000
     24 ****        -1.7658  -2.1816  -0.1703 H              1 S1                 0.0000
     25 ****        -3.1452  -1.1223  -0.0453 H              1 S1                 0.0000
     26 ****        -1.0689  -2.1689  -2.3875 H              1 S1                 0.0000
     27 ****        -2.6843  -1.5718  -2.7345 H              1 S1                 0.0000
     28 ****        -0.0375  -0.2600  -3.6034 H              1 S1                 0.0000
     29 ****        -1.1786  -1.0836  -4.6498 H              1 S1                 0.0000
     30 ****        -0.6984   1.8602  -2.6122 H              1 S1                 0.0000
     31 ****        -2.2918   2.4919  -2.9847 H              1 S1                 0.0000
     32 ****        -3.3853   0.6698  -1.7040 H              1 S1                 0.0000
     33 ****        -2.2339   1.5090  -0.6823 H              1 S1                 0.0000
     34 ****         0.4463  -1.4555   1.5296 H              1 S1                 0.0000
     35 ****         2.4820  -1.0244   0.8078 H              1 S1                 0.0000
     36 ****         2.7484   0.1940  -1.3325 H              1 S1                 0.0000
     37 ****         4.1852   0.3563  -0.3341 H              1 S1                 0.0000
     38 ****         3.0565   1.6992  -0.4746 H              1 S1                 0.0000
     39 ****         2.8605  -1.1529   3.3614 H              1 S1                 0.0000
     40 ****         3.9339   2.7693   4.0295 H              1 S1                 0.0000
     41 ****        -0.6372  -0.1906  -1.1766 H              1 S1                 0.0000
     42 ****        -2.7938   0.4925  -4.0707 LP             1 S1                 0.0000
     43 ****        -1.4738   1.2045  -4.7168 LP             1 S1                 0.0000
     44 ****        -0.5383   1.5949   0.1897 LP             1 S1                 0.0000
     45 ****         1.0980   2.1030  -0.0637 LP             1 S1                 0.0000
     46 ****         3.7561   0.4372   5.1584 LP             1 S1                 0.0000
     47 ****         3.1675   2.6066   1.6291 LP             1 S1                 0.0000
@<TRIPOS>BOND
    1    1    2 1     
    2    1   20 1     
    3    1   21 1     
    4    1   22 1     
    5    2    3 1     
    6    2   10 1     
    7    2   23 1     
    8    3    4 1     
    9    3   24 1     
   10    3   25 1     
   11    4    9 1     
   12    4    5 1     
   13    4   41 1     
   14    5    6 1     
   15    5   26 1     
   16    5   27 1     
   17    6    7 1     
   18    6   28 1     
   19    6   29 1     
   20    7    8 1     
   21    8    9 1     
   22    8   30 1     
   23    8   31 1     
   24    9   32 1     
   25    9   33 1     
   26   10   11 am    
   27   10   34 1     
   28   11   12 2     
   29   11   13 1     
   30   13   14 1     
   31   13   15 1     
   32   13   35 1     
   33   14   36 1     
   34   14   37 1     
   35   14   38 1     
   36   15   19 1     
   37   15   16 1     
   38   16   17 2     
   39   16   39 1     
   40   17   18 1     
   41   18   19 2     
   42   18   40 1     
   43    7   42 1     
   44    7   43 1     
   45   12   44 1     
   46   12   45 1     
   47   17   46 1     
   48   19   47 1     
@<TRIPOS>SUBSTRUCTURE
      1 S1             1
@<TRIPOS>SET
LONE_PAIRS      STATIC     ATOMS    <user>   **** ""
6 42 43 44 45 46 47
DONOR_HYDROGENS      STATIC     ATOMS    <user>   **** ""
2 41 34
ATOM$BLUE        STATIC     ATOMS    COLORGROUP SYSTEM
6 42 43 44 45 46 47
ATOM$RED        STATIC     ATOMS    COLORGROUP SYSTEM
2 41 34
