AV-unprocessed.smi:96|AV-procd|sdf|860|dock7
  -GOLD-   2262017303D 1   1.00000     0.00000
 Structure written by MMmdl.
 43 46  0  0  0  0  0  0  0  0  1 V2000
  153.2805  139.4561  157.4862 O   0  0  0  0  0  0  0  0  0  0  0  0
  152.4875  139.6866  156.5720 C   0  0  0  0  0  0  0  0  0  0  0  0
  152.3223  138.6906  155.4128 C   0  0  0  0  0  0  0  0  0  0  0  0
  150.9790  138.0732  155.3524 N   0  0  0  0  0  0  0  0  0  0  0  0
  150.8119  136.7501  155.8312 C   0  0  0  0  0  0  0  0  0  0  0  0
  151.7580  136.1165  156.3010 O   0  0  0  0  0  0  0  0  0  0  0  0
  149.4630  136.2061  155.7206 C   0  0  0  0  0  0  0  0  0  0  0  0
  149.2088  134.9627  156.1628 F   0  0  0  0  0  0  0  0  0  0  0  0
  148.4623  136.9318  155.1804 C   0  0  0  0  0  0  0  0  0  0  0  0
  148.6441  138.2166  154.7000 N   0  0  0  0  0  0  0  0  0  0  0  0
  147.5133  139.0153  154.0863 C   0  0  1  0  0  0  0  0  0  0  0  0
  147.8252  139.3547  152.6159 C   0  0  0  0  0  0  0  0  0  0  0  0
  146.5754  138.8936  151.8932 C   0  0  0  0  0  0  0  0  0  0  0  0
  146.1003  137.7543  152.7822 C   0  0  0  0  0  0  0  0  0  0  0  0
  146.3371  138.2570  154.0907 O   0  0  0  0  0  0  0  0  0  0  0  0
  149.9185  138.8181  154.7842 C   0  0  0  0  0  0  0  0  0  0  0  0
  150.1009  139.9631  154.3639 O   0  0  0  0  0  0  0  0  0  0  0  0
  151.7262  140.7926  156.4881 N   0  0  0  0  0  0  0  0  0  0  0  0
  151.6643  141.8871  157.3912 C   0  0  0  0  0  0  0  0  0  0  0  0
  151.1463  143.1640  157.0289 C   0  0  0  0  0  0  0  0  0  0  0  0
  151.1229  144.2263  157.9607 C   0  0  0  0  0  0  0  0  0  0  0  0
  151.6340  143.9837  159.2454 C   0  0  0  0  0  0  0  0  0  0  0  0
  152.1523  142.7552  159.5968 C   0  0  0  0  0  0  0  0  0  0  0  0
  152.1897  141.6837  158.6897 C   0  0  0  0  0  0  0  0  0  0  0  0
  152.5808  142.7941  160.8841 O   0  0  0  0  0  0  0  0  0  0  0  0
  152.3111  144.0948  161.3394 C   0  0  0  0  0  0  0  0  0  0  0  0
  151.7208  144.8329  160.3008 O   0  0  0  0  0  0  0  0  0  0  0  0
  152.5641  139.2074  154.4831 H   0  0  0  0  0  0  0  0  0  0  0  0
  153.0928  137.9218  155.4947 H   0  0  0  0  0  0  0  0  0  0  0  0
  147.4879  136.4710  155.1304 H   0  0  0  0  0  0  0  0  0  0  0  0
  147.3843  139.8877  154.7295 H   0  0  0  0  0  0  0  0  0  0  0  0
  148.0253  140.4194  152.4936 H   0  0  0  0  0  0  0  0  0  0  0  0
  148.6931  138.7889  152.2727 H   0  0  0  0  0  0  0  0  0  0  0  0
  145.8325  139.6922  151.8799 H   0  0  0  0  0  0  0  0  0  0  0  0
  146.7654  138.5834  150.8653 H   0  0  0  0  0  0  0  0  0  0  0  0
  145.0491  137.5091  152.6303 H   0  0  0  0  0  0  0  0  0  0  0  0
  146.6932  136.8548  152.6100 H   0  0  0  0  0  0  0  0  0  0  0  0
  151.1924  140.8994  155.6378 H   0  0  0  0  0  0  0  0  0  0  0  0
  150.7735  143.3515  156.0334 H   0  0  0  0  0  0  0  0  0  0  0  0
  150.7291  145.1953  157.6918 H   0  0  0  0  0  0  0  0  0  0  0  0
  152.6016  140.7296  158.9848 H   0  0  0  0  0  0  0  0  0  0  0  0
  151.6292  144.0506  162.1894 H   0  0  0  0  0  0  0  0  0  0  0  0
  153.2410  144.5744  161.6464 H   0  0  0  0  0  0  0  0  0  0  0  0
  1  2  2  0  0  0  0
  2  3  1  0  0  0  0
  2 18  1  0  0  0  0
  3  4  1  0  0  0  0
  3 28  1  0  0  0  0
  3 29  1  0  0  0  0
  4 16  1  0  0  0  0
  4  5  1  0  0  0  0
  5  6  2  0  0  0  0
  5  7  1  0  0  0  0
  7  8  1  0  0  0  0
  7  9  2  0  0  0  0
  9 10  1  0  0  0  0
  9 30  1  0  0  0  0
 10 11  1  0  0  0  0
 10 16  1  0  0  0  0
 11 15  1  0  0  0  0
 11 12  1  0  0  0  0
 11 31  1  0  0  0  0
 12 13  1  0  0  0  0
 12 32  1  0  0  0  0
 12 33  1  0  0  0  0
 13 14  1  0  0  0  0
 13 34  1  0  0  0  0
 13 35  1  0  0  0  0
 14 15  1  0  0  0  0
 14 36  1  0  0  0  0
 14 37  1  0  0  0  0
 16 17  2  0  0  0  0
 18 19  1  0  0  0  0
 18 38  1  0  0  0  0
 19 24  1  0  0  0  0
 19 20  2  0  0  0  0
 20 21  1  0  0  0  0
 20 39  1  0  0  0  0
 21 22  2  0  0  0  0
 21 40  1  0  0  0  0
 22 27  1  0  0  0  0
 22 23  1  0  0  0  0
 23 24  2  0  0  0  0
 23 25  1  0  0  0  0
 24 41  1  0  0  0  0
 25 26  1  0  0  0  0
 26 27  1  0  0  0  0
 26 42  1  0  0  0  0
 26 43  1  0  0  0  0
M  END
> <s_m_source_file>
AV-unprocessed.smi

> <i_m_source_file_index>
96

> <i_lp_mmshare_version>
43012

> <i_f3d_flags>
0

> <s_epik_input>
TzFbQ0gyXU9jKGMxMilbY0hdYyhbY0hdW2NIXTIpW05IXUMoPU8pW0NIMl1uM2MoPU8pYyhGKVtjSF1uKGMzPU8pW0NAQEhdNFtDSDJdW0NIMl1bQ0gyXU80

> <s_epik_cmdline>
J2VwaWtfcHl0aG9uJywgJy1waCcsICc3LjAnLCAnLXRuJywgJzgnLCAnLW1hJywgJzIwMCcsICctbWV0YWxfYmluZGluZycsICctaW1hZScsICc8aW5maWxlLm1hZT4nLCAnLW9tYWUnLCAnPG91dGZpbGUubWFlPic=

> <r_lp_tautomer_probability>
1

> <r_epik_Ionization_Penalty>
1.04778e-05

> <r_epik_Ionization_Penalty_Charging>
3.88729e-08

> <r_epik_Ionization_Penalty_Neutral>
1.04389e-05

> <r_epik_State_Penalty>
-0

> <r_epik_Charging_Adjusted_Penalty>
3.88729e-08

> <i_epik_Tot_Q>
0

> <i_epik_Tot_abs_Q>
0

> <r_epik_Metal_State_Penalty>
-0

> <b_epik_Metal_Only>
0

> <s_epik_Chemistry_Notes>
This compound contains an acetal/aminal-like group ( X-CH(R)-Y where X, Y are N, S, or O) that may be acid/base labile, releasing an aldehyde.

> <s_lp_Force_Field>
OPLS_2005

> <r_lp_Energy>
46.4939

> <b_lp_Chiralities_Consistent>
1

> <s_lp_Variant>
AV-unprocessed.smi:96-2

> <Gold.Version>
5.8.1

> <Gold.Id.Protein>
6NUR|6NUR_protein|mol2

> <Gold.PLP.Fitness>
49.1740

> <Gold.PLP.PLP>
-40.8662

> <Gold.PLP.part.hbond>
-3.0000

> <Gold.PLP.part.metal>
0.0000

> <Gold.PLP.part.buried>
0.3015

> <Gold.PLP.part.nonpolar>
-39.4643

> <Gold.PLP.part.repulsive>
0.5467

> <Gold.PLP.ligand.clash>
0.0000

> <Gold.PLP.ligand.torsion>
0.3631

> <Gold.PLP.Chemscore.Hbond>
3.0000

> <Gold.PLP.Chemscore.CHOScore>
0.0000

> <Gold.PLP.Chemscore.Metal>
0.0000

> <Gold.Chemscore.Hbonds>
donor molecule, donor type, donor heavy atom, donor atom, acceptor molecule, acceptor atom, score
      P1  H  7989  7998       L1    17  1.00
      P1  H  7997  8010       L1     1  1.00
      P1  H 10752 10764       L1     6  1.00

> <Gold.PLP.Chemscore.Internal.Correction>
0.0340

> <Gold.Rescore>
     Score         DG    S(hbond)    S(metal)    S(lipo)     H(rot)  DE(clash)    DE(int)     intcor
     14.48     -21.19       2.71        0.00      97.38       1.85       2.89       3.82       ----

> <Gold.Chemscore.Fitness>
14.4790

> <Gold.Chemscore.DG>
-21.1906

> <Gold.Chemscore.ZeroCoef>
-5.4800

> <Gold.Chemscore.Hbond>
2.7103

> <Gold.Chemscore.Metal>
0.0000

> <Gold.Chemscore.Lipo>
97.3800

> <Gold.Chemscore.Internal_Hbond>
0.0000

> <Gold.Chemscore.DEClash>
2.8905

> <Gold.Chemscore.DEInternal>
3.8212

> <Gold.Chemscore.Rot>
1.8497

> <Gold.Chemscore.Internal.Correction>
   9.000000E+99

> <Gold.Chemscore.Hbonds>
donor molecule, donor type, donor heavy atom, donor atom, acceptor molecule, acceptor atom, score
      P1  H  7989  7998       L1    17  0.95
      P1  H  7997  8010       L1     1  0.63
      P1  H 10752 10764       L1     6  0.69

> <Gold.Chemscore.Hbond.Weighted>
-9.0525

> <Gold.Chemscore.Metal.Weighted>
-0.0000

> <Gold.Chemscore.Lipo.Weighted>
-11.3935

> <Gold.Chemscore.Internal_Hbond.Weighted>
0.0000

> <Gold.Chemscore.DEClash.Weighted>
2.8905

> <Gold.Chemscore.DEInternal.Weighted>
3.8212

> <Gold.Chemscore.Rot.Weighted>
4.7354

> <Gold.Chemscore.Internal.Correction.Weighted>
   9.000000E+99

> <Gold.Protein.RotatedTorsions>
[ 6907 6896 6895 6894 ] final  175.55 input  -60.11 | X-H torsion
[ 7974 7965 7964 7962 ] final  -99.42 input  175.53 | X-H torsion
[ 8008 7997 7996 7995 ] final   26.85 input   59.86 | X-H torsion
[ 10167 10162 10161 10158 ] final  -11.35 input  -65.29 | X-H torsion
[ 10718 10713 10712 10709 ] final  124.99 input   66.30 | X-H torsion
[ 10763 10752 10751 10750 ] final  -47.79 input  -60.55 | X-H torsion
[ 11005 11000 10999 10996 ] final   30.57 input  -57.11 | X-H torsion

> <Gold.Protein.ActiveResidues>
 VAL166  LYS551  ARG553  GLY616  TRP617  ASP618  TYR619  PRO620  LYS621  CYS622 
 ASP623  PHE694  ASN695  SER759  ASP760  ASP761  ALA762  ILE779  LEU786  VAL792 
 PHE793  MET794  SER795  GLU796  ALA797  LYS798  CYS799  TRP800  GLU811  SER814 

> <Gold.Protein.RotatedAtoms>
  151.7345  133.3319  159.3348 H   0  0  0  0  0  0  0  0  0  0  0  0  # atno 6907 bound_to 6896
  150.7599  134.6334  159.6207 H   0  0  0  0  0  0  0  0  0  0  0  0  # atno 6908 bound_to 6896
  152.3570  134.6928  160.0270 H   0  0  0  0  0  0  0  0  0  0  0  0  # atno 6909 bound_to 6896
  145.3077  140.9393  143.2787 H   0  0  0  0  0  0  0  0  0  0  0  0  # atno 7974 bound_to 7965
  155.0337  140.3161  155.4749 H   0  0  0  0  0  0  0  0  0  0  0  0  # atno 8008 bound_to 7997
  156.2869  140.2175  156.5401 H   0  0  0  0  0  0  0  0  0  0  0  0  # atno 8009 bound_to 7997
  154.7349  140.0478  157.0747 H   0  0  0  0  0  0  0  0  0  0  0  0  # atno 8010 bound_to 7997
  140.7136  143.5649  150.9155 H   0  0  0  0  0  0  0  0  0  0  0  0  # atno 10167 bound_to 10162
  157.5539  131.1093  150.8654 H   0  0  0  0  0  0  0  0  0  0  0  0  # atno 10718 bound_to 10713
  154.0671  135.6610  153.4819 H   0  0  0  0  0  0  0  0  0  0  0  0  # atno 10763 bound_to 10752
  153.0405  135.5148  154.7603 H   0  0  0  0  0  0  0  0  0  0  0  0  # atno 10764 bound_to 10752
  154.6657  135.3021  154.9776 H   0  0  0  0  0  0  0  0  0  0  0  0  # atno 10765 bound_to 10752
  140.2930  134.2843  155.7771 H   0  0  0  0  0  0  0  0  0  0  0  0  # atno 11005 bound_to 11000
  144.9041  139.4612  143.6618 LP  0  0  0  0  0  0  0  0  0  0  0  0  # atno 17320 bound_to 7965
  146.3129  139.7812  142.9006 LP  0  0  0  0  0  0  0  0  0  0  0  0  # atno 17321 bound_to 7965
  139.9375  143.6421  152.3062 LP  0  0  0  0  0  0  0  0  0  0  0  0  # atno 17342 bound_to 10162
  139.6894  144.7648  151.1466 LP  0  0  0  0  0  0  0  0  0  0  0  0  # atno 17343 bound_to 10162
  156.9171  130.5301  149.5279 LP  0  0  0  0  0  0  0  0  0  0  0  0  # atno 17370 bound_to 10713
  156.0601  130.5655  150.9175 LP  0  0  0  0  0  0  0  0  0  0  0  0  # atno 17371 bound_to 10713
  141.2143  133.7597  156.9653 LP  0  0  0  0  0  0  0  0  0  0  0  0  # atno 17394 bound_to 11000
  140.1178  134.9436  157.2160 LP  0  0  0  0  0  0  0  0  0  0  0  0  # atno 17395 bound_to 11000

$$$$
