AV-unprocessed.smi:281|AV-procd|sdf|2108|dock6
  -GOLD-   2262021403D 1   1.00000     0.00000
 Structure written by MMmdl.
 55 59  0  0  0  0  0  0  0  0  1 V2000
  154.2820  141.1023  161.6896 C   0  0  0  0  0  0  0  0  0  0  0  0
  153.6326  141.6062  160.3966 C   0  0  1  0  0  0  0  0  0  0  0  0
  152.6752  140.5667  159.7884 C   0  0  0  0  0  0  0  0  0  0  0  0
  152.0093  141.1320  158.6234 N   0  0  0  0  0  0  0  0  0  0  0  0
  151.2792  140.2541  157.9054 C   0  0  0  0  0  0  0  0  0  0  0  0
  151.2236  138.9804  158.3649 N   0  0  0  0  0  0  0  0  0  0  0  0
  150.5229  138.0599  157.6953 C   0  0  0  0  0  0  0  0  0  0  0  0
  149.8210  138.2006  156.5685 N   0  0  0  0  0  0  0  0  0  0  0  0
  149.8796  139.4815  156.1025 C   0  0  0  0  0  0  0  0  0  0  0  0
  150.5859  140.5627  156.7008 C   0  0  0  0  0  0  0  0  0  0  0  0
  150.4323  141.7109  155.9335 N   0  0  0  0  0  0  0  0  0  0  0  0
  149.6724  141.3322  154.9427 C   0  0  0  0  0  0  0  0  0  0  0  0
  149.2819  140.0121  154.9723 N   0  0  0  0  0  0  0  0  0  0  0  0
  148.4340  139.3295  154.0060 C   0  0  0  0  0  0  0  0  0  0  0  0
  147.0547  140.0033  153.8039 C   0  0  2  0  0  0  0  0  0  0  0  0
  146.3015  139.2394  152.8797 O   0  0  0  0  0  0  0  0  0  0  0  0
  147.1738  141.4386  153.2847 C   0  0  0  0  0  0  0  0  0  0  0  0
  146.7370  142.2901  154.4712 C   0  0  0  0  0  0  0  0  0  0  0  0
  145.7446  141.4864  155.0832 O   0  0  0  0  0  0  0  0  0  0  0  0
  146.2441  140.1574  155.1065 C   0  0  0  0  0  0  0  0  0  0  0  0
  151.2915  142.3611  158.9291 C   0  0  0  0  0  0  0  0  0  0  0  0
  152.2421  143.3965  159.5821 C   0  0  1  0  0  0  0  0  0  0  0  0
  153.2429  143.9881  158.5938 C   0  0  0  0  0  0  0  0  0  0  0  0
  152.4564  145.1191  157.9420 C   0  0  0  0  0  0  0  0  0  0  0  0
  151.5670  145.5919  158.9459 O   0  0  0  0  0  0  0  0  0  0  0  0
  151.5423  144.6891  160.0486 C   0  0  1  0  0  0  0  0  0  0  0  0
  150.1182  144.5462  160.6047 C   0  0  0  0  0  0  0  0  0  0  0  0
  152.9065  142.7984  160.7003 O   0  0  0  0  0  0  0  0  0  0  0  0
  154.8631  140.1973  161.5104 H   0  0  0  0  0  0  0  0  0  0  0  0
  153.5305  140.8738  162.4459 H   0  0  0  0  0  0  0  0  0  0  0  0
  154.9555  141.8522  162.1050 H   0  0  0  0  0  0  0  0  0  0  0  0
  154.4258  141.8331  159.6832 H   0  0  0  0  0  0  0  0  0  0  0  0
  153.2250  139.6693  159.5013 H   0  0  0  0  0  0  0  0  0  0  0  0
  151.9361  140.2700  160.5330 H   0  0  0  0  0  0  0  0  0  0  0  0
  150.5247  137.0685  158.1238 H   0  0  0  0  0  0  0  0  0  0  0  0
  149.3719  142.0130  154.1596 H   0  0  0  0  0  0  0  0  0  0  0  0
  148.9702  139.2833  153.0571 H   0  0  0  0  0  0  0  0  0  0  0  0
  148.3053  138.2968  154.3329 H   0  0  0  0  0  0  0  0  0  0  0  0
  145.4429  139.6263  152.8007 H   0  0  0  0  0  0  0  0  0  0  0  0
  148.1763  141.6951  152.9401 H   0  0  0  0  0  0  0  0  0  0  0  0
  146.4895  141.6124  152.4524 H   0  0  0  0  0  0  0  0  0  0  0  0
  147.5636  142.4492  155.1659 H   0  0  0  0  0  0  0  0  0  0  0  0
  146.3429  143.2615  154.1724 H   0  0  0  0  0  0  0  0  0  0  0  0
  145.4401  139.4278  155.2123 H   0  0  0  0  0  0  0  0  0  0  0  0
  146.8874  140.0674  155.9824 H   0  0  0  0  0  0  0  0  0  0  0  0
  150.8375  142.7677  158.0243 H   0  0  0  0  0  0  0  0  0  0  0  0
  150.4770  142.1149  159.6111 H   0  0  0  0  0  0  0  0  0  0  0  0
  154.0936  144.4062  159.1337 H   0  0  0  0  0  0  0  0  0  0  0  0
  153.6298  143.2717  157.8685 H   0  0  0  0  0  0  0  0  0  0  0  0
  153.1020  145.9166  157.5738 H   0  0  0  0  0  0  0  0  0  0  0  0
  151.8695  144.7447  157.1026 H   0  0  0  0  0  0  0  0  0  0  0  0
  152.1638  145.1482  160.8195 H   0  0  0  0  0  0  0  0  0  0  0  0
  150.0907  143.8387  161.4338 H   0  0  0  0  0  0  0  0  0  0  0  0
  149.4197  144.2033  159.8412 H   0  0  0  0  0  0  0  0  0  0  0  0
  149.7515  145.5038  160.9742 H   0  0  0  0  0  0  0  0  0  0  0  0
  1  2  1  0  0  0  0
  1 29  1  0  0  0  0
  1 30  1  0  0  0  0
  1 31  1  0  0  0  0
  2 28  1  0  0  0  0
  2  3  1  0  0  0  0
  2 32  1  0  0  0  0
  3  4  1  0  0  0  0
  3 33  1  0  0  0  0
  3 34  1  0  0  0  0
  4  5  1  0  0  0  0
  4 21  1  0  0  0  0
  5 10  1  0  0  0  0
  5  6  2  0  0  0  0
  6  7  1  0  0  0  0
  7  8  2  0  0  0  0
  7 35  1  0  0  0  0
  8  9  1  0  0  0  0
  9 13  1  0  0  0  0
  9 10  2  0  0  0  0
 10 11  1  0  0  0  0
 11 12  2  0  0  0  0
 12 13  1  0  0  0  0
 12 36  1  0  0  0  0
 13 14  1  0  0  0  0
 14 15  1  0  0  0  0
 14 37  1  0  0  0  0
 14 38  1  0  0  0  0
 15 20  1  0  0  0  0
 15 16  1  0  0  0  0
 15 17  1  0  0  0  0
 16 39  1  0  0  0  0
 17 18  1  0  0  0  0
 17 40  1  0  0  0  0
 17 41  1  0  0  0  0
 18 19  1  0  0  0  0
 18 42  1  0  0  0  0
 18 43  1  0  0  0  0
 19 20  1  0  0  0  0
 20 44  1  0  0  0  0
 20 45  1  0  0  0  0
 21 22  1  0  0  0  0
 21 46  1  0  0  0  0
 21 47  1  0  0  0  0
 22 26  1  0  0  0  0
 22 23  1  0  0  0  0
 22 28  1  0  0  0  0
 23 24  1  0  0  0  0
 23 48  1  0  0  0  0
 23 49  1  0  0  0  0
 24 25  1  0  0  0  0
 24 50  1  0  0  0  0
 24 51  1  0  0  0  0
 25 26  1  0  0  0  0
 26 27  1  0  0  0  0
 26 52  1  0  0  0  0
 27 53  1  0  0  0  0
 27 54  1  0  0  0  0
 27 55  1  0  0  0  0
M  END
> <s_m_source_file>
AV-unprocessed.smi

> <i_m_source_file_index>
281

> <i_lp_mmshare_version>
43012

> <i_f3d_flags>
0

> <s_epik_input>
W0NIM11bQ0BASF0xT1tDSDJdW0NIMl1bQ0BAXTEyW0NIMl1OKFtDSDJdW0NASF0oTzIpW0NIM10pYyhuW2NIXW4zKWMoYzM0KW5bY0hdbjRbQ0gyXVtDQEBdNShbT0hdKVtDSDJdW0NIMl1PW0NIMl01

> <s_epik_cmdline>
J2VwaWtfcHl0aG9uJywgJy1waCcsICc3LjAnLCAnLXRuJywgJzgnLCAnLW1hJywgJzIwMCcsICctbWV0YWxfYmluZGluZycsICctaW1hZScsICc8aW5maWxlLm1hZT4nLCAnLW9tYWUnLCAnPG91dGZpbGUubWFlPic=

> <r_lp_tautomer_probability>
1

> <r_epik_Ionization_Penalty>
0.00571331

> <r_epik_Ionization_Penalty_Charging>
0

> <r_epik_Ionization_Penalty_Neutral>
0.00571331

> <r_epik_State_Penalty>
0.00399586

> <r_epik_Charging_Adjusted_Penalty>
0.00399586

> <i_epik_Tot_Q>
0

> <i_epik_Tot_abs_Q>
0

> <r_epik_Metal_State_Penalty>
-0

> <b_epik_Metal_Only>
0

> <s_lp_Force_Field>
OPLS_2005

> <r_lp_Energy>
55.9706

> <b_lp_Chiralities_Consistent>
1

> <s_lp_Variant>
AV-unprocessed.smi:281-8

> <Gold.Version>
5.8.1

> <Gold.Id.Protein>
6NUR|6NUR_protein|mol2

> <Gold.PLP.Fitness>
50.5676

> <Gold.PLP.PLP>
-47.6477

> <Gold.PLP.part.hbond>
-2.0000

> <Gold.PLP.part.metal>
0.0000

> <Gold.PLP.part.buried>
-6.8264

> <Gold.PLP.part.nonpolar>
-38.1191

> <Gold.PLP.part.repulsive>
0.3691

> <Gold.PLP.ligand.clash>
0.0000

> <Gold.PLP.ligand.torsion>
0.1082

> <Gold.PLP.Chemscore.Hbond>
1.0000

> <Gold.PLP.Chemscore.CHOScore>
0.0000

> <Gold.PLP.Chemscore.Metal>
0.0000

> <Gold.Chemscore.Hbonds>
donor molecule, donor type, donor heavy atom, donor atom, acceptor molecule, acceptor atom, score
      L1  H    16    39       P1 10175  1.00

> <Gold.PLP.Chemscore.Internal.Correction>
0.1363

> <Gold.Rescore>
     Score         DG    S(hbond)    S(metal)    S(lipo)     H(rot)  DE(clash)    DE(int)     intcor
     18.08     -18.59       0.98        0.00     129.86       2.09       0.39       0.12       ----

> <Gold.Chemscore.Fitness>
18.0772

> <Gold.Chemscore.DG>
-18.5913

> <Gold.Chemscore.ZeroCoef>
-5.4800

> <Gold.Chemscore.Hbond>
0.9804

> <Gold.Chemscore.Metal>
0.0000

> <Gold.Chemscore.Lipo>
129.8639

> <Gold.Chemscore.Internal_Hbond>
0.0000

> <Gold.Chemscore.DEClash>
0.3906

> <Gold.Chemscore.DEInternal>
0.1235

> <Gold.Chemscore.Rot>
2.0927

> <Gold.Chemscore.Internal.Correction>
   9.000000E+99

> <Gold.Chemscore.Hbonds>
donor molecule, donor type, donor heavy atom, donor atom, acceptor molecule, acceptor atom, score
      L1  H    16    39       P1 10175  0.98

> <Gold.Chemscore.Hbond.Weighted>
-3.2746

> <Gold.Chemscore.Metal.Weighted>
-0.0000

> <Gold.Chemscore.Lipo.Weighted>
-15.1941

> <Gold.Chemscore.Internal_Hbond.Weighted>
0.0000

> <Gold.Chemscore.DEClash.Weighted>
0.3906

> <Gold.Chemscore.DEInternal.Weighted>
0.1235

> <Gold.Chemscore.Rot.Weighted>
5.3573

> <Gold.Chemscore.Internal.Correction.Weighted>
   9.000000E+99

> <Gold.Protein.RotatedTorsions>
[ 6907 6896 6895 6894 ] final   40.44 input  -60.11 | X-H torsion
[ 7974 7965 7964 7962 ] final   99.81 input  175.53 | X-H torsion
[ 8008 7997 7996 7995 ] final  -76.23 input   59.86 | X-H torsion
[ 10167 10162 10161 10158 ] final -175.70 input  -65.29 | X-H torsion
[ 10718 10713 10712 10709 ] final  -77.83 input   66.30 | X-H torsion
[ 10763 10752 10751 10750 ] final  -83.74 input  -60.55 | X-H torsion
[ 11005 11000 10999 10996 ] final   10.36 input  -57.11 | X-H torsion

> <Gold.Protein.ActiveResidues>
 VAL166  LYS551  ARG553  GLY616  TRP617  ASP618  TYR619  PRO620  LYS621  CYS622 
 ASP623  PHE694  ASN695  SER759  ASP760  ASP761  ALA762  ILE779  LEU786  VAL792 
 PHE793  MET794  SER795  GLU796  ALA797  LYS798  CYS799  TRP800  GLU811  SER814 

> <Gold.Protein.RotatedAtoms>
  152.1825  134.8741  160.0524 H   0  0  0  0  0  0  0  0  0  0  0  0  # atno 6907 bound_to 6896
  151.9660  133.3705  159.4061 H   0  0  0  0  0  0  0  0  0  0  0  0  # atno 6908 bound_to 6896
  150.6920  134.4113  159.5207 H   0  0  0  0  0  0  0  0  0  0  0  0  # atno 6909 bound_to 6896
  145.3939  139.2358  143.3337 H   0  0  0  0  0  0  0  0  0  0  0  0  # atno 7974 bound_to 7965
  154.5487  140.0730  156.8631 H   0  0  0  0  0  0  0  0  0  0  0  0  # atno 8008 bound_to 7997
  155.3036  140.3386  155.4228 H   0  0  0  0  0  0  0  0  0  0  0  0  # atno 8009 bound_to 7997
  156.1941  140.1697  156.8019 H   0  0  0  0  0  0  0  0  0  0  0  0  # atno 8010 bound_to 7997
  139.5567  144.1970  152.1172 H   0  0  0  0  0  0  0  0  0  0  0  0  # atno 10167 bound_to 10162
  156.0134  130.4502  150.3405 H   0  0  0  0  0  0  0  0  0  0  0  0  # atno 10718 bound_to 10713
  154.5913  135.5545  153.7281 H   0  0  0  0  0  0  0  0  0  0  0  0  # atno 10763 bound_to 10752
  153.0118  135.6344  154.1845 H   0  0  0  0  0  0  0  0  0  0  0  0  # atno 10764 bound_to 10752
  154.1785  135.2888  155.3039 H   0  0  0  0  0  0  0  0  0  0  0  0  # atno 10765 bound_to 10752
  140.5154  134.0611  155.7829 H   0  0  0  0  0  0  0  0  0  0  0  0  # atno 11005 bound_to 11000
  146.2784  140.4626  142.8786 LP  0  0  0  0  0  0  0  0  0  0  0  0  # atno 17320 bound_to 7965
  144.8421  140.6873  143.6223 LP  0  0  0  0  0  0  0  0  0  0  0  0  # atno 17321 bound_to 7965
  140.1476  144.5144  150.6706 LP  0  0  0  0  0  0  0  0  0  0  0  0  # atno 17342 bound_to 10162
  140.6841  143.2341  151.5306 LP  0  0  0  0  0  0  0  0  0  0  0  0  # atno 17343 bound_to 10162
  157.1500  131.0318  151.2889 LP  0  0  0  0  0  0  0  0  0  0  0  0  # atno 17370 bound_to 10713
  157.4400  130.7538  149.7061 LP  0  0  0  0  0  0  0  0  0  0  0  0  # atno 17371 bound_to 10713
  141.1363  133.9216  157.2426 LP  0  0  0  0  0  0  0  0  0  0  0  0  # atno 17394 bound_to 11000
  139.9635  135.0148  156.9326 LP  0  0  0  0  0  0  0  0  0  0  0  0  # atno 17395 bound_to 11000

$$$$
