AV-unprocessed.smi:2562|AV-procd|sdf|10047|dock10
  -GOLD-   2272014 93D 1   1.00000     0.00000
 Structure written by MMmdl.
 30 31  0  0  0  0  0  0  0  0  1 V2000
  153.0385  142.5546  160.9158 C   0  0  0  0  0  0  0  0  0  0  0  0
  152.0524  143.6536  160.5045 C   0  0  0  0  0  0  0  0  0  0  0  0
  152.2028  144.0585  159.0311 C   0  0  0  0  0  0  0  0  0  0  0  0
  151.6573  143.0324  158.0923 C   0  0  0  0  0  0  0  0  0  0  0  0
  150.6869  143.3084  157.2190 N   0  0  0  0  0  0  0  0  0  0  0  0
  150.4074  142.2027  156.4974 N   0  0  0  0  0  0  0  0  0  0  0  0
  151.2507  141.3102  157.0158 C   0  0  0  0  0  0  0  0  0  0  0  0
  151.3127  139.9134  156.4792 C   0  0  1  0  0  0  0  0  0  0  0  0
  150.3563  139.7034  155.2890 C   0  0  0  0  0  0  0  0  0  0  0  0
  150.5200  138.3579  154.7402 N   0  0  0  0  0  0  0  0  0  0  0  0
  151.9134  138.1011  154.3779 C   0  0  0  0  0  0  0  0  0  0  0  0
  152.8381  138.3594  155.5814 C   0  0  0  0  0  0  0  0  0  0  0  0
  152.6545  139.6909  156.0505 O   0  0  0  0  0  0  0  0  0  0  0  0
  152.0780  141.7755  158.0029 N   0  0  0  0  0  0  0  0  0  0  0  0
  150.2141  144.1905  157.0832 H   0  0  0  0  0  0  0  0  0  0  0  0
  152.9053  142.2852  161.9638 H   0  0  0  0  0  0  0  0  0  0  0  0
  154.0702  142.8826  160.7858 H   0  0  0  0  0  0  0  0  0  0  0  0
  152.8948  141.6533  160.3196 H   0  0  0  0  0  0  0  0  0  0  0  0
  151.0339  143.3088  160.6868 H   0  0  0  0  0  0  0  0  0  0  0  0
  152.2022  144.5261  161.1415 H   0  0  0  0  0  0  0  0  0  0  0  0
  151.6863  145.0017  158.8488 H   0  0  0  0  0  0  0  0  0  0  0  0
  153.2540  144.2299  158.7950 H   0  0  0  0  0  0  0  0  0  0  0  0
  151.0704  139.2175  157.2852 H   0  0  0  0  0  0  0  0  0  0  0  0
  149.3239  139.8567  155.6040 H   0  0  0  0  0  0  0  0  0  0  0  0
  150.5618  140.4447  154.5157 H   0  0  0  0  0  0  0  0  0  0  0  0
  149.9306  138.2512  153.9208 H   0  0  0  0  0  0  0  0  0  0  0  0
  152.0270  137.0736  154.0317 H   0  0  0  0  0  0  0  0  0  0  0  0
  152.2052  138.7459  153.5481 H   0  0  0  0  0  0  0  0  0  0  0  0
  152.6439  137.6462  156.3841 H   0  0  0  0  0  0  0  0  0  0  0  0
  153.8799  138.2315  155.2872 H   0  0  0  0  0  0  0  0  0  0  0  0
  1  2  1  0  0  0  0
  1 16  1  0  0  0  0
  1 17  1  0  0  0  0
  1 18  1  0  0  0  0
  2  3  1  0  0  0  0
  2 19  1  0  0  0  0
  2 20  1  0  0  0  0
  3 21  1  0  0  0  0
  3 22  1  0  0  0  0
  3  4  1  0  0  0  0
  4 14  2  0  0  0  0
  4  5  1  0  0  0  0
  5  6  1  0  0  0  0
  5 15  1  0  0  0  0
  6  7  2  0  0  0  0
  7 14  1  0  0  0  0
  7  8  1  0  0  0  0
  8 13  1  0  0  0  0
  8  9  1  0  0  0  0
  8 23  1  0  0  0  0
  9 10  1  0  0  0  0
  9 24  1  0  0  0  0
  9 25  1  0  0  0  0
 10 11  1  0  0  0  0
 10 26  1  0  0  0  0
 11 12  1  0  0  0  0
 11 27  1  0  0  0  0
 11 28  1  0  0  0  0
 12 13  1  0  0  0  0
 12 29  1  0  0  0  0
 12 30  1  0  0  0  0
M  END
> <s_m_source_file>
AV-unprocessed.smi

> <i_m_source_file_index>
2562

> <i_lp_mmshare_version>
43012

> <i_f3d_flags>
0

> <s_epik_input>
W0NIM11bQ0gyXVtDSDJdYzFuW25IXWMobjEpW0NAQEhdMltDSDJdW05IXVtDSDJdW0NIMl1PMg==

> <s_epik_cmdline>
J2VwaWtfcHl0aG9uJywgJy1waCcsICc3LjAnLCAnLXRuJywgJzgnLCAnLW1hJywgJzIwMCcsICctbWV0YWxfYmluZGluZycsICctaW1hZScsICc8aW5maWxlLm1hZT4nLCAnLW9tYWUnLCAnPG91dGZpbGUubWFlPic=

> <r_epik_Ionization_Penalty>
1.10136

> <r_epik_Ionization_Penalty_Charging>
0

> <r_epik_Ionization_Penalty_Neutral>
1.10136

> <r_epik_State_Penalty>
1.43987

> <r_epik_Charging_Adjusted_Penalty>
1.43987

> <i_epik_Tot_Q>
0

> <i_epik_Tot_abs_Q>
0

> <r_epik_Metal_State_Penalty>
1.55976

> <b_epik_Metal_Only>
0

> <s_lp_Force_Field>
OPLS_2005

> <r_lp_Energy>
12.0534

> <b_lp_Chiralities_Consistent>
1

> <s_lp_Variant>
AV-unprocessed.smi:2562-6

> <Gold.Version>
5.8.1

> <Gold.Id.Protein>
6NUR|6NUR_protein|mol2

> <Gold.PLP.Fitness>
34.1206

> <Gold.PLP.PLP>
-29.3929

> <Gold.PLP.part.hbond>
-2.0000

> <Gold.PLP.part.metal>
0.0000

> <Gold.PLP.part.buried>
-4.1385

> <Gold.PLP.part.nonpolar>
-24.1944

> <Gold.PLP.part.repulsive>
0.5388

> <Gold.PLP.ligand.clash>
0.0000

> <Gold.PLP.ligand.torsion>
0.0784

> <Gold.PLP.Chemscore.Hbond>
1.6240

> <Gold.PLP.Chemscore.CHOScore>
0.0000

> <Gold.PLP.Chemscore.Metal>
0.0000

> <Gold.Chemscore.Hbonds>
donor molecule, donor type, donor heavy atom, donor atom, acceptor molecule, acceptor atom, score
      L1  H     5    15       P1  8028  0.61
      P1  H  7997  8008       L1    13  1.00

> <Gold.PLP.Chemscore.Internal.Correction>
0.0124

> <Gold.Rescore>
     Score         DG    S(hbond)    S(metal)    S(lipo)     H(rot)  DE(clash)    DE(int)     intcor
     14.38     -14.46       1.65        0.00      61.98       1.48       0.02       0.07       ----

> <Gold.Chemscore.Fitness>
14.3775

> <Gold.Chemscore.DG>
-14.4620

> <Gold.Chemscore.ZeroCoef>
-5.4800

> <Gold.Chemscore.Hbond>
1.6501

> <Gold.Chemscore.Metal>
0.0000

> <Gold.Chemscore.Lipo>
61.9785

> <Gold.Chemscore.Internal_Hbond>
0.0000

> <Gold.Chemscore.DEClash>
0.0174

> <Gold.Chemscore.DEInternal>
0.0671

> <Gold.Chemscore.Rot>
1.4769

> <Gold.Chemscore.Internal.Correction>
   9.000000E+99

> <Gold.Chemscore.Hbonds>
donor molecule, donor type, donor heavy atom, donor atom, acceptor molecule, acceptor atom, score
      L1  H     5    15       P1  8028  0.53
      P1  H  7997  8008       L1    13  0.25

> <Gold.Chemscore.Hbond.Weighted>
-5.5112

> <Gold.Chemscore.Metal.Weighted>
-0.0000

> <Gold.Chemscore.Lipo.Weighted>
-7.2515

> <Gold.Chemscore.Internal_Hbond.Weighted>
0.0000

> <Gold.Chemscore.DEClash.Weighted>
0.0174

> <Gold.Chemscore.DEInternal.Weighted>
0.0671

> <Gold.Chemscore.Rot.Weighted>
3.7808

> <Gold.Chemscore.Internal.Correction.Weighted>
   9.000000E+99

> <Gold.Protein.RotatedTorsions>
[ 6907 6896 6895 6894 ] final  -47.84 input  -60.11 | X-H torsion
[ 7974 7965 7964 7962 ] final -100.06 input  175.53 | X-H torsion
[ 8008 7997 7996 7995 ] final  -54.88 input   59.86 | X-H torsion
[ 10167 10162 10161 10158 ] final  -17.17 input  -65.29 | X-H torsion
[ 10718 10713 10712 10709 ] final -151.56 input   66.30 | X-H torsion
[ 10763 10752 10751 10750 ] final  137.93 input  -60.55 | X-H torsion
[ 11005 11000 10999 10996 ] final  -67.93 input  -57.11 | X-H torsion

> <Gold.Protein.ActiveResidues>
 VAL166  LYS551  ARG553  GLY616  TRP617  ASP618  TYR619  PRO620  LYS621  CYS622 
 ASP623  PHE694  ASN695  SER759  ASP760  ASP761  ALA762  ILE779  LEU786  VAL792 
 PHE793  MET794  SER795  GLU796  ALA797  LYS798  CYS799  TRP800  GLU811  SER814 

> <Gold.Protein.RotatedAtoms>
  150.8966  134.8375  159.7330 H   0  0  0  0  0  0  0  0  0  0  0  0  # atno 6907 bound_to 6896
  152.4868  134.4566  159.9601 H   0  0  0  0  0  0  0  0  0  0  0  0  # atno 6908 bound_to 6896
  151.4622  133.3551  159.2846 H   0  0  0  0  0  0  0  0  0  0  0  0  # atno 6909 bound_to 6896
  145.2994  140.9373  143.2832 H   0  0  0  0  0  0  0  0  0  0  0  0  # atno 7974 bound_to 7965
  154.4177  140.1166  156.5387 H   0  0  0  0  0  0  0  0  0  0  0  0  # atno 8008 bound_to 7997
  155.6530  140.3496  155.4736 H   0  0  0  0  0  0  0  0  0  0  0  0  # atno 8009 bound_to 7997
  155.9776  140.1154  157.0745 H   0  0  0  0  0  0  0  0  0  0  0  0  # atno 8010 bound_to 7997
  140.7243  143.5042  150.9830 H   0  0  0  0  0  0  0  0  0  0  0  0  # atno 10167 bound_to 10162
  156.4609  130.8213  151.2443 H   0  0  0  0  0  0  0  0  0  0  0  0  # atno 10718 bound_to 10713
  153.8812  135.3044  155.3445 H   0  0  0  0  0  0  0  0  0  0  0  0  # atno 10763 bound_to 10752
  154.7760  135.4861  153.9749 H   0  0  0  0  0  0  0  0  0  0  0  0  # atno 10764 bound_to 10752
  153.1350  135.6812  153.9214 H   0  0  0  0  0  0  0  0  0  0  0  0  # atno 10765 bound_to 10752
  141.1520  133.6729  156.6368 H   0  0  0  0  0  0  0  0  0  0  0  0  # atno 11005 bound_to 11000
  144.9106  139.4534  143.6589 LP  0  0  0  0  0  0  0  0  0  0  0  0  # atno 17320 bound_to 7965
  146.3157  139.7911  142.8985 LP  0  0  0  0  0  0  0  0  0  0  0  0  # atno 17321 bound_to 7965
  139.8753  143.7140  152.3162 LP  0  0  0  0  0  0  0  0  0  0  0  0  # atno 17342 bound_to 10162
  139.7403  144.7561  151.0662 LP  0  0  0  0  0  0  0  0  0  0  0  0  # atno 17343 bound_to 10162
  157.7498  131.0107  150.3318 LP  0  0  0  0  0  0  0  0  0  0  0  0  # atno 17370 bound_to 10713
  156.3718  130.3865  149.7170 LP  0  0  0  0  0  0  0  0  0  0  0  0  # atno 17371 bound_to 10713
  140.3424  134.7837  157.4408 LP  0  0  0  0  0  0  0  0  0  0  0  0  # atno 17394 bound_to 11000
  140.0927  134.5579  155.8429 LP  0  0  0  0  0  0  0  0  0  0  0  0  # atno 17395 bound_to 11000

$$$$
