AV-unprocessed.smi:1586|AV-procd|sdf|6380|dock9
  -GOLD-   22720 7 13D 1   1.00000     0.00000
 Structure written by MMmdl.
 46 47  0  0  0  0  0  0  0  0  3 V2000
  151.9184  144.4658  158.2117 C   0  0  0  0  0  0  0  0  0  0  0  0
  151.3578  143.1768  158.8293 C   0  0  0  0  0  0  0  0  0  0  0  0
  151.6875  141.9705  158.0304 N   0  3  0  0  0  0  0  0  0  0  0  0
  150.9009  141.8930  156.7751 C   0  0  0  0  0  0  0  0  0  0  0  0
  151.3134  140.6548  155.9519 C   0  0  0  0  0  0  0  0  0  0  0  0
  151.1193  139.4084  156.7045 N   0  0  0  0  0  0  0  0  0  0  0  0
  149.7098  139.0333  156.9537 C   0  0  1  0  0  0  0  0  0  0  0  0
  148.8903  139.0375  155.6451 C   0  0  0  0  0  0  0  0  0  0  0  0
  149.5837  137.6523  157.6423 C   0  0  0  0  0  0  0  0  0  0  0  0
  148.8737  137.7405  158.9139 N   0  0  0  0  0  0  0  0  0  0  0  0
  148.5957  136.7062  159.7175 C   0  0  0  0  0  0  0  0  0  0  0  0
  148.9509  135.5694  159.3982 O   0  0  0  0  0  0  0  0  0  0  0  0
  147.9255  137.0544  160.8399 N   0  5  0  0  0  0  0  0  0  0  0  0
  146.9018  136.3047  161.2766 C   0  0  0  0  0  0  0  0  0  0  0  0
  147.0037  135.0185  161.8733 C   0  0  0  0  0  0  0  0  0  0  0  0
  145.7051  134.6988  162.1510 C   0  0  0  0  0  0  0  0  0  0  0  0
  145.0681  133.5038  162.7741 C   0  0  0  0  0  0  0  0  0  0  0  0
  144.8782  135.7078  161.7659 O   0  0  0  0  0  0  0  0  0  0  0  0
  145.6527  136.7342  161.2119 N   0  0  0  0  0  0  0  0  0  0  0  0
  151.9651  139.5018  157.9023 C   0  0  0  0  0  0  0  0  0  0  0  0
  151.5725  140.7005  158.7913 C   0  0  0  0  0  0  0  0  0  0  0  0
  151.5776  145.3369  158.7718 H   0  0  0  0  0  0  0  0  0  0  0  0
  151.5859  144.5876  157.1803 H   0  0  0  0  0  0  0  0  0  0  0  0
  153.0079  144.4841  158.2200 H   0  0  0  0  0  0  0  0  0  0  0  0
  151.7117  143.0557  159.8541 H   0  0  0  0  0  0  0  0  0  0  0  0
  150.2732  143.2786  158.8864 H   0  0  0  0  0  0  0  0  0  0  0  0
  149.8332  141.8826  156.9972 H   0  0  0  0  0  0  0  0  0  0  0  0
  151.0849  142.7894  156.1818 H   0  0  0  0  0  0  0  0  0  0  0  0
  150.7821  140.6296  155.0021 H   0  0  0  0  0  0  0  0  0  0  0  0
  152.3680  140.7363  155.6845 H   0  0  0  0  0  0  0  0  0  0  0  0
  149.2547  139.7630  157.6219 H   0  0  0  0  0  0  0  0  0  0  0  0
  147.8954  138.6228  155.8081 H   0  0  0  0  0  0  0  0  0  0  0  0
  149.3695  138.4409  154.8679 H   0  0  0  0  0  0  0  0  0  0  0  0
  148.7399  140.0443  155.2570 H   0  0  0  0  0  0  0  0  0  0  0  0
  149.0931  136.9275  156.9926 H   0  0  0  0  0  0  0  0  0  0  0  0
  150.5794  137.2457  157.8263 H   0  0  0  0  0  0  0  0  0  0  0  0
  148.5643  138.6564  159.2045 H   0  0  0  0  0  0  0  0  0  0  0  0
  147.8865  134.4269  162.0628 H   0  0  0  0  0  0  0  0  0  0  0  0
  145.3695  133.4075  163.8172 H   0  0  0  0  0  0  0  0  0  0  0  0
  145.3621  132.5940  162.2509 H   0  0  0  0  0  0  0  0  0  0  0  0
  143.9806  133.5753  162.7419 H   0  0  0  0  0  0  0  0  0  0  0  0
  151.9455  138.5756  158.4740 H   0  0  0  0  0  0  0  0  0  0  0  0
  153.0028  139.6146  157.5852 H   0  0  0  0  0  0  0  0  0  0  0  0
  152.2390  140.7245  159.6526 H   0  0  0  0  0  0  0  0  0  0  0  0
  150.5621  140.5843  159.1855 H   0  0  0  0  0  0  0  0  0  0  0  0
  152.6541  142.0579  157.7508 H   0  0  0  0  0  0  0  0  0  0  0  0
  1  2  1  0  0  0  0
  1 22  1  0  0  0  0
  1 23  1  0  0  0  0
  1 24  1  0  0  0  0
  2  3  1  0  0  0  0
  2 25  1  0  0  0  0
  2 26  1  0  0  0  0
  3 21  1  0  0  0  0
  3  4  1  0  0  0  0
  3 46  1  0  0  0  0
  4  5  1  0  0  0  0
  4 27  1  0  0  0  0
  4 28  1  0  0  0  0
  5  6  1  0  0  0  0
  5 29  1  0  0  0  0
  5 30  1  0  0  0  0
  6  7  1  0  0  0  0
  6 20  1  0  0  0  0
  7  8  1  0  0  0  0
  7  9  1  0  0  0  0
  7 31  1  0  0  0  0
  8 32  1  0  0  0  0
  8 33  1  0  0  0  0
  8 34  1  0  0  0  0
  9 10  1  0  0  0  0
  9 35  1  0  0  0  0
  9 36  1  0  0  0  0
 10 11  1  0  0  0  0
 10 37  1  0  0  0  0
 11 12  2  0  0  0  0
 11 13  1  0  0  0  0
 13 14  1  0  0  0  0
 14 19  2  0  0  0  0
 14 15  1  0  0  0  0
 15 16  2  0  0  0  0
 15 38  1  0  0  0  0
 16 17  1  0  0  0  0
 16 18  1  0  0  0  0
 17 39  1  0  0  0  0
 17 40  1  0  0  0  0
 17 41  1  0  0  0  0
 18 19  1  0  0  0  0
 20 21  1  0  0  0  0
 20 42  1  0  0  0  0
 20 43  1  0  0  0  0
 21 44  1  0  0  0  0
 21 45  1  0  0  0  0
M  CHG  1   3   1
M  CHG  1  13  -1
M  END
> <s_m_source_file>
AV-unprocessed.smi

> <i_m_source_file_index>
1586

> <i_lp_mmshare_version>
43012

> <i_f3d_flags>
0

> <s_epik_input>
W0NIM11bQ0gyXU4xW0NIMl1bQ0gyXU4oW0NIMl1bQ0gyXTEpW0NASF0oW0NIM10pW0NIMl1bTkhdQyg9TylbTkhdYzJbY0hdYyhbQ0gzXSlvbjI=

> <s_epik_cmdline>
J2VwaWtfcHl0aG9uJywgJy1waCcsICc3LjAnLCAnLXRuJywgJzgnLCAnLW1hJywgJzIwMCcsICctbWV0YWxfYmluZGluZycsICctaW1hZScsICc8aW5maWxlLm1hZT4nLCAnLW9tYWUnLCAnPG91dGZpbGUubWFlPic=

> <r_epik_Ionization_Penalty>
6.66134

> <r_epik_Ionization_Penalty_Charging>
6.66063

> <r_epik_Ionization_Penalty_Neutral>
0.000714131

> <r_epik_State_Penalty>
6.77843

> <r_epik_Charging_Adjusted_Penalty>
13.4391

> <i_epik_Tot_Q>
0

> <i_epik_Tot_abs_Q>
2

> <r_epik_Metal_State_Penalty>
2.70494

> <b_epik_Metal_Only>
1

> <s_lp_Force_Field>
OPLS_2005

> <r_lp_Energy>
15.0096

> <b_lp_Chiralities_Consistent>
1

> <s_lp_Variant>
AV-unprocessed.smi:1586-8

> <Gold.Version>
5.8.1

> <Gold.Id.Protein>
6NUR|6NUR_protein|mol2

> <Gold.PLP.Fitness>
43.1703

> <Gold.PLP.PLP>
-33.6276

> <Gold.PLP.part.hbond>
-3.0000

> <Gold.PLP.part.metal>
0.0000

> <Gold.PLP.part.buried>
-4.5904

> <Gold.PLP.part.nonpolar>
-26.2308

> <Gold.PLP.part.repulsive>
0.2708

> <Gold.PLP.ligand.clash>
0.0000

> <Gold.PLP.ligand.torsion>
1.9105

> <Gold.PLP.Chemscore.Hbond>
4.4100

> <Gold.PLP.Chemscore.CHOScore>
0.0000

> <Gold.PLP.Chemscore.Metal>
0.0000

> <Gold.Chemscore.Hbonds>
donor molecule, donor type, donor heavy atom, donor atom, acceptor molecule, acceptor atom, score
      P1  H  6896  6909       L1    12  1.00
      P1  H  6931  6943       L1    13  1.86
      P1  H  6934  6947       L1    13  1.35

> <Gold.PLP.Chemscore.Internal.Correction>
0.1337

> <Gold.Rescore>
     Score         DG    S(hbond)    S(metal)    S(lipo)     H(rot)  DE(clash)    DE(int)     intcor
     15.30     -17.09       2.01        0.00      79.48       1.73       0.01       1.77       ----

> <Gold.Chemscore.Fitness>
15.3048

> <Gold.Chemscore.DG>
-17.0851

> <Gold.Chemscore.ZeroCoef>
-5.4800

> <Gold.Chemscore.Hbond>
2.0127

> <Gold.Chemscore.Metal>
0.0000

> <Gold.Chemscore.Lipo>
79.4776

> <Gold.Chemscore.Internal_Hbond>
0.0000

> <Gold.Chemscore.DEClash>
0.0089

> <Gold.Chemscore.DEInternal>
1.7714

> <Gold.Chemscore.Rot>
1.7250

> <Gold.Chemscore.Internal.Correction>
   9.000000E+99

> <Gold.Chemscore.Hbonds>
donor molecule, donor type, donor heavy atom, donor atom, acceptor molecule, acceptor atom, score
      P1  H  6896  6909       L1    12  0.95
      P1  H  6931  6943       L1    13  0.63
      P1  H  6934  6947       L1    13  0.28

> <Gold.Chemscore.Hbond.Weighted>
-6.7223

> <Gold.Chemscore.Metal.Weighted>
-0.0000

> <Gold.Chemscore.Lipo.Weighted>
-9.2989

> <Gold.Chemscore.Internal_Hbond.Weighted>
0.0000

> <Gold.Chemscore.DEClash.Weighted>
0.0089

> <Gold.Chemscore.DEInternal.Weighted>
1.7714

> <Gold.Chemscore.Rot.Weighted>
4.4161

> <Gold.Chemscore.Internal.Correction.Weighted>
   9.000000E+99

> <Gold.Protein.RotatedTorsions>
[ 6907 6896 6895 6894 ] final   44.18 input  -60.11 | X-H torsion
[ 7974 7965 7964 7962 ] final  139.53 input  175.53 | X-H torsion
[ 8008 7997 7996 7995 ] final  154.20 input   59.86 | X-H torsion
[ 10167 10162 10161 10158 ] final  136.63 input  -65.29 | X-H torsion
[ 10718 10713 10712 10709 ] final  -64.50 input   66.30 | X-H torsion
[ 10763 10752 10751 10750 ] final   91.57 input  -60.55 | X-H torsion
[ 11005 11000 10999 10996 ] final -128.87 input  -57.11 | X-H torsion

> <Gold.Protein.ActiveResidues>
 VAL166  LYS551  ARG553  GLY616  TRP617  ASP618  TYR619  PRO620  LYS621  CYS622 
 ASP623  PHE694  ASN695  SER759  ASP760  ASP761  ALA762  ILE779  LEU786  VAL792 
 PHE793  MET794  SER795  GLU796  ALA797  LYS798  CYS799  TRP800  GLU811  SER814 

> <Gold.Protein.RotatedAtoms>
  152.2294  134.8337  160.0475 H   0  0  0  0  0  0  0  0  0  0  0  0  # atno 6907 bound_to 6896
  151.9091  133.3551  159.3865 H   0  0  0  0  0  0  0  0  0  0  0  0  # atno 6908 bound_to 6896
  150.7021  134.4676  159.5454 H   0  0  0  0  0  0  0  0  0  0  0  0  # atno 6909 bound_to 6896
  144.9270  139.5095  143.5636 H   0  0  0  0  0  0  0  0  0  0  0  0  # atno 7974 bound_to 7965
  156.2543  140.1973  156.6609 H   0  0  0  0  0  0  0  0  0  0  0  0  # atno 8008 bound_to 7997
  154.6465  140.0577  156.9932 H   0  0  0  0  0  0  0  0  0  0  0  0  # atno 8009 bound_to 7997
  155.1483  140.3249  155.4439 H   0  0  0  0  0  0  0  0  0  0  0  0  # atno 8010 bound_to 7997
  139.5173  144.6454  151.5454 H   0  0  0  0  0  0  0  0  0  0  0  0  # atno 10167 bound_to 10162
  156.0725  130.4234  150.1429 H   0  0  0  0  0  0  0  0  0  0  0  0  # atno 10718 bound_to 10713
  153.2097  135.4393  155.0365 H   0  0  0  0  0  0  0  0  0  0  0  0  # atno 10763 bound_to 10752
  154.8193  135.3330  154.7087 H   0  0  0  0  0  0  0  0  0  0  0  0  # atno 10764 bound_to 10752
  153.7526  135.6997  153.4998 H   0  0  0  0  0  0  0  0  0  0  0  0  # atno 10765 bound_to 10752
  140.9479  134.1105  157.4090 H   0  0  0  0  0  0  0  0  0  0  0  0  # atno 11005 bound_to 11000
  146.3230  139.8192  142.8930 LP  0  0  0  0  0  0  0  0  0  0  0  0  # atno 17320 bound_to 7965
  145.3204  141.0242  143.3504 LP  0  0  0  0  0  0  0  0  0  0  0  0  # atno 17321 bound_to 7965
  140.6237  143.9210  150.6547 LP  0  0  0  0  0  0  0  0  0  0  0  0  # atno 17342 bound_to 10162
  140.2492  143.3606  152.1420 LP  0  0  0  0  0  0  0  0  0  0  0  0  # atno 17343 bound_to 10162
  156.9477  130.9764  151.3504 LP  0  0  0  0  0  0  0  0  0  0  0  0  # atno 17370 bound_to 10713
  157.5804  130.8372  149.8514 LP  0  0  0  0  0  0  0  0  0  0  0  0  # atno 17371 bound_to 10713
  139.8839  135.0057  156.6330 LP  0  0  0  0  0  0  0  0  0  0  0  0  # atno 17394 bound_to 11000
  140.7643  133.8791  155.8442 LP  0  0  0  0  0  0  0  0  0  0  0  0  # atno 17395 bound_to 11000

$$$$
