AV-unprocessed.smi:2040|AV-procd|sdf|8286|dock3
  -GOLD-   2272010553D 1   1.00000     0.00000
 Structure written by MMmdl.
 38 39  0  0  0  0  0  0  0  0  1 V2000
  150.3032  142.1913  156.1736 C   0  0  0  0  0  0  0  0  0  0  0  0
  150.0902  140.9379  155.3773 C   0  0  0  0  0  0  0  0  0  0  0  0
  148.8884  140.4847  154.7597 C   0  0  0  0  0  0  0  0  0  0  0  0
  149.2724  139.3051  154.1825 C   0  0  0  0  0  0  0  0  0  0  0  0
  148.5332  138.4318  153.4483 N   0  0  0  0  0  0  0  0  0  0  0  0
  147.1959  138.3499  153.3369 C   0  0  0  0  0  0  0  0  0  0  0  0
  146.3862  139.0655  153.9265 O   0  0  0  0  0  0  0  0  0  0  0  0
  146.8428  137.3722  152.4896 N   0  0  0  0  0  0  0  0  0  0  0  0
  145.4744  137.0116  152.1233 C   0  0  2  0  0  0  0  0  0  0  0  0
  144.6672  136.7199  153.3973 C   0  0  0  0  0  0  0  0  0  0  0  0
  145.4900  135.8107  151.1579 C   0  0  2  0  0  0  0  0  0  0  0  0
  144.1044  135.2714  150.7917 C   0  0  0  0  0  0  0  0  0  0  0  0
  144.4153  133.8365  150.4357 C   0  0  0  0  0  0  0  0  0  0  0  0
  145.4760  133.4874  151.4738 C   0  0  0  0  0  0  0  0  0  0  0  0
  146.1693  134.7025  151.7464 O   0  0  0  0  0  0  0  0  0  0  0  0
  150.6074  139.0943  154.4474 N   0  0  0  0  0  0  0  0  0  0  0  0
  151.4619  137.9921  154.0507 C   0  0  0  0  0  0  0  0  0  0  0  0
  151.1085  140.1060  155.1887 N   0  0  0  0  0  0  0  0  0  0  0  0
  149.4065  142.8113  156.1793 H   0  0  0  0  0  0  0  0  0  0  0  0
  151.1156  142.7884  155.7586 H   0  0  0  0  0  0  0  0  0  0  0  0
  150.5529  141.9599  157.2092 H   0  0  0  0  0  0  0  0  0  0  0  0
  147.9199  140.9616  154.7530 H   0  0  0  0  0  0  0  0  0  0  0  0
  149.0655  137.7604  152.9149 H   0  0  0  0  0  0  0  0  0  0  0  0
  147.5795  136.8359  152.0550 H   0  0  0  0  0  0  0  0  0  0  0  0
  144.9970  137.8452  151.6049 H   0  0  0  0  0  0  0  0  0  0  0  0
  143.6317  136.4750  153.1601 H   0  0  0  0  0  0  0  0  0  0  0  0
  144.6542  137.5855  154.0606 H   0  0  0  0  0  0  0  0  0  0  0  0
  145.0886  135.8808  153.9519 H   0  0  0  0  0  0  0  0  0  0  0  0
  146.0204  136.0717  150.2404 H   0  0  0  0  0  0  0  0  0  0  0  0
  143.4378  135.3043  151.6550 H   0  0  0  0  0  0  0  0  0  0  0  0
  143.6343  135.8217  149.9760 H   0  0  0  0  0  0  0  0  0  0  0  0
  143.5438  133.1829  150.4788 H   0  0  0  0  0  0  0  0  0  0  0  0
  144.8373  133.7818  149.4313 H   0  0  0  0  0  0  0  0  0  0  0  0
  145.0061  133.1438  152.3962 H   0  0  0  0  0  0  0  0  0  0  0  0
  146.1558  132.7079  151.1291 H   0  0  0  0  0  0  0  0  0  0  0  0
  151.1013  137.0686  154.5038 H   0  0  0  0  0  0  0  0  0  0  0  0
  152.4893  138.1666  154.3728 H   0  0  0  0  0  0  0  0  0  0  0  0
  151.4455  137.8878  152.9656 H   0  0  0  0  0  0  0  0  0  0  0  0
  1  2  1  0  0  0  0
  1 19  1  0  0  0  0
  1 20  1  0  0  0  0
  1 21  1  0  0  0  0
  2 18  2  0  0  0  0
  2  3  1  0  0  0  0
  3  4  2  0  0  0  0
  3 22  1  0  0  0  0
  4  5  1  0  0  0  0
  4 16  1  0  0  0  0
  5  6  1  0  0  0  0
  5 23  1  0  0  0  0
  6  7  2  0  0  0  0
  6  8  1  0  0  0  0
  8  9  1  0  0  0  0
  8 24  1  0  0  0  0
  9 10  1  0  0  0  0
  9 11  1  0  0  0  0
  9 25  1  0  0  0  0
 10 26  1  0  0  0  0
 10 27  1  0  0  0  0
 10 28  1  0  0  0  0
 11 15  1  0  0  0  0
 11 12  1  0  0  0  0
 11 29  1  0  0  0  0
 12 13  1  0  0  0  0
 12 30  1  0  0  0  0
 12 31  1  0  0  0  0
 13 14  1  0  0  0  0
 13 32  1  0  0  0  0
 13 33  1  0  0  0  0
 14 15  1  0  0  0  0
 14 34  1  0  0  0  0
 14 35  1  0  0  0  0
 16 17  1  0  0  0  0
 16 18  1  0  0  0  0
 17 36  1  0  0  0  0
 17 37  1  0  0  0  0
 17 38  1  0  0  0  0
M  END
> <s_m_source_file>
AV-unprocessed.smi

> <i_m_source_file_index>
2040

> <i_lp_mmshare_version>
43012

> <i_f3d_flags>
0

> <s_epik_input>
W0NIM11jMVtjSF1jKG4objEpW0NIM10pW05IXUMoPU8pW05IXVtDQEhdKFtDSDNdKVtDQEBIXTJbQ0gyXVtDSDJdW0NIMl1PMg==

> <s_epik_cmdline>
J2VwaWtfcHl0aG9uJywgJy1waCcsICc3LjAnLCAnLXRuJywgJzgnLCAnLW1hJywgJzIwMCcsICctbWV0YWxfYmluZGluZycsICctaW1hZScsICc8aW5maWxlLm1hZT4nLCAnLW9tYWUnLCAnPG91dGZpbGUubWFlPic=

> <r_lp_tautomer_probability>
1

> <r_epik_Ionization_Penalty>
9.09088e-05

> <r_epik_Ionization_Penalty_Charging>
0

> <r_epik_Ionization_Penalty_Neutral>
9.09088e-05

> <r_epik_State_Penalty>
-0

> <r_epik_Charging_Adjusted_Penalty>
0

> <i_epik_Tot_Q>
0

> <i_epik_Tot_abs_Q>
0

> <r_epik_Metal_State_Penalty>
-0

> <b_epik_Metal_Only>
0

> <s_lp_Force_Field>
OPLS_2005

> <r_lp_Energy>
18.8843

> <b_lp_Chiralities_Consistent>
1

> <s_lp_Variant>
AV-unprocessed.smi:2040-1

> <Gold.Version>
5.8.1

> <Gold.Id.Protein>
6NUR|6NUR_protein|mol2

> <Gold.PLP.Fitness>
37.4829

> <Gold.PLP.PLP>
-31.4565

> <Gold.PLP.part.hbond>
-3.8147

> <Gold.PLP.part.metal>
0.0000

> <Gold.PLP.part.buried>
-0.2374

> <Gold.PLP.part.nonpolar>
-28.4362

> <Gold.PLP.part.repulsive>
0.4701

> <Gold.PLP.ligand.clash>
0.0000

> <Gold.PLP.ligand.torsion>
0.0910

> <Gold.PLP.Chemscore.Hbond>
2.0655

> <Gold.PLP.Chemscore.CHOScore>
0.0000

> <Gold.PLP.Chemscore.Metal>
0.0000

> <Gold.Chemscore.Hbonds>
donor molecule, donor type, donor heavy atom, donor atom, acceptor molecule, acceptor atom, score
      L1  H     5    23       P1  7948  0.91
      L1  H     8    24       P1  7948  0.91
      P1  H  7989  7998       L1    18  0.23

> <Gold.PLP.Chemscore.Internal.Correction>
0.0119

> <Gold.Rescore>
     Score         DG    S(hbond)    S(metal)    S(lipo)     H(rot)  DE(clash)    DE(int)     intcor
     13.34     -15.92       1.95        0.00      60.64       1.23       0.05       2.53       ----

> <Gold.Chemscore.Fitness>
13.3401

> <Gold.Chemscore.DG>
-15.9222

> <Gold.Chemscore.ZeroCoef>
-5.4800

> <Gold.Chemscore.Hbond>
1.9479

> <Gold.Chemscore.Metal>
0.0000

> <Gold.Chemscore.Lipo>
60.6373

> <Gold.Chemscore.Internal_Hbond>
0.0000

> <Gold.Chemscore.DEClash>
0.0541

> <Gold.Chemscore.DEInternal>
2.5281

> <Gold.Chemscore.Rot>
1.2338

> <Gold.Chemscore.Internal.Correction>
   9.000000E+99

> <Gold.Chemscore.Hbonds>
donor molecule, donor type, donor heavy atom, donor atom, acceptor molecule, acceptor atom, score
      L1  H     5    23       P1  7948  0.89
      L1  H     8    24       P1  7948  0.88

> <Gold.Chemscore.Hbond.Weighted>
-6.5061

> <Gold.Chemscore.Metal.Weighted>
-0.0000

> <Gold.Chemscore.Lipo.Weighted>
-7.0946

> <Gold.Chemscore.Internal_Hbond.Weighted>
0.0000

> <Gold.Chemscore.DEClash.Weighted>
0.0541

> <Gold.Chemscore.DEInternal.Weighted>
2.5281

> <Gold.Chemscore.Rot.Weighted>
3.1584

> <Gold.Chemscore.Internal.Correction.Weighted>
   9.000000E+99

> <Gold.Protein.RotatedTorsions>
[ 6907 6896 6895 6894 ] final  -38.80 input  -60.11 | X-H torsion
[ 7974 7965 7964 7962 ] final -151.44 input  175.53 | X-H torsion
[ 8008 7997 7996 7995 ] final -149.53 input   59.86 | X-H torsion
[ 10167 10162 10161 10158 ] final  118.07 input  -65.29 | X-H torsion
[ 10718 10713 10712 10709 ] final -120.36 input   66.30 | X-H torsion
[ 10763 10752 10751 10750 ] final -126.54 input  -60.55 | X-H torsion
[ 11005 11000 10999 10996 ] final  -57.62 input  -57.11 | X-H torsion

> <Gold.Protein.ActiveResidues>
 VAL166  LYS551  ARG553  GLY616  TRP617  ASP618  TYR619  PRO620  LYS621  CYS622 
 ASP623  PHE694  ASN695  SER759  ASP760  ASP761  ALA762  ILE779  LEU786  VAL792 
 PHE793  MET794  SER795  GLU796  ALA797  LYS798  CYS799  TRP800  GLU811  SER814 

> <Gold.Protein.RotatedAtoms>
  150.9981  134.9300  159.7937 H   0  0  0  0  0  0  0  0  0  0  0  0  # atno 6907 bound_to 6896
  152.5270  134.3191  159.9152 H   0  0  0  0  0  0  0  0  0  0  0  0  # atno 6908 bound_to 6896
  151.3197  133.4004  159.2688 H   0  0  0  0  0  0  0  0  0  0  0  0  # atno 6909 bound_to 6896
  144.7849  140.4797  143.5813 H   0  0  0  0  0  0  0  0  0  0  0  0  # atno 7974 bound_to 7965
  155.6090  140.0670  157.2711 H   0  0  0  0  0  0  0  0  0  0  0  0  # atno 8008 bound_to 7997
  154.4258  140.1805  156.1300 H   0  0  0  0  0  0  0  0  0  0  0  0  # atno 8009 bound_to 7997
  156.0099  140.3327  155.6934 H   0  0  0  0  0  0  0  0  0  0  0  0  # atno 8010 bound_to 7997
  139.6136  144.7087  151.2789 H   0  0  0  0  0  0  0  0  0  0  0  0  # atno 10167 bound_to 10162
  156.1252  130.6353  150.9531 H   0  0  0  0  0  0  0  0  0  0  0  0  # atno 10718 bound_to 10713
  154.8746  135.3992  154.3447 H   0  0  0  0  0  0  0  0  0  0  0  0  # atno 10763 bound_to 10752
  153.4241  135.7024  153.6279 H   0  0  0  0  0  0  0  0  0  0  0  0  # atno 10764 bound_to 10752
  153.4929  135.3744  155.2471 H   0  0  0  0  0  0  0  0  0  0  0  0  # atno 10765 bound_to 10752
  141.1172  133.6610  156.4797 H   0  0  0  0  0  0  0  0  0  0  0  0  # atno 11005 bound_to 11000
  145.5948  139.1498  143.3162 LP  0  0  0  0  0  0  0  0  0  0  0  0  # atno 17320 bound_to 7965
  146.2076  140.6072  142.9074 LP  0  0  0  0  0  0  0  0  0  0  0  0  # atno 17321 bound_to 7965
  140.7336  143.6790  150.8017 LP  0  0  0  0  0  0  0  0  0  0  0  0  # atno 17342 bound_to 10162
  140.0389  143.5366  152.2727 LP  0  0  0  0  0  0  0  0  0  0  0  0  # atno 17343 bound_to 10162
  157.6434  131.0907  150.8204 LP  0  0  0  0  0  0  0  0  0  0  0  0  # atno 17370 bound_to 10713
  156.8296  130.5011  149.5333 LP  0  0  0  0  0  0  0  0  0  0  0  0  # atno 17371 bound_to 10713
  140.4611  134.6841  157.5085 LP  0  0  0  0  0  0  0  0  0  0  0  0  # atno 17394 bound_to 11000
  140.0103  134.6700  155.9391 LP  0  0  0  0  0  0  0  0  0  0  0  0  # atno 17395 bound_to 11000

$$$$
