AV-unprocessed.smi:862|AV-procd|sdf|3976|dock7
  -GOLD-   22720 1453D 1   1.00000     0.00000
 Structure written by MMmdl.
 44 46  0  0  0  0  0  0  0  0  2 V2000
  143.7370  134.5618  153.7606 N   0  0  0  0  0  0  0  0  0  0  0  0
  144.3786  134.7199  152.5987 C   0  0  0  0  0  0  0  0  0  0  0  0
  144.7886  133.7493  151.9649 O   0  0  0  0  0  0  0  0  0  0  0  0
  144.4921  136.0023  152.1699 N   0  0  0  0  0  0  0  0  0  0  0  0
  144.2103  137.2098  152.9637 C   0  0  0  0  0  0  0  0  0  0  0  0
  145.5474  137.8485  153.3826 C   0  0  0  0  0  0  0  0  0  0  0  0
  146.4207  138.1765  152.1530 C   0  0  0  0  0  0  0  0  0  0  0  0
  147.7470  138.6625  152.5948 N   0  3  0  0  0  0  0  0  0  0  0  0
  147.7580  139.5276  153.7968 C   0  0  2  0  0  0  0  0  0  0  0  0
  146.7934  140.7146  153.7150 C   0  0  0  0  0  0  0  0  0  0  0  0
  147.3458  141.7504  154.7030 C   0  0  0  0  0  0  0  0  0  0  0  0
  148.8216  141.3888  154.9352 C   0  0  0  0  0  0  0  0  0  0  0  0
  149.1169  140.2084  153.9980 C   0  0  1  0  0  0  0  0  0  0  0  0
  150.1438  139.3101  154.5034 N   0  0  0  0  0  0  0  0  0  0  0  0
  150.4847  138.0496  154.0247 C   0  0  0  0  0  0  0  0  0  0  0  0
  151.5148  137.5920  154.8143 C   0  0  0  0  0  0  0  0  0  0  0  0
  151.8259  138.5482  155.7771 N   0  0  0  0  0  0  0  0  0  0  0  0
  150.9726  139.5337  155.5332 C   0  0  0  0  0  0  0  0  0  0  0  0
  146.5503  136.9415  151.2324 C   0  0  0  0  0  0  0  0  0  0  0  0
  145.1696  136.3403  150.9125 C   0  0  0  0  0  0  0  0  0  0  0  0
  143.6059  133.6332  154.1354 H   0  0  0  0  0  0  0  0  0  0  0  0
  143.3771  135.3657  154.2537 H   0  0  0  0  0  0  0  0  0  0  0  0
  143.6352  137.9111  152.3572 H   0  0  0  0  0  0  0  0  0  0  0  0
  143.5993  137.0239  153.8470 H   0  0  0  0  0  0  0  0  0  0  0  0
  145.3591  138.7550  153.9591 H   0  0  0  0  0  0  0  0  0  0  0  0
  146.0797  137.1652  154.0462 H   0  0  0  0  0  0  0  0  0  0  0  0
  145.9161  138.9716  151.6013 H   0  0  0  0  0  0  0  0  0  0  0  0
  148.2915  137.8450  152.8302 H   0  0  0  0  0  0  0  0  0  0  0  0
  147.5170  138.9307  154.6781 H   0  0  0  0  0  0  0  0  0  0  0  0
  146.8042  141.1367  152.7089 H   0  0  0  0  0  0  0  0  0  0  0  0
  145.7656  140.4355  153.9484 H   0  0  0  0  0  0  0  0  0  0  0  0
  147.2330  142.7629  154.3136 H   0  0  0  0  0  0  0  0  0  0  0  0
  146.8010  141.7035  155.6466 H   0  0  0  0  0  0  0  0  0  0  0  0
  149.4848  142.2315  154.7361 H   0  0  0  0  0  0  0  0  0  0  0  0
  148.9609  141.1099  155.9806 H   0  0  0  0  0  0  0  0  0  0  0  0
  149.4535  140.6124  153.0409 H   0  0  0  0  0  0  0  0  0  0  0  0
  149.9800  137.5909  153.1869 H   0  0  0  0  0  0  0  0  0  0  0  0
  152.0515  136.6560  154.7638 H   0  0  0  0  0  0  0  0  0  0  0  0
  150.9541  140.4424  156.1169 H   0  0  0  0  0  0  0  0  0  0  0  0
  147.0515  137.2028  150.3017 H   0  0  0  0  0  0  0  0  0  0  0  0
  147.1700  136.1832  151.7136 H   0  0  0  0  0  0  0  0  0  0  0  0
  145.2802  135.4791  150.2518 H   0  0  0  0  0  0  0  0  0  0  0  0
  144.5652  137.0595  150.3579 H   0  0  0  0  0  0  0  0  0  0  0  0
  148.2037  139.1347  151.8276 H   0  0  0  0  0  0  0  0  0  0  0  0
  1  2  1  0  0  0  0
  1 21  1  0  0  0  0
  1 22  1  0  0  0  0
  2  3  2  0  0  0  0
  2  4  1  0  0  0  0
  4 20  1  0  0  0  0
  4  5  1  0  0  0  0
  5  6  1  0  0  0  0
  5 23  1  0  0  0  0
  5 24  1  0  0  0  0
  6  7  1  0  0  0  0
  6 25  1  0  0  0  0
  6 26  1  0  0  0  0
  7  8  1  0  0  0  0
  7 19  1  0  0  0  0
  7 27  1  0  0  0  0
  8  9  1  0  0  0  0
  8 28  1  0  0  0  0
  8 44  1  0  0  0  0
  9 13  1  0  0  0  0
  9 10  1  0  0  0  0
  9 29  1  0  0  0  0
 10 11  1  0  0  0  0
 10 30  1  0  0  0  0
 10 31  1  0  0  0  0
 11 12  1  0  0  0  0
 11 32  1  0  0  0  0
 11 33  1  0  0  0  0
 12 13  1  0  0  0  0
 12 34  1  0  0  0  0
 12 35  1  0  0  0  0
 13 14  1  0  0  0  0
 13 36  1  0  0  0  0
 14 18  1  0  0  0  0
 14 15  1  0  0  0  0
 15 16  2  0  0  0  0
 15 37  1  0  0  0  0
 16 17  1  0  0  0  0
 16 38  1  0  0  0  0
 17 18  2  0  0  0  0
 18 39  1  0  0  0  0
 19 20  1  0  0  0  0
 19 40  1  0  0  0  0
 19 41  1  0  0  0  0
 20 42  1  0  0  0  0
 20 43  1  0  0  0  0
M  CHG  1   8   1
M  END
> <s_m_source_file>
AV-unprocessed.smi

> <i_m_source_file_index>
862

> <i_lp_mmshare_version>
43012

> <i_f3d_flags>
0

> <s_epik_input>
W05IMl1DKD1PKU4xW0NIMl1bQ0gyXVtDSF0oW0NIMl1bQ0gyXTEpW05IXVtDQEBIXTJbQ0gyXVtDSDJdW0NIMl1bQ0BIXTJuM1tjSF1bY0hdbltjSF0z

> <s_epik_cmdline>
J2VwaWtfcHl0aG9uJywgJy1waCcsICc3LjAnLCAnLXRuJywgJzgnLCAnLW1hJywgJzIwMCcsICctbWV0YWxfYmluZGluZycsICctaW1hZScsICc8aW5maWxlLm1hZT4nLCAnLW9tYWUnLCAnPG91dGZpbGUubWFlPic=

> <r_lp_tautomer_probability>
1

> <r_epik_Ionization_Penalty>
0.0731506

> <r_epik_Ionization_Penalty_Charging>
0.0731

> <r_epik_Ionization_Penalty_Neutral>
5.05966e-05

> <r_epik_State_Penalty>
0.128895

> <r_epik_Charging_Adjusted_Penalty>
0.201995

> <i_epik_Tot_Q>
1

> <i_epik_Tot_abs_Q>
1

> <r_epik_Metal_State_Penalty>
0.113934

> <b_epik_Metal_Only>
0

> <s_lp_Force_Field>
OPLS_2005

> <r_lp_Energy>
56.1174

> <b_lp_Chiralities_Consistent>
1

> <s_lp_Variant>
AV-unprocessed.smi:862-1

> <Gold.Version>
5.8.1

> <Gold.Id.Protein>
6NUR|6NUR_protein|mol2

> <Gold.PLP.Fitness>
43.2200

> <Gold.PLP.PLP>
-31.8218

> <Gold.PLP.part.hbond>
-2.7402

> <Gold.PLP.part.metal>
0.0000

> <Gold.PLP.part.buried>
5.7767

> <Gold.PLP.part.nonpolar>
-36.5084

> <Gold.PLP.part.repulsive>
0.1561

> <Gold.PLP.ligand.clash>
0.0000

> <Gold.PLP.ligand.torsion>
0.5228

> <Gold.PLP.Chemscore.Hbond>
3.1303

> <Gold.PLP.Chemscore.CHOScore>
1.0000

> <Gold.PLP.Chemscore.Metal>
0.0000

> <Gold.Chemscore.Hbonds>
donor molecule, donor type, donor heavy atom, donor atom, acceptor molecule, acceptor atom, score
      L1  H     1    21       P1 10957  0.60
      L1  H     8    28       P1  7948  1.41
      L1  H     8    44       P1  7957  1.00
      L1  C    15    37       P1  7948  1.00

> <Gold.PLP.Chemscore.Internal.Correction>
0.0530

> <Gold.Rescore>
     Score         DG    S(hbond)    S(metal)    S(lipo)     H(rot)  DE(clash)    DE(int)     intcor
     15.03     -18.41       2.34        0.00      79.62       1.64       2.98       0.40       ----

> <Gold.Chemscore.Fitness>
15.0329

> <Gold.Chemscore.DG>
-18.4063

> <Gold.Chemscore.ZeroCoef>
-5.4800

> <Gold.Chemscore.Hbond>
2.3388

> <Gold.Chemscore.Metal>
0.0000

> <Gold.Chemscore.Lipo>
79.6242

> <Gold.Chemscore.Internal_Hbond>
0.0000

> <Gold.Chemscore.DEClash>
2.9765

> <Gold.Chemscore.DEInternal>
0.3969

> <Gold.Chemscore.Rot>
1.6411

> <Gold.Chemscore.Internal.Correction>
   9.000000E+99

> <Gold.Chemscore.Hbonds>
donor molecule, donor type, donor heavy atom, donor atom, acceptor molecule, acceptor atom, score
      L1  H     1    21       P1 10957  0.60
      L1  H     8    28       P1  7948  0.68
      L1  H     8    44       P1  7957  0.94

> <Gold.Chemscore.Hbond.Weighted>
-7.8116

> <Gold.Chemscore.Metal.Weighted>
-0.0000

> <Gold.Chemscore.Lipo.Weighted>
-9.3160

> <Gold.Chemscore.Internal_Hbond.Weighted>
0.0000

> <Gold.Chemscore.DEClash.Weighted>
2.9765

> <Gold.Chemscore.DEInternal.Weighted>
0.3969

> <Gold.Chemscore.Rot.Weighted>
4.2013

> <Gold.Chemscore.Internal.Correction.Weighted>
   9.000000E+99

> <Gold.Protein.RotatedTorsions>
[ 6907 6896 6895 6894 ] final -124.81 input  -60.11 | X-H torsion
[ 7974 7965 7964 7962 ] final   -5.07 input  175.53 | X-H torsion
[ 8008 7997 7996 7995 ] final  165.70 input   59.86 | X-H torsion
[ 10167 10162 10161 10158 ] final  107.62 input  -65.29 | X-H torsion
[ 10718 10713 10712 10709 ] final   60.13 input   66.30 | X-H torsion
[ 10763 10752 10751 10750 ] final    4.26 input  -60.55 | X-H torsion
[ 11005 11000 10999 10996 ] final  133.97 input  -57.11 | X-H torsion

> <Gold.Protein.ActiveResidues>
 VAL166  LYS551  ARG553  GLY616  TRP617  ASP618  TYR619  PRO620  LYS621  CYS622 
 ASP623  PHE694  ASN695  SER759  ASP760  ASP761  ALA762  ILE779  LEU786  VAL792 
 PHE793  MET794  SER795  GLU796  ALA797  LYS798  CYS799  TRP800  GLU811  SER814 

> <Gold.Protein.RotatedAtoms>
  150.8805  133.7379  159.2933 H   0  0  0  0  0  0  0  0  0  0  0  0  # atno 6907 bound_to 6896
  151.4961  135.1058  159.9826 H   0  0  0  0  0  0  0  0  0  0  0  0  # atno 6908 bound_to 6896
  152.4756  133.8086  159.7046 H   0  0  0  0  0  0  0  0  0  0  0  0  # atno 6909 bound_to 6896
  146.2360  140.1965  142.8333 H   0  0  0  0  0  0  0  0  0  0  0  0  # atno 7974 bound_to 7965
  156.1779  140.1663  156.8329 H   0  0  0  0  0  0  0  0  0  0  0  0  # atno 8008 bound_to 7997
  154.5327  140.0753  156.8406 H   0  0  0  0  0  0  0  0  0  0  0  0  # atno 8009 bound_to 7997
  155.3374  140.3382  155.4241 H   0  0  0  0  0  0  0  0  0  0  0  0  # atno 8010 bound_to 7997
  139.6912  144.7107  151.1344 H   0  0  0  0  0  0  0  0  0  0  0  0  # atno 10167 bound_to 10162
  157.5729  130.8921  149.9298 H   0  0  0  0  0  0  0  0  0  0  0  0  # atno 10718 bound_to 10713
  153.2734  135.6934  153.7458 H   0  0  0  0  0  0  0  0  0  0  0  0  # atno 10763 bound_to 10752
  153.6472  135.3383  155.3090 H   0  0  0  0  0  0  0  0  0  0  0  0  # atno 10764 bound_to 10752
  154.8471  135.4446  154.1764 H   0  0  0  0  0  0  0  0  0  0  0  0  # atno 10765 bound_to 10752
  139.9885  134.9523  156.9800 H   0  0  0  0  0  0  0  0  0  0  0  0  # atno 11005 bound_to 11000
  144.9816  140.8464  143.5394 LP  0  0  0  0  0  0  0  0  0  0  0  0  # atno 17320 bound_to 7965
  145.1959  139.2277  143.5218 LP  0  0  0  0  0  0  0  0  0  0  0  0  # atno 17321 bound_to 7965
  140.7683  143.5556  150.9156 LP  0  0  0  0  0  0  0  0  0  0  0  0  # atno 17342 bound_to 10162
  139.9234  143.6579  152.3092 LP  0  0  0  0  0  0  0  0  0  0  0  0  # atno 17343 bound_to 10162
  156.0774  130.3677  150.0649 LP  0  0  0  0  0  0  0  0  0  0  0  0  # atno 17370 bound_to 10713
  156.8800  130.9553  151.3600 LP  0  0  0  0  0  0  0  0  0  0  0  0  # atno 17371 bound_to 10713
  140.4955  134.1150  155.7240 LP  0  0  0  0  0  0  0  0  0  0  0  0  # atno 17394 bound_to 11000
  141.1545  133.8907  157.2012 LP  0  0  0  0  0  0  0  0  0  0  0  0  # atno 17395 bound_to 11000

$$$$
