AV-unprocessed.smi:2078|AV-procd|sdf|8471|dock1
  -GOLD-   2272011173D 1   1.00000     0.00000
 Structure written by MMmdl.
 41 42  0  0  0  0  0  0  0  0  3 V2000
  151.2063  133.6193  156.4559 C   0  0  0  0  0  0  0  0  0  0  0  0
  150.9681  135.0812  156.6200 C   0  0  0  0  0  0  0  0  0  0  0  0
  151.0418  136.1381  155.7572 C   0  0  0  0  0  0  0  0  0  0  0  0
  150.6895  137.2452  156.5742 C   0  0  0  0  0  0  0  0  0  0  0  0
  150.6470  138.5576  156.0337 N   0  0  0  0  0  0  0  0  0  0  0  0
  150.7073  138.9425  154.7457 C   0  0  0  0  0  0  0  0  0  0  0  0
  150.8057  138.0996  153.8458 O   0  0  0  0  0  0  0  0  0  0  0  0
  150.6459  140.2957  154.6109 N   0  5  0  0  0  0  0  0  0  0  0  0
  149.9870  141.1934  155.5559 C   0  0  0  0  0  0  0  0  0  0  0  0
  151.0360  141.8073  156.5026 C   0  0  0  0  0  0  0  0  0  0  0  0
  150.4506  142.8573  157.3788 N   0  3  1  0  0  0  0  0  0  0  0  0
  149.4590  142.3120  158.3424 C   0  0  0  0  0  0  0  0  0  0  0  0
  148.7614  143.4414  159.1175 C   0  0  0  0  0  0  0  0  0  0  0  0
  149.7841  144.3357  159.8305 C   0  0  0  0  0  0  0  0  0  0  0  0
  150.8196  144.8681  158.8257 C   0  0  1  0  0  0  0  0  0  0  0  0
  151.8715  145.7485  159.5149 C   0  0  0  0  0  0  0  0  0  0  0  0
  151.4729  143.6960  158.0669 C   0  0  0  0  0  0  0  0  0  0  0  0
  150.4232  136.8940  157.8236 N   0  0  0  0  0  0  0  0  0  0  0  0
  150.6006  135.5058  157.8592 O   0  0  0  0  0  0  0  0  0  0  0  0
  151.5070  133.3863  155.4344 H   0  0  0  0  0  0  0  0  0  0  0  0
  150.3020  133.0535  156.6799 H   0  0  0  0  0  0  0  0  0  0  0  0
  151.9949  133.2789  157.1268 H   0  0  0  0  0  0  0  0  0  0  0  0
  151.3063  136.1206  154.7105 H   0  0  0  0  0  0  0  0  0  0  0  0
  150.5590  139.3030  156.7082 H   0  0  0  0  0  0  0  0  0  0  0  0
  149.4563  141.9997  155.0481 H   0  0  0  0  0  0  0  0  0  0  0  0
  149.2369  140.6713  156.1513 H   0  0  0  0  0  0  0  0  0  0  0  0
  151.4456  141.0021  157.1149 H   0  0  0  0  0  0  0  0  0  0  0  0
  151.8787  142.2160  155.9424 H   0  0  0  0  0  0  0  0  0  0  0  0
  148.7058  141.7312  157.8083 H   0  0  0  0  0  0  0  0  0  0  0  0
  149.9576  141.6296  159.0327 H   0  0  0  0  0  0  0  0  0  0  0  0
  148.1646  144.0424  158.4301 H   0  0  0  0  0  0  0  0  0  0  0  0
  148.0658  143.0200  159.8438 H   0  0  0  0  0  0  0  0  0  0  0  0
  149.2731  145.1636  160.3231 H   0  0  0  0  0  0  0  0  0  0  0  0
  150.2843  143.7662  160.6151 H   0  0  0  0  0  0  0  0  0  0  0  0
  150.2971  145.4908  158.0976 H   0  0  0  0  0  0  0  0  0  0  0  0
  152.4297  145.1875  160.2649 H   0  0  0  0  0  0  0  0  0  0  0  0
  151.4058  146.5991  160.0134 H   0  0  0  0  0  0  0  0  0  0  0  0
  152.5880  146.1423  158.7934 H   0  0  0  0  0  0  0  0  0  0  0  0
  152.0484  143.0741  158.7548 H   0  0  0  0  0  0  0  0  0  0  0  0
  152.1808  144.0924  157.3382 H   0  0  0  0  0  0  0  0  0  0  0  0
  149.9339  143.4684  156.7626 H   0  0  0  0  0  0  0  0  0  0  0  0
  1  2  1  0  0  0  0
  1 20  1  0  0  0  0
  1 21  1  0  0  0  0
  1 22  1  0  0  0  0
  2 19  1  0  0  0  0
  2  3  2  0  0  0  0
  3  4  1  0  0  0  0
  3 23  1  0  0  0  0
  4  5  1  0  0  0  0
  4 18  2  0  0  0  0
  5  6  1  0  0  0  0
  5 24  1  0  0  0  0
  6  7  2  0  0  0  0
  6  8  1  0  0  0  0
  8  9  1  0  0  0  0
  9 10  1  0  0  0  0
  9 25  1  0  0  0  0
  9 26  1  0  0  0  0
 10 11  1  0  0  0  0
 10 27  1  0  0  0  0
 10 28  1  0  0  0  0
 11 17  1  0  0  0  0
 11 12  1  0  0  0  0
 11 41  1  0  0  0  0
 12 13  1  0  0  0  0
 12 29  1  0  0  0  0
 12 30  1  0  0  0  0
 13 14  1  0  0  0  0
 13 31  1  0  0  0  0
 13 32  1  0  0  0  0
 14 15  1  0  0  0  0
 14 33  1  0  0  0  0
 14 34  1  0  0  0  0
 15 16  1  0  0  0  0
 15 17  1  0  0  0  0
 15 35  1  0  0  0  0
 16 36  1  0  0  0  0
 16 37  1  0  0  0  0
 16 38  1  0  0  0  0
 17 39  1  0  0  0  0
 17 40  1  0  0  0  0
 18 19  1  0  0  0  0
M  CHG  1   8  -1
M  CHG  1  11   1
M  END
> <s_m_source_file>
AV-unprocessed.smi

> <i_m_source_file_index>
2078

> <i_lp_mmshare_version>
43012

> <i_f3d_flags>
0

> <s_epik_input>
W0NIM11jMVtjSF1jKG5vMSlbTkhdQyg9TylbTkhdW0NIMl1bQ0gyXU4yW0NIMl1bQ0gyXVtDSDJdW0NAQEhdKFtDSDNdKVtDSDJdMg==

> <s_epik_cmdline>
J2VwaWtfcHl0aG9uJywgJy1waCcsICc3LjAnLCAnLXRuJywgJzgnLCAnLW1hJywgJzIwMCcsICctbWV0YWxfYmluZGluZycsICctaW1hZScsICc8aW5maWxlLm1hZT4nLCAnLW9tYWUnLCAnPG91dGZpbGUubWFlPic=

> <r_epik_Ionization_Penalty>
6.76934

> <r_epik_Ionization_Penalty_Charging>
6.76934

> <r_epik_Ionization_Penalty_Neutral>
5.77849e-06

> <r_epik_State_Penalty>
6.79457

> <r_epik_Charging_Adjusted_Penalty>
13.5639

> <i_epik_Tot_Q>
0

> <i_epik_Tot_abs_Q>
2

> <r_epik_Metal_State_Penalty>
2.72837

> <b_epik_Metal_Only>
1

> <s_lp_Force_Field>
OPLS_2005

> <r_lp_Energy>
13.3019

> <b_lp_Chiralities_Consistent>
1

> <s_lp_Variant>
AV-unprocessed.smi:2078-9

> <Gold.Version>
5.8.1

> <Gold.Id.Protein>
6NUR|6NUR_protein|mol2

> <Gold.PLP.Fitness>
41.4003

> <Gold.PLP.PLP>
-30.7662

> <Gold.PLP.part.hbond>
-3.0000

> <Gold.PLP.part.metal>
0.0000

> <Gold.PLP.part.buried>
-4.2176

> <Gold.PLP.part.nonpolar>
-24.2861

> <Gold.PLP.part.repulsive>
0.3931

> <Gold.PLP.ligand.clash>
0.0393

> <Gold.PLP.ligand.torsion>
0.4081

> <Gold.PLP.Chemscore.Hbond>
3.8160

> <Gold.PLP.Chemscore.CHOScore>
0.0000

> <Gold.PLP.Chemscore.Metal>
0.0000

> <Gold.Chemscore.Hbonds>
donor molecule, donor type, donor heavy atom, donor atom, acceptor molecule, acceptor atom, score
      L1  H    11    41       P1  8028  2.00
      P1  H  6896  6907       L1    19  0.53
      P1  H  7989  7998       L1     8  1.00

> <Gold.PLP.Chemscore.Internal.Correction>
0.0415

> <Gold.Rescore>
     Score         DG    S(hbond)    S(metal)    S(lipo)     H(rot)  DE(clash)    DE(int)     intcor
     17.05     -19.01       2.57        0.00      75.99       1.54       0.11       1.85       ----

> <Gold.Chemscore.Fitness>
17.0542

> <Gold.Chemscore.DG>
-19.0097

> <Gold.Chemscore.ZeroCoef>
-5.4800

> <Gold.Chemscore.Hbond>
2.5699

> <Gold.Chemscore.Metal>
0.0000

> <Gold.Chemscore.Lipo>
75.9912

> <Gold.Chemscore.Internal_Hbond>
0.0000

> <Gold.Chemscore.DEClash>
0.1068

> <Gold.Chemscore.DEInternal>
1.8486

> <Gold.Chemscore.Rot>
1.5409

> <Gold.Chemscore.Internal.Correction>
   9.000000E+99

> <Gold.Chemscore.Hbonds>
donor molecule, donor type, donor heavy atom, donor atom, acceptor molecule, acceptor atom, score
      L1  H    11    41       P1  8028  0.99
      P1  H  6896  6907       L1    19  0.53
      P1  H  7989  7998       L1     8  0.84

> <Gold.Chemscore.Hbond.Weighted>
-8.5833

> <Gold.Chemscore.Metal.Weighted>
-0.0000

> <Gold.Chemscore.Lipo.Weighted>
-8.8910

> <Gold.Chemscore.Internal_Hbond.Weighted>
0.0000

> <Gold.Chemscore.DEClash.Weighted>
0.1068

> <Gold.Chemscore.DEInternal.Weighted>
1.8486

> <Gold.Chemscore.Rot.Weighted>
3.9446

> <Gold.Chemscore.Internal.Correction.Weighted>
   9.000000E+99

> <Gold.Protein.RotatedTorsions>
[ 6907 6896 6895 6894 ] final  -73.50 input  -60.11 | X-H torsion
[ 7974 7965 7964 7962 ] final   54.58 input  175.53 | X-H torsion
[ 8008 7997 7996 7995 ] final  108.56 input   59.86 | X-H torsion
[ 10167 10162 10161 10158 ] final   28.11 input  -65.29 | X-H torsion
[ 10718 10713 10712 10709 ] final  168.87 input   66.30 | X-H torsion
[ 10763 10752 10751 10750 ] final  -82.88 input  -60.55 | X-H torsion
[ 11005 11000 10999 10996 ] final  130.74 input  -57.11 | X-H torsion

> <Gold.Protein.ActiveResidues>
 VAL166  LYS551  ARG553  GLY616  TRP617  ASP618  TYR619  PRO620  LYS621  CYS622 
 ASP623  PHE694  ASN695  SER759  ASP760  ASP761  ALA762  ILE779  LEU786  VAL792 
 PHE793  MET794  SER795  GLU796  ALA797  LYS798  CYS799  TRP800  GLU811  SER814 

> <Gold.Protein.RotatedAtoms>
  150.7128  134.5008  159.5559 H   0  0  0  0  0  0  0  0  0  0  0  0  # atno 6907 bound_to 6896
  152.2605  134.8035  160.0440 H   0  0  0  0  0  0  0  0  0  0  0  0  # atno 6908 bound_to 6896
  151.8751  133.3448  159.3784 H   0  0  0  0  0  0  0  0  0  0  0  0  # atno 6909 bound_to 6896
  145.9594  139.4045  143.0257 H   0  0  0  0  0  0  0  0  0  0  0  0  # atno 7974 bound_to 7965
  156.1912  140.3074  155.9337 H   0  0  0  0  0  0  0  0  0  0  0  0  # atno 8008 bound_to 7997
  155.3168  140.0454  157.3054 H   0  0  0  0  0  0  0  0  0  0  0  0  # atno 8009 bound_to 7997
  154.5455  140.2275  155.8579 H   0  0  0  0  0  0  0  0  0  0  0  0  # atno 8010 bound_to 7997
  140.4881  144.0511  150.6287 H   0  0  0  0  0  0  0  0  0  0  0  0  # atno 10167 bound_to 10162
  157.0308  131.0259  151.2745 H   0  0  0  0  0  0  0  0  0  0  0  0  # atno 10718 bound_to 10713
  154.5810  135.5576  153.7186 H   0  0  0  0  0  0  0  0  0  0  0  0  # atno 10763 bound_to 10752
  153.0081  135.6320  154.1982 H   0  0  0  0  0  0  0  0  0  0  0  0  # atno 10764 bound_to 10752
  154.1922  135.2882  155.2998 H   0  0  0  0  0  0  0  0  0  0  0  0  # atno 10765 bound_to 10752
  139.9689  134.9583  156.9337 H   0  0  0  0  0  0  0  0  0  0  0  0  # atno 11005 bound_to 11000
  145.8061  140.9748  143.0973 LP  0  0  0  0  0  0  0  0  0  0  0  0  # atno 17320 bound_to 7965
  144.6812  139.9862  143.7484 LP  0  0  0  0  0  0  0  0  0  0  0  0  # atno 17321 bound_to 7965
  140.3772  143.2822  152.0211 LP  0  0  0  0  0  0  0  0  0  0  0  0  # atno 17342 bound_to 10162
  139.4846  144.6183  151.7303 LP  0  0  0  0  0  0  0  0  0  0  0  0  # atno 17343 bound_to 10162
  157.5179  130.7979  149.7776 LP  0  0  0  0  0  0  0  0  0  0  0  0  # atno 17370 bound_to 10713
  156.0070  130.3851  150.2396 LP  0  0  0  0  0  0  0  0  0  0  0  0  # atno 17371 bound_to 10713
  140.5336  134.0789  155.7322 LP  0  0  0  0  0  0  0  0  0  0  0  0  # atno 17394 bound_to 11000
  141.1369  133.9206  157.2414 LP  0  0  0  0  0  0  0  0  0  0  0  0  # atno 17395 bound_to 11000

$$$$
