AV-unprocessed.smi:2837|AV-procd|sdf|10927|dock9
  -GOLD-   2272015373D 1   1.00000     0.00000
 Structure written by MMmdl.
 33 35  0  0  0  0  0  0  0  0  2 V2000
  155.1765  140.5190  160.0096 F   0  0  0  0  0  0  0  0  0  0  0  0
  154.1683  140.8190  160.8646 C   0  0  0  0  0  0  0  0  0  0  0  0
  154.6793  140.8040  162.1189 F   0  0  0  0  0  0  0  0  0  0  0  0
  153.6635  142.0512  160.5899 O   0  0  0  0  0  0  0  0  0  0  0  0
  152.7266  142.1920  159.5910 C   0  0  0  0  0  0  0  0  0  0  0  0
  152.5129  143.4780  159.0523 C   0  0  0  0  0  0  0  0  0  0  0  0
  151.5733  143.6604  158.0168 C   0  0  0  0  0  0  0  0  0  0  0  0
  150.8582  142.5437  157.5230 C   0  0  0  0  0  0  0  0  0  0  0  0
  149.9045  142.6016  156.4973 N   0  0  0  0  0  0  0  0  0  0  0  0
  149.2070  141.4060  156.0407 C   0  0  1  0  0  0  0  0  0  0  0  0
  147.7856  141.6911  155.5363 C   0  0  0  0  0  0  0  0  0  0  0  0
  147.8331  141.1210  154.1133 C   0  0  2  0  0  0  0  0  0  0  0  0
  147.9344  139.5897  154.1025 C   0  0  0  0  0  0  0  0  0  0  0  0
  149.3805  139.3691  154.5448 C   0  0  0  0  0  0  0  0  0  0  0  0
  149.8609  140.8070  154.7840 C   0  0  1  0  0  0  0  0  0  0  0  0
  149.1553  141.4755  153.7508 O   0  0  0  0  0  0  0  0  0  0  0  0
  151.0972  141.3267  158.0591 N   0  3  0  0  0  0  0  0  0  0  0  0
  151.9881  141.1111  159.0515 C   0  0  0  0  0  0  0  0  0  0  0  0
  153.4001  140.0473  160.8088 H   0  0  0  0  0  0  0  0  0  0  0  0
  153.0670  144.3231  159.4336 H   0  0  0  0  0  0  0  0  0  0  0  0
  151.4188  144.6514  157.6177 H   0  0  0  0  0  0  0  0  0  0  0  0
  149.5995  143.4982  156.1462 H   0  0  0  0  0  0  0  0  0  0  0  0
  149.2097  140.6654  156.8415 H   0  0  0  0  0  0  0  0  0  0  0  0
  147.0183  141.2157  156.1483 H   0  0  0  0  0  0  0  0  0  0  0  0
  147.5756  142.7614  155.5027 H   0  0  0  0  0  0  0  0  0  0  0  0
  147.0640  141.5194  153.4510 H   0  0  0  0  0  0  0  0  0  0  0  0
  147.2098  139.1221  154.7701 H   0  0  0  0  0  0  0  0  0  0  0  0
  147.7782  139.1955  153.0977 H   0  0  0  0  0  0  0  0  0  0  0  0
  149.4622  138.7459  155.4359 H   0  0  0  0  0  0  0  0  0  0  0  0
  149.9552  138.8984  153.7462 H   0  0  0  0  0  0  0  0  0  0  0  0
  150.9451  140.9168  154.7395 H   0  0  0  0  0  0  0  0  0  0  0  0
  152.0808  140.0832  159.3706 H   0  0  0  0  0  0  0  0  0  0  0  0
  150.5812  140.5260  157.6936 H   0  0  0  0  0  0  0  0  0  0  0  0
  1  2  1  0  0  0  0
  2  3  1  0  0  0  0
  2  4  1  0  0  0  0
  2 19  1  0  0  0  0
  4  5  1  0  0  0  0
  5 18  1  0  0  0  0
  5  6  2  0  0  0  0
  6  7  1  0  0  0  0
  6 20  1  0  0  0  0
  7  8  2  0  0  0  0
  7 21  1  0  0  0  0
  8  9  1  0  0  0  0
  8 17  1  0  0  0  0
  9 10  1  0  0  0  0
  9 22  1  0  0  0  0
 10 15  1  0  0  0  0
 10 11  1  0  0  0  0
 10 23  1  0  0  0  0
 11 12  1  0  0  0  0
 11 24  1  0  0  0  0
 11 25  1  0  0  0  0
 12 16  1  0  0  0  0
 12 13  1  0  0  0  0
 12 26  1  0  0  0  0
 13 14  1  0  0  0  0
 13 27  1  0  0  0  0
 13 28  1  0  0  0  0
 14 15  1  0  0  0  0
 14 29  1  0  0  0  0
 14 30  1  0  0  0  0
 15 16  1  0  0  0  0
 15 31  1  0  0  0  0
 17 18  2  0  0  0  0
 17 33  1  0  0  0  0
 18 32  1  0  0  0  0
M  CHG  1  17   1
M  END
> <s_m_source_file>
AV-unprocessed.smi

> <i_m_source_file_index>
2837

> <i_lp_mmshare_version>
43012

> <i_f3d_flags>
0

> <s_epik_input>
RltDSF0oRilPYzFbY0hdW2NIXWMobltjSF0xKVtOSF1bQ0BIXShbQ0gyXVtDQEBIXTIzKVtDQEBIXShPMylbQ0gyXVtDSDJdMg==

> <s_epik_cmdline>
J2VwaWtfcHl0aG9uJywgJy1waCcsICc3LjAnLCAnLXRuJywgJzgnLCAnLW1hJywgJzIwMCcsICctbWV0YWxfYmluZGluZycsICctaW1hZScsICc8aW5maWxlLm1hZT4nLCAnLW9tYWUnLCAnPG91dGZpbGUubWFlPic=

> <r_lp_tautomer_probability>
0.999429

> <r_epik_Ionization_Penalty>
2.29716

> <r_epik_Ionization_Penalty_Charging>
2.29716

> <r_epik_Ionization_Penalty_Neutral>
1.42285e-06

> <r_epik_State_Penalty>
2.44762

> <r_epik_Charging_Adjusted_Penalty>
4.74478

> <i_epik_Tot_Q>
1

> <i_epik_Tot_abs_Q>
1

> <r_epik_Metal_State_Penalty>
6.53078

> <b_epik_Metal_Only>
0

> <s_lp_Force_Field>
OPLS_2005

> <r_lp_Energy>
46.2914

> <b_lp_Chiralities_Consistent>
1

> <s_lp_Variant>
AV-unprocessed.smi:2837-8

> <Gold.Version>
5.8.1

> <Gold.Id.Protein>
6NUR|6NUR_protein|mol2

> <Gold.PLP.Fitness>
44.5080

> <Gold.PLP.PLP>
-37.6719

> <Gold.PLP.part.hbond>
-2.9684

> <Gold.PLP.part.metal>
0.0000

> <Gold.PLP.part.buried>
-2.7422

> <Gold.PLP.part.nonpolar>
-33.4955

> <Gold.PLP.part.repulsive>
1.5600

> <Gold.PLP.ligand.clash>
0.0000

> <Gold.PLP.ligand.torsion>
0.8176

> <Gold.PLP.Chemscore.Hbond>
2.8160

> <Gold.PLP.Chemscore.CHOScore>
0.0000

> <Gold.PLP.Chemscore.Metal>
0.0000

> <Gold.Chemscore.Hbonds>
donor molecule, donor type, donor heavy atom, donor atom, acceptor molecule, acceptor atom, score
      L1  H     9    22       P1  8028  1.82
      P1  H  8011  8017       L1    16  0.77

> <Gold.PLP.Chemscore.Internal.Correction>
0.0233

> <Gold.Rescore>
     Score         DG    S(hbond)    S(metal)    S(lipo)     H(rot)  DE(clash)    DE(int)     intcor
     17.36     -18.11       1.77        0.00      86.73       1.34       0.22       0.53       ----

> <Gold.Chemscore.Fitness>
17.3564

> <Gold.Chemscore.DG>
-18.1107

> <Gold.Chemscore.ZeroCoef>
-5.4800

> <Gold.Chemscore.Hbond>
1.7682

> <Gold.Chemscore.Metal>
0.0000

> <Gold.Chemscore.Lipo>
86.7280

> <Gold.Chemscore.Internal_Hbond>
0.0000

> <Gold.Chemscore.DEClash>
0.2194

> <Gold.Chemscore.DEInternal>
0.5349

> <Gold.Chemscore.Rot>
1.3368

> <Gold.Chemscore.Internal.Correction>
   9.000000E+99

> <Gold.Chemscore.Hbonds>
donor molecule, donor type, donor heavy atom, donor atom, acceptor molecule, acceptor atom, score
      L1  H     9    22       P1  8028  0.87
      P1  H  8011  8017       L1    16  0.78

> <Gold.Chemscore.Hbond.Weighted>
-5.9058

> <Gold.Chemscore.Metal.Weighted>
-0.0000

> <Gold.Chemscore.Lipo.Weighted>
-10.1472

> <Gold.Chemscore.Internal_Hbond.Weighted>
0.0000

> <Gold.Chemscore.DEClash.Weighted>
0.2194

> <Gold.Chemscore.DEInternal.Weighted>
0.5349

> <Gold.Chemscore.Rot.Weighted>
3.4223

> <Gold.Chemscore.Internal.Correction.Weighted>
   9.000000E+99

> <Gold.Protein.RotatedTorsions>
[ 6907 6896 6895 6894 ] final  103.88 input  -60.11 | X-H torsion
[ 7974 7965 7964 7962 ] final  -29.97 input  175.53 | X-H torsion
[ 8008 7997 7996 7995 ] final  -62.38 input   59.86 | X-H torsion
[ 10167 10162 10161 10158 ] final   71.82 input  -65.29 | X-H torsion
[ 10718 10713 10712 10709 ] final -178.62 input   66.30 | X-H torsion
[ 10763 10752 10751 10750 ] final  -57.63 input  -60.55 | X-H torsion
[ 11005 11000 10999 10996 ] final  -63.90 input  -57.11 | X-H torsion

> <Gold.Protein.ActiveResidues>
 VAL166  LYS551  ARG553  GLY616  TRP617  ASP618  TYR619  PRO620  LYS621  CYS622 
 ASP623  PHE694  ASN695  SER759  ASP760  ASP761  ALA762  ILE779  LEU786  VAL792 
 PHE793  MET794  SER795  GLU796  ALA797  LYS798  CYS799  TRP800  GLU811  SER814 

> <Gold.Protein.RotatedAtoms>
  152.5282  133.9760  159.7784 H   0  0  0  0  0  0  0  0  0  0  0  0  # atno 6907 bound_to 6896
  151.0023  133.6036  159.2700 H   0  0  0  0  0  0  0  0  0  0  0  0  # atno 6908 bound_to 6896
  151.3141  135.0808  159.9336 H   0  0  0  0  0  0  0  0  0  0  0  0  # atno 6909 bound_to 6896
  146.1177  140.5481  142.8749 H   0  0  0  0  0  0  0  0  0  0  0  0  # atno 7974 bound_to 7965
  154.4497  140.0997  156.6578 H   0  0  0  0  0  0  0  0  0  0  0  0  # atno 8008 bound_to 7997
  155.5326  140.3481  155.4411 H   0  0  0  0  0  0  0  0  0  0  0  0  # atno 8009 bound_to 7997
  156.0653  140.1336  156.9882 H   0  0  0  0  0  0  0  0  0  0  0  0  # atno 8010 bound_to 7997
  140.0420  144.5382  150.7427 H   0  0  0  0  0  0  0  0  0  0  0  0  # atno 10167 bound_to 10162
  156.8469  130.9706  151.3095 H   0  0  0  0  0  0  0  0  0  0  0  0  # atno 10718 bound_to 10713
  154.2254  135.6370  153.5158 H   0  0  0  0  0  0  0  0  0  0  0  0  # atno 10763 bound_to 10752
  152.9960  135.5506  154.6069 H   0  0  0  0  0  0  0  0  0  0  0  0  # atno 10764 bound_to 10752
  154.5540  135.2904  155.0956 H   0  0  0  0  0  0  0  0  0  0  0  0  # atno 10765 bound_to 10752
  141.1408  133.6658  156.5750 H   0  0  0  0  0  0  0  0  0  0  0  0  # atno 11005 bound_to 11000
  144.7568  140.5327  143.6763 LP  0  0  0  0  0  0  0  0  0  0  0  0  # atno 17320 bound_to 7965
  145.5531  139.1477  143.3383 LP  0  0  0  0  0  0  0  0  0  0  0  0  # atno 17321 bound_to 7965
  140.7256  143.2632  151.4132 LP  0  0  0  0  0  0  0  0  0  0  0  0  # atno 17342 bound_to 10162
  139.6008  144.1300  152.2195 LP  0  0  0  0  0  0  0  0  0  0  0  0  # atno 17343 bound_to 10162
  157.6325  130.8740  149.9299 LP  0  0  0  0  0  0  0  0  0  0  0  0  # atno 17370 bound_to 10713
  156.0849  130.3669  150.0507 LP  0  0  0  0  0  0  0  0  0  0  0  0  # atno 17371 bound_to 10713
  140.3883  134.7463  157.4705 LP  0  0  0  0  0  0  0  0  0  0  0  0  # atno 17394 bound_to 11000
  140.0586  134.6028  155.8776 LP  0  0  0  0  0  0  0  0  0  0  0  0  # atno 17395 bound_to 11000

$$$$
