AV-unprocessed.smi:2353|AV-procd|sdf|9382|dock6
  -GOLD-   2272013 13D 1   1.00000     0.00000
 Structure written by MMmdl.
 46 48  0  0  0  0  0  0  0  0  2 V2000
  151.5474  144.9198  159.0429 C   0  0  0  0  0  0  0  0  0  0  0  0
  152.1080  143.5537  159.3810 C   0  0  0  0  0  0  0  0  0  0  0  0
  152.6874  143.3151  160.6421 C   0  0  0  0  0  0  0  0  0  0  0  0
  153.2005  142.0421  160.9492 C   0  0  0  0  0  0  0  0  0  0  0  0
  153.1391  141.0017  159.9992 C   0  0  0  0  0  0  0  0  0  0  0  0
  153.6997  139.6354  160.3471 C   0  0  0  0  0  0  0  0  0  0  0  0
  152.5622  141.2283  158.7280 C   0  0  0  0  0  0  0  0  0  0  0  0
  152.5361  140.1684  157.8449 O   0  0  0  0  0  0  0  0  0  0  0  0
  151.7653  140.2908  156.6571 C   0  0  0  0  0  0  0  0  0  0  0  0
  151.2994  138.8904  156.2250 C   0  0  2  0  0  0  0  0  0  0  0  0
  152.3666  137.9967  156.4796 O   0  0  0  0  0  0  0  0  0  0  0  0
  150.9831  138.8298  154.7140 C   0  0  0  0  0  0  0  0  0  0  0  0
  149.6252  139.3023  154.4183 N   0  0  0  0  0  0  0  0  0  0  0  0
  148.7383  138.2925  154.0898 N   0  0  0  0  0  0  0  0  0  0  0  0
  147.4998  138.5570  153.8226 C   0  0  0  0  0  0  0  0  0  0  0  0
  146.5259  137.5333  153.4825 N   0  0  0  0  0  0  0  0  0  0  0  0
  145.4943  137.5587  152.5746 C   0  0  0  0  0  0  0  0  0  0  0  0
  144.8848  136.3324  152.6537 C   0  0  0  0  0  0  0  0  0  0  0  0
  145.5665  135.6150  153.6011 N   0  3  0  0  0  0  0  0  0  0  0  0
  146.5662  136.3454  154.1074 C   0  0  0  0  0  0  0  0  0  0  0  0
  147.0306  139.9337  153.8570 C   0  0  0  0  0  0  0  0  0  0  0  0
  147.9039  140.9123  154.1787 C   0  0  0  0  0  0  0  0  0  0  0  0
  149.3029  140.6274  154.4932 C   0  0  0  0  0  0  0  0  0  0  0  0
  150.1154  141.4983  154.8022 O   0  0  0  0  0  0  0  0  0  0  0  0
  152.0457  142.5153  158.4300 C   0  0  0  0  0  0  0  0  0  0  0  0
  151.8235  145.6601  159.7946 H   0  0  0  0  0  0  0  0  0  0  0  0
  150.4595  144.8770  158.9890 H   0  0  0  0  0  0  0  0  0  0  0  0
  151.9264  145.2586  158.0784 H   0  0  0  0  0  0  0  0  0  0  0  0
  152.7399  144.1044  161.3777 H   0  0  0  0  0  0  0  0  0  0  0  0
  153.6424  141.8678  161.9194 H   0  0  0  0  0  0  0  0  0  0  0  0
  154.5280  139.3877  159.6824 H   0  0  0  0  0  0  0  0  0  0  0  0
  152.9306  138.8704  160.2379 H   0  0  0  0  0  0  0  0  0  0  0  0
  154.0664  139.6028  161.3734 H   0  0  0  0  0  0  0  0  0  0  0  0
  150.8947  140.9096  156.8794 H   0  0  0  0  0  0  0  0  0  0  0  0
  152.3273  140.7776  155.8577 H   0  0  0  0  0  0  0  0  0  0  0  0
  150.4243  138.6031  156.8096 H   0  0  0  0  0  0  0  0  0  0  0  0
  152.0162  137.2188  156.8858 H   0  0  0  0  0  0  0  0  0  0  0  0
  151.6934  139.4465  154.1603 H   0  0  0  0  0  0  0  0  0  0  0  0
  151.1361  137.8194  154.3293 H   0  0  0  0  0  0  0  0  0  0  0  0
  145.2632  138.4098  151.9518 H   0  0  0  0  0  0  0  0  0  0  0  0
  144.0379  135.9270  152.1195 H   0  0  0  0  0  0  0  0  0  0  0  0
  147.2574  136.0260  154.8678 H   0  0  0  0  0  0  0  0  0  0  0  0
  146.0065  140.1876  153.6332 H   0  0  0  0  0  0  0  0  0  0  0  0
  147.5609  141.9363  154.2063 H   0  0  0  0  0  0  0  0  0  0  0  0
  151.5931  142.7309  157.4741 H   0  0  0  0  0  0  0  0  0  0  0  0
  145.3465  134.6672  153.8810 H   0  0  0  0  0  0  0  0  0  0  0  0
  1  2  1  0  0  0  0
  1 26  1  0  0  0  0
  1 27  1  0  0  0  0
  1 28  1  0  0  0  0
  2 25  1  0  0  0  0
  2  3  2  0  0  0  0
  3  4  1  0  0  0  0
  3 29  1  0  0  0  0
  4  5  2  0  0  0  0
  4 30  1  0  0  0  0
  5  6  1  0  0  0  0
  5  7  1  0  0  0  0
  6 31  1  0  0  0  0
  6 32  1  0  0  0  0
  6 33  1  0  0  0  0
  7  8  1  0  0  0  0
  7 25  2  0  0  0  0
  8  9  1  0  0  0  0
  9 10  1  0  0  0  0
  9 34  1  0  0  0  0
  9 35  1  0  0  0  0
 10 11  1  0  0  0  0
 10 12  1  0  0  0  0
 10 36  1  0  0  0  0
 11 37  1  0  0  0  0
 12 13  1  0  0  0  0
 12 38  1  0  0  0  0
 12 39  1  0  0  0  0
 13 23  1  0  0  0  0
 13 14  1  0  0  0  0
 14 15  2  0  0  0  0
 15 16  1  0  0  0  0
 15 21  1  0  0  0  0
 16 20  1  0  0  0  0
 16 17  1  0  0  0  0
 17 18  2  0  0  0  0
 17 40  1  0  0  0  0
 18 19  1  0  0  0  0
 18 41  1  0  0  0  0
 19 20  2  0  0  0  0
 19 46  1  0  0  0  0
 20 42  1  0  0  0  0
 21 22  2  0  0  0  0
 21 43  1  0  0  0  0
 22 23  1  0  0  0  0
 22 44  1  0  0  0  0
 23 24  2  0  0  0  0
 25 45  1  0  0  0  0
M  CHG  1  19   1
M  END
> <s_m_source_file>
AV-unprocessed.smi

> <i_m_source_file_index>
2353

> <i_lp_mmshare_version>
43012

> <i_f3d_flags>
0

> <s_epik_input>
W0NIM11jMVtjSF1bY0hdYyhbQ0gzXSljKFtjSF0xKU9bQ0gyXVtDQEhdKFtPSF0pW0NIMl1uMm5jKFtjSF1bY0hdYzI9TyktbjNbY0hdW2NIXW5bY0hdMw==

> <s_epik_cmdline>
J2VwaWtfcHl0aG9uJywgJy1waCcsICc3LjAnLCAnLXRuJywgJzgnLCAnLW1hJywgJzIwMCcsICctbWV0YWxfYmluZGluZycsICctaW1hZScsICc8aW5maWxlLm1hZT4nLCAnLW9tYWUnLCAnPG91dGZpbGUubWFlPic=

> <r_lp_tautomer_probability>
1

> <r_epik_Ionization_Penalty>
1.66053

> <r_epik_Ionization_Penalty_Charging>
2.43903e-09

> <r_epik_Ionization_Penalty_Neutral>
1.66053

> <r_epik_State_Penalty>
1.76336

> <r_epik_Charging_Adjusted_Penalty>
1.76336

> <i_epik_Tot_Q>
1

> <i_epik_Tot_abs_Q>
1

> <r_epik_Metal_State_Penalty>
1.79856

> <b_epik_Metal_Only>
0

> <s_lp_Force_Field>
OPLS_2005

> <r_lp_Energy>
37.6947

> <b_lp_Chiralities_Consistent>
1

> <s_lp_Variant>
AV-unprocessed.smi:2353-3

> <Gold.Version>
5.8.1

> <Gold.Id.Protein>
6NUR|6NUR_protein|mol2

> <Gold.PLP.Fitness>
51.1771

> <Gold.PLP.PLP>
-44.3204

> <Gold.PLP.part.hbond>
-2.4507

> <Gold.PLP.part.metal>
0.0000

> <Gold.PLP.part.buried>
-3.7279

> <Gold.PLP.part.nonpolar>
-39.7546

> <Gold.PLP.part.repulsive>
0.9486

> <Gold.PLP.ligand.clash>
0.0000

> <Gold.PLP.ligand.torsion>
1.4550

> <Gold.PLP.Chemscore.Hbond>
1.2464

> <Gold.PLP.Chemscore.CHOScore>
2.0000

> <Gold.PLP.Chemscore.Metal>
0.0000

> <Gold.Chemscore.Hbonds>
donor molecule, donor type, donor heavy atom, donor atom, acceptor molecule, acceptor atom, score
      P1  H  7989  7998       L1    24  0.32
      P1  H  7997  8008       L1     8  0.52
      L1  C    17    40       P1 10171  0.94
      L1  C    17    40       P1 10175  0.74

> <Gold.PLP.Chemscore.Internal.Correction>
0.0276

> <Gold.Rescore>
     Score         DG    S(hbond)    S(metal)    S(lipo)     H(rot)  DE(clash)    DE(int)     intcor
     11.60     -15.04       0.83        0.00     116.05       2.65       0.19       3.24       ----

> <Gold.Chemscore.Fitness>
11.6028

> <Gold.Chemscore.DG>
-15.0404

> <Gold.Chemscore.ZeroCoef>
-5.4800

> <Gold.Chemscore.Hbond>
0.8310

> <Gold.Chemscore.Metal>
0.0000

> <Gold.Chemscore.Lipo>
116.0529

> <Gold.Chemscore.Internal_Hbond>
0.0000

> <Gold.Chemscore.DEClash>
0.1943

> <Gold.Chemscore.DEInternal>
3.2433

> <Gold.Chemscore.Rot>
2.6537

> <Gold.Chemscore.Internal.Correction>
   9.000000E+99

> <Gold.Chemscore.Hbonds>
donor molecule, donor type, donor heavy atom, donor atom, acceptor molecule, acceptor atom, score
      P1  H  7989  7998       L1    24  0.05
      P1  H  7997  8008       L1     8  0.05

> <Gold.Chemscore.Hbond.Weighted>
-2.7757

> <Gold.Chemscore.Metal.Weighted>
-0.0000

> <Gold.Chemscore.Lipo.Weighted>
-13.5782

> <Gold.Chemscore.Internal_Hbond.Weighted>
0.0000

> <Gold.Chemscore.DEClash.Weighted>
0.1943

> <Gold.Chemscore.DEInternal.Weighted>
3.2433

> <Gold.Chemscore.Rot.Weighted>
6.7935

> <Gold.Chemscore.Internal.Correction.Weighted>
   9.000000E+99

> <Gold.Protein.RotatedTorsions>
[ 6907 6896 6895 6894 ] final   -4.74 input  -60.11 | X-H torsion
[ 7974 7965 7964 7962 ] final  -48.75 input  175.53 | X-H torsion
[ 8008 7997 7996 7995 ] final  -73.59 input   59.86 | X-H torsion
[ 10167 10162 10161 10158 ] final -141.54 input  -65.29 | X-H torsion
[ 10718 10713 10712 10709 ] final -124.33 input   66.30 | X-H torsion
[ 10763 10752 10751 10750 ] final  -78.80 input  -60.55 | X-H torsion
[ 11005 11000 10999 10996 ] final -168.34 input  -57.11 | X-H torsion

> <Gold.Protein.ActiveResidues>
 VAL166  LYS551  ARG553  GLY616  TRP617  ASP618  TYR619  PRO620  LYS621  CYS622 
 ASP623  PHE694  ASN695  SER759  ASP760  ASP761  ALA762  ILE779  LEU786  VAL792 
 PHE793  MET794  SER795  GLU796  ALA797  LYS798  CYS799  TRP800  GLU811  SER814 

> <Gold.Protein.RotatedAtoms>
  151.4927  135.1058  159.9807 H   0  0  0  0  0  0  0  0  0  0  0  0  # atno 6907 bound_to 6896
  152.4734  133.8078  159.6998 H   0  0  0  0  0  0  0  0  0  0  0  0  # atno 6908 bound_to 6896
  150.8757  133.7380  159.2973 H   0  0  0  0  0  0  0  0  0  0  0  0  # atno 6909 bound_to 6896
  145.9479  140.7601  142.9519 H   0  0  0  0  0  0  0  0  0  0  0  0  # atno 7974 bound_to 7965
  154.5260  140.0776  156.8259 H   0  0  0  0  0  0  0  0  0  0  0  0  # atno 8008 bound_to 7997
  155.3475  140.3411  155.4221 H   0  0  0  0  0  0  0  0  0  0  0  0  # atno 8009 bound_to 7997
  156.1732  140.1627  156.8397 H   0  0  0  0  0  0  0  0  0  0  0  0  # atno 8010 bound_to 7997
  139.8175  143.7619  152.2665 H   0  0  0  0  0  0  0  0  0  0  0  0  # atno 10167 bound_to 10162
  156.1578  130.6580  151.0007 H   0  0  0  0  0  0  0  0  0  0  0  0  # atno 10718 bound_to 10713
  154.5305  135.5717  153.6754 H   0  0  0  0  0  0  0  0  0  0  0  0  # atno 10763 bound_to 10752
  152.9938  135.6203  154.2636 H   0  0  0  0  0  0  0  0  0  0  0  0  # atno 10764 bound_to 10752
  154.2562  135.2857  155.2776 H   0  0  0  0  0  0  0  0  0  0  0  0  # atno 10765 bound_to 10752
  140.5430  134.5503  157.5104 H   0  0  0  0  0  0  0  0  0  0  0  0  # atno 11005 bound_to 11000
  144.6790  140.2386  143.7346 LP  0  0  0  0  0  0  0  0  0  0  0  0  # atno 17320 bound_to 7965
  145.8212  139.2044  143.1937 LP  0  0  0  0  0  0  0  0  0  0  0  0  # atno 17321 bound_to 7965
  139.7787  144.7452  151.0119 LP  0  0  0  0  0  0  0  0  0  0  0  0  # atno 17342 bound_to 10162
  140.7815  143.4565  151.0338 LP  0  0  0  0  0  0  0  0  0  0  0  0  # atno 17343 bound_to 10162
  157.6709  131.0861  150.7615 LP  0  0  0  0  0  0  0  0  0  0  0  0  # atno 17370 bound_to 10713
  156.7679  130.4819  149.5424 LP  0  0  0  0  0  0  0  0  0  0  0  0  # atno 17371 bound_to 10713
  139.9494  134.7644  156.0484 LP  0  0  0  0  0  0  0  0  0  0  0  0  # atno 17394 bound_to 11000
  141.1216  133.6611  156.3229 LP  0  0  0  0  0  0  0  0  0  0  0  0  # atno 17395 bound_to 11000

$$$$
