AV-unprocessed.smi:1809|AV-procd|sdf|7322|dock3
  -GOLD-   22720 8573D 1   1.00000     0.00000
 Structure written by MMmdl.
 39 41  0  0  0  0  0  0  0  0  3 V2000
  152.0219  145.5647  159.4997 C   0  0  0  0  0  0  0  0  0  0  0  0
  151.9714  144.1253  159.1168 C   0  0  0  0  0  0  0  0  0  0  0  0
  151.4754  143.7042  157.9508 N   0  0  0  0  0  0  0  0  0  0  0  0
  151.5368  142.3239  157.8246 N   0  0  0  0  0  0  0  0  0  0  0  0
  152.0669  141.7210  158.8984 C   0  0  0  0  0  0  0  0  0  0  0  0
  152.2196  140.3885  158.9743 N   0  5  0  0  0  0  0  0  0  0  0  0
  152.1199  139.6325  157.8584 C   0  0  0  0  0  0  0  0  0  0  0  0
  153.0216  139.3924  157.0520 O   0  0  0  0  0  0  0  0  0  0  0  0
  150.8987  139.1203  157.6633 N   0  0  0  0  0  0  0  0  0  0  0  0
  150.5240  138.2578  156.5522 C   0  0  0  0  0  0  0  0  0  0  0  0
  150.9308  138.8904  155.2074 C   0  0  1  0  0  0  0  0  0  0  0  0
  149.8772  138.6600  154.0975 C   0  0  0  0  0  0  0  0  0  0  0  0
  148.7208  139.5412  154.3456 N   0  3  2  0  0  0  0  0  0  0  0  0
  147.5845  139.4779  153.4107 C   0  0  0  0  0  0  0  0  0  0  0  0
  146.8819  140.8432  153.5483 C   0  0  0  0  0  0  0  0  0  0  0  0
  147.7906  141.6912  154.4568 C   0  0  0  0  0  0  0  0  0  0  0  0
  149.1221  140.9483  154.4064 C   0  0  1  0  0  0  0  0  0  0  0  0
  150.0990  141.1410  155.5724 C   0  0  0  0  0  0  0  0  0  0  0  0
  151.2254  140.2901  155.3438 O   0  0  0  0  0  0  0  0  0  0  0  0
  152.5557  142.8451  160.1661 S   0  0  0  0  0  0  0  0  0  0  0  0
  151.0530  145.8816  159.8853 H   0  0  0  0  0  0  0  0  0  0  0  0
  152.2744  146.1781  158.6343 H   0  0  0  0  0  0  0  0  0  0  0  0
  152.7759  145.7243  160.2707 H   0  0  0  0  0  0  0  0  0  0  0  0
  150.1851  139.3366  158.3443 H   0  0  0  0  0  0  0  0  0  0  0  0
  151.0221  137.2947  156.6729 H   0  0  0  0  0  0  0  0  0  0  0  0
  149.4518  138.0612  156.5866 H   0  0  0  0  0  0  0  0  0  0  0  0
  151.8568  138.4088  154.8910 H   0  0  0  0  0  0  0  0  0  0  0  0
  150.3057  138.8874  153.1203 H   0  0  0  0  0  0  0  0  0  0  0  0
  149.5571  137.6177  154.0738 H   0  0  0  0  0  0  0  0  0  0  0  0
  147.9481  139.3446  152.3905 H   0  0  0  0  0  0  0  0  0  0  0  0
  146.9275  138.6414  153.6502 H   0  0  0  0  0  0  0  0  0  0  0  0
  146.7686  141.3084  152.5683 H   0  0  0  0  0  0  0  0  0  0  0  0
  145.8859  140.7424  153.9806 H   0  0  0  0  0  0  0  0  0  0  0  0
  147.8733  142.7269  154.1257 H   0  0  0  0  0  0  0  0  0  0  0  0
  147.3983  141.6932  155.4749 H   0  0  0  0  0  0  0  0  0  0  0  0
  149.6255  141.2086  153.4725 H   0  0  0  0  0  0  0  0  0  0  0  0
  150.4397  142.1756  155.6157 H   0  0  0  0  0  0  0  0  0  0  0  0
  149.6300  140.9198  156.5314 H   0  0  0  0  0  0  0  0  0  0  0  0
  148.3556  139.3091  155.2585 H   0  0  0  0  0  0  0  0  0  0  0  0
  1  2  1  0  0  0  0
  1 21  1  0  0  0  0
  1 22  1  0  0  0  0
  1 23  1  0  0  0  0
  2 20  1  0  0  0  0
  2  3  2  0  0  0  0
  3  4  1  0  0  0  0
  4  5  2  0  0  0  0
  5  6  1  0  0  0  0
  5 20  1  0  0  0  0
  6  7  1  0  0  0  0
  7  8  2  0  0  0  0
  7  9  1  0  0  0  0
  9 10  1  0  0  0  0
  9 24  1  0  0  0  0
 10 11  1  0  0  0  0
 10 25  1  0  0  0  0
 10 26  1  0  0  0  0
 11 19  1  0  0  0  0
 11 12  1  0  0  0  0
 11 27  1  0  0  0  0
 12 13  1  0  0  0  0
 12 28  1  0  0  0  0
 12 29  1  0  0  0  0
 13 17  1  0  0  0  0
 13 14  1  0  0  0  0
 13 39  1  0  0  0  0
 14 15  1  0  0  0  0
 14 30  1  0  0  0  0
 14 31  1  0  0  0  0
 15 16  1  0  0  0  0
 15 32  1  0  0  0  0
 15 33  1  0  0  0  0
 16 17  1  0  0  0  0
 16 34  1  0  0  0  0
 16 35  1  0  0  0  0
 17 18  1  0  0  0  0
 17 36  1  0  0  0  0
 18 19  1  0  0  0  0
 18 37  1  0  0  0  0
 18 38  1  0  0  0  0
M  CHG  1   6  -1
M  CHG  1  13   1
M  END
> <s_m_source_file>
AV-unprocessed.smi

> <i_m_source_file_index>
1809

> <i_lp_mmshare_version>
43012

> <i_f3d_flags>
0

> <s_epik_input>
W0NIM11jMW5uYyhzMSlbTkhdQyg9TylbTkhdW0NIMl1bQ0BIXShbQ0gyXTIpT1tDSDJdW0NAQEhdKE4yMylbQ0gyXVtDSDJdW0NIMl0z

> <s_epik_cmdline>
J2VwaWtfcHl0aG9uJywgJy1waCcsICc3LjAnLCAnLXRuJywgJzgnLCAnLW1hJywgJzIwMCcsICctbWV0YWxfYmluZGluZycsICctaW1hZScsICc8aW5maWxlLm1hZT4nLCAnLW9tYWUnLCAnPG91dGZpbGUubWFlPic=

> <r_lp_tautomer_probability>
1

> <r_epik_Ionization_Penalty>
3.2601

> <r_epik_Ionization_Penalty_Charging>
3.1406

> <r_epik_Ionization_Penalty_Neutral>
0.119497

> <r_epik_State_Penalty>
3.08894

> <r_epik_Charging_Adjusted_Penalty>
6.22954

> <i_epik_Tot_Q>
0

> <i_epik_Tot_abs_Q>
2

> <r_epik_Metal_State_Penalty>
0.510807

> <b_epik_Metal_Only>
1

> <s_lp_Force_Field>
OPLS_2005

> <r_lp_Energy>
31.1034

> <b_lp_Chiralities_Consistent>
1

> <s_lp_Variant>
AV-unprocessed.smi:1809-14

> <Gold.Version>
5.8.1

> <Gold.Id.Protein>
6NUR|6NUR_protein|mol2

> <Gold.PLP.Fitness>
41.3752

> <Gold.PLP.PLP>
-38.2298

> <Gold.PLP.part.hbond>
-2.0031

> <Gold.PLP.part.metal>
0.0000

> <Gold.PLP.part.buried>
-5.0549

> <Gold.PLP.part.nonpolar>
-32.5094

> <Gold.PLP.part.repulsive>
0.2893

> <Gold.PLP.ligand.clash>
0.0436

> <Gold.PLP.ligand.torsion>
1.4115

> <Gold.PLP.Chemscore.Hbond>
2.0000

> <Gold.PLP.Chemscore.CHOScore>
0.0000

> <Gold.PLP.Chemscore.Metal>
0.0000

> <Gold.Chemscore.Hbonds>
donor molecule, donor type, donor heavy atom, donor atom, acceptor molecule, acceptor atom, score
      P1  H  7989  7998       L1    19  0.90
      P1  H  7997  8010       L1     8  1.00

> <Gold.PLP.Chemscore.Internal.Correction>
0.0120

> <Gold.Rescore>
     Score         DG    S(hbond)    S(metal)    S(lipo)     H(rot)  DE(clash)    DE(int)     intcor
      8.43     -16.31       1.20        0.00      87.39       1.32       0.76       7.13       ----

> <Gold.Chemscore.Fitness>
8.4285

> <Gold.Chemscore.DG>
-16.3116

> <Gold.Chemscore.ZeroCoef>
-5.4800

> <Gold.Chemscore.Hbond>
1.1968

> <Gold.Chemscore.Metal>
0.0000

> <Gold.Chemscore.Lipo>
87.3943

> <Gold.Chemscore.Internal_Hbond>
0.0000

> <Gold.Chemscore.DEClash>
0.7570

> <Gold.Chemscore.DEInternal>
7.1261

> <Gold.Chemscore.Rot>
1.3246

> <Gold.Chemscore.Internal.Correction>
   9.000000E+99

> <Gold.Chemscore.Hbonds>
donor molecule, donor type, donor heavy atom, donor atom, acceptor molecule, acceptor atom, score
      P1  H  7989  7998       L1    19  0.07
      P1  H  7997  8010       L1     8  0.98

> <Gold.Chemscore.Hbond.Weighted>
-3.9975

> <Gold.Chemscore.Metal.Weighted>
-0.0000

> <Gold.Chemscore.Lipo.Weighted>
-10.2251

> <Gold.Chemscore.Internal_Hbond.Weighted>
0.0000

> <Gold.Chemscore.DEClash.Weighted>
0.7570

> <Gold.Chemscore.DEInternal.Weighted>
7.1261

> <Gold.Chemscore.Rot.Weighted>
3.3910

> <Gold.Chemscore.Internal.Correction.Weighted>
   9.000000E+99

> <Gold.Protein.RotatedTorsions>
[ 6907 6896 6895 6894 ] final -128.00 input  -60.11 | X-H torsion
[ 7974 7965 7964 7962 ] final -150.71 input  175.53 | X-H torsion
[ 8008 7997 7996 7995 ] final   68.50 input   59.86 | X-H torsion
[ 10167 10162 10161 10158 ] final  149.70 input  -65.29 | X-H torsion
[ 10718 10713 10712 10709 ] final  166.95 input   66.30 | X-H torsion
[ 10763 10752 10751 10750 ] final   10.38 input  -60.55 | X-H torsion
[ 11005 11000 10999 10996 ] final -174.51 input  -57.11 | X-H torsion

> <Gold.Protein.ActiveResidues>
 VAL166  LYS551  ARG553  GLY616  TRP617  ASP618  TYR619  PRO620  LYS621  CYS622 
 ASP623  PHE694  ASN695  SER759  ASP760  ASP761  ALA762  ILE779  LEU786  VAL792 
 PHE793  MET794  SER795  GLU796  ALA797  LYS798  CYS799  TRP800  GLU811  SER814 

> <Gold.Protein.RotatedAtoms>
  150.9132  133.6972  159.2849 H   0  0  0  0  0  0  0  0  0  0  0  0  # atno 6907 bound_to 6896
  151.4451  135.1023  159.9691 H   0  0  0  0  0  0  0  0  0  0  0  0  # atno 6908 bound_to 6896
  152.4941  133.8531  159.7267 H   0  0  0  0  0  0  0  0  0  0  0  0  # atno 6909 bound_to 6896
  144.7891  140.4895  143.5785 H   0  0  0  0  0  0  0  0  0  0  0  0  # atno 7974 bound_to 7965
  155.7092  140.3494  155.4966 H   0  0  0  0  0  0  0  0  0  0  0  0  # atno 8008 bound_to 7997
  155.9371  140.1095  157.1107 H   0  0  0  0  0  0  0  0  0  0  0  0  # atno 8009 bound_to 7997
  154.4096  140.1220  156.4865 H   0  0  0  0  0  0  0  0  0  0  0  0  # atno 8010 bound_to 7997
  139.4858  144.5581  151.7281 H   0  0  0  0  0  0  0  0  0  0  0  0  # atno 10167 bound_to 10162
  157.0585  131.0333  151.2655 H   0  0  0  0  0  0  0  0  0  0  0  0  # atno 10718 bound_to 10713
  153.2038  135.6860  153.8198 H   0  0  0  0  0  0  0  0  0  0  0  0  # atno 10763 bound_to 10752
  153.7454  135.3232  155.3313 H   0  0  0  0  0  0  0  0  0  0  0  0  # atno 10764 bound_to 10752
  154.8186  135.4668  154.0816 H   0  0  0  0  0  0  0  0  0  0  0  0  # atno 10765 bound_to 10752
  140.4737  134.6141  157.4892 H   0  0  0  0  0  0  0  0  0  0  0  0  # atno 11005 bound_to 11000
  145.5841  139.1491  143.3219 LP  0  0  0  0  0  0  0  0  0  0  0  0  # atno 17320 bound_to 7965
  146.2136  140.5970  142.9048 LP  0  0  0  0  0  0  0  0  0  0  0  0  # atno 17321 bound_to 7965
  140.5146  144.0973  150.6004 LP  0  0  0  0  0  0  0  0  0  0  0  0  # atno 17342 bound_to 10162
  140.3910  143.2752  152.0060 LP  0  0  0  0  0  0  0  0  0  0  0  0  # atno 17343 bound_to 10162
  157.4974  130.7859  149.7569 LP  0  0  0  0  0  0  0  0  0  0  0  0  # atno 17370 bound_to 10713
  155.9986  130.3893  150.2697 LP  0  0  0  0  0  0  0  0  0  0  0  0  # atno 17371 bound_to 10713
  139.9869  134.7047  155.9758 LP  0  0  0  0  0  0  0  0  0  0  0  0  # atno 17394 bound_to 11000
  141.1565  133.6542  156.4177 LP  0  0  0  0  0  0  0  0  0  0  0  0  # atno 17395 bound_to 11000

$$$$
