AV-unprocessed.smi:652|AV-procd|sdf|3199|dock2
  -GOLD-   22720 0133D 1   1.00000     0.00000
 Structure written by MMmdl.
 49 50  0  0  0  0  0  0  0  0  3 V2000
  152.0683  145.1099  159.2196 C   0  0  0  0  0  0  0  0  0  0  0  0
  151.7901  143.6236  159.4813 C   0  0  0  0  0  0  0  0  0  0  0  0
  152.9083  142.9771  160.3145 C   0  0  0  0  0  0  0  0  0  0  0  0
  151.6341  142.9275  158.2070 N   0  0  0  0  0  0  0  0  0  0  0  0
  151.4629  141.6044  158.0586 C   0  0  0  0  0  0  0  0  0  0  0  0
  151.4135  140.8202  159.0065 O   0  0  0  0  0  0  0  0  0  0  0  0
  151.3288  141.0986  156.6180 C   0  0  0  0  0  0  0  0  0  0  0  0
  150.1875  140.0752  156.4411 C   0  0  0  0  0  0  0  0  0  0  0  0
  149.9719  139.7050  155.0165 N   0  3  2  0  0  0  0  0  0  0  0  0
  149.5514  140.8458  154.1660 C   0  0  0  0  0  0  0  0  0  0  0  0
  148.0644  141.1812  154.3802 C   0  0  0  0  0  0  0  0  0  0  0  0
  147.2734  140.0315  154.1030 O   0  0  0  0  0  0  0  0  0  0  0  0
  147.5829  138.9340  154.9563 C   0  0  1  0  0  0  0  0  0  0  0  0
  146.6060  137.7840  154.6544 C   0  0  0  0  0  0  0  0  0  0  0  0
  146.8951  137.1214  153.3898 N   0  0  0  0  0  0  0  0  0  0  0  0
  145.8679  136.5156  152.6540 C   0  0  0  0  0  0  0  0  0  0  0  0
  144.5114  136.4943  153.0536 C   0  0  0  0  0  0  0  0  0  0  0  0
  143.5808  135.8534  152.2179 C   0  0  0  0  0  0  0  0  0  0  0  0
  144.0627  135.2711  151.0321 C   0  0  0  0  0  0  0  0  0  0  0  0
  145.3641  135.3018  150.6681 N   0  0  0  0  0  0  0  0  0  0  0  0
  146.2298  135.9226  151.4886 N   0  3  0  0  0  0  0  0  0  0  0  0
  149.0723  138.5418  154.8002 C   0  0  0  0  0  0  0  0  0  0  0  0
  152.1603  145.6610  160.1559 H   0  0  0  0  0  0  0  0  0  0  0  0
  151.2602  145.5674  158.6475 H   0  0  0  0  0  0  0  0  0  0  0  0
  152.9943  145.2491  158.6601 H   0  0  0  0  0  0  0  0  0  0  0  0
  150.8550  143.5546  160.0406 H   0  0  0  0  0  0  0  0  0  0  0  0
  153.0296  143.4890  161.2697 H   0  0  0  0  0  0  0  0  0  0  0  0
  153.8653  143.0167  159.7931 H   0  0  0  0  0  0  0  0  0  0  0  0
  152.6890  141.9311  160.5310 H   0  0  0  0  0  0  0  0  0  0  0  0
  151.6591  143.4990  157.3747 H   0  0  0  0  0  0  0  0  0  0  0  0
  151.1582  141.9603  155.9713 H   0  0  0  0  0  0  0  0  0  0  0  0
  152.2820  140.6641  156.3169 H   0  0  0  0  0  0  0  0  0  0  0  0
  150.3673  139.1884  157.0491 H   0  0  0  0  0  0  0  0  0  0  0  0
  149.2670  140.5219  156.8204 H   0  0  0  0  0  0  0  0  0  0  0  0
  150.1771  141.7194  154.3533 H   0  0  0  0  0  0  0  0  0  0  0  0
  149.7127  140.5750  153.1217 H   0  0  0  0  0  0  0  0  0  0  0  0
  147.8787  141.5334  155.3960 H   0  0  0  0  0  0  0  0  0  0  0  0
  147.7621  141.9841  153.7079 H   0  0  0  0  0  0  0  0  0  0  0  0
  147.3993  139.2421  155.9865 H   0  0  0  0  0  0  0  0  0  0  0  0
  146.6486  137.0489  155.4591 H   0  0  0  0  0  0  0  0  0  0  0  0
  145.5870  138.1721  154.6281 H   0  0  0  0  0  0  0  0  0  0  0  0
  147.7883  137.2898  152.9492 H   0  0  0  0  0  0  0  0  0  0  0  0
  144.1786  136.9516  153.9735 H   0  0  0  0  0  0  0  0  0  0  0  0
  142.5330  135.8081  152.4763 H   0  0  0  0  0  0  0  0  0  0  0  0
  143.3877  134.7663  150.3565 H   0  0  0  0  0  0  0  0  0  0  0  0
  149.2530  138.1754  153.7891 H   0  0  0  0  0  0  0  0  0  0  0  0
  149.3249  137.7186  155.4671 H   0  0  0  0  0  0  0  0  0  0  0  0
  150.8840  139.4335  154.6772 H   0  0  0  0  0  0  0  0  0  0  0  0
  147.2134  135.9503  151.2186 H   0  0  0  0  0  0  0  0  0  0  0  0
  1  2  1  0  0  0  0
  1 23  1  0  0  0  0
  1 24  1  0  0  0  0
  1 25  1  0  0  0  0
  2  3  1  0  0  0  0
  2  4  1  0  0  0  0
  2 26  1  0  0  0  0
  3 27  1  0  0  0  0
  3 28  1  0  0  0  0
  3 29  1  0  0  0  0
  4  5  1  0  0  0  0
  4 30  1  0  0  0  0
  5  6  2  0  0  0  0
  5  7  1  0  0  0  0
  7  8  1  0  0  0  0
  7 31  1  0  0  0  0
  7 32  1  0  0  0  0
  8  9  1  0  0  0  0
  8 33  1  0  0  0  0
  8 34  1  0  0  0  0
  9 22  1  0  0  0  0
  9 10  1  0  0  0  0
  9 48  1  0  0  0  0
 10 11  1  0  0  0  0
 10 35  1  0  0  0  0
 10 36  1  0  0  0  0
 11 12  1  0  0  0  0
 11 37  1  0  0  0  0
 11 38  1  0  0  0  0
 12 13  1  0  0  0  0
 13 14  1  0  0  0  0
 13 22  1  0  0  0  0
 13 39  1  0  0  0  0
 14 15  1  0  0  0  0
 14 40  1  0  0  0  0
 14 41  1  0  0  0  0
 15 16  1  0  0  0  0
 15 42  1  0  0  0  0
 16 21  1  0  0  0  0
 16 17  2  0  0  0  0
 17 18  1  0  0  0  0
 17 43  1  0  0  0  0
 18 19  2  0  0  0  0
 18 44  1  0  0  0  0
 19 20  1  0  0  0  0
 19 45  1  0  0  0  0
 20 21  2  0  0  0  0
 21 49  1  0  0  0  0
 22 46  1  0  0  0  0
 22 47  1  0  0  0  0
M  CHG  1   9   1
M  CHG  1  21   1
M  END
> <s_m_source_file>
AV-unprocessed.smi

> <i_m_source_file_index>
652

> <i_lp_mmshare_version>
43012

> <i_f3d_flags>
0

> <s_epik_input>
W0NIM11bQ0hdKFtDSDNdKVtOSF1DKD1PKVtDSDJdW0NIMl1OMVtDSDJdW0NIMl1PW0NASF0oW0NIMl0xKVtDSDJdW05IXWMyW2NIXVtjSF1bY0hdbm4y

> <s_epik_cmdline>
J2VwaWtfcHl0aG9uJywgJy1waCcsICc3LjAnLCAnLXRuJywgJzgnLCAnLW1hJywgJzIwMCcsICctbWV0YWxfYmluZGluZycsICctaW1hZScsICc8aW5maWxlLm1hZT4nLCAnLW9tYWUnLCAnPG91dGZpbGUubWFlPic=

> <r_lp_tautomer_probability>
0.966961

> <r_epik_Ionization_Penalty>
2.79885

> <r_epik_Ionization_Penalty_Charging>
2.79884

> <r_epik_Ionization_Penalty_Neutral>
3.2567e-06

> <r_epik_State_Penalty>
2.43203

> <r_epik_Charging_Adjusted_Penalty>
5.23087

> <i_epik_Tot_Q>
2

> <i_epik_Tot_abs_Q>
2

> <r_epik_Metal_State_Penalty>
2.43963

> <b_epik_Metal_Only>
0

> <s_lp_Force_Field>
OPLS_2005

> <r_lp_Energy>
35.8493

> <b_lp_Chiralities_Consistent>
1

> <s_lp_Variant>
AV-unprocessed.smi:652-8

> <Gold.Version>
5.8.1

> <Gold.Id.Protein>
6NUR|6NUR_protein|mol2

> <Gold.PLP.Fitness>
45.3184

> <Gold.PLP.PLP>
-32.2931

> <Gold.PLP.part.hbond>
-2.1631

> <Gold.PLP.part.metal>
0.0000

> <Gold.PLP.part.buried>
-2.6888

> <Gold.PLP.part.nonpolar>
-27.7271

> <Gold.PLP.part.repulsive>
0.5489

> <Gold.PLP.ligand.clash>
0.0000

> <Gold.PLP.ligand.torsion>
0.5306

> <Gold.PLP.Chemscore.Hbond>
3.6640

> <Gold.PLP.Chemscore.CHOScore>
1.0000

> <Gold.PLP.Chemscore.Metal>
0.0000

> <Gold.Chemscore.Hbonds>
donor molecule, donor type, donor heavy atom, donor atom, acceptor molecule, acceptor atom, score
      L1  H    15    42       P1  7948  1.38
      L1  H    21    49       P1  7948  1.82
      L1  C    19    45       P1 10186  1.00

> <Gold.PLP.Chemscore.Internal.Correction>
0.0945

> <Gold.Rescore>
     Score         DG    S(hbond)    S(metal)    S(lipo)     H(rot)  DE(clash)    DE(int)     intcor
     12.19     -15.32       1.78        0.00      84.34       2.33       1.52       1.61       ----

> <Gold.Chemscore.Fitness>
12.1942

> <Gold.Chemscore.DG>
-15.3243

> <Gold.Chemscore.ZeroCoef>
-5.4800

> <Gold.Chemscore.Hbond>
1.7807

> <Gold.Chemscore.Metal>
0.0000

> <Gold.Chemscore.Lipo>
84.3424

> <Gold.Chemscore.Internal_Hbond>
0.0000

> <Gold.Chemscore.DEClash>
1.5152

> <Gold.Chemscore.DEInternal>
1.6150

> <Gold.Chemscore.Rot>
2.3326

> <Gold.Chemscore.Internal.Correction>
   9.000000E+99

> <Gold.Chemscore.Hbonds>
donor molecule, donor type, donor heavy atom, donor atom, acceptor molecule, acceptor atom, score
      L1  H    15    42       P1  7948  0.68
      L1  H    21    49       P1  7948  0.88

> <Gold.Chemscore.Hbond.Weighted>
-5.9476

> <Gold.Chemscore.Metal.Weighted>
-0.0000

> <Gold.Chemscore.Lipo.Weighted>
-9.8681

> <Gold.Chemscore.Internal_Hbond.Weighted>
0.0000

> <Gold.Chemscore.DEClash.Weighted>
1.5152

> <Gold.Chemscore.DEInternal.Weighted>
1.6150

> <Gold.Chemscore.Rot.Weighted>
5.9714

> <Gold.Chemscore.Internal.Correction.Weighted>
   9.000000E+99

> <Gold.Protein.RotatedTorsions>
[ 6907 6896 6895 6894 ] final  -22.69 input  -60.11 | X-H torsion
[ 7974 7965 7964 7962 ] final   89.81 input  175.53 | X-H torsion
[ 8008 7997 7996 7995 ] final  -46.85 input   59.86 | X-H torsion
[ 10167 10162 10161 10158 ] final    1.02 input  -65.29 | X-H torsion
[ 10718 10713 10712 10709 ] final   89.05 input   66.30 | X-H torsion
[ 10763 10752 10751 10750 ] final  130.68 input  -60.55 | X-H torsion
[ 11005 11000 10999 10996 ] final   75.59 input  -57.11 | X-H torsion

> <Gold.Protein.ActiveResidues>
 VAL166  LYS551  ARG553  GLY616  TRP617  ASP618  TYR619  PRO620  LYS621  CYS622 
 ASP623  PHE694  ASN695  SER759  ASP760  ASP761  ALA762  ILE779  LEU786  VAL792 
 PHE793  MET794  SER795  GLU796  ALA797  LYS798  CYS799  TRP800  GLU811  SER814 

> <Gold.Protein.RotatedAtoms>
  151.2149  135.0496  159.8925 H   0  0  0  0  0  0  0  0  0  0  0  0  # atno 6907 bound_to 6896
  152.5421  134.0704  159.8202 H   0  0  0  0  0  0  0  0  0  0  0  0  # atno 6908 bound_to 6896
  151.0863  133.5303  159.2649 H   0  0  0  0  0  0  0  0  0  0  0  0  # atno 6909 bound_to 6896
  145.5274  139.2281  143.2638 H   0  0  0  0  0  0  0  0  0  0  0  0  # atno 7974 bound_to 7965
  154.4011  140.1361  156.4079 H   0  0  0  0  0  0  0  0  0  0  0  0  # atno 8008 bound_to 7997
  155.7761  140.3482  155.5252 H   0  0  0  0  0  0  0  0  0  0  0  0  # atno 8009 bound_to 7997
  155.8719  140.0973  157.1535 H   0  0  0  0  0  0  0  0  0  0  0  0  # atno 8010 bound_to 7997
  140.6702  143.7070  150.7907 H   0  0  0  0  0  0  0  0  0  0  0  0  # atno 10167 bound_to 10162
  157.6953  131.0318  150.3367 H   0  0  0  0  0  0  0  0  0  0  0  0  # atno 10718 bound_to 10713
  153.7620  135.3194  155.3338 H   0  0  0  0  0  0  0  0  0  0  0  0  # atno 10763 bound_to 10752
  154.8227  135.4592  154.0829 H   0  0  0  0  0  0  0  0  0  0  0  0  # atno 10764 bound_to 10752
  153.2062  135.6929  153.8253 H   0  0  0  0  0  0  0  0  0  0  0  0  # atno 10765 bound_to 10752
  139.9336  134.7530  156.1290 H   0  0  0  0  0  0  0  0  0  0  0  0  # atno 11005 bound_to 11000
  146.2067  140.6089  142.9078 LP  0  0  0  0  0  0  0  0  0  0  0  0  # atno 17320 bound_to 7965
  144.7644  140.5496  143.6713 LP  0  0  0  0  0  0  0  0  0  0  0  0  # atno 17321 bound_to 7965
  140.0754  143.5020  152.2558 LP  0  0  0  0  0  0  0  0  0  0  0  0  # atno 17342 bound_to 10162
  139.5967  144.7569  151.3270 LP  0  0  0  0  0  0  0  0  0  0  0  0  # atno 17343 bound_to 10162
  156.3833  130.3884  149.7085 LP  0  0  0  0  0  0  0  0  0  0  0  0  # atno 17370 bound_to 10713
  156.4459  130.7883  151.2905 LP  0  0  0  0  0  0  0  0  0  0  0  0  # atno 17371 bound_to 10713
  141.0939  133.6703  156.2601 LP  0  0  0  0  0  0  0  0  0  0  0  0  # atno 17394 bound_to 11000
  140.6134  134.5435  157.5537 LP  0  0  0  0  0  0  0  0  0  0  0  0  # atno 17395 bound_to 11000

$$$$
