AV-unprocessed.smi:3164|AV-procd|sdf|12080|dock3
  -GOLD-   2272017503D 1   1.00000     0.00000
 Structure written by MMmdl.
 40 41  0  0  0  0  0  0  0  0  3 V2000
  149.8356  136.8463  155.3130 C   0  0  0  0  0  0  0  0  0  0  0  0
  150.3422  137.6623  154.1851 N   0  3  2  0  0  0  0  0  0  0  0  0
  151.8144  137.8334  154.1862 C   0  0  0  0  0  0  0  0  0  0  0  0
  152.2528  138.9112  155.1947 C   0  0  0  0  0  0  0  0  0  0  0  0
  151.5703  140.1291  154.9184 O   0  0  0  0  0  0  0  0  0  0  0  0
  150.1579  140.0067  155.0543 C   0  0  1  0  0  0  0  0  0  0  0  0
  149.5323  141.3892  154.8130 C   0  0  0  0  0  0  0  0  0  0  0  0
  148.8938  141.9166  156.0363 N   0  3  0  0  0  0  0  0  0  0  0  0
  149.7470  141.8354  157.2378 C   0  0  0  0  0  0  0  0  0  0  0  0
  151.0117  142.6904  157.0787 C   0  0  0  0  0  0  0  0  0  0  0  0
  151.4194  143.3531  158.3807 C   0  0  0  0  0  0  0  0  0  0  0  0
  151.8792  142.5823  159.4695 C   0  0  0  0  0  0  0  0  0  0  0  0
  152.2329  143.2474  160.6596 C   0  0  0  0  0  0  0  0  0  0  0  0
  152.1123  144.6491  160.7144 C   0  0  0  0  0  0  0  0  0  0  0  0
  151.6429  145.3273  159.5719 C   0  0  0  0  0  0  0  0  0  0  0  0
  151.3002  144.6990  158.4262 N   0  0  0  0  0  0  0  0  0  0  0  0
  149.6516  138.9656  154.0306 C   0  0  0  0  0  0  0  0  0  0  0  0
  150.0157  137.3241  156.2759 H   0  0  0  0  0  0  0  0  0  0  0  0
  150.3191  135.8690  155.3245 H   0  0  0  0  0  0  0  0  0  0  0  0
  148.7626  136.6799  155.2125 H   0  0  0  0  0  0  0  0  0  0  0  0
  152.3091  136.8833  154.3927 H   0  0  0  0  0  0  0  0  0  0  0  0
  152.1242  138.1320  153.1838 H   0  0  0  0  0  0  0  0  0  0  0  0
  152.0624  138.5962  156.2219 H   0  0  0  0  0  0  0  0  0  0  0  0
  153.3262  139.0832  155.1130 H   0  0  0  0  0  0  0  0  0  0  0  0
  149.9133  139.6813  156.0669 H   0  0  0  0  0  0  0  0  0  0  0  0
  150.2896  142.0916  154.4615 H   0  0  0  0  0  0  0  0  0  0  0  0
  148.7747  141.3166  154.0315 H   0  0  0  0  0  0  0  0  0  0  0  0
  148.6486  142.8846  155.8844 H   0  0  0  0  0  0  0  0  0  0  0  0
  149.1760  142.1689  158.1055 H   0  0  0  0  0  0  0  0  0  0  0  0
  150.0227  140.7945  157.4136 H   0  0  0  0  0  0  0  0  0  0  0  0
  151.8365  142.0751  156.7159 H   0  0  0  0  0  0  0  0  0  0  0  0
  150.8510  143.4630  156.3252 H   0  0  0  0  0  0  0  0  0  0  0  0
  151.9588  141.5073  159.3995 H   0  0  0  0  0  0  0  0  0  0  0  0
  152.5892  142.6923  161.5149 H   0  0  0  0  0  0  0  0  0  0  0  0
  152.3734  145.1923  161.6107 H   0  0  0  0  0  0  0  0  0  0  0  0
  151.5387  146.4023  159.5792 H   0  0  0  0  0  0  0  0  0  0  0  0
  149.8393  139.3293  153.0192 H   0  0  0  0  0  0  0  0  0  0  0  0
  148.5725  138.8300  154.1139 H   0  0  0  0  0  0  0  0  0  0  0  0
  148.0481  141.3914  156.2092 H   0  0  0  0  0  0  0  0  0  0  0  0
  150.1224  137.1260  153.3572 H   0  0  0  0  0  0  0  0  0  0  0  0
  1  2  1  0  0  0  0
  1 18  1  0  0  0  0
  1 19  1  0  0  0  0
  1 20  1  0  0  0  0
  2 17  1  0  0  0  0
  2  3  1  0  0  0  0
  2 40  1  0  0  0  0
  3  4  1  0  0  0  0
  3 21  1  0  0  0  0
  3 22  1  0  0  0  0
  4  5  1  0  0  0  0
  4 23  1  0  0  0  0
  4 24  1  0  0  0  0
  5  6  1  0  0  0  0
  6  7  1  0  0  0  0
  6 17  1  0  0  0  0
  6 25  1  0  0  0  0
  7  8  1  0  0  0  0
  7 26  1  0  0  0  0
  7 27  1  0  0  0  0
  8  9  1  0  0  0  0
  8 28  1  0  0  0  0
  8 39  1  0  0  0  0
  9 10  1  0  0  0  0
  9 29  1  0  0  0  0
  9 30  1  0  0  0  0
 10 11  1  0  0  0  0
 10 31  1  0  0  0  0
 10 32  1  0  0  0  0
 11 16  1  0  0  0  0
 11 12  2  0  0  0  0
 12 13  1  0  0  0  0
 12 33  1  0  0  0  0
 13 14  2  0  0  0  0
 13 34  1  0  0  0  0
 14 15  1  0  0  0  0
 14 35  1  0  0  0  0
 15 16  2  0  0  0  0
 15 36  1  0  0  0  0
 17 37  1  0  0  0  0
 17 38  1  0  0  0  0
M  CHG  1   2   1
M  CHG  1   8   1
M  END
> <s_m_source_file>
AV-unprocessed.smi

> <i_m_source_file_index>
3164

> <i_lp_mmshare_version>
43012

> <i_f3d_flags>
0

> <s_epik_input>
W0NIM11OMVtDSDJdW0NIMl1PW0NASF0oW0NIMl0xKVtDSDJdW05IXVtDSDJdW0NIMl1jMltjSF1bY0hdW2NIXVtjSF1uMg==

> <s_epik_cmdline>
J2VwaWtfcHl0aG9uJywgJy1waCcsICc3LjAnLCAnLXRuJywgJzgnLCAnLW1hJywgJzIwMCcsICctbWV0YWxfYmluZGluZycsICctaW1hZScsICc8aW5maWxlLm1hZT4nLCAnLW9tYWUnLCAnPG91dGZpbGUubWFlPic=

> <r_epik_Ionization_Penalty>
0.294944

> <r_epik_Ionization_Penalty_Charging>
0.29381

> <r_epik_Ionization_Penalty_Neutral>
0.00113372

> <r_epik_State_Penalty>
0.271365

> <r_epik_Charging_Adjusted_Penalty>
0.565175

> <i_epik_Tot_Q>
2

> <i_epik_Tot_abs_Q>
2

> <r_epik_Metal_State_Penalty>
0.271365

> <b_epik_Metal_Only>
0

> <s_lp_Force_Field>
OPLS_2005

> <r_lp_Energy>
22.4199

> <b_lp_Chiralities_Consistent>
1

> <s_lp_Variant>
AV-unprocessed.smi:3164-2

> <Gold.Version>
5.8.1

> <Gold.Id.Protein>
6NUR|6NUR_protein|mol2

> <Gold.PLP.Fitness>
53.6577

> <Gold.PLP.PLP>
-40.7881

> <Gold.PLP.part.hbond>
-3.0000

> <Gold.PLP.part.metal>
0.0000

> <Gold.PLP.part.buried>
-5.3793

> <Gold.PLP.part.nonpolar>
-33.2447

> <Gold.PLP.part.repulsive>
0.3026

> <Gold.PLP.ligand.clash>
0.0000

> <Gold.PLP.ligand.torsion>
1.0715

> <Gold.PLP.Chemscore.Hbond>
5.0000

> <Gold.PLP.Chemscore.CHOScore>
0.0000

> <Gold.PLP.Chemscore.Metal>
0.0000

> <Gold.Chemscore.Hbonds>
donor molecule, donor type, donor heavy atom, donor atom, acceptor molecule, acceptor atom, score
      L1  H     2    40       P1  7948  1.60
      L1  H     8    28       P1  8028  2.00
      P1  H  7989  7998       L1     5  1.00

> <Gold.PLP.Chemscore.Internal.Correction>
0.0126

> <Gold.Rescore>
     Score         DG    S(hbond)    S(metal)    S(lipo)     H(rot)  DE(clash)    DE(int)     intcor
     22.68     -23.92       2.92        0.00     110.15       1.65       0.15       1.08       ----

> <Gold.Chemscore.Fitness>
22.6837

> <Gold.Chemscore.DG>
-23.9160

> <Gold.Chemscore.ZeroCoef>
-5.4800

> <Gold.Chemscore.Hbond>
2.9224

> <Gold.Chemscore.Metal>
0.0000

> <Gold.Chemscore.Lipo>
110.1486

> <Gold.Chemscore.Internal_Hbond>
0.0000

> <Gold.Chemscore.DEClash>
0.1474

> <Gold.Chemscore.DEInternal>
1.0849

> <Gold.Chemscore.Rot>
1.6454

> <Gold.Chemscore.Internal.Correction>
   9.000000E+99

> <Gold.Chemscore.Hbonds>
donor molecule, donor type, donor heavy atom, donor atom, acceptor molecule, acceptor atom, score
      L1  H     2    40       P1  7948  0.13
      L1  H     8    28       P1  8028  0.99
      P1  H  7989  7998       L1     5  0.24

> <Gold.Chemscore.Hbond.Weighted>
-9.7608

> <Gold.Chemscore.Metal.Weighted>
-0.0000

> <Gold.Chemscore.Lipo.Weighted>
-12.8874

> <Gold.Chemscore.Internal_Hbond.Weighted>
0.0000

> <Gold.Chemscore.DEClash.Weighted>
0.1474

> <Gold.Chemscore.DEInternal.Weighted>
1.0849

> <Gold.Chemscore.Rot.Weighted>
4.2122

> <Gold.Chemscore.Internal.Correction.Weighted>
   9.000000E+99

> <Gold.Protein.RotatedTorsions>
[ 6907 6896 6895 6894 ] final -112.58 input  -60.11 | X-H torsion
[ 7974 7965 7964 7962 ] final  168.80 input  175.53 | X-H torsion
[ 8008 7997 7996 7995 ] final  -66.75 input   59.86 | X-H torsion
[ 10167 10162 10161 10158 ] final   32.75 input  -65.29 | X-H torsion
[ 10718 10713 10712 10709 ] final -133.12 input   66.30 | X-H torsion
[ 10763 10752 10751 10750 ] final   38.93 input  -60.55 | X-H torsion
[ 11005 11000 10999 10996 ] final   23.28 input  -57.11 | X-H torsion

> <Gold.Protein.ActiveResidues>
 VAL166  LYS551  ARG553  GLY616  TRP617  ASP618  TYR619  PRO620  LYS621  CYS622 
 ASP623  PHE694  ASN695  SER759  ASP760  ASP761  ALA762  ILE779  LEU786  VAL792 
 PHE793  MET794  SER795  GLU796  ALA797  LYS798  CYS799  TRP800  GLU811  SER814 

> <Gold.Protein.RotatedAtoms>
  150.7768  133.9069  159.3357 H   0  0  0  0  0  0  0  0  0  0  0  0  # atno 6907 bound_to 6896
  151.6941  135.0939  160.0248 H   0  0  0  0  0  0  0  0  0  0  0  0  # atno 6908 bound_to 6896
  152.3807  133.6504  159.6194 H   0  0  0  0  0  0  0  0  0  0  0  0  # atno 6909 bound_to 6896
  144.7376  139.8960  143.6406 H   0  0  0  0  0  0  0  0  0  0  0  0  # atno 7974 bound_to 7965
  154.4754  140.0906  156.7250 H   0  0  0  0  0  0  0  0  0  0  0  0  # atno 8008 bound_to 7997
  155.4610  140.3461  155.4294 H   0  0  0  0  0  0  0  0  0  0  0  0  # atno 8009 bound_to 7997
  156.1108  140.1447  156.9329 H   0  0  0  0  0  0  0  0  0  0  0  0  # atno 8010 bound_to 7997
  140.4470  144.1105  150.6184 H   0  0  0  0  0  0  0  0  0  0  0  0  # atno 10167 bound_to 10162
  156.2416  130.7099  151.0962 H   0  0  0  0  0  0  0  0  0  0  0  0  # atno 10718 bound_to 10713
  152.9984  135.6235  154.2383 H   0  0  0  0  0  0  0  0  0  0  0  0  # atno 10763 bound_to 10752
  154.2124  135.2799  155.2955 H   0  0  0  0  0  0  0  0  0  0  0  0  # atno 10764 bound_to 10752
  154.5596  135.5709  153.7054 H   0  0  0  0  0  0  0  0  0  0  0  0  # atno 10765 bound_to 10752
  140.3713  134.2019  155.7667 H   0  0  0  0  0  0  0  0  0  0  0  0  # atno 11005 bound_to 11000
  146.1107  139.4111  143.0290 LP  0  0  0  0  0  0  0  0  0  0  0  0  # atno 17320 bound_to 7965
  145.7448  140.9995  143.1282 LP  0  0  0  0  0  0  0  0  0  0  0  0  # atno 17321 bound_to 7965
  140.4252  143.2593  151.9665 LP  0  0  0  0  0  0  0  0  0  0  0  0  # atno 17342 bound_to 10162
  139.4793  144.5794  151.7957 LP  0  0  0  0  0  0  0  0  0  0  0  0  # atno 17343 bound_to 10162
  157.7177  131.0700  150.6260 LP  0  0  0  0  0  0  0  0  0  0  0  0  # atno 17370 bound_to 10713
  156.6334  130.4438  149.5778 LP  0  0  0  0  0  0  0  0  0  0  0  0  # atno 17371 bound_to 10713
  141.1953  133.8107  157.0718 LP  0  0  0  0  0  0  0  0  0  0  0  0  # atno 17394 bound_to 11000
  140.0550  134.9785  157.1203 LP  0  0  0  0  0  0  0  0  0  0  0  0  # atno 17395 bound_to 11000

$$$$
