AV-unprocessed.smi:1215|AV-procd|sdf|5095|dock6
  -GOLD-   22720 4143D 1   1.00000     0.00000
 Structure written by MMmdl.
 46 47  0  0  0  0  0  0  0  0  2 V2000
  152.3407  143.0163  158.3234 C   0  0  0  0  0  0  0  0  0  0  0  0
  151.2176  143.1323  157.2860 C   0  0  0  0  0  0  0  0  0  0  0  0
  151.0199  141.8874  156.5697 N   0  0  0  0  0  0  0  0  0  0  0  0
  150.0628  141.5920  155.6192 C   0  0  0  0  0  0  0  0  0  0  0  0
  150.3037  140.3012  155.2415 C   0  0  0  0  0  0  0  0  0  0  0  0
  149.6252  139.5006  154.2882 N   0  0  0  0  0  0  0  0  0  0  0  0
  148.4174  139.7260  153.7463 C   0  0  0  0  0  0  0  0  0  0  0  0
  147.6839  140.6772  154.0177 O   0  0  0  0  0  0  0  0  0  0  0  0
  148.0918  138.7714  152.8630 N   0  0  0  0  0  0  0  0  0  0  0  0
  146.8437  138.7258  152.1100 C   0  0  0  0  0  0  0  0  0  0  0  0
  145.8729  137.6813  152.6961 C   0  0  0  0  0  0  0  0  0  0  0  0
  146.3109  136.2758  152.4802 N   0  3  1  0  0  0  0  0  0  0  0  0
  146.2843  135.4884  153.7428 C   0  0  0  0  0  0  0  0  0  0  0  0
  146.9381  134.1099  153.5607 C   0  0  0  0  0  0  0  0  0  0  0  0
  146.2695  133.3314  152.4232 C   0  0  0  0  0  0  0  0  0  0  0  0
  146.2928  134.1680  151.1370 C   0  0  0  0  0  0  0  0  0  0  0  0
  145.6620  135.5633  151.3335 C   0  0  1  0  0  0  0  0  0  0  0  0
  144.1225  135.4992  151.4337 C   0  0  0  0  0  0  0  0  0  0  0  0
  151.4225  139.8769  156.0047 C   0  0  0  0  0  0  0  0  0  0  0  0
  151.8495  140.8410  156.8056 N   0  0  0  0  0  0  0  0  0  0  0  0
  152.4840  143.9617  158.8466 H   0  0  0  0  0  0  0  0  0  0  0  0
  153.2868  142.7502  157.8509 H   0  0  0  0  0  0  0  0  0  0  0  0
  152.1124  142.2545  159.0695 H   0  0  0  0  0  0  0  0  0  0  0  0
  150.2808  143.4141  157.7690 H   0  0  0  0  0  0  0  0  0  0  0  0
  151.4508  143.9166  156.5649 H   0  0  0  0  0  0  0  0  0  0  0  0
  149.3227  142.3142  155.3073 H   0  0  0  0  0  0  0  0  0  0  0  0
  150.1141  138.6710  153.9849 H   0  0  0  0  0  0  0  0  0  0  0  0
  148.7548  138.0278  152.6977 H   0  0  0  0  0  0  0  0  0  0  0  0
  146.4054  139.7240  152.1039 H   0  0  0  0  0  0  0  0  0  0  0  0
  147.0781  138.4791  151.0742 H   0  0  0  0  0  0  0  0  0  0  0  0
  145.8037  137.8575  153.7705 H   0  0  0  0  0  0  0  0  0  0  0  0
  144.8639  137.8216  152.3080 H   0  0  0  0  0  0  0  0  0  0  0  0
  146.8218  136.0295  154.5226 H   0  0  0  0  0  0  0  0  0  0  0  0
  145.2579  135.3792  154.0947 H   0  0  0  0  0  0  0  0  0  0  0  0
  148.0005  134.2335  153.3461 H   0  0  0  0  0  0  0  0  0  0  0  0
  146.8745  133.5412  154.4889 H   0  0  0  0  0  0  0  0  0  0  0  0
  146.7846  132.3835  152.2637 H   0  0  0  0  0  0  0  0  0  0  0  0
  145.2424  133.0844  152.6938 H   0  0  0  0  0  0  0  0  0  0  0  0
  147.3274  134.2872  150.8120 H   0  0  0  0  0  0  0  0  0  0  0  0
  145.7855  133.6319  150.3339 H   0  0  0  0  0  0  0  0  0  0  0  0
  145.8952  136.1161  150.4245 H   0  0  0  0  0  0  0  0  0  0  0  0
  143.7056  134.9459  150.5918 H   0  0  0  0  0  0  0  0  0  0  0  0
  143.6730  136.4915  151.4061 H   0  0  0  0  0  0  0  0  0  0  0  0
  143.7858  135.0043  152.3441 H   0  0  0  0  0  0  0  0  0  0  0  0
  151.9293  138.9231  156.0039 H   0  0  0  0  0  0  0  0  0  0  0  0
  147.2884  136.3386  152.2337 H   0  0  0  0  0  0  0  0  0  0  0  0
  1  2  1  0  0  0  0
  1 21  1  0  0  0  0
  1 22  1  0  0  0  0
  1 23  1  0  0  0  0
  2  3  1  0  0  0  0
  2 24  1  0  0  0  0
  2 25  1  0  0  0  0
  3 20  1  0  0  0  0
  3  4  1  0  0  0  0
  4  5  2  0  0  0  0
  4 26  1  0  0  0  0
  5  6  1  0  0  0  0
  5 19  1  0  0  0  0
  6  7  1  0  0  0  0
  6 27  1  0  0  0  0
  7  8  2  0  0  0  0
  7  9  1  0  0  0  0
  9 10  1  0  0  0  0
  9 28  1  0  0  0  0
 10 11  1  0  0  0  0
 10 29  1  0  0  0  0
 10 30  1  0  0  0  0
 11 12  1  0  0  0  0
 11 31  1  0  0  0  0
 11 32  1  0  0  0  0
 12 17  1  0  0  0  0
 12 13  1  0  0  0  0
 12 46  1  0  0  0  0
 13 14  1  0  0  0  0
 13 33  1  0  0  0  0
 13 34  1  0  0  0  0
 14 15  1  0  0  0  0
 14 35  1  0  0  0  0
 14 36  1  0  0  0  0
 15 16  1  0  0  0  0
 15 37  1  0  0  0  0
 15 38  1  0  0  0  0
 16 17  1  0  0  0  0
 16 39  1  0  0  0  0
 16 40  1  0  0  0  0
 17 18  1  0  0  0  0
 17 41  1  0  0  0  0
 18 42  1  0  0  0  0
 18 43  1  0  0  0  0
 18 44  1  0  0  0  0
 19 20  2  0  0  0  0
 19 45  1  0  0  0  0
M  CHG  1  12   1
M  END
> <s_m_source_file>
AV-unprocessed.smi

> <i_m_source_file_index>
1215

> <i_lp_mmshare_version>
43012

> <i_f3d_flags>
0

> <s_epik_input>
W0NIM11bQ0gyXW4xW2NIXWMoW2NIXW4xKVtOSF1DKD1PKVtOSF1bQ0gyXVtDSDJdTjJbQ0gyXVtDSDJdW0NIMl1bQ0gyXVtDQEhdMltDSDNd

> <s_epik_cmdline>
J2VwaWtfcHl0aG9uJywgJy1waCcsICc3LjAnLCAnLXRuJywgJzgnLCAnLW1hJywgJzIwMCcsICctbWV0YWxfYmluZGluZycsICctaW1hZScsICc8aW5maWxlLm1hZT4nLCAnLW9tYWUnLCAnPG91dGZpbGUubWFlPic=

> <r_lp_tautomer_probability>
1

> <r_epik_Ionization_Penalty>
0.00247187

> <r_epik_Ionization_Penalty_Charging>
0.00232067

> <r_epik_Ionization_Penalty_Neutral>
0.000151201

> <r_epik_State_Penalty>
0.00160128

> <r_epik_Charging_Adjusted_Penalty>
0.00392194

> <i_epik_Tot_Q>
1

> <i_epik_Tot_abs_Q>
1

> <r_epik_Metal_State_Penalty>
-0

> <b_epik_Metal_Only>
0

> <s_lp_Force_Field>
OPLS_2005

> <r_lp_Energy>
23.8911

> <b_lp_Chiralities_Consistent>
1

> <s_lp_Variant>
AV-unprocessed.smi:1215-2

> <Gold.Version>
5.8.1

> <Gold.Id.Protein>
6NUR|6NUR_protein|mol2

> <Gold.PLP.Fitness>
47.6008

> <Gold.PLP.PLP>
-37.3368

> <Gold.PLP.part.hbond>
-3.8448

> <Gold.PLP.part.metal>
0.0000

> <Gold.PLP.part.buried>
-0.5435

> <Gold.PLP.part.nonpolar>
-32.7471

> <Gold.PLP.part.repulsive>
0.3480

> <Gold.PLP.ligand.clash>
0.0000

> <Gold.PLP.ligand.torsion>
0.8272

> <Gold.PLP.Chemscore.Hbond>
2.9600

> <Gold.PLP.Chemscore.CHOScore>
0.9983

> <Gold.PLP.Chemscore.Metal>
0.0000

> <Gold.Chemscore.Hbonds>
donor molecule, donor type, donor heavy atom, donor atom, acceptor molecule, acceptor atom, score
      L1  H     9    28       P1  7948  0.88
      L1  H    12    46       P1  7948  2.00
      L1  C     4    26       P1  8028  1.00

> <Gold.PLP.Chemscore.Internal.Correction>
0.0434

> <Gold.Rescore>
     Score         DG    S(hbond)    S(metal)    S(lipo)     H(rot)  DE(clash)    DE(int)     intcor
     15.09     -17.16       1.96        0.00      78.80       1.59       0.27       1.81       ----

> <Gold.Chemscore.Fitness>
15.0894

> <Gold.Chemscore.DG>
-17.1637

> <Gold.Chemscore.ZeroCoef>
-5.4800

> <Gold.Chemscore.Hbond>
1.9571

> <Gold.Chemscore.Metal>
0.0000

> <Gold.Chemscore.Lipo>
78.8016

> <Gold.Chemscore.Internal_Hbond>
0.0000

> <Gold.Chemscore.DEClash>
0.2680

> <Gold.Chemscore.DEInternal>
1.8062

> <Gold.Chemscore.Rot>
1.5909

> <Gold.Chemscore.Internal.Correction>
   9.000000E+99

> <Gold.Chemscore.Hbonds>
donor molecule, donor type, donor heavy atom, donor atom, acceptor molecule, acceptor atom, score
      L1  H     9    28       P1  7948  0.85
      L1  H    12    46       P1  7948  1.00

> <Gold.Chemscore.Hbond.Weighted>
-6.5367

> <Gold.Chemscore.Metal.Weighted>
-0.0000

> <Gold.Chemscore.Lipo.Weighted>
-9.2198

> <Gold.Chemscore.Internal_Hbond.Weighted>
0.0000

> <Gold.Chemscore.DEClash.Weighted>
0.2680

> <Gold.Chemscore.DEInternal.Weighted>
1.8062

> <Gold.Chemscore.Rot.Weighted>
4.0728

> <Gold.Chemscore.Internal.Correction.Weighted>
   9.000000E+99

> <Gold.Protein.RotatedTorsions>
[ 6907 6896 6895 6894 ] final -108.00 input  -60.11 | X-H torsion
[ 7974 7965 7964 7962 ] final -164.14 input  175.53 | X-H torsion
[ 8008 7997 7996 7995 ] final  174.07 input   59.86 | X-H torsion
[ 10167 10162 10161 10158 ] final -179.56 input  -65.29 | X-H torsion
[ 10718 10713 10712 10709 ] final  118.34 input   66.30 | X-H torsion
[ 10763 10752 10751 10750 ] final  -70.08 input  -60.55 | X-H torsion
[ 11005 11000 10999 10996 ] final  -43.65 input  -57.11 | X-H torsion

> <Gold.Protein.ActiveResidues>
 VAL166  LYS551  ARG553  GLY616  TRP617  ASP618  TYR619  PRO620  LYS621  CYS622 
 ASP623  PHE694  ASN695  SER759  ASP760  ASP761  ALA762  ILE779  LEU786  VAL792 
 PHE793  MET794  SER795  GLU796  ALA797  LYS798  CYS799  TRP800  GLU811  SER814 

> <Gold.Protein.RotatedAtoms>
  150.7476  133.9742  159.3555 H   0  0  0  0  0  0  0  0  0  0  0  0  # atno 6907 bound_to 6896
  151.7678  135.0792  160.0364 H   0  0  0  0  0  0  0  0  0  0  0  0  # atno 6908 bound_to 6896
  152.3359  133.5975  159.5878 H   0  0  0  0  0  0  0  0  0  0  0  0  # atno 6909 bound_to 6896
  144.7305  140.3005  143.6205 H   0  0  0  0  0  0  0  0  0  0  0  0  # atno 7974 bound_to 7965
  156.1011  140.1444  156.9465 H   0  0  0  0  0  0  0  0  0  0  0  0  # atno 8008 bound_to 7997
  154.4703  140.0912  156.7173 H   0  0  0  0  0  0  0  0  0  0  0  0  # atno 8009 bound_to 7997
  155.4757  140.3443  155.4334 H   0  0  0  0  0  0  0  0  0  0  0  0  # atno 8010 bound_to 7997
  139.5381  144.2441  152.0837 H   0  0  0  0  0  0  0  0  0  0  0  0  # atno 10167 bound_to 10162
  157.6037  131.1047  150.7742 H   0  0  0  0  0  0  0  0  0  0  0  0  # atno 10718 bound_to 10713
  154.4126  135.6005  153.5962 H   0  0  0  0  0  0  0  0  0  0  0  0  # atno 10763 bound_to 10752
  152.9791  135.5933  154.4052 H   0  0  0  0  0  0  0  0  0  0  0  0  # atno 10764 bound_to 10752
  154.3866  135.2841  155.2158 H   0  0  0  0  0  0  0  0  0  0  0  0  # atno 10765 bound_to 10752
  141.0398  133.6785  156.2762 H   0  0  0  0  0  0  0  0  0  0  0  0  # atno 11005 bound_to 11000
  145.7765  139.1876  143.2182 LP  0  0  0  0  0  0  0  0  0  0  0  0  # atno 17320 bound_to 7965
  146.0868  140.7701  142.9614 LP  0  0  0  0  0  0  0  0  0  0  0  0  # atno 17321 bound_to 7965
  140.1914  144.4748  150.6477 LP  0  0  0  0  0  0  0  0  0  0  0  0  # atno 17342 bound_to 10162
  140.6597  143.2248  151.5884 LP  0  0  0  0  0  0  0  0  0  0  0  0  # atno 17343 bound_to 10162
  156.8135  130.4960  149.5352 LP  0  0  0  0  0  0  0  0  0  0  0  0  # atno 17370 bound_to 10713
  156.1117  130.6045  151.0057 LP  0  0  0  0  0  0  0  0  0  0  0  0  # atno 17371 bound_to 10713
  140.6255  134.5317  157.5553 LP  0  0  0  0  0  0  0  0  0  0  0  0  # atno 17394 bound_to 11000
  139.9267  134.8042  156.1048 LP  0  0  0  0  0  0  0  0  0  0  0  0  # atno 17395 bound_to 11000

$$$$
