AV-unprocessed.smi:111|AV-procd|sdf|1079|dock4
  -GOLD-   2262018163D 1   1.00000     0.00000
 Structure written by MMmdl.
 46 48  0  0  0  0  0  0  0  0  1 V2000
  147.4825  138.4879  155.6824 O   0  0  0  0  0  0  0  0  0  0  0  0
  147.6733  137.9653  156.7820 C   0  0  0  0  0  0  0  0  0  0  0  0
  146.5937  137.5950  157.6899 C   0  0  0  0  0  0  0  0  0  0  0  0
  145.3175  137.8072  157.3267 F   0  0  0  0  0  0  0  0  0  0  0  0
  146.8547  137.0468  158.8954 C   0  0  0  0  0  0  0  0  0  0  0  0
  148.1385  136.8007  159.3508 N   0  0  0  0  0  0  0  0  0  0  0  0
  148.3820  136.2042  160.7187 C   0  0  2  0  0  0  0  0  0  0  0  0
  147.6910  134.8413  160.8338 C   0  0  0  0  0  0  0  0  0  0  0  0
  146.3790  135.2105  161.4915 C   0  0  0  0  0  0  0  0  0  0  0  0
  146.8045  136.3557  162.4032 C   0  0  0  0  0  0  0  0  0  0  0  0
  147.8257  137.0456  161.6879 O   0  0  0  0  0  0  0  0  0  0  0  0
  149.2455  137.0991  158.5263 C   0  0  0  0  0  0  0  0  0  0  0  0
  150.3932  136.8556  158.9050 O   0  0  0  0  0  0  0  0  0  0  0  0
  148.9756  137.6832  157.2648 N   0  0  0  0  0  0  0  0  0  0  0  0
  150.0961  138.0450  156.4077 C   0  0  0  0  0  0  0  0  0  0  0  0
  150.1063  139.5310  155.9764 C   0  0  2  0  0  0  0  0  0  0  0  0
  151.1614  139.7080  155.0534 O   0  0  0  0  0  0  0  0  0  0  0  0
  150.2766  140.5387  157.1389 C   0  0  0  0  0  0  0  0  0  0  0  0
  151.7424  140.8492  157.4885 C   0  0  0  0  0  0  0  0  0  0  0  0
  151.9063  142.1163  158.3107 C   0  0  0  0  0  0  0  0  0  0  0  0
  151.5401  143.3692  157.7747 C   0  0  0  0  0  0  0  0  0  0  0  0
  151.6933  144.5399  158.5427 C   0  0  0  0  0  0  0  0  0  0  0  0
  152.2171  144.4637  159.8477 C   0  0  0  0  0  0  0  0  0  0  0  0
  152.5871  143.2159  160.3848 C   0  0  0  0  0  0  0  0  0  0  0  0
  152.4319  142.0448  159.6182 C   0  0  0  0  0  0  0  0  0  0  0  0
  146.0133  136.7955  159.5235 H   0  0  0  0  0  0  0  0  0  0  0  0
  149.4644  136.1659  160.8511 H   0  0  0  0  0  0  0  0  0  0  0  0
  147.5831  134.3458  159.8680 H   0  0  0  0  0  0  0  0  0  0  0  0
  148.2835  134.2064  161.4935 H   0  0  0  0  0  0  0  0  0  0  0  0
  145.6676  135.5640  160.7441 H   0  0  0  0  0  0  0  0  0  0  0  0
  145.9223  134.3816  162.0325 H   0  0  0  0  0  0  0  0  0  0  0  0
  145.9781  137.0189  162.6599 H   0  0  0  0  0  0  0  0  0  0  0  0
  147.2288  135.9655  163.3294 H   0  0  0  0  0  0  0  0  0  0  0  0
  151.0296  137.7591  156.8935 H   0  0  0  0  0  0  0  0  0  0  0  0
  150.0282  137.3855  155.5398 H   0  0  0  0  0  0  0  0  0  0  0  0
  149.1955  139.7519  155.4211 H   0  0  0  0  0  0  0  0  0  0  0  0
  151.3975  138.8633  154.7017 H   0  0  0  0  0  0  0  0  0  0  0  0
  149.7596  141.4722  156.9249 H   0  0  0  0  0  0  0  0  0  0  0  0
  149.7846  140.1537  158.0334 H   0  0  0  0  0  0  0  0  0  0  0  0
  152.1599  140.0199  158.0606 H   0  0  0  0  0  0  0  0  0  0  0  0
  152.3393  140.9169  156.5780 H   0  0  0  0  0  0  0  0  0  0  0  0
  151.1353  143.4363  156.7756 H   0  0  0  0  0  0  0  0  0  0  0  0
  151.4056  145.4961  158.1314 H   0  0  0  0  0  0  0  0  0  0  0  0
  152.3310  145.3610  160.4378 H   0  0  0  0  0  0  0  0  0  0  0  0
  152.9839  143.1557  161.3875 H   0  0  0  0  0  0  0  0  0  0  0  0
  152.7121  141.0901  160.0384 H   0  0  0  0  0  0  0  0  0  0  0  0
  1  2  2  0  0  0  0
  2 14  1  0  0  0  0
  2  3  1  0  0  0  0
  3  4  1  0  0  0  0
  3  5  2  0  0  0  0
  5  6  1  0  0  0  0
  5 26  1  0  0  0  0
  6  7  1  0  0  0  0
  6 12  1  0  0  0  0
  7 11  1  0  0  0  0
  7  8  1  0  0  0  0
  7 27  1  0  0  0  0
  8  9  1  0  0  0  0
  8 28  1  0  0  0  0
  8 29  1  0  0  0  0
  9 10  1  0  0  0  0
  9 30  1  0  0  0  0
  9 31  1  0  0  0  0
 10 11  1  0  0  0  0
 10 32  1  0  0  0  0
 10 33  1  0  0  0  0
 12 13  2  0  0  0  0
 12 14  1  0  0  0  0
 14 15  1  0  0  0  0
 15 16  1  0  0  0  0
 15 34  1  0  0  0  0
 15 35  1  0  0  0  0
 16 17  1  0  0  0  0
 16 18  1  0  0  0  0
 16 36  1  0  0  0  0
 17 37  1  0  0  0  0
 18 19  1  0  0  0  0
 18 38  1  0  0  0  0
 18 39  1  0  0  0  0
 19 20  1  0  0  0  0
 19 40  1  0  0  0  0
 19 41  1  0  0  0  0
 20 25  1  0  0  0  0
 20 21  2  0  0  0  0
 21 22  1  0  0  0  0
 21 42  1  0  0  0  0
 22 23  2  0  0  0  0
 22 43  1  0  0  0  0
 23 24  1  0  0  0  0
 23 44  1  0  0  0  0
 24 25  2  0  0  0  0
 24 45  1  0  0  0  0
 25 46  1  0  0  0  0
M  END
> <s_m_source_file>
AV-unprocessed.smi

> <i_m_source_file_index>
111

> <i_lp_mmshare_version>
43012

> <i_f3d_flags>
0

> <s_epik_input>
TzFbQ0gyXVtDSDJdW0NIMl1bQ0BIXTFuKFtjSF1jKEYpYzI9TyljKD1PKW4yW0NIMl1bQ0BIXShbT0hdKVtDSDJdW0NIMl1jM1tjSF1bY0hdW2NIXVtjSF1bY0hdMw==

> <s_epik_cmdline>
J2VwaWtfcHl0aG9uJywgJy1waCcsICc3LjAnLCAnLXRuJywgJzgnLCAnLW1hJywgJzIwMCcsICctbWV0YWxfYmluZGluZycsICctaW1hZScsICc8aW5maWxlLm1hZT4nLCAnLW9tYWUnLCAnPG91dGZpbGUubWFlPic=

> <r_lp_tautomer_probability>
1

> <r_epik_Ionization_Penalty>
1.88248e-07

> <r_epik_Ionization_Penalty_Charging>
4.03974e-08

> <r_epik_Ionization_Penalty_Neutral>
1.47851e-07

> <r_epik_State_Penalty>
-0

> <r_epik_Charging_Adjusted_Penalty>
4.03974e-08

> <i_epik_Tot_Q>
0

> <i_epik_Tot_abs_Q>
0

> <r_epik_Metal_State_Penalty>
-0

> <b_epik_Metal_Only>
0

> <s_epik_Chemistry_Notes>
This compound contains an acetal/aminal-like group ( X-CH(R)-Y where X, Y are N, S, or O) that may be acid/base labile, releasing an aldehyde.

> <s_lp_Force_Field>
OPLS_2005

> <r_lp_Energy>
34.4162

> <b_lp_Chiralities_Consistent>
1

> <s_lp_Variant>
AV-unprocessed.smi:111-1

> <Gold.Version>
5.8.1

> <Gold.Id.Protein>
6NUR|6NUR_protein|mol2

> <Gold.PLP.Fitness>
51.6613

> <Gold.PLP.PLP>
-42.7460

> <Gold.PLP.part.hbond>
-3.6905

> <Gold.PLP.part.metal>
0.0000

> <Gold.PLP.part.buried>
-5.7740

> <Gold.PLP.part.nonpolar>
-33.4433

> <Gold.PLP.part.repulsive>
0.0145

> <Gold.PLP.ligand.clash>
0.0000

> <Gold.PLP.ligand.torsion>
0.4384

> <Gold.PLP.Chemscore.Hbond>
3.2424

> <Gold.PLP.Chemscore.CHOScore>
0.0000

> <Gold.PLP.Chemscore.Metal>
0.0000

> <Gold.Chemscore.Hbonds>
donor molecule, donor type, donor heavy atom, donor atom, acceptor molecule, acceptor atom, score
      P1  H  6896  6907       L1    13  0.73
      P1  H  6931  6943       L1    11  1.00
      P1  H  6934  6947       L1    11  0.40
      P1  H  7989  7998       L1    17  1.00

> <Gold.PLP.Chemscore.Internal.Correction>
0.0649

> <Gold.Rescore>
     Score         DG    S(hbond)    S(metal)    S(lipo)     H(rot)  DE(clash)    DE(int)     intcor
     17.55     -19.45       2.38        0.00     109.97       2.67       0.01       1.89       ----

> <Gold.Chemscore.Fitness>
17.5469

> <Gold.Chemscore.DG>
-19.4506

> <Gold.Chemscore.ZeroCoef>
-5.4800

> <Gold.Chemscore.Hbond>
2.3804

> <Gold.Chemscore.Metal>
0.0000

> <Gold.Chemscore.Lipo>
109.9684

> <Gold.Chemscore.Internal_Hbond>
0.0000

> <Gold.Chemscore.DEClash>
0.0111

> <Gold.Chemscore.DEInternal>
1.8926

> <Gold.Chemscore.Rot>
2.6743

> <Gold.Chemscore.Internal.Correction>
   9.000000E+99

> <Gold.Chemscore.Hbonds>
donor molecule, donor type, donor heavy atom, donor atom, acceptor molecule, acceptor atom, score
      P1  H  6896  6907       L1    13  0.72
      P1  H  6931  6943       L1    11  0.44
      P1  H  6934  6947       L1    11  0.31
      P1  H  7989  7998       L1    17  0.25

> <Gold.Chemscore.Hbond.Weighted>
-7.9506

> <Gold.Chemscore.Metal.Weighted>
-0.0000

> <Gold.Chemscore.Lipo.Weighted>
-12.8663

> <Gold.Chemscore.Internal_Hbond.Weighted>
0.0000

> <Gold.Chemscore.DEClash.Weighted>
0.0111

> <Gold.Chemscore.DEInternal.Weighted>
1.8926

> <Gold.Chemscore.Rot.Weighted>
6.8463

> <Gold.Chemscore.Internal.Correction.Weighted>
   9.000000E+99

> <Gold.Protein.RotatedTorsions>
[ 6907 6896 6895 6894 ] final  -38.66 input  -60.11 | X-H torsion
[ 7974 7965 7964 7962 ] final  113.21 input  175.53 | X-H torsion
[ 8008 7997 7996 7995 ] final  162.58 input   59.86 | X-H torsion
[ 10167 10162 10161 10158 ] final  -41.37 input  -65.29 | X-H torsion
[ 10718 10713 10712 10709 ] final -172.66 input   66.30 | X-H torsion
[ 10763 10752 10751 10750 ] final  129.44 input  -60.55 | X-H torsion
[ 11005 11000 10999 10996 ] final -141.77 input  -57.11 | X-H torsion

> <Gold.Protein.ActiveResidues>
 VAL166  LYS551  ARG553  GLY616  TRP617  ASP618  TYR619  PRO620  LYS621  CYS622 
 ASP623  PHE694  ASN695  SER759  ASP760  ASP761  ALA762  ILE779  LEU786  VAL792 
 PHE793  MET794  SER795  GLU796  ALA797  LYS798  CYS799  TRP800  GLU811  SER814 

> <Gold.Protein.RotatedAtoms>
  150.9998  134.9313  159.7946 H   0  0  0  0  0  0  0  0  0  0  0  0  # atno 6907 bound_to 6896
  152.5274  134.3169  159.9144 H   0  0  0  0  0  0  0  0  0  0  0  0  # atno 6908 bound_to 6896
  151.3175  133.4012  159.2686 H   0  0  0  0  0  0  0  0  0  0  0  0  # atno 6909 bound_to 6896
  145.2198  139.2867  143.4224 H   0  0  0  0  0  0  0  0  0  0  0  0  # atno 7974 bound_to 7965
  156.2021  140.1746  156.7878 H   0  0  0  0  0  0  0  0  0  0  0  0  # atno 8008 bound_to 7997
  154.5605  140.0700  156.8842 H   0  0  0  0  0  0  0  0  0  0  0  0  # atno 8009 bound_to 7997
  155.2857  140.3352  155.4258 H   0  0  0  0  0  0  0  0  0  0  0  0  # atno 8010 bound_to 7997
  140.7005  143.3098  151.3057 H   0  0  0  0  0  0  0  0  0  0  0  0  # atno 10167 bound_to 10162
  156.7588  130.9406  151.3117 H   0  0  0  0  0  0  0  0  0  0  0  0  # atno 10718 bound_to 10713
  153.7418  135.3223  155.3305 H   0  0  0  0  0  0  0  0  0  0  0  0  # atno 10763 bound_to 10752
  154.8292  135.4546  154.1019 H   0  0  0  0  0  0  0  0  0  0  0  0  # atno 10764 bound_to 10752
  153.2196  135.6946  153.8098 H   0  0  0  0  0  0  0  0  0  0  0  0  # atno 10765 bound_to 10752
  140.8292  134.2538  157.4865 H   0  0  0  0  0  0  0  0  0  0  0  0  # atno 11005 bound_to 11000
  146.3378  140.2500  142.8598 LP  0  0  0  0  0  0  0  0  0  0  0  0  # atno 17320 bound_to 7965
  144.9776  140.8429  143.5417 LP  0  0  0  0  0  0  0  0  0  0  0  0  # atno 17321 bound_to 7965
  139.6517  144.0350  152.2631 LP  0  0  0  0  0  0  0  0  0  0  0  0  # atno 17342 bound_to 10162
  139.9888  144.6376  150.7833 LP  0  0  0  0  0  0  0  0  0  0  0  0  # atno 17343 bound_to 10162
  157.6744  130.9080  150.0115 LP  0  0  0  0  0  0  0  0  0  0  0  0  # atno 17370 bound_to 10713
  156.1352  130.3643  149.9668 LP  0  0  0  0  0  0  0  0  0  0  0  0  # atno 17371 bound_to 10713
  139.8705  134.9577  156.4276 LP  0  0  0  0  0  0  0  0  0  0  0  0  # atno 17394 bound_to 11000
  140.9017  133.7775  155.9687 LP  0  0  0  0  0  0  0  0  0  0  0  0  # atno 17395 bound_to 11000

$$$$
