AV-unprocessed.smi:1823|AV-procd|sdf|7392|dock8
  -GOLD-   22720 9 63D 1   1.00000     0.00000
 Structure written by MMmdl.
 43 44  0  0  0  0  0  0  0  0  1 V2000
  146.9356  129.9128  153.1788 C   0  0  0  0  0  0  0  0  0  0  0  0
  147.9599  130.6877  153.9342 C   0  0  0  0  0  0  0  0  0  0  0  0
  148.6792  130.1175  154.8930 N   0  0  0  0  0  0  0  0  0  0  0  0
  149.5134  131.1556  155.3316 O   0  0  0  0  0  0  0  0  0  0  0  0
  149.1818  132.2372  154.5851 C   0  0  0  0  0  0  0  0  0  0  0  0
  149.9513  133.5058  154.7696 C   0  0  0  0  0  0  0  0  0  0  0  0
  149.0778  134.7305  155.1065 C   0  0  0  0  0  0  0  0  0  0  0  0
  149.5900  135.9668  154.5186 N   0  0  0  0  0  0  0  0  0  0  0  0
  150.6829  136.6282  154.9320 C   0  0  0  0  0  0  0  0  0  0  0  0
  151.4049  136.2343  155.8489 O   0  0  0  0  0  0  0  0  0  0  0  0
  151.0000  137.9489  154.2135 C   0  0  1  0  0  0  0  0  0  0  0  0
  149.7689  138.8763  154.1921 C   0  0  0  0  0  0  0  0  0  0  0  0
  150.1272  139.9783  155.1754 C   0  0  0  0  0  0  0  0  0  0  0  0
  149.3304  140.8502  155.5188 O   0  0  0  0  0  0  0  0  0  0  0  0
  151.3869  139.8430  155.6067 N   0  0  0  0  0  0  0  0  0  0  0  0
  152.0831  140.7023  156.5628 C   0  0  0  0  0  0  0  0  0  0  0  0
  151.3772  140.7669  157.9361 C   0  0  0  0  0  0  0  0  0  0  0  0
  150.8170  139.4106  158.3996 C   0  0  0  0  0  0  0  0  0  0  0  0
  150.2681  141.8296  157.9208 C   0  0  0  0  0  0  0  0  0  0  0  0
  152.0932  138.7648  154.9350 C   0  0  0  0  0  0  0  0  0  0  0  0
  148.2220  132.0021  153.6939 N   0  0  0  0  0  0  0  0  0  0  0  0
  146.1682  129.5394  153.8573 H   0  0  0  0  0  0  0  0  0  0  0  0
  147.3994  129.0635  152.6767 H   0  0  0  0  0  0  0  0  0  0  0  0
  146.4554  130.5380  152.4254 H   0  0  0  0  0  0  0  0  0  0  0  0
  150.6868  133.3520  155.5598 H   0  0  0  0  0  0  0  0  0  0  0  0
  150.5181  133.6990  153.8580 H   0  0  0  0  0  0  0  0  0  0  0  0
  148.0498  134.5523  154.7867 H   0  0  0  0  0  0  0  0  0  0  0  0
  149.0377  134.8610  156.1878 H   0  0  0  0  0  0  0  0  0  0  0  0
  149.0576  136.3632  153.7576 H   0  0  0  0  0  0  0  0  0  0  0  0
  151.3211  137.7305  153.1936 H   0  0  0  0  0  0  0  0  0  0  0  0
  149.6184  139.3075  153.2022 H   0  0  0  0  0  0  0  0  0  0  0  0
  148.8419  138.3834  154.4899 H   0  0  0  0  0  0  0  0  0  0  0  0
  153.0981  140.3227  156.6884 H   0  0  0  0  0  0  0  0  0  0  0  0
  152.1900  141.7070  156.1500 H   0  0  0  0  0  0  0  0  0  0  0  0
  152.1147  141.0834  158.6751 H   0  0  0  0  0  0  0  0  0  0  0  0
  150.1217  138.9981  157.6680 H   0  0  0  0  0  0  0  0  0  0  0  0
  150.2844  139.5095  159.3458 H   0  0  0  0  0  0  0  0  0  0  0  0
  151.6109  138.6806  158.5573 H   0  0  0  0  0  0  0  0  0  0  0  0
  149.4835  141.5730  157.2080 H   0  0  0  0  0  0  0  0  0  0  0  0
  150.6633  142.8075  157.6439 H   0  0  0  0  0  0  0  0  0  0  0  0
  149.8056  141.9303  158.9032 H   0  0  0  0  0  0  0  0  0  0  0  0
  152.6693  138.1725  155.6480 H   0  0  0  0  0  0  0  0  0  0  0  0
  152.7961  139.1883  154.2161 H   0  0  0  0  0  0  0  0  0  0  0  0
  1  2  1  0  0  0  0
  1 22  1  0  0  0  0
  1 23  1  0  0  0  0
  1 24  1  0  0  0  0
  2 21  1  0  0  0  0
  2  3  2  0  0  0  0
  3  4  1  0  0  0  0
  4  5  1  0  0  0  0
  5  6  1  0  0  0  0
  5 21  2  0  0  0  0
  6  7  1  0  0  0  0
  6 25  1  0  0  0  0
  6 26  1  0  0  0  0
  7  8  1  0  0  0  0
  7 27  1  0  0  0  0
  7 28  1  0  0  0  0
  8  9  1  0  0  0  0
  8 29  1  0  0  0  0
  9 10  2  0  0  0  0
  9 11  1  0  0  0  0
 11 20  1  0  0  0  0
 11 12  1  0  0  0  0
 11 30  1  0  0  0  0
 12 13  1  0  0  0  0
 12 31  1  0  0  0  0
 12 32  1  0  0  0  0
 13 14  2  0  0  0  0
 13 15  1  0  0  0  0
 15 16  1  0  0  0  0
 15 20  1  0  0  0  0
 16 17  1  0  0  0  0
 16 33  1  0  0  0  0
 16 34  1  0  0  0  0
 17 18  1  0  0  0  0
 17 19  1  0  0  0  0
 17 35  1  0  0  0  0
 18 36  1  0  0  0  0
 18 37  1  0  0  0  0
 18 38  1  0  0  0  0
 19 39  1  0  0  0  0
 19 40  1  0  0  0  0
 19 41  1  0  0  0  0
 20 42  1  0  0  0  0
 20 43  1  0  0  0  0
M  END
> <s_m_source_file>
AV-unprocessed.smi

> <i_m_source_file_index>
1823

> <i_lp_mmshare_version>
43012

> <i_f3d_flags>
0

> <s_epik_input>
W0NIM11jMW5vYyhuMSlbQ0gyXVtDSDJdW05IXUMoPU8pW0NAQEhdMltDSDJdQyg9TylOKFtDSDJdMilbQ0gyXVtDSF0oW0NIM10pW0NIM10=

> <s_epik_cmdline>
J2VwaWtfcHl0aG9uJywgJy1waCcsICc3LjAnLCAnLXRuJywgJzgnLCAnLW1hJywgJzIwMCcsICctbWV0YWxfYmluZGluZycsICctaW1hZScsICc8aW5maWxlLm1hZT4nLCAnLW9tYWUnLCAnPG91dGZpbGUubWFlPic=

> <r_lp_tautomer_probability>
1

> <r_epik_Ionization_Penalty>
3.64678e-08

> <r_epik_Ionization_Penalty_Charging>
0

> <r_epik_Ionization_Penalty_Neutral>
3.64678e-08

> <r_epik_State_Penalty>
-0

> <r_epik_Charging_Adjusted_Penalty>
0

> <i_epik_Tot_Q>
0

> <i_epik_Tot_abs_Q>
0

> <r_epik_Metal_State_Penalty>
-0

> <b_epik_Metal_Only>
0

> <s_lp_Force_Field>
OPLS_2005

> <r_lp_Energy>
11.154

> <b_lp_Chiralities_Consistent>
1

> <s_lp_Variant>
AV-unprocessed.smi:1823-2

> <Gold.Version>
5.8.1

> <Gold.Id.Protein>
6NUR|6NUR_protein|mol2

> <Gold.PLP.Fitness>
38.4297

> <Gold.PLP.PLP>
-34.1331

> <Gold.PLP.part.hbond>
-2.2148

> <Gold.PLP.part.metal>
0.0000

> <Gold.PLP.part.buried>
-4.7347

> <Gold.PLP.part.nonpolar>
-27.3829

> <Gold.PLP.part.repulsive>
0.3078

> <Gold.PLP.ligand.clash>
0.0000

> <Gold.PLP.ligand.torsion>
0.7360

> <Gold.PLP.Chemscore.Hbond>
1.8800

> <Gold.PLP.Chemscore.CHOScore>
0.0000

> <Gold.PLP.Chemscore.Metal>
0.0000

> <Gold.Chemscore.Hbonds>
donor molecule, donor type, donor heavy atom, donor atom, acceptor molecule, acceptor atom, score
      L1  H     8    29       P1  7948  0.75
      P1  H 10752 10765       L1    10  1.00

> <Gold.PLP.Chemscore.Internal.Correction>
0.1286

> <Gold.Rescore>
     Score         DG    S(hbond)    S(metal)    S(lipo)     H(rot)  DE(clash)    DE(int)     intcor
     10.01     -11.11       1.47        0.00      58.69       2.40       0.04       1.06       ----

> <Gold.Chemscore.Fitness>
10.0096

> <Gold.Chemscore.DG>
-11.1098

> <Gold.Chemscore.ZeroCoef>
-5.4800

> <Gold.Chemscore.Hbond>
1.4659

> <Gold.Chemscore.Metal>
0.0000

> <Gold.Chemscore.Lipo>
58.6881

> <Gold.Chemscore.Internal_Hbond>
0.0000

> <Gold.Chemscore.DEClash>
0.0416

> <Gold.Chemscore.DEInternal>
1.0586

> <Gold.Chemscore.Rot>
2.3957

> <Gold.Chemscore.Internal.Correction>
   9.000000E+99

> <Gold.Chemscore.Hbonds>
donor molecule, donor type, donor heavy atom, donor atom, acceptor molecule, acceptor atom, score
      L1  H     8    29       P1  7948  0.75
      P1  H 10752 10765       L1    10  0.28

> <Gold.Chemscore.Hbond.Weighted>
-4.8962

> <Gold.Chemscore.Metal.Weighted>
-0.0000

> <Gold.Chemscore.Lipo.Weighted>
-6.8665

> <Gold.Chemscore.Internal_Hbond.Weighted>
0.0000

> <Gold.Chemscore.DEClash.Weighted>
0.0416

> <Gold.Chemscore.DEInternal.Weighted>
1.0586

> <Gold.Chemscore.Rot.Weighted>
6.1329

> <Gold.Chemscore.Internal.Correction.Weighted>
   9.000000E+99

> <Gold.Protein.RotatedTorsions>
[ 6907 6896 6895 6894 ] final -141.81 input  -60.11 | X-H torsion
[ 7974 7965 7964 7962 ] final  101.93 input  175.53 | X-H torsion
[ 8008 7997 7996 7995 ] final   -6.55 input   59.86 | X-H torsion
[ 10167 10162 10161 10158 ] final -173.30 input  -65.29 | X-H torsion
[ 10718 10713 10712 10709 ] final   70.98 input   66.30 | X-H torsion
[ 10763 10752 10751 10750 ] final -167.01 input  -60.55 | X-H torsion
[ 11005 11000 10999 10996 ] final  139.18 input  -57.11 | X-H torsion

> <Gold.Protein.ActiveResidues>
 VAL166  LYS551  ARG553  GLY616  TRP617  ASP618  TYR619  PRO620  LYS621  CYS622 
 ASP623  PHE694  ASN695  SER759  ASP760  ASP761  ALA762  ILE779  LEU786  VAL792 
 PHE793  MET794  SER795  GLU796  ALA797  LYS798  CYS799  TRP800  GLU811  SER814 

> <Gold.Protein.RotatedAtoms>
  151.0787  133.5407  159.2621 H   0  0  0  0  0  0  0  0  0  0  0  0  # atno 6907 bound_to 6896
  151.2319  135.0557  159.9001 H   0  0  0  0  0  0  0  0  0  0  0  0  # atno 6908 bound_to 6896
  152.5421  134.0575  159.8191 H   0  0  0  0  0  0  0  0  0  0  0  0  # atno 6909 bound_to 6896
  145.3658  139.2408  143.3482 H   0  0  0  0  0  0  0  0  0  0  0  0  # atno 7974 bound_to 7965
  154.5927  140.2430  155.7899 H   0  0  0  0  0  0  0  0  0  0  0  0  # atno 8008 bound_to 7997
  156.2258  140.2983  156.0017 H   0  0  0  0  0  0  0  0  0  0  0  0  # atno 8009 bound_to 7997
  155.2347  140.0405  157.2957 H   0  0  0  0  0  0  0  0  0  0  0  0  # atno 8010 bound_to 7997
  139.5696  144.1673  152.1364 H   0  0  0  0  0  0  0  0  0  0  0  0  # atno 10167 bound_to 10162
  157.6428  130.9505  150.0726 H   0  0  0  0  0  0  0  0  0  0  0  0  # atno 10718 bound_to 10713
  154.6776  135.2949  154.9658 H   0  0  0  0  0  0  0  0  0  0  0  0  # atno 10763 bound_to 10752
  154.0663  135.6624  153.4822 H   0  0  0  0  0  0  0  0  0  0  0  0  # atno 10764 bound_to 10752
  153.0526  135.5164  154.7802 H   0  0  0  0  0  0  0  0  0  0  0  0  # atno 10765 bound_to 10752
  140.0236  134.9385  157.0524 H   0  0  0  0  0  0  0  0  0  0  0  0  # atno 11005 bound_to 11000
  146.2907  140.4300  142.8740 LP  0  0  0  0  0  0  0  0  0  0  0  0  # atno 17320 bound_to 7965
  144.8613  140.7143  143.6106 LP  0  0  0  0  0  0  0  0  0  0  0  0  # atno 17321 bound_to 7965
  140.1203  144.5379  150.6867 LP  0  0  0  0  0  0  0  0  0  0  0  0  # atno 17342 bound_to 10162
  140.6980  143.2416  151.4945 LP  0  0  0  0  0  0  0  0  0  0  0  0  # atno 17343 bound_to 10162
  156.1726  130.3647  149.9145 LP  0  0  0  0  0  0  0  0  0  0  0  0  # atno 17370 bound_to 10713
  156.7116  130.8972  151.3610 LP  0  0  0  0  0  0  0  0  0  0  0  0  # atno 17371 bound_to 10713
  140.4344  134.1746  155.7170 LP  0  0  0  0  0  0  0  0  0  0  0  0  # atno 17394 bound_to 11000
  141.1789  133.8456  157.1326 LP  0  0  0  0  0  0  0  0  0  0  0  0  # atno 17395 bound_to 11000

$$$$
