AV-unprocessed.smi:767|AV-procd|sdf|3660|dock3
  -GOLD-   22720 1 73D 1   1.00000     0.00000
 Structure written by MMmdl.
 47 49  0  0  0  0  0  0  0  0  1 V2000
  155.1061  140.4768  161.9841 C   0  0  0  0  0  0  0  0  0  0  0  0
  154.1005  141.3931  161.3190 C   0  0  0  0  0  0  0  0  0  0  0  0
  153.3688  142.3322  162.0757 C   0  0  0  0  0  0  0  0  0  0  0  0
  152.4441  143.1572  161.4075 C   0  0  0  0  0  0  0  0  0  0  0  0
  152.2845  143.0107  160.0141 C   0  0  0  0  0  0  0  0  0  0  0  0
  151.2757  143.8498  159.2490 C   0  0  0  0  0  0  0  0  0  0  0  0
  150.5635  144.9034  160.1194 C   0  0  0  0  0  0  0  0  0  0  0  0
  149.1841  145.1314  159.6951 N   0  0  0  0  0  0  0  0  0  0  0  0
  148.0920  144.8319  160.4131 C   0  0  0  0  0  0  0  0  0  0  0  0
  148.1164  144.2925  161.5195 O   0  0  0  0  0  0  0  0  0  0  0  0
  146.9678  145.2046  159.7883 N   0  0  0  0  0  0  0  0  0  0  0  0
  145.6307  145.0568  160.3530 C   0  0  1  0  0  0  0  0  0  0  0  0
  144.5230  145.2740  159.3107 C   0  0  2  0  0  0  0  0  0  0  0  0
  143.5947  146.4507  159.4393 C   0  0  0  0  0  0  0  0  0  0  0  0
  142.3940  145.8590  160.1833 C   0  0  0  0  0  0  0  0  0  0  0  0
  142.9050  144.6952  160.8295 O   0  0  0  0  0  0  0  0  0  0  0  0
  143.8247  144.0748  159.9342 C   0  0  2  0  0  0  0  0  0  0  0  0
  145.1604  143.5918  160.5386 C   0  0  0  0  0  0  0  0  0  0  0  0
  145.8698  142.5080  159.7139 C   0  0  0  0  0  0  0  0  0  0  0  0
  145.0993  143.0803  161.9786 C   0  0  0  0  0  0  0  0  0  0  0  0
  153.0694  142.0441  159.3506 C   0  0  0  0  0  0  0  0  0  0  0  0
  153.9612  141.2511  159.9825 N   0  0  0  0  0  0  0  0  0  0  0  0
  154.9565  140.4481  163.0638 H   0  0  0  0  0  0  0  0  0  0  0  0
  156.1203  140.8251  161.7881 H   0  0  0  0  0  0  0  0  0  0  0  0
  155.0110  139.4591  161.6036 H   0  0  0  0  0  0  0  0  0  0  0  0
  153.5086  142.4179  163.1432 H   0  0  0  0  0  0  0  0  0  0  0  0
  151.8606  143.8797  161.9588 H   0  0  0  0  0  0  0  0  0  0  0  0
  151.7804  144.3424  158.4167 H   0  0  0  0  0  0  0  0  0  0  0  0
  150.5360  143.1841  158.8030 H   0  0  0  0  0  0  0  0  0  0  0  0
  150.5473  144.5682  161.1565 H   0  0  0  0  0  0  0  0  0  0  0  0
  151.1263  145.8385  160.1132 H   0  0  0  0  0  0  0  0  0  0  0  0
  149.0539  145.5747  158.7977 H   0  0  0  0  0  0  0  0  0  0  0  0
  147.0404  145.6418  158.8814 H   0  0  0  0  0  0  0  0  0  0  0  0
  145.4651  145.6605  161.2486 H   0  0  0  0  0  0  0  0  0  0  0  0
  144.8538  145.0614  158.2923 H   0  0  0  0  0  0  0  0  0  0  0  0
  144.0570  147.2498  160.0198 H   0  0  0  0  0  0  0  0  0  0  0  0
  143.3037  146.8631  158.4728 H   0  0  0  0  0  0  0  0  0  0  0  0
  141.9579  146.5561  160.8990 H   0  0  0  0  0  0  0  0  0  0  0  0
  141.6165  145.5597  159.4790 H   0  0  0  0  0  0  0  0  0  0  0  0
  143.3516  143.4081  159.2115 H   0  0  0  0  0  0  0  0  0  0  0  0
  145.3252  141.5640  159.7462 H   0  0  0  0  0  0  0  0  0  0  0  0
  146.8778  142.3150  160.0827 H   0  0  0  0  0  0  0  0  0  0  0  0
  145.9565  142.7895  158.6641 H   0  0  0  0  0  0  0  0  0  0  0  0
  144.5175  142.1613  162.0523 H   0  0  0  0  0  0  0  0  0  0  0  0
  144.6379  143.8088  162.6454 H   0  0  0  0  0  0  0  0  0  0  0  0
  146.0954  142.8753  162.3722 H   0  0  0  0  0  0  0  0  0  0  0  0
  152.9727  141.8959  158.2851 H   0  0  0  0  0  0  0  0  0  0  0  0
  1  2  1  0  0  0  0
  1 23  1  0  0  0  0
  1 24  1  0  0  0  0
  1 25  1  0  0  0  0
  2 22  1  0  0  0  0
  2  3  2  0  0  0  0
  3  4  1  0  0  0  0
  3 26  1  0  0  0  0
  4  5  2  0  0  0  0
  4 27  1  0  0  0  0
  5  6  1  0  0  0  0
  5 21  1  0  0  0  0
  6  7  1  0  0  0  0
  6 28  1  0  0  0  0
  6 29  1  0  0  0  0
  7  8  1  0  0  0  0
  7 30  1  0  0  0  0
  7 31  1  0  0  0  0
  8  9  1  0  0  0  0
  8 32  1  0  0  0  0
  9 10  2  0  0  0  0
  9 11  1  0  0  0  0
 11 12  1  0  0  0  0
 11 33  1  0  0  0  0
 12 18  1  0  0  0  0
 12 13  1  0  0  0  0
 12 34  1  0  0  0  0
 13 17  1  0  0  0  0
 13 14  1  0  0  0  0
 13 35  1  0  0  0  0
 14 15  1  0  0  0  0
 14 36  1  0  0  0  0
 14 37  1  0  0  0  0
 15 16  1  0  0  0  0
 15 38  1  0  0  0  0
 15 39  1  0  0  0  0
 16 17  1  0  0  0  0
 17 18  1  0  0  0  0
 17 40  1  0  0  0  0
 18 19  1  0  0  0  0
 18 20  1  0  0  0  0
 19 41  1  0  0  0  0
 19 42  1  0  0  0  0
 19 43  1  0  0  0  0
 20 44  1  0  0  0  0
 20 45  1  0  0  0  0
 20 46  1  0  0  0  0
 21 22  2  0  0  0  0
 21 47  1  0  0  0  0
M  END
> <s_m_source_file>
AV-unprocessed.smi

> <i_m_source_file_index>
767

> <i_lp_mmshare_version>
43012

> <i_f3d_flags>
0

> <s_epik_input>
W0NIM11jMVtjSF1bY0hdYyhbY0hdbjEpW0NIMl1bQ0gyXVtOSF1DKD1PKVtOSF1bQ0BIXTJDKFtDSDNdKShbQ0gzXSlbQ0BIXShbQ0BASF0yMylPW0NIMl1bQ0gyXTM=

> <s_epik_cmdline>
J2VwaWtfcHl0aG9uJywgJy1waCcsICc3LjAnLCAnLXRuJywgJzgnLCAnLW1hJywgJzIwMCcsICctbWV0YWxfYmluZGluZycsICctaW1hZScsICc8aW5maWxlLm1hZT4nLCAnLW9tYWUnLCAnPG91dGZpbGUubWFlPic=

> <r_epik_Ionization_Penalty>
0.0567523

> <r_epik_Ionization_Penalty_Charging>
0

> <r_epik_Ionization_Penalty_Neutral>
0.0567523

> <r_epik_State_Penalty>
0.0489186

> <r_epik_Charging_Adjusted_Penalty>
0.0489186

> <i_epik_Tot_Q>
0

> <i_epik_Tot_abs_Q>
0

> <r_epik_Metal_State_Penalty>
0.044622

> <b_epik_Metal_Only>
0

> <s_lp_Force_Field>
OPLS_2005

> <r_lp_Energy>
33.1778

> <b_lp_Chiralities_Consistent>
1

> <s_lp_Variant>
AV-unprocessed.smi:767-4

> <Gold.Version>
5.8.1

> <Gold.Id.Protein>
6NUR|6NUR_protein|mol2

> <Gold.PLP.Fitness>
51.1737

> <Gold.PLP.PLP>
-42.7451

> <Gold.PLP.part.hbond>
-3.0000

> <Gold.PLP.part.metal>
0.0000

> <Gold.PLP.part.buried>
-7.4572

> <Gold.PLP.part.nonpolar>
-33.9162

> <Gold.PLP.part.repulsive>
0.5935

> <Gold.PLP.ligand.clash>
0.0000

> <Gold.PLP.ligand.torsion>
0.3446

> <Gold.PLP.Chemscore.Hbond>
2.9753

> <Gold.PLP.Chemscore.CHOScore>
0.0000

> <Gold.PLP.Chemscore.Metal>
0.0000

> <Gold.Chemscore.Hbonds>
donor molecule, donor type, donor heavy atom, donor atom, acceptor molecule, acceptor atom, score
      L1  H     8    32       P1  8029  0.99
      L1  H    11    33       P1  8029  1.00
      P1  H  6933  6944       L1    10  0.98

> <Gold.PLP.Chemscore.Internal.Correction>
0.1919

> <Gold.Rescore>
     Score         DG    S(hbond)    S(metal)    S(lipo)     H(rot)  DE(clash)    DE(int)     intcor
     24.58     -24.98       2.76        0.00     119.60       1.45       0.05       0.35       ----

> <Gold.Chemscore.Fitness>
24.5802

> <Gold.Chemscore.DG>
-24.9798

> <Gold.Chemscore.ZeroCoef>
-5.4800

> <Gold.Chemscore.Hbond>
2.7597

> <Gold.Chemscore.Metal>
0.0000

> <Gold.Chemscore.Lipo>
119.6029

> <Gold.Chemscore.Internal_Hbond>
0.0000

> <Gold.Chemscore.DEClash>
0.0451

> <Gold.Chemscore.DEInternal>
0.3544

> <Gold.Chemscore.Rot>
1.4497

> <Gold.Chemscore.Internal.Correction>
   9.000000E+99

> <Gold.Chemscore.Hbonds>
donor molecule, donor type, donor heavy atom, donor atom, acceptor molecule, acceptor atom, score
      L1  H     8    32       P1  8029  0.94
      L1  H    11    33       P1  8029  0.98
      P1  H  6933  6944       L1    10  0.81

> <Gold.Chemscore.Hbond.Weighted>
-9.2175

> <Gold.Chemscore.Metal.Weighted>
-0.0000

> <Gold.Chemscore.Lipo.Weighted>
-13.9935

> <Gold.Chemscore.Internal_Hbond.Weighted>
0.0000

> <Gold.Chemscore.DEClash.Weighted>
0.0451

> <Gold.Chemscore.DEInternal.Weighted>
0.3544

> <Gold.Chemscore.Rot.Weighted>
3.7112

> <Gold.Chemscore.Internal.Correction.Weighted>
   9.000000E+99

> <Gold.Protein.RotatedTorsions>
[ 6907 6896 6895 6894 ] final  131.04 input  -60.11 | X-H torsion
[ 7974 7965 7964 7962 ] final -152.30 input  175.53 | X-H torsion
[ 8008 7997 7996 7995 ] final   67.60 input   59.86 | X-H torsion
[ 10167 10162 10161 10158 ] final  147.60 input  -65.29 | X-H torsion
[ 10718 10713 10712 10709 ] final  118.11 input   66.30 | X-H torsion
[ 10763 10752 10751 10750 ] final  106.33 input  -60.55 | X-H torsion
[ 11005 11000 10999 10996 ] final -159.70 input  -57.11 | X-H torsion

> <Gold.Protein.ActiveResidues>
 VAL166  LYS551  ARG553  GLY616  TRP617  ASP618  TYR619  PRO620  LYS621  CYS622 
 ASP623  PHE694  ASN695  SER759  ASP760  ASP761  ALA762  ILE779  LEU786  VAL792 
 PHE793  MET794  SER795  GLU796  ALA797  LYS798  CYS799  TRP800  GLU811  SER814 

> <Gold.Protein.RotatedAtoms>
  152.3466  133.6130  159.5914 H   0  0  0  0  0  0  0  0  0  0  0  0  # atno 6907 bound_to 6896
  150.7511  133.9639  159.3533 H   0  0  0  0  0  0  0  0  0  0  0  0  # atno 6908 bound_to 6896
  151.7496  135.0836  160.0380 H   0  0  0  0  0  0  0  0  0  0  0  0  # atno 6909 bound_to 6896
  144.7802  140.4680  143.5845 H   0  0  0  0  0  0  0  0  0  0  0  0  # atno 7974 bound_to 7965
  155.6954  140.3496  155.4911 H   0  0  0  0  0  0  0  0  0  0  0  0  # atno 8008 bound_to 7997
  155.9487  140.1115  157.1017 H   0  0  0  0  0  0  0  0  0  0  0  0  # atno 8009 bound_to 7997
  154.4117  140.1198  156.5010 H   0  0  0  0  0  0  0  0  0  0  0  0  # atno 8010 bound_to 7997
  139.4887  144.5743  151.6995 H   0  0  0  0  0  0  0  0  0  0  0  0  # atno 10167 bound_to 10162
  157.6052  131.1044  150.7710 H   0  0  0  0  0  0  0  0  0  0  0  0  # atno 10718 bound_to 10713
  153.3915  135.3880  155.1926 H   0  0  0  0  0  0  0  0  0  0  0  0  # atno 10763 bound_to 10752
  154.8720  135.3749  154.4731 H   0  0  0  0  0  0  0  0  0  0  0  0  # atno 10764 bound_to 10752
  153.5218  135.7086  153.5789 H   0  0  0  0  0  0  0  0  0  0  0  0  # atno 10765 bound_to 10752
  140.6397  134.4564  157.5233 H   0  0  0  0  0  0  0  0  0  0  0  0  # atno 11005 bound_to 11000
  145.6073  139.1509  143.3095 LP  0  0  0  0  0  0  0  0  0  0  0  0  # atno 17320 bound_to 7965
  146.2005  140.6191  142.9104 LP  0  0  0  0  0  0  0  0  0  0  0  0  # atno 17321 bound_to 7965
  140.5336  144.0691  150.6062 LP  0  0  0  0  0  0  0  0  0  0  0  0  # atno 17342 bound_to 10162
  140.3689  143.2865  152.0300 LP  0  0  0  0  0  0  0  0  0  0  0  0  # atno 17343 bound_to 10162
  156.8100  130.4949  149.5357 LP  0  0  0  0  0  0  0  0  0  0  0  0  # atno 17370 bound_to 10713
  156.1136  130.6059  151.0086 LP  0  0  0  0  0  0  0  0  0  0  0  0  # atno 17371 bound_to 10713
  139.9085  134.8397  156.1616 LP  0  0  0  0  0  0  0  0  0  0  0  0  # atno 17394 bound_to 11000
  141.0616  133.6839  156.1963 LP  0  0  0  0  0  0  0  0  0  0  0  0  # atno 17395 bound_to 11000

$$$$
