AV-unprocessed.smi:2509|AV-procd|sdf|9867|dock3
  -GOLD-   2272013493D 1   1.00000     0.00000
 Structure written by MMmdl.
 45 46  0  0  0  0  0  0  0  0  1 V2000
  145.4920  132.2727  149.4946 C   0  0  0  0  0  0  0  0  0  0  0  0
  144.7476  132.6498  150.7973 C   0  0  0  0  0  0  0  0  0  0  0  0
  143.2837  132.1904  150.6009 C   0  0  0  0  0  0  0  0  0  0  0  0
  145.3718  131.8928  151.9840 C   0  0  0  0  0  0  0  0  0  0  0  0
  144.8202  134.1643  151.0598 C   0  0  0  0  0  0  0  0  0  0  0  0
  145.8642  134.8249  150.5432 N   0  0  0  0  0  0  0  0  0  0  0  0
  146.0070  136.1257  150.8724 C   0  0  0  0  0  0  0  0  0  0  0  0
  145.1222  136.7769  151.7551 C   0  0  0  0  0  0  0  0  0  0  0  0
  145.3453  138.1500  152.0511 N   0  0  0  0  0  0  0  0  0  0  0  0
  146.5068  138.8123  152.1869 C   0  0  0  0  0  0  0  0  0  0  0  0
  147.6291  138.3230  152.0672 O   0  0  0  0  0  0  0  0  0  0  0  0
  146.2940  140.1031  152.4791 N   0  0  0  0  0  0  0  0  0  0  0  0
  147.3404  141.0944  152.7082 C   0  0  0  0  0  0  0  0  0  0  0  0
  146.9103  142.1674  153.7310 C   0  0  1  0  0  0  0  0  0  0  0  0
  145.9225  143.2044  153.1830 C   0  0  0  0  0  0  0  0  0  0  0  0
  145.2014  143.7852  154.4099 C   0  0  0  0  0  0  0  0  0  0  0  0
  145.6051  142.9137  155.6101 C   0  0  0  0  0  0  0  0  0  0  0  0
  146.2428  141.6541  155.0168 C   0  0  1  0  0  0  0  0  0  0  0  0
  145.2234  140.7131  154.7335 O   0  0  0  0  0  0  0  0  0  0  0  0
  144.0777  135.9750  152.2762 C   0  0  0  0  0  0  0  0  0  0  0  0
  143.9466  134.6745  151.9375 N   0  0  0  0  0  0  0  0  0  0  0  0
  145.4051  131.2065  149.2826 H   0  0  0  0  0  0  0  0  0  0  0  0
  146.5578  132.4952  149.5532 H   0  0  0  0  0  0  0  0  0  0  0  0
  145.0884  132.8114  148.6364 H   0  0  0  0  0  0  0  0  0  0  0  0
  142.8050  132.7285  149.7818 H   0  0  0  0  0  0  0  0  0  0  0  0
  142.6817  132.3478  151.4964 H   0  0  0  0  0  0  0  0  0  0  0  0
  143.2292  131.1261  150.3694 H   0  0  0  0  0  0  0  0  0  0  0  0
  145.3418  130.8140  151.8286 H   0  0  0  0  0  0  0  0  0  0  0  0
  144.8411  132.1065  152.9124 H   0  0  0  0  0  0  0  0  0  0  0  0
  146.4149  132.1758  152.1294 H   0  0  0  0  0  0  0  0  0  0  0  0
  146.8418  136.6491  150.4295 H   0  0  0  0  0  0  0  0  0  0  0  0
  144.5091  138.7009  152.1790 H   0  0  0  0  0  0  0  0  0  0  0  0
  145.3402  140.4234  152.5616 H   0  0  0  0  0  0  0  0  0  0  0  0
  148.2518  140.5985  153.0457 H   0  0  0  0  0  0  0  0  0  0  0  0
  147.5848  141.5561  151.7513 H   0  0  0  0  0  0  0  0  0  0  0  0
  147.8035  142.7161  154.0354 H   0  0  0  0  0  0  0  0  0  0  0  0
  146.4251  143.9745  152.5969 H   0  0  0  0  0  0  0  0  0  0  0  0
  145.1947  142.7217  152.5293 H   0  0  0  0  0  0  0  0  0  0  0  0
  145.4804  144.8258  154.5797 H   0  0  0  0  0  0  0  0  0  0  0  0
  144.1220  143.7591  154.2578 H   0  0  0  0  0  0  0  0  0  0  0  0
  146.3536  143.4464  156.1982 H   0  0  0  0  0  0  0  0  0  0  0  0
  144.7689  142.6979  156.2765 H   0  0  0  0  0  0  0  0  0  0  0  0
  146.9619  141.2019  155.7006 H   0  0  0  0  0  0  0  0  0  0  0  0
  144.8661  140.9069  153.8803 H   0  0  0  0  0  0  0  0  0  0  0  0
  143.3379  136.3423  152.9685 H   0  0  0  0  0  0  0  0  0  0  0  0
  1  2  1  0  0  0  0
  1 22  1  0  0  0  0
  1 23  1  0  0  0  0
  1 24  1  0  0  0  0
  2  3  1  0  0  0  0
  2  4  1  0  0  0  0
  2  5  1  0  0  0  0
  3 25  1  0  0  0  0
  3 26  1  0  0  0  0
  3 27  1  0  0  0  0
  4 28  1  0  0  0  0
  4 29  1  0  0  0  0
  4 30  1  0  0  0  0
  5 21  1  0  0  0  0
  5  6  2  0  0  0  0
  6  7  1  0  0  0  0
  7  8  2  0  0  0  0
  7 31  1  0  0  0  0
  8  9  1  0  0  0  0
  8 20  1  0  0  0  0
  9 10  1  0  0  0  0
  9 32  1  0  0  0  0
 10 11  2  0  0  0  0
 10 12  1  0  0  0  0
 12 13  1  0  0  0  0
 12 33  1  0  0  0  0
 13 14  1  0  0  0  0
 13 34  1  0  0  0  0
 13 35  1  0  0  0  0
 14 18  1  0  0  0  0
 14 15  1  0  0  0  0
 14 36  1  0  0  0  0
 15 16  1  0  0  0  0
 15 37  1  0  0  0  0
 15 38  1  0  0  0  0
 16 17  1  0  0  0  0
 16 39  1  0  0  0  0
 16 40  1  0  0  0  0
 17 18  1  0  0  0  0
 17 41  1  0  0  0  0
 17 42  1  0  0  0  0
 18 19  1  0  0  0  0
 18 43  1  0  0  0  0
 19 44  1  0  0  0  0
 20 21  2  0  0  0  0
 20 45  1  0  0  0  0
M  END
> <s_m_source_file>
AV-unprocessed.smi

> <i_m_source_file_index>
2509

> <i_lp_mmshare_version>
43012

> <i_f3d_flags>
0

> <s_epik_input>
W0NIM11DKFtDSDNdKShbQ0gzXSljMW5bY0hdYyhbY0hdbjEpW05IXUMoPU8pW05IXVtDSDJdW0NAQEhdMltDSDJdW0NIMl1bQ0gyXVtDQEhdMltPSF0=

> <s_epik_cmdline>
J2VwaWtfcHl0aG9uJywgJy1waCcsICc3LjAnLCAnLXRuJywgJzgnLCAnLW1hJywgJzIwMCcsICctbWV0YWxfYmluZGluZycsICctaW1hZScsICc8aW5maWxlLm1hZT4nLCAnLW9tYWUnLCAnPG91dGZpbGUubWFlPic=

> <r_lp_tautomer_probability>
1

> <r_epik_Ionization_Penalty>
2.77586e-05

> <r_epik_Ionization_Penalty_Charging>
0

> <r_epik_Ionization_Penalty_Neutral>
2.77586e-05

> <r_epik_State_Penalty>
-0

> <r_epik_Charging_Adjusted_Penalty>
0

> <i_epik_Tot_Q>
0

> <i_epik_Tot_abs_Q>
0

> <r_epik_Metal_State_Penalty>
-0

> <b_epik_Metal_Only>
0

> <s_lp_Force_Field>
OPLS_2005

> <r_lp_Energy>
25.7942

> <b_lp_Chiralities_Consistent>
1

> <s_lp_Variant>
AV-unprocessed.smi:2509-2

> <Gold.Version>
5.8.1

> <Gold.Id.Protein>
6NUR|6NUR_protein|mol2

> <Gold.PLP.Fitness>
44.0206

> <Gold.PLP.PLP>
-34.8876

> <Gold.PLP.part.hbond>
-4.0000

> <Gold.PLP.part.metal>
0.0000

> <Gold.PLP.part.buried>
-4.1053

> <Gold.PLP.part.nonpolar>
-32.2227

> <Gold.PLP.part.repulsive>
4.5403

> <Gold.PLP.ligand.clash>
0.0000

> <Gold.PLP.ligand.torsion>
1.3717

> <Gold.PLP.Chemscore.Hbond>
2.9920

> <Gold.PLP.Chemscore.CHOScore>
0.9172

> <Gold.PLP.Chemscore.Metal>
0.0000

> <Gold.Chemscore.Hbonds>
donor molecule, donor type, donor heavy atom, donor atom, acceptor molecule, acceptor atom, score
      L1  H     9    32       P1 10175  0.99
      L1  H    12    33       P1 10175  1.00
      L1  H    19    44       P1 10175  1.00
      P1  H  7954  7966       L1    11  0.39
      L1  C     7    31       P1  7948  0.60

> <Gold.PLP.Chemscore.Internal.Correction>
0.1485

> <Gold.Rescore>
     Score         DG    S(hbond)    S(metal)    S(lipo)     H(rot)  DE(clash)    DE(int)     intcor
     13.77     -20.05       2.78        0.00      87.13       1.91       2.58       3.71       ----

> <Gold.Chemscore.Fitness>
13.7665

> <Gold.Chemscore.DG>
-20.0534

> <Gold.Chemscore.ZeroCoef>
-5.4800

> <Gold.Chemscore.Hbond>
2.7763

> <Gold.Chemscore.Metal>
0.0000

> <Gold.Chemscore.Lipo>
87.1298

> <Gold.Chemscore.Internal_Hbond>
0.0000

> <Gold.Chemscore.DEClash>
2.5818

> <Gold.Chemscore.DEInternal>
3.7051

> <Gold.Chemscore.Rot>
1.9116

> <Gold.Chemscore.Internal.Correction>
   9.000000E+99

> <Gold.Chemscore.Hbonds>
donor molecule, donor type, donor heavy atom, donor atom, acceptor molecule, acceptor atom, score
      L1  H     9    32       P1 10175  0.93
      L1  H    12    33       P1 10175  0.65
      L1  H    19    44       P1 10175  0.86
      P1  H  7954  7966       L1    11  0.33

> <Gold.Chemscore.Hbond.Weighted>
-9.2728

> <Gold.Chemscore.Metal.Weighted>
-0.0000

> <Gold.Chemscore.Lipo.Weighted>
-10.1942

> <Gold.Chemscore.Internal_Hbond.Weighted>
0.0000

> <Gold.Chemscore.DEClash.Weighted>
2.5818

> <Gold.Chemscore.DEInternal.Weighted>
3.7051

> <Gold.Chemscore.Rot.Weighted>
4.8936

> <Gold.Chemscore.Internal.Correction.Weighted>
   9.000000E+99

> <Gold.Protein.RotatedTorsions>
[ 6907 6896 6895 6894 ] final  -12.03 input  -60.11 | X-H torsion
[ 7974 7965 7964 7962 ] final  120.99 input  175.53 | X-H torsion
[ 8008 7997 7996 7995 ] final -136.20 input   59.86 | X-H torsion
[ 10167 10162 10161 10158 ] final  -12.55 input  -65.29 | X-H torsion
[ 10718 10713 10712 10709 ] final  104.34 input   66.30 | X-H torsion
[ 10763 10752 10751 10750 ] final   51.00 input  -60.55 | X-H torsion
[ 11005 11000 10999 10996 ] final   36.63 input  -57.11 | X-H torsion

> <Gold.Protein.ActiveResidues>
 VAL166  LYS551  ARG553  GLY616  TRP617  ASP618  TYR619  PRO620  LYS621  CYS622 
 ASP623  PHE694  ASN695  SER759  ASP760  ASP761  ALA762  ILE779  LEU786  VAL792 
 PHE793  MET794  SER795  GLU796  ALA797  LYS798  CYS799  TRP800  GLU811  SER814 

> <Gold.Protein.RotatedAtoms>
  151.3769  135.0933  159.9483 H   0  0  0  0  0  0  0  0  0  0  0  0  # atno 6907 bound_to 6896
  152.5119  133.9109  159.7498 H   0  0  0  0  0  0  0  0  0  0  0  0  # atno 6908 bound_to 6896
  150.9535  133.6468  159.2796 H   0  0  0  0  0  0  0  0  0  0  0  0  # atno 6909 bound_to 6896
  145.1246  139.3366  143.4696 H   0  0  0  0  0  0  0  0  0  0  0  0  # atno 7974 bound_to 7965
  155.3914  140.0500  157.3040 H   0  0  0  0  0  0  0  0  0  0  0  0  # atno 8008 bound_to 7997
  154.5034  140.2165  155.9260 H   0  0  0  0  0  0  0  0  0  0  0  0  # atno 8009 bound_to 7997
  156.1496  140.3138  155.8632 H   0  0  0  0  0  0  0  0  0  0  0  0  # atno 8010 bound_to 7997
  140.7163  143.5520  150.9290 H   0  0  0  0  0  0  0  0  0  0  0  0  # atno 10167 bound_to 10162
  157.6743  131.0801  150.5691 H   0  0  0  0  0  0  0  0  0  0  0  0  # atno 10718 bound_to 10713
  152.9785  135.5860  154.4343 H   0  0  0  0  0  0  0  0  0  0  0  0  # atno 10763 bound_to 10752
  154.3952  135.2768  155.2132 H   0  0  0  0  0  0  0  0  0  0  0  0  # atno 10764 bound_to 10752
  154.3987  135.6108  153.5939 H   0  0  0  0  0  0  0  0  0  0  0  0  # atno 10765 bound_to 10752
  140.2307  134.3531  155.7965 H   0  0  0  0  0  0  0  0  0  0  0  0  # atno 11005 bound_to 11000
  146.3518  140.1220  142.8600 LP  0  0  0  0  0  0  0  0  0  0  0  0  # atno 17320 bound_to 7965
  145.0702  140.9150  143.4886 LP  0  0  0  0  0  0  0  0  0  0  0  0  # atno 17321 bound_to 7965
  139.9245  143.6567  152.3090 LP  0  0  0  0  0  0  0  0  0  0  0  0  # atno 17342 bound_to 10162
  139.6995  144.7637  151.1297 LP  0  0  0  0  0  0  0  0  0  0  0  0  # atno 17343 bound_to 10162
  156.5993  130.4350  149.5904 LP  0  0  0  0  0  0  0  0  0  0  0  0  # atno 17370 bound_to 10713
  156.2520  130.6912  151.1653 LP  0  0  0  0  0  0  0  0  0  0  0  0  # atno 17371 bound_to 10713
  141.2218  133.7244  156.8726 LP  0  0  0  0  0  0  0  0  0  0  0  0  # atno 17394 bound_to 11000
  140.1754  134.9071  157.2884 LP  0  0  0  0  0  0  0  0  0  0  0  0  # atno 17395 bound_to 11000

$$$$
