#       Name:                AV-unprocessed.smi:1890
#       Creating user name   scv26
#       Creation time:       Fri Mar 27 09:40:00 2020


#       File generated by GOLD software.
#

@<TRIPOS>MOLECULE
AV-unprocessed.smi:1890
    56    57     1
SMALL
NO_CHARGES


@<TRIPOS>ATOM
      1 ****        -6.4393  -1.5260  -1.1338 C.3            1 S1                 0.0000
      2 ****        -6.4473  -0.0336  -1.5003 C.3            1 S1                 0.0000
      3 ****        -5.5967   0.7771  -0.6277 N.pl3          1 S1                 0.0000
      4 ****        -6.0576   2.1321  -0.3206 C.3            1 S1                 0.0000
      5 ****        -5.8631   3.1026  -1.4950 C.3            1 S1                 0.0000
      6 ****        -4.1935   0.5935  -0.6469 C.ar           1 S1                 0.0000
      7 ****        -3.5302  -0.0641  -1.7126 C.ar           1 S1                 0.0000
      8 ****        -2.1298  -0.2001  -1.6705 C.ar           1 S1                 0.0000
      9 ****        -1.4182   0.3121  -0.5692 C.ar           1 S1                 0.0000
     10 ****        -0.0028   0.1822  -0.5703 N.am           1 S1                 0.0000
     11 ****         0.8522   0.2974   0.4603 C.2            1 S1                 0.0000
     12 ****         0.5329   0.4728   1.6359 O.2            1 S1                 0.0000
     13 ****         2.1224   0.1737   0.0498 N.am           1 S1                 0.0000
     14 ****         3.2981   0.2466   0.9120 C.3            1 S1                 0.0000
     15 ****         4.5103   0.7420   0.0941 C.3            1 S1                 0.0000
     16 ****         5.8126   0.6487   0.9096 C.3            1 S1                 0.0000
     17 ****         5.9842  -0.7349   1.3663 N.am           1 S1                 0.0000
     18 ****         6.9261  -1.5634   0.8546 C.2            1 S1                 0.0000
     19 ****         6.9728  -3.0208   1.3187 C.3            1 S1                 0.0000
     20 ****         7.7528  -1.1959   0.0196 O.2            1 S1                 0.0000
     21 ****         4.9278  -1.1268   2.3074 C.3            1 S1                 0.0000
     22 ****         3.5790  -1.1263   1.5660 C.3            1 S1                 0.0000
     23 ****        -2.1619   0.9612   0.4441 C.ar           1 S1                 0.0000
     24 ****        -3.5041   1.0955   0.4058 N.ar           1 S1                 0.0000
     25 ****        -7.1193  -2.0816  -1.7796 H              1 S1                 0.0000
     26 ****        -6.7661  -1.6760  -0.1045 H              1 S1                 0.0000
     27 ****        -5.4519  -1.9744  -1.2379 H              1 S1                 0.0000
     28 ****        -6.1582   0.1085  -2.5416 H              1 S1                 0.0000
     29 ****        -7.4727   0.3308  -1.4289 H              1 S1                 0.0000
     30 ****        -7.1163   2.0875  -0.0632 H              1 S1                 0.0000
     31 ****        -5.5617   2.5201   0.5693 H              1 S1                 0.0000
     32 ****        -6.2268   4.0970  -1.2365 H              1 S1                 0.0000
     33 ****        -6.4067   2.7711  -2.3798 H              1 S1                 0.0000
     34 ****        -4.8101   3.1962  -1.7626 H              1 S1                 0.0000
     35 ****        -4.0633  -0.4559  -2.5649 H              1 S1                 0.0000
     36 ****        -1.6105  -0.6928  -2.4795 H              1 S1                 0.0000
     37 ****         0.4077  -0.0515  -1.4624 H              1 S1                 0.0000
     38 ****         2.2905   0.0228  -0.9341 H              1 S1                 0.0000
     39 ****         3.1182   0.9751   1.7051 H              1 S1                 0.0000
     40 ****         4.6160   0.1435  -0.8122 H              1 S1                 0.0000
     41 ****         4.3479   1.7699  -0.2319 H              1 S1                 0.0000
     42 ****         6.6521   1.0036   0.3106 H              1 S1                 0.0000
     43 ****         5.7637   1.3127   1.7738 H              1 S1                 0.0000
     44 ****         6.0247  -3.5210   1.1202 H              1 S1                 0.0000
     45 ****         7.1902  -3.0796   2.3854 H              1 S1                 0.0000
     46 ****         7.7539  -3.5674   0.7889 H              1 S1                 0.0000
     47 ****         5.0959  -2.0962   2.7740 H              1 S1                 0.0000
     48 ****         4.8981  -0.4113   3.1306 H              1 S1                 0.0000
     49 ****         2.7765  -1.3849   2.2577 H              1 S1                 0.0000
     50 ****         3.5914  -1.9054   0.8023 H              1 S1                 0.0000
     51 ****        -1.6909   1.4124   1.3029 H              1 S1                 0.0000
     52 ****        -0.4327   0.5408   1.8870 LP             1 S1                 0.0000
     53 ****         1.2391   0.5474   2.3401 LP             1 S1                 0.0000
     54 ****         7.7465  -0.2511  -0.3080 LP             1 S1                 0.0000
     55 ****         8.4306  -1.8422  -0.3309 LP             1 S1                 0.0000
     56 ****        -3.9857   1.5615   1.1480 LP             1 S1                 0.0000
@<TRIPOS>BOND
    1    1    2 1     
    2    1   25 1     
    3    1   26 1     
    4    1   27 1     
    5    2    3 1     
    6    2   28 1     
    7    2   29 1     
    8    3    4 1     
    9    3    6 1     
   10    4    5 1     
   11    4   30 1     
   12    4   31 1     
   13    5   32 1     
   14    5   33 1     
   15    5   34 1     
   16    6   24 ar    
   17    6    7 ar    
   18    7    8 ar    
   19    7   35 1     
   20    8    9 ar    
   21    8   36 1     
   22    9   10 1     
   23    9   23 ar    
   24   10   11 am    
   25   10   37 1     
   26   11   12 2     
   27   11   13 am    
   28   13   14 1     
   29   13   38 1     
   30   14   22 1     
   31   14   15 1     
   32   14   39 1     
   33   15   16 1     
   34   15   40 1     
   35   15   41 1     
   36   16   17 1     
   37   16   42 1     
   38   16   43 1     
   39   17   18 am    
   40   17   21 1     
   41   18   19 1     
   42   18   20 2     
   43   19   44 1     
   44   19   45 1     
   45   19   46 1     
   46   21   22 1     
   47   21   47 1     
   48   21   48 1     
   49   22   49 1     
   50   22   50 1     
   51   23   24 ar    
   52   23   51 1     
   53   12   52 1     
   54   12   53 1     
   55   20   54 1     
   56   20   55 1     
   57   24   56 1     
@<TRIPOS>SUBSTRUCTURE
      1 S1             1
@<TRIPOS>SET
LONE_PAIRS      STATIC     ATOMS    <user>   **** ""
5 52 53 54 55 56
DONOR_HYDROGENS      STATIC     ATOMS    <user>   **** ""
2 37 38
ATOM$BLUE        STATIC     ATOMS    COLORGROUP SYSTEM
5 52 53 54 55 56
ATOM$RED        STATIC     ATOMS    COLORGROUP SYSTEM
2 37 38
