#       Name:                AV-unprocessed.smi:15
#       Creating user name   scv26
#       Creation time:       Thu Mar 26 15:21:41 2020


#       File generated by GOLD software.
#

@<TRIPOS>MOLECULE
AV-unprocessed.smi:15
    62    65     1
SMALL
NO_CHARGES


@<TRIPOS>ATOM
      1 ****        -4.3967  -1.9656  -0.8555 C.3            1 S1                 0.0000
      2 ****        -2.9666  -1.7132  -1.3516 C.3            1 S1                 0.0000
      3 ****        -2.3258  -0.5670  -0.7004 N.pl3          1 S1                 0.0000
      4 ****        -2.9490   0.7560  -0.7953 C.3            1 S1                 0.0000
      5 ****        -2.8902   1.3573  -2.2112 C.3            1 S1                 0.0000
      6 ****        -3.2814   2.8311  -2.2569 C.3            1 S1                 0.0000
      7 ****        -3.6845   3.0326  -3.7071 C.3            1 S1                 0.0000
      8 ****        -4.0394   1.6220  -4.1880 C.3            1 S1                 0.0000
      9 ****        -3.8714   0.7771  -3.0562 O.3            1 S1                 0.0000
     10 ****        -0.9670  -0.5522  -0.6829 C.ar           1 S1                 0.0000
     11 ****        -0.2736  -1.1546  -1.6866 N.ar           1 S1                 0.0000
     12 ****         1.0621  -1.1273  -1.6976 C.ar           1 S1                 0.0000
     13 ****         1.8918  -0.5642  -0.8178 N.ar           1 S1                 0.0000
     14 ****         1.2044   0.0327   0.1975 C.ar           1 S1                 0.0000
     15 ****        -0.2110   0.0873   0.3405 C.ar           1 S1                 0.0000
     16 ****        -0.5401   0.7765   1.5021 N.2            1 S1                 0.0000
     17 ****         0.6124   1.1192   2.0088 C.2            1 S1                 0.0000
     18 ****         1.7141   0.7000   1.2979 N.pl3          1 S1                 0.0000
     19 ****         3.1098   0.9415   1.6288 C.3            1 S1                 0.0000
     20 ****         3.7597  -0.1226   2.5512 C.3            1 S1                 0.0000
     21 ****         5.1082   0.2795   2.7243 O.3            1 S1                 0.0000
     22 ****         3.1190  -0.2655   3.9246 C.3            1 S1                 0.0000
     23 ****         3.6241  -1.6291   4.3861 C.3            1 S1                 0.0000
     24 ****         3.7359  -2.4140   3.2039 O.3            1 S1                 0.0000
     25 ****         3.6953  -1.5814   2.0462 C.3            1 S1                 0.0000
     26 ****         4.7598  -1.9989   1.0197 C.3            1 S1                 0.0000
     27 ****        -4.7984  -2.8780  -1.2957 H              1 S1                 0.0000
     28 ****        -5.0688  -1.1524  -1.1290 H              1 S1                 0.0000
     29 ****        -4.4242  -2.0801   0.2284 H              1 S1                 0.0000
     30 ****        -2.3800  -2.6119  -1.1547 H              1 S1                 0.0000
     31 ****        -2.9650  -1.5712  -2.4326 H              1 S1                 0.0000
     32 ****        -3.9820   0.7066  -0.4520 H              1 S1                 0.0000
     33 ****        -2.4571   1.4408  -0.1062 H              1 S1                 0.0000
     34 ****        -1.9012   1.2301  -2.6553 H              1 S1                 0.0000
     35 ****        -4.1401   3.0123  -1.6085 H              1 S1                 0.0000
     36 ****        -2.4746   3.4941  -1.9430 H              1 S1                 0.0000
     37 ****        -4.5213   3.7255  -3.7996 H              1 S1                 0.0000
     38 ****        -2.8518   3.4304  -4.2885 H              1 S1                 0.0000
     39 ****        -5.0609   1.5561  -4.5629 H              1 S1                 0.0000
     40 ****        -3.3638   1.3048  -4.9833 H              1 S1                 0.0000
     41 ****         1.5331  -1.6270  -2.5313 H              1 S1                 0.0000
     42 ****         0.6911   1.6848   2.9261 H              1 S1                 0.0000
     43 ****         3.6673   1.0123   0.6938 H              1 S1                 0.0000
     44 ****         3.1773   1.9258   2.0943 H              1 S1                 0.0000
     45 ****         5.5412   0.2424   1.8850 H              1 S1                 0.0000
     46 ****         3.3729   0.5412   4.6133 H              1 S1                 0.0000
     47 ****         2.0333  -0.3082   3.8471 H              1 S1                 0.0000
     48 ****         4.6120  -1.5376   4.8391 H              1 S1                 0.0000
     49 ****         2.9605  -2.0963   5.1138 H              1 S1                 0.0000
     50 ****         2.7139  -1.7686   1.6130 H              1 S1                 0.0000
     51 ****         4.7296  -1.3554   0.1403 H              1 S1                 0.0000
     52 ****         4.5907  -3.0227   0.6859 H              1 S1                 0.0000
     53 ****         5.7653  -1.9538   1.4387 H              1 S1                 0.0000
     54 ****        -4.7375   0.6957  -2.5630 LP             1 S1                 0.0000
     55 ****        -3.5700  -0.1293  -3.3522 LP             1 S1                 0.0000
     56 ****        -0.7669  -1.6209  -2.4209 LP             1 S1                 0.0000
     57 ****         2.8889  -0.5780  -0.8931 LP             1 S1                 0.0000
     58 ****        -1.4519   0.9663   1.8662 LP             1 S1                 0.0000
     59 ****         5.5642  -0.3362   3.3669 LP             1 S1                 0.0000
     60 ****         5.1390   1.2139   3.0790 LP             1 S1                 0.0000
     61 ****         2.9776  -3.0649   3.1680 LP             1 S1                 0.0000
     62 ****         4.6026  -2.9126   3.2205 LP             1 S1                 0.0000
@<TRIPOS>BOND
    1    1    2 1     
    2    1   27 1     
    3    1   28 1     
    4    1   29 1     
    5    2    3 1     
    6    2   30 1     
    7    2   31 1     
    8    3    4 1     
    9    3   10 1     
   10    4    5 1     
   11    4   32 1     
   12    4   33 1     
   13    5    9 1     
   14    5    6 1     
   15    5   34 1     
   16    6    7 1     
   17    6   35 1     
   18    6   36 1     
   19    7    8 1     
   20    7   37 1     
   21    7   38 1     
   22    8    9 1     
   23    8   39 1     
   24    8   40 1     
   25   10   15 ar    
   26   10   11 ar    
   27   11   12 ar    
   28   12   13 ar    
   29   12   41 1     
   30   13   14 ar    
   31   14   18 1     
   32   14   15 ar    
   33   15   16 1     
   34   16   17 2     
   35   17   18 1     
   36   17   42 1     
   37   18   19 1     
   38   19   20 1     
   39   19   43 1     
   40   19   44 1     
   41   20   25 1     
   42   20   21 1     
   43   20   22 1     
   44   21   45 1     
   45   22   23 1     
   46   22   46 1     
   47   22   47 1     
   48   23   24 1     
   49   23   48 1     
   50   23   49 1     
   51   24   25 1     
   52   25   26 1     
   53   25   50 1     
   54   26   51 1     
   55   26   52 1     
   56   26   53 1     
   57    9   54 1     
   58    9   55 1     
   59   11   56 1     
   60   13   57 1     
   61   16   58 1     
   62   21   59 1     
   63   21   60 1     
   64   24   61 1     
   65   24   62 1     
@<TRIPOS>SUBSTRUCTURE
      1 S1             1
@<TRIPOS>SET
LONE_PAIRS      STATIC     ATOMS    <user>   **** ""
9 54 55 56 57 58 59 60 61 62
DONOR_HYDROGENS      STATIC     ATOMS    <user>   **** ""
1 45
ATOM$BLUE        STATIC     ATOMS    COLORGROUP SYSTEM
9 54 55 56 57 58 59 60 61 62
ATOM$RED        STATIC     ATOMS    COLORGROUP SYSTEM
1 45
