#       Name:                AV-unprocessed.smi:479
#       Creating user name   scv26
#       Creation time:       Thu Mar 26 23:09:28 2020


#       File generated by GOLD software.
#

@<TRIPOS>MOLECULE
AV-unprocessed.smi:479
    54    56     1
SMALL
NO_CHARGES


@<TRIPOS>ATOM
      1 ****        -2.5572   3.4674   1.4042 C.3            1 S1                 0.0000
      2 ****        -1.9467   2.1996   1.2120 O.3            1 S1                 0.0000
      3 ****        -2.7574   1.1060   0.9838 C.ar           1 S1                 0.0000
      4 ****        -4.1727   1.1759   0.9183 C.ar           1 S1                 0.0000
      5 ****        -4.9491   0.0175   0.6829 C.ar           1 S1                 0.0000
      6 ****        -6.4378   0.0674   0.6078 C.2            1 S1                 0.0000
      7 ****        -7.1182   1.4258   0.7710 C.3            1 S1                 0.0000
      8 ****        -7.1409  -0.9249   0.4197 O.2            1 S1                 0.0000
      9 ****        -4.2911  -1.2194   0.5169 C.ar           1 S1                 0.0000
     10 ****        -2.8888  -1.2986   0.5782 C.ar           1 S1                 0.0000
     11 ****        -2.1114  -0.1377   0.8073 C.ar           1 S1                 0.0000
     12 ****        -0.7336  -0.1401   0.8723 O.3            1 S1                 0.0000
     13 ****        -0.0419  -1.3540   0.6121 C.3            1 S1                 0.0000
     14 ****         1.4670  -1.0688   0.6157 C.3            1 S1                 0.0000
     15 ****         2.1572  -2.3015   0.5607 O.3            1 S1                 0.0000
     16 ****         1.8922  -0.1698  -0.5625 C.3            1 S1                 0.0000
     17 ****         3.3262   0.1510  -0.5487 N.pl3          1 S1                 0.0000
     18 ****         3.9873   1.1314   0.1238 C.2            1 S1                 0.0000
     19 ****         5.3078   1.0299  -0.1931 N.pl3          1 S1                 1.0000
     20 ****         5.4940  -0.0322  -1.0803 C.ar           1 S1                 0.0000
     21 ****         6.6483  -0.5238  -1.6826 C.ar           1 S1                 0.0000
     22 ****         6.4917  -1.6314  -2.5418 C.ar           1 S1                 0.0000
     23 ****         5.2259  -2.2082  -2.7732 C.ar           1 S1                 0.0000
     24 ****         4.0624  -1.7012  -2.1578 C.ar           1 S1                 0.0000
     25 ****         4.2248  -0.6040  -1.3119 C.ar           1 S1                 0.0000
     26 ****        -1.7845   4.2139   1.5871 H              1 S1                 0.0000
     27 ****        -3.2221   3.4645   2.2690 H              1 S1                 0.0000
     28 ****        -3.1133   3.7790   0.5191 H              1 S1                 0.0000
     29 ****        -4.6689   2.1243   1.0488 H              1 S1                 0.0000
     30 ****        -6.7784   2.1189   0.0014 H              1 S1                 0.0000
     31 ****        -6.8960   1.8497   1.7504 H              1 S1                 0.0000
     32 ****        -8.2001   1.3234   0.6825 H              1 S1                 0.0000
     33 ****        -4.8547  -2.1240   0.3391 H              1 S1                 0.0000
     34 ****        -2.4331  -2.2679   0.4460 H              1 S1                 0.0000
     35 ****        -0.2856  -2.0805   1.3892 H              1 S1                 0.0000
     36 ****        -0.3369  -1.7738  -0.3512 H              1 S1                 0.0000
     37 ****         1.7356  -0.5860   1.5562 H              1 S1                 0.0000
     38 ****         1.9180  -2.8135   1.3183 H              1 S1                 0.0000
     39 ****         1.6306  -0.6198  -1.5203 H              1 S1                 0.0000
     40 ****         1.3562   0.7790  -0.5177 H              1 S1                 0.0000
     41 ****         3.5434   1.8601   0.7868 H              1 S1                 0.0000
     42 ****         7.6192  -0.0849  -1.5055 H              1 S1                 0.0000
     43 ****         7.3598  -2.0481  -3.0318 H              1 S1                 0.0000
     44 ****         5.1450  -3.0579  -3.4357 H              1 S1                 0.0000
     45 ****         3.0993  -2.1547  -2.3382 H              1 S1                 0.0000
     46 ****         6.0266   1.6426   0.1702 H              1 S1                 0.0000
     47 ****        -1.4098   2.0030   2.0325 LP             1 S1                 0.0000
     48 ****        -1.3348   2.2828   0.4254 LP             1 S1                 0.0000
     49 ****        -6.7174  -1.8239   0.3082 LP             1 S1                 0.0000
     50 ****        -8.1357  -0.8323   0.3785 LP             1 S1                 0.0000
     51 ****        -0.4816   0.1506   1.7954 LP             1 S1                 0.0000
     52 ****        -0.4061   0.5335   0.2097 LP             1 S1                 0.0000
     53 ****         3.1435  -2.1362   0.5631 LP             1 S1                 0.0000
     54 ****         1.9037  -2.7931  -0.2723 LP             1 S1                 0.0000
@<TRIPOS>BOND
    1    1    2 1     
    2    1   26 1     
    3    1   27 1     
    4    1   28 1     
    5    2    3 1     
    6    3   11 ar    
    7    3    4 ar    
    8    4    5 ar    
    9    4   29 1     
   10    5    6 1     
   11    5    9 ar    
   12    6    7 1     
   13    6    8 2     
   14    7   30 1     
   15    7   31 1     
   16    7   32 1     
   17    9   10 ar    
   18    9   33 1     
   19   10   11 ar    
   20   10   34 1     
   21   11   12 1     
   22   12   13 1     
   23   13   14 1     
   24   13   35 1     
   25   13   36 1     
   26   14   15 1     
   27   14   16 1     
   28   14   37 1     
   29   15   38 1     
   30   16   17 1     
   31   16   39 1     
   32   16   40 1     
   33   17   25 1     
   34   17   18 1     
   35   18   19 2     
   36   18   41 1     
   37   19   20 1     
   38   19   46 1     
   39   20   25 ar    
   40   20   21 ar    
   41   21   22 ar    
   42   21   42 1     
   43   22   23 ar    
   44   22   43 1     
   45   23   24 ar    
   46   23   44 1     
   47   24   25 ar    
   48   24   45 1     
   49    2   47 1     
   50    2   48 1     
   51    8   49 1     
   52    8   50 1     
   53   12   51 1     
   54   12   52 1     
   55   15   53 1     
   56   15   54 1     
@<TRIPOS>SUBSTRUCTURE
      1 S1             1
@<TRIPOS>SET
LONE_PAIRS      STATIC     ATOMS    <user>   **** ""
8 47 48 49 50 51 52 53 54
DONOR_HYDROGENS      STATIC     ATOMS    <user>   **** ""
2 38 46
ATOM$BLUE        STATIC     ATOMS    COLORGROUP SYSTEM
8 47 48 49 50 51 52 53 54
ATOM$RED        STATIC     ATOMS    COLORGROUP SYSTEM
2 38 46
