AV-unprocessed.smi:101|AV-procd|sdf|939|dock1
  -GOLD-   2262017453D 1   1.00000     0.00000
 Structure written by MMmdl.
 43 45  0  0  0  0  0  0  0  0  2 V2000
  151.8703  144.2739  158.6849 C   0  0  0  0  0  0  0  0  0  0  0  0
  151.7154  142.7976  158.3647 C   0  0  0  0  0  0  0  0  0  0  0  0
  150.7565  142.3370  157.5310 C   0  0  0  0  0  0  0  0  0  0  0  0
  150.6220  140.9904  157.2424 N   0  0  0  0  0  0  0  0  0  0  0  0
  149.5348  140.5030  156.3091 C   0  0  2  0  0  0  0  0  0  0  0  0
  148.9454  139.3686  156.8593 O   0  0  0  0  0  0  0  0  0  0  0  0
  148.4316  138.5775  155.8031 C   0  0  2  0  0  0  0  0  0  0  0  0
  148.2242  137.1413  156.2991 C   0  0  0  0  0  0  0  0  0  0  0  0
  147.6299  137.1626  157.5867 O   0  0  0  0  0  0  0  0  0  0  0  0
  148.1609  136.4314  158.5856 C   0  0  0  0  0  0  0  0  0  0  0  0
  149.2361  135.8347  158.4969 O   0  0  0  0  0  0  0  0  0  0  0  0
  147.3138  136.4223  159.8133 C   0  0  0  0  0  0  0  0  0  0  0  0
  146.0162  136.9832  159.7633 C   0  0  0  0  0  0  0  0  0  0  0  0
  145.1912  136.9863  160.9048 C   0  0  0  0  0  0  0  0  0  0  0  0
  145.6542  136.4293  162.1111 C   0  0  0  0  0  0  0  0  0  0  0  0
  146.9437  135.8696  162.1744 C   0  0  0  0  0  0  0  0  0  0  0  0
  147.7703  135.8654  161.0337 C   0  0  0  0  0  0  0  0  0  0  0  0
  149.4812  138.7186  154.6939 C   0  0  1  0  0  0  0  0  0  0  0  0
  148.8649  138.6147  153.4251 O   0  0  0  0  0  0  0  0  0  0  0  0
  150.0515  140.1216  154.9025 C   0  0  2  0  0  0  0  0  0  0  0  0
  151.4632  140.1038  154.7874 O   0  0  0  0  0  0  0  0  0  0  0  0
  151.4868  140.0490  157.8566 C   0  0  0  0  0  0  0  0  0  0  0  0
  151.3078  138.8555  157.6128 O   0  0  0  0  0  0  0  0  0  0  0  0
  152.4623  140.5043  158.6934 N   0  5  0  0  0  0  0  0  0  0  0  0
  152.6309  141.8278  158.9791 C   0  0  0  0  0  0  0  0  0  0  0  0
  153.5190  142.2258  159.7323 O   0  0  0  0  0  0  0  0  0  0  0  0
  151.1238  144.8731  158.1630 H   0  0  0  0  0  0  0  0  0  0  0  0
  152.8572  144.6264  158.3834 H   0  0  0  0  0  0  0  0  0  0  0  0
  151.7542  144.4462  159.7553 H   0  0  0  0  0  0  0  0  0  0  0  0
  150.0733  143.0444  157.0847 H   0  0  0  0  0  0  0  0  0  0  0  0
  148.7736  141.2848  156.2820 H   0  0  0  0  0  0  0  0  0  0  0  0
  147.4806  139.0200  155.4989 H   0  0  0  0  0  0  0  0  0  0  0  0
  147.6038  136.5832  155.5961 H   0  0  0  0  0  0  0  0  0  0  0  0
  149.1852  136.6298  156.3635 H   0  0  0  0  0  0  0  0  0  0  0  0
  145.6387  137.4163  158.8482 H   0  0  0  0  0  0  0  0  0  0  0  0
  144.2019  137.4168  160.8539 H   0  0  0  0  0  0  0  0  0  0  0  0
  145.0212  136.4314  162.9863 H   0  0  0  0  0  0  0  0  0  0  0  0
  147.3003  135.4422  163.0999 H   0  0  0  0  0  0  0  0  0  0  0  0
  148.7549  135.4288  161.1169 H   0  0  0  0  0  0  0  0  0  0  0  0
  150.2565  137.9585  154.8054 H   0  0  0  0  0  0  0  0  0  0  0  0
  149.1474  139.3437  152.8945 H   0  0  0  0  0  0  0  0  0  0  0  0
  149.6446  140.8435  154.1931 H   0  0  0  0  0  0  0  0  0  0  0  0
  151.8244  140.6126  155.4977 H   0  0  0  0  0  0  0  0  0  0  0  0
  1  2  1  0  0  0  0
  1 27  1  0  0  0  0
  1 28  1  0  0  0  0
  1 29  1  0  0  0  0
  2 25  1  0  0  0  0
  2  3  2  0  0  0  0
  3  4  1  0  0  0  0
  3 30  1  0  0  0  0
  4  5  1  0  0  0  0
  4 22  1  0  0  0  0
  5 20  1  0  0  0  0
  5  6  1  0  0  0  0
  5 31  1  0  0  0  0
  6  7  1  0  0  0  0
  7  8  1  0  0  0  0
  7 18  1  0  0  0  0
  7 32  1  0  0  0  0
  8  9  1  0  0  0  0
  8 33  1  0  0  0  0
  8 34  1  0  0  0  0
  9 10  1  0  0  0  0
 10 11  2  0  0  0  0
 10 12  1  0  0  0  0
 12 17  1  0  0  0  0
 12 13  2  0  0  0  0
 13 14  1  0  0  0  0
 13 35  1  0  0  0  0
 14 15  2  0  0  0  0
 14 36  1  0  0  0  0
 15 16  1  0  0  0  0
 15 37  1  0  0  0  0
 16 17  2  0  0  0  0
 16 38  1  0  0  0  0
 17 39  1  0  0  0  0
 18 19  1  0  0  0  0
 18 20  1  0  0  0  0
 18 40  1  0  0  0  0
 19 41  1  0  0  0  0
 20 21  1  0  0  0  0
 20 42  1  0  0  0  0
 21 43  1  0  0  0  0
 22 23  2  0  0  0  0
 22 24  1  0  0  0  0
 24 25  1  0  0  0  0
 25 26  2  0  0  0  0
M  CHG  1  24  -1
M  END
> <s_m_source_file>
AV-unprocessed.smi

> <i_m_source_file_index>
101

> <i_lp_mmshare_version>
43012

> <i_f3d_flags>
0

> <s_epik_input>
Tz1jMVtuSF1jKD1PKW4oW2NIXWMxW0NIM10pW0NAQEhdMk9bQ0BIXShbQ0BASF0oW09IXSlbQ0BIXTJbT0hdKVtDSDJdT0MoPU8pYzNbY0hdW2NIXVtjSF1bY0hdW2NIXTM=

> <s_epik_cmdline>
J2VwaWtfcHl0aG9uJywgJy1waCcsICc3LjAnLCAnLXRuJywgJzgnLCAnLW1hJywgJzIwMCcsICctbWV0YWxfYmluZGluZycsICctaW1hZScsICc8aW5maWxlLm1hZT4nLCAnLW9tYWUnLCAnPG91dGZpbGUubWFlPic=

> <r_lp_tautomer_probability>
0.999537

> <r_epik_Ionization_Penalty>
3.21006

> <r_epik_Ionization_Penalty_Charging>
5.75142e-08

> <r_epik_Ionization_Penalty_Neutral>
3.21006

> <r_epik_State_Penalty>
3.20925

> <r_epik_Charging_Adjusted_Penalty>
3.20925

> <i_epik_Tot_Q>
-1

> <i_epik_Tot_abs_Q>
1

> <r_epik_Metal_State_Penalty>
0.119957

> <b_epik_Metal_Only>
1

> <s_epik_Chemistry_Notes>
This compound has an ester and may undergo hydrolysis at high or low pH. This compound contains an acetal/aminal-like group ( X-CH(R)-Y where X, Y are N, S, or O) that may be acid/base labile, releasing an aldehyde.

> <s_lp_Force_Field>
OPLS_2005

> <r_lp_Energy>
44.2535

> <b_lp_Chiralities_Consistent>
1

> <s_lp_Variant>
AV-unprocessed.smi:101-27

> <Gold.Version>
5.8.1

> <Gold.Id.Protein>
6NUR|6NUR_protein|mol2

> <Gold.PLP.Fitness>
50.8708

> <Gold.PLP.PLP>
-41.3276

> <Gold.PLP.part.hbond>
-3.6916

> <Gold.PLP.part.metal>
0.0000

> <Gold.PLP.part.buried>
-5.6872

> <Gold.PLP.part.nonpolar>
-31.7191

> <Gold.PLP.part.repulsive>
0.0000

> <Gold.PLP.ligand.clash>
0.0000

> <Gold.PLP.ligand.torsion>
1.0555

> <Gold.PLP.Chemscore.Hbond>
2.7670

> <Gold.PLP.Chemscore.CHOScore>
1.0000

> <Gold.PLP.Chemscore.Metal>
0.0000

> <Gold.Chemscore.Hbonds>
donor molecule, donor type, donor heavy atom, donor atom, acceptor molecule, acceptor atom, score
      L1  H    19    41       P1  7957  0.96
      P1  H  6896  6908       L1    11  0.54
      P1  H  7989  7998       L1    21  0.94
      L1  C     3    30       P1  8028  1.00

> <Gold.PLP.Chemscore.Internal.Correction>
0.3532

> <Gold.Rescore>
     Score         DG    S(hbond)    S(metal)    S(lipo)     H(rot)  DE(clash)    DE(int)     intcor
     11.39     -14.28       2.20        0.00      83.78       3.27       0.02       2.87       ----

> <Gold.Chemscore.Fitness>
11.3878

> <Gold.Chemscore.DG>
-14.2819

> <Gold.Chemscore.ZeroCoef>
-5.4800

> <Gold.Chemscore.Hbond>
2.2034

> <Gold.Chemscore.Metal>
0.0000

> <Gold.Chemscore.Lipo>
83.7798

> <Gold.Chemscore.Internal_Hbond>
0.0000

> <Gold.Chemscore.DEClash>
0.0249

> <Gold.Chemscore.DEInternal>
2.8692

> <Gold.Chemscore.Rot>
3.2656

> <Gold.Chemscore.Internal.Correction>
   9.000000E+99

> <Gold.Chemscore.Hbonds>
donor molecule, donor type, donor heavy atom, donor atom, acceptor molecule, acceptor atom, score
      L1  H    19    41       P1  7957  0.92
      P1  H  6896  6908       L1    11  0.54
      P1  H  7989  7998       L1    21  0.19

> <Gold.Chemscore.Hbond.Weighted>
-7.3595

> <Gold.Chemscore.Metal.Weighted>
-0.0000

> <Gold.Chemscore.Lipo.Weighted>
-9.8022

> <Gold.Chemscore.Internal_Hbond.Weighted>
0.0000

> <Gold.Chemscore.DEClash.Weighted>
0.0249

> <Gold.Chemscore.DEInternal.Weighted>
2.8692

> <Gold.Chemscore.Rot.Weighted>
8.3598

> <Gold.Chemscore.Internal.Correction.Weighted>
   9.000000E+99

> <Gold.Protein.RotatedTorsions>
[ 6907 6896 6895 6894 ] final -170.05 input  -60.11 | X-H torsion
[ 7974 7965 7964 7962 ] final  135.76 input  175.53 | X-H torsion
[ 8008 7997 7996 7995 ] final -151.47 input   59.86 | X-H torsion
[ 10167 10162 10161 10158 ] final  118.80 input  -65.29 | X-H torsion
[ 10718 10713 10712 10709 ] final    7.30 input   66.30 | X-H torsion
[ 10763 10752 10751 10750 ] final  -94.36 input  -60.55 | X-H torsion
[ 11005 11000 10999 10996 ] final  169.12 input  -57.11 | X-H torsion

> <Gold.Protein.ActiveResidues>
 VAL166  LYS551  ARG553  GLY616  TRP617  ASP618  TYR619  PRO620  LYS621  CYS622 
 ASP623  PHE694  ASN695  SER759  ASP760  ASP761  ALA762  ILE779  LEU786  VAL792 
 PHE793  MET794  SER795  GLU796  ALA797  LYS798  CYS799  TRP800  GLU811  SER814 

> <Gold.Protein.RotatedAtoms>
  151.5014  133.3503  159.2869 H   0  0  0  0  0  0  0  0  0  0  0  0  # atno 6907 bound_to 6896
  150.8770  134.8157  159.7208 H   0  0  0  0  0  0  0  0  0  0  0  0  # atno 6908 bound_to 6896
  152.4737  134.4906  159.9746 H   0  0  0  0  0  0  0  0  0  0  0  0  # atno 6909 bound_to 6896
  144.9632  139.4687  143.5469 H   0  0  0  0  0  0  0  0  0  0  0  0  # atno 7974 bound_to 7965
  155.6398  140.0700  157.2622 H   0  0  0  0  0  0  0  0  0  0  0  0  # atno 8008 bound_to 7997
  154.4186  140.1752  156.1610 H   0  0  0  0  0  0  0  0  0  0  0  0  # atno 8009 bound_to 7997
  155.9864  140.3349  155.6715 H   0  0  0  0  0  0  0  0  0  0  0  0  # atno 8010 bound_to 7997
  139.6088  144.7076  151.2892 H   0  0  0  0  0  0  0  0  0  0  0  0  # atno 10167 bound_to 10162
  156.9349  130.5840  149.5650 H   0  0  0  0  0  0  0  0  0  0  0  0  # atno 10718 bound_to 10713
  154.7047  135.5160  153.8578 H   0  0  0  0  0  0  0  0  0  0  0  0  # atno 10763 bound_to 10752
  153.0732  135.6608  154.0211 H   0  0  0  0  0  0  0  0  0  0  0  0  # atno 10764 bound_to 10752
  154.0064  135.3006  155.3377 H   0  0  0  0  0  0  0  0  0  0  0  0  # atno 10765 bound_to 10752
  140.2944  134.7647  157.3865 H   0  0  0  0  0  0  0  0  0  0  0  0  # atno 11005 bound_to 11000
  146.3359  139.8795  142.8826 LP  0  0  0  0  0  0  0  0  0  0  0  0  # atno 17320 bound_to 7965
  145.2669  141.0096  143.3794 LP  0  0  0  0  0  0  0  0  0  0  0  0  # atno 17321 bound_to 7965
  140.7304  143.6881  150.7945 LP  0  0  0  0  0  0  0  0  0  0  0  0  # atno 17342 bound_to 10162
  140.0472  143.5287  152.2691 LP  0  0  0  0  0  0  0  0  0  0  0  0  # atno 17343 bound_to 10162
  156.0430  130.5510  150.8815 LP  0  0  0  0  0  0  0  0  0  0  0  0  # atno 17370 bound_to 10713
  157.5822  131.0946  150.9252 LP  0  0  0  0  0  0  0  0  0  0  0  0  # atno 17371 bound_to 10713
  140.1166  134.5275  155.8219 LP  0  0  0  0  0  0  0  0  0  0  0  0  # atno 17394 bound_to 11000
  141.2140  133.6742  156.6788 LP  0  0  0  0  0  0  0  0  0  0  0  0  # atno 17395 bound_to 11000

$$$$
