AV-unprocessed.smi:1006|AV-procd|sdf|4395|dock1
  -GOLD-   22720 2323D 1   1.00000     0.00000
 Structure written by MMmdl.
 46 48  0  0  0  0  0  0  0  0  2 V2000
  147.7896  132.7543  161.6606 C   0  0  0  0  0  0  0  0  0  0  0  0
  147.9444  134.2448  161.4473 C   0  0  0  0  0  0  0  0  0  0  0  0
  147.5185  135.1774  162.4176 C   0  0  0  0  0  0  0  0  0  0  0  0
  147.7142  136.5380  162.1019 C   0  0  0  0  0  0  0  0  0  0  0  0
  147.3309  137.5380  162.9919 N   0  0  0  0  0  0  0  0  0  0  0  0
  148.2768  136.9249  160.9373 N   0  0  0  0  0  0  0  0  0  0  0  0
  148.6431  135.9530  160.0987 C   0  0  0  0  0  0  0  0  0  0  0  0
  149.3824  136.5075  158.5722 S   0  0  0  0  0  0  0  0  0  0  0  0
  149.5482  138.2998  158.8403 C   0  0  0  0  0  0  0  0  0  0  0  0
  151.0155  138.7556  158.8061 C   0  0  1  0  0  0  0  0  0  0  0  0
  151.8483  137.6705  159.1685 O   0  0  0  0  0  0  0  0  0  0  0  0
  151.4193  139.2861  157.4168 C   0  0  0  0  0  0  0  0  0  0  0  0
  151.0287  140.6879  157.2085 N   0  0  0  0  0  0  0  0  0  0  0  0
  150.2910  141.2416  156.2083 C   0  0  0  0  0  0  0  0  0  0  0  0
  150.1964  142.5769  156.4579 N   0  3  0  0  0  0  0  0  0  0  0  0
  150.8825  142.8807  157.6355 C   0  0  0  0  0  0  0  0  0  0  0  0
  151.0672  144.0907  158.2939 C   0  0  0  0  0  0  0  0  0  0  0  0
  151.8208  144.0662  159.4891 C   0  0  0  0  0  0  0  0  0  0  0  0
  152.0397  145.3716  160.2353 C   0  0  0  0  0  0  0  0  0  0  0  0
  152.3608  142.8521  159.9868 C   0  0  0  0  0  0  0  0  0  0  0  0
  153.1662  142.8368  161.2749 C   0  0  0  0  0  0  0  0  0  0  0  0
  152.1637  141.6324  159.3007 C   0  0  0  0  0  0  0  0  0  0  0  0
  151.4192  141.6732  158.1237 C   0  0  0  0  0  0  0  0  0  0  0  0
  148.5080  134.6358  160.2828 N   0  0  0  0  0  0  0  0  0  0  0  0
  147.4983  132.5329  162.6878 H   0  0  0  0  0  0  0  0  0  0  0  0
  148.7288  132.2396  161.4559 H   0  0  0  0  0  0  0  0  0  0  0  0
  147.0250  132.3549  160.9940 H   0  0  0  0  0  0  0  0  0  0  0  0
  147.0679  134.8662  163.3489 H   0  0  0  0  0  0  0  0  0  0  0  0
  146.9055  137.3205  163.8813 H   0  0  0  0  0  0  0  0  0  0  0  0
  147.4752  138.5141  162.7773 H   0  0  0  0  0  0  0  0  0  0  0  0
  148.9716  138.8334  158.0835 H   0  0  0  0  0  0  0  0  0  0  0  0
  149.1108  138.5426  159.8093 H   0  0  0  0  0  0  0  0  0  0  0  0
  151.1604  139.5485  159.5412 H   0  0  0  0  0  0  0  0  0  0  0  0
  152.4053  137.9433  159.8813 H   0  0  0  0  0  0  0  0  0  0  0  0
  152.4905  139.1783  157.2456 H   0  0  0  0  0  0  0  0  0  0  0  0
  150.9273  138.6995  156.6400 H   0  0  0  0  0  0  0  0  0  0  0  0
  149.8570  140.7164  155.3697 H   0  0  0  0  0  0  0  0  0  0  0  0
  150.6511  145.0108  157.9103 H   0  0  0  0  0  0  0  0  0  0  0  0
  153.1046  145.5804  160.3404 H   0  0  0  0  0  0  0  0  0  0  0  0
  151.5957  145.3219  161.2299 H   0  0  0  0  0  0  0  0  0  0  0  0
  151.5864  146.2124  159.7095 H   0  0  0  0  0  0  0  0  0  0  0  0
  153.4826  141.8265  161.5362 H   0  0  0  0  0  0  0  0  0  0  0  0
  152.5727  143.2231  162.1036 H   0  0  0  0  0  0  0  0  0  0  0  0
  154.0614  143.4502  161.1732 H   0  0  0  0  0  0  0  0  0  0  0  0
  152.5724  140.7094  159.6837 H   0  0  0  0  0  0  0  0  0  0  0  0
  149.6971  143.2300  155.8677 H   0  0  0  0  0  0  0  0  0  0  0  0
  1  2  1  0  0  0  0
  1 25  1  0  0  0  0
  1 26  1  0  0  0  0
  1 27  1  0  0  0  0
  2 24  1  0  0  0  0
  2  3  2  0  0  0  0
  3  4  1  0  0  0  0
  3 28  1  0  0  0  0
  4  5  1  0  0  0  0
  4  6  2  0  0  0  0
  5 29  1  0  0  0  0
  5 30  1  0  0  0  0
  6  7  1  0  0  0  0
  7  8  1  0  0  0  0
  7 24  2  0  0  0  0
  8  9  1  0  0  0  0
  9 10  1  0  0  0  0
  9 31  1  0  0  0  0
  9 32  1  0  0  0  0
 10 11  1  0  0  0  0
 10 12  1  0  0  0  0
 10 33  1  0  0  0  0
 11 34  1  0  0  0  0
 12 13  1  0  0  0  0
 12 35  1  0  0  0  0
 12 36  1  0  0  0  0
 13 23  1  0  0  0  0
 13 14  1  0  0  0  0
 14 15  2  0  0  0  0
 14 37  1  0  0  0  0
 15 16  1  0  0  0  0
 15 46  1  0  0  0  0
 16 23  2  0  0  0  0
 16 17  1  0  0  0  0
 17 18  2  0  0  0  0
 17 38  1  0  0  0  0
 18 19  1  0  0  0  0
 18 20  1  0  0  0  0
 19 39  1  0  0  0  0
 19 40  1  0  0  0  0
 19 41  1  0  0  0  0
 20 21  1  0  0  0  0
 20 22  2  0  0  0  0
 21 42  1  0  0  0  0
 21 43  1  0  0  0  0
 21 44  1  0  0  0  0
 22 23  1  0  0  0  0
 22 45  1  0  0  0  0
M  CHG  1  15   1
M  END
> <s_m_source_file>
AV-unprocessed.smi

> <i_m_source_file_index>
1006

> <i_lp_mmshare_version>
43012

> <i_f3d_flags>
0

> <s_epik_input>
W0NIM11jMVtjSF1jKFtOSDJdKW5jKG4xKVNbQ0gyXVtDQEhdKFtPSF0pW0NIMl1uKFtjSF1uMiljKGMyMylbY0hdYyhbQ0gzXSljKFtjSF0zKVtDSDNd

> <s_epik_cmdline>
J2VwaWtfcHl0aG9uJywgJy1waCcsICc3LjAnLCAnLXRuJywgJzgnLCAnLW1hJywgJzIwMCcsICctbWV0YWxfYmluZGluZycsICctaW1hZScsICc8aW5maWxlLm1hZT4nLCAnLW9tYWUnLCAnPG91dGZpbGUubWFlPic=

> <r_epik_Ionization_Penalty>
1.4378

> <r_epik_Ionization_Penalty_Charging>
1.06724

> <r_epik_Ionization_Penalty_Neutral>
0.370564

> <r_epik_State_Penalty>
1.48666

> <r_epik_Charging_Adjusted_Penalty>
2.5539

> <i_epik_Tot_Q>
1

> <i_epik_Tot_abs_Q>
1

> <r_epik_Metal_State_Penalty>
1.38026

> <b_epik_Metal_Only>
0

> <s_lp_Force_Field>
OPLS_2005

> <r_lp_Energy>
7.15152

> <b_lp_Chiralities_Consistent>
1

> <s_lp_Variant>
AV-unprocessed.smi:1006-6

> <Gold.Version>
5.8.1

> <Gold.Id.Protein>
6NUR|6NUR_protein|mol2

> <Gold.PLP.Fitness>
56.0118

> <Gold.PLP.PLP>
-50.6733

> <Gold.PLP.part.hbond>
-3.1025

> <Gold.PLP.part.metal>
0.0000

> <Gold.PLP.part.buried>
-8.3817

> <Gold.PLP.part.nonpolar>
-41.4542

> <Gold.PLP.part.repulsive>
2.0191

> <Gold.PLP.ligand.clash>
0.0000

> <Gold.PLP.ligand.torsion>
1.1732

> <Gold.PLP.Chemscore.Hbond>
2.5256

> <Gold.PLP.Chemscore.CHOScore>
0.0000

> <Gold.PLP.Chemscore.Metal>
0.0000

> <Gold.Chemscore.Hbonds>
donor molecule, donor type, donor heavy atom, donor atom, acceptor molecule, acceptor atom, score
      L1  H    15    46       P1  8028  2.00
      P1  H  6896  6909       L1    24  0.12
      P1  H  6931  6943       L1     6  0.30
      P1  H  6934  6947       L1     6  0.08

> <Gold.PLP.Chemscore.Internal.Correction>
0.1081

> <Gold.Rescore>
     Score         DG    S(hbond)    S(metal)    S(lipo)     H(rot)  DE(clash)    DE(int)     intcor
     14.02     -15.19       0.94        0.00     119.51       2.89       0.09       1.08       ----

> <Gold.Chemscore.Fitness>
14.0201

> <Gold.Chemscore.DG>
-15.1897

> <Gold.Chemscore.ZeroCoef>
-5.4800

> <Gold.Chemscore.Hbond>
0.9365

> <Gold.Chemscore.Metal>
0.0000

> <Gold.Chemscore.Lipo>
119.5093

> <Gold.Chemscore.Internal_Hbond>
0.0000

> <Gold.Chemscore.DEClash>
0.0852

> <Gold.Chemscore.DEInternal>
1.0844

> <Gold.Chemscore.Rot>
2.8910

> <Gold.Chemscore.Internal.Correction>
   9.000000E+99

> <Gold.Chemscore.Hbonds>
donor molecule, donor type, donor heavy atom, donor atom, acceptor molecule, acceptor atom, score
      L1  H    15    46       P1  8028  0.94
      P1  H  6934  6947       L1     6  0.01

> <Gold.Chemscore.Hbond.Weighted>
-3.1280

> <Gold.Chemscore.Metal.Weighted>
-0.0000

> <Gold.Chemscore.Lipo.Weighted>
-13.9826

> <Gold.Chemscore.Internal_Hbond.Weighted>
0.0000

> <Gold.Chemscore.DEClash.Weighted>
0.0852

> <Gold.Chemscore.DEInternal.Weighted>
1.0844

> <Gold.Chemscore.Rot.Weighted>
7.4009

> <Gold.Chemscore.Internal.Correction.Weighted>
   9.000000E+99

> <Gold.Protein.RotatedTorsions>
[ 6907 6896 6895 6894 ] final   37.39 input  -60.11 | X-H torsion
[ 7974 7965 7964 7962 ] final  148.20 input  175.53 | X-H torsion
[ 8008 7997 7996 7995 ] final  -40.90 input   59.86 | X-H torsion
[ 10167 10162 10161 10158 ] final  -76.49 input  -65.29 | X-H torsion
[ 10718 10713 10712 10709 ] final -129.66 input   66.30 | X-H torsion
[ 10763 10752 10751 10750 ] final -155.94 input  -60.55 | X-H torsion
[ 11005 11000 10999 10996 ] final  -47.00 input  -57.11 | X-H torsion

> <Gold.Protein.ActiveResidues>
 VAL166  LYS551  ARG553  GLY616  TRP617  ASP618  TYR619  PRO620  LYS621  CYS622 
 ASP623  PHE694  ASN695  SER759  ASP760  ASP761  ALA762  ILE779  LEU786  VAL792 
 PHE793  MET794  SER795  GLU796  ALA797  LYS798  CYS799  TRP800  GLU811  SER814 

> <Gold.Protein.RotatedAtoms>
  152.1425  134.9052  160.0552 H   0  0  0  0  0  0  0  0  0  0  0  0  # atno 6907 bound_to 6896
  152.0114  133.3858  159.4229 H   0  0  0  0  0  0  0  0  0  0  0  0  # atno 6908 bound_to 6896
  150.6866  134.3648  159.5010 H   0  0  0  0  0  0  0  0  0  0  0  0  # atno 6909 bound_to 6896
  144.8532  139.6124  143.5964 H   0  0  0  0  0  0  0  0  0  0  0  0  # atno 7974 bound_to 7965
  154.4008  140.1513  156.3103 H   0  0  0  0  0  0  0  0  0  0  0  0  # atno 8008 bound_to 7997
  155.8622  140.3453  155.5742 H   0  0  0  0  0  0  0  0  0  0  0  0  # atno 8009 bound_to 7997
  155.7868  140.0851  157.2021 H   0  0  0  0  0  0  0  0  0  0  0  0  # atno 8010 bound_to 7997
  140.4852  143.2392  151.7994 H   0  0  0  0  0  0  0  0  0  0  0  0  # atno 10167 bound_to 10162
  156.2068  130.6893  151.0604 H   0  0  0  0  0  0  0  0  0  0  0  0  # atno 10718 bound_to 10713
  154.7750  135.3157  154.8111 H   0  0  0  0  0  0  0  0  0  0  0  0  # atno 10763 bound_to 10752
  153.8836  135.6832  153.4769 H   0  0  0  0  0  0  0  0  0  0  0  0  # atno 10764 bound_to 10752
  153.1372  135.4755  154.9376 H   0  0  0  0  0  0  0  0  0  0  0  0  # atno 10765 bound_to 10752
  141.0613  133.6708  156.3234 H   0  0  0  0  0  0  0  0  0  0  0  0  # atno 11005 bound_to 11000
  146.2802  139.6857  142.9234 LP  0  0  0  0  0  0  0  0  0  0  0  0  # atno 17320 bound_to 7965
  145.4458  141.0425  143.2832 LP  0  0  0  0  0  0  0  0  0  0  0  0  # atno 17321 bound_to 7965
  139.4841  144.4720  151.9413 LP  0  0  0  0  0  0  0  0  0  0  0  0  # atno 17342 bound_to 10162
  140.3806  144.2741  150.5909 LP  0  0  0  0  0  0  0  0  0  0  0  0  # atno 17343 bound_to 10162
  157.7017  131.0773  150.6799 LP  0  0  0  0  0  0  0  0  0  0  0  0  # atno 17370 bound_to 10713
  156.6858  130.4580  149.5614 LP  0  0  0  0  0  0  0  0  0  0  0  0  # atno 17371 bound_to 10713
  140.5862  134.5696  157.5490 LP  0  0  0  0  0  0  0  0  0  0  0  0  # atno 17394 bound_to 11000
  139.9435  134.7743  156.0618 LP  0  0  0  0  0  0  0  0  0  0  0  0  # atno 17395 bound_to 11000

$$$$
