AV-unprocessed.smi:1368|AV-procd|sdf|5577|dock8
  -GOLD-   22720 5173D 1   1.00000     0.00000
 Structure written by MMmdl.
 47 49  0  0  0  0  0  0  0  0  2 V2000
  146.5018  134.8346  161.2318 C   0  0  0  0  0  0  0  0  0  0  0  0
  147.3800  135.7595  160.3946 C   0  0  0  0  0  0  0  0  0  0  0  0
  147.6562  136.8783  160.8252 O   0  0  0  0  0  0  0  0  0  0  0  0
  147.7728  135.2709  159.2032 N   0  0  0  0  0  0  0  0  0  0  0  0
  148.5969  135.8775  158.2159 C   0  0  0  0  0  0  0  0  0  0  0  0
  149.2728  135.0198  157.3253 C   0  0  0  0  0  0  0  0  0  0  0  0
  150.1228  135.5442  156.3334 C   0  0  0  0  0  0  0  0  0  0  0  0
  150.3235  136.9338  156.2149 C   0  0  0  0  0  0  0  0  0  0  0  0
  151.1732  137.3623  155.2173 O   0  0  0  0  0  0  0  0  0  0  0  0
  151.0042  138.6799  154.7106 C   0  0  0  0  0  0  0  0  0  0  0  0
  152.0896  139.5893  155.3077 C   0  0  2  0  0  0  0  0  0  0  0  0
  153.3458  138.9648  155.1286 O   0  0  0  0  0  0  0  0  0  0  0  0
  151.8565  139.8444  156.8106 C   0  0  0  0  0  0  0  0  0  0  0  0
  151.3659  141.2030  157.0952 N   0  0  0  0  0  0  0  0  0  0  0  0
  150.4885  141.9788  156.3970 C   0  0  0  0  0  0  0  0  0  0  0  0
  149.7944  141.6157  155.1275 C   0  0  0  0  0  0  0  0  0  0  0  0
  150.3567  143.1528  157.0764 N   0  3  0  0  0  0  0  0  0  0  0  0
  151.1578  143.1293  158.2190 C   0  0  0  0  0  0  0  0  0  0  0  0
  151.3551  144.0839  159.2121 C   0  0  0  0  0  0  0  0  0  0  0  0
  152.2496  143.7440  160.2480 C   0  0  0  0  0  0  0  0  0  0  0  0
  152.9084  142.4976  160.2693 C   0  0  0  0  0  0  0  0  0  0  0  0
  152.6994  141.5375  159.2574 C   0  0  0  0  0  0  0  0  0  0  0  0
  151.8115  141.8799  158.2374 C   0  0  0  0  0  0  0  0  0  0  0  0
  149.6547  137.7962  157.1186 C   0  0  0  0  0  0  0  0  0  0  0  0
  148.8041  137.2736  158.1121 C   0  0  0  0  0  0  0  0  0  0  0  0
  146.7150  133.7864  161.0182 H   0  0  0  0  0  0  0  0  0  0  0  0
  145.4490  135.0223  161.0203 H   0  0  0  0  0  0  0  0  0  0  0  0
  146.6733  135.0041  162.2953 H   0  0  0  0  0  0  0  0  0  0  0  0
  147.3910  134.3707  158.9512 H   0  0  0  0  0  0  0  0  0  0  0  0
  149.1388  133.9502  157.3961 H   0  0  0  0  0  0  0  0  0  0  0  0
  150.6281  134.8711  155.6562 H   0  0  0  0  0  0  0  0  0  0  0  0
  151.1203  138.6463  153.6260 H   0  0  0  0  0  0  0  0  0  0  0  0
  150.0086  139.0717  154.9273 H   0  0  0  0  0  0  0  0  0  0  0  0
  152.0943  140.5457  154.7836 H   0  0  0  0  0  0  0  0  0  0  0  0
  153.3147  138.4540  154.3335 H   0  0  0  0  0  0  0  0  0  0  0  0
  151.1075  139.1490  157.1913 H   0  0  0  0  0  0  0  0  0  0  0  0
  152.7607  139.6567  157.3900 H   0  0  0  0  0  0  0  0  0  0  0  0
  149.2005  142.4531  154.7609 H   0  0  0  0  0  0  0  0  0  0  0  0
  149.1320  140.7659  155.2926 H   0  0  0  0  0  0  0  0  0  0  0  0
  150.5228  141.3470  154.3625 H   0  0  0  0  0  0  0  0  0  0  0  0
  150.8530  145.0402  159.1966 H   0  0  0  0  0  0  0  0  0  0  0  0
  152.4356  144.4540  161.0410 H   0  0  0  0  0  0  0  0  0  0  0  0
  153.5899  142.2733  161.0770 H   0  0  0  0  0  0  0  0  0  0  0  0
  153.2154  140.5893  159.2810 H   0  0  0  0  0  0  0  0  0  0  0  0
  149.7807  138.8672  157.0760 H   0  0  0  0  0  0  0  0  0  0  0  0
  148.3341  137.9666  158.7920 H   0  0  0  0  0  0  0  0  0  0  0  0
  149.7615  143.9145  156.7775 H   0  0  0  0  0  0  0  0  0  0  0  0
  1  2  1  0  0  0  0
  1 26  1  0  0  0  0
  1 27  1  0  0  0  0
  1 28  1  0  0  0  0
  2  3  2  0  0  0  0
  2  4  1  0  0  0  0
  4  5  1  0  0  0  0
  4 29  1  0  0  0  0
  5 25  1  0  0  0  0
  5  6  2  0  0  0  0
  6  7  1  0  0  0  0
  6 30  1  0  0  0  0
  7  8  2  0  0  0  0
  7 31  1  0  0  0  0
  8  9  1  0  0  0  0
  8 24  1  0  0  0  0
  9 10  1  0  0  0  0
 10 11  1  0  0  0  0
 10 32  1  0  0  0  0
 10 33  1  0  0  0  0
 11 12  1  0  0  0  0
 11 13  1  0  0  0  0
 11 34  1  0  0  0  0
 12 35  1  0  0  0  0
 13 14  1  0  0  0  0
 13 36  1  0  0  0  0
 13 37  1  0  0  0  0
 14 23  1  0  0  0  0
 14 15  1  0  0  0  0
 15 16  1  0  0  0  0
 15 17  2  0  0  0  0
 16 38  1  0  0  0  0
 16 39  1  0  0  0  0
 16 40  1  0  0  0  0
 17 18  1  0  0  0  0
 17 47  1  0  0  0  0
 18 23  2  0  0  0  0
 18 19  1  0  0  0  0
 19 20  2  0  0  0  0
 19 41  1  0  0  0  0
 20 21  1  0  0  0  0
 20 42  1  0  0  0  0
 21 22  2  0  0  0  0
 21 43  1  0  0  0  0
 22 23  1  0  0  0  0
 22 44  1  0  0  0  0
 24 25  2  0  0  0  0
 24 45  1  0  0  0  0
 25 46  1  0  0  0  0
M  CHG  1  17   1
M  END
> <s_m_source_file>
AV-unprocessed.smi

> <i_m_source_file_index>
1368

> <i_lp_mmshare_version>
43012

> <i_f3d_flags>
0

> <s_epik_input>
W0NIM11DKD1PKVtOSF1jMVtjSF1bY0hdYyhbY0hdW2NIXTEpT1tDSDJdW0NASF0oW09IXSlbQ0gyXW4oYyhuMilbQ0gzXSljKGMyMylbY0hdW2NIXVtjSF1bY0hdMw==

> <s_epik_cmdline>
J2VwaWtfcHl0aG9uJywgJy1waCcsICc3LjAnLCAnLXRuJywgJzgnLCAnLW1hJywgJzIwMCcsICctbWV0YWxfYmluZGluZycsICctaW1hZScsICc8aW5maWxlLm1hZT4nLCAnLW9tYWUnLCAnPG91dGZpbGUubWFlPic=

> <r_lp_tautomer_probability>
1

> <r_epik_Ionization_Penalty>
1.00673

> <r_epik_Ionization_Penalty_Charging>
1.00673

> <r_epik_Ionization_Penalty_Neutral>
2.60899e-06

> <r_epik_State_Penalty>
1.05579

> <r_epik_Charging_Adjusted_Penalty>
2.06252

> <i_epik_Tot_Q>
1

> <i_epik_Tot_abs_Q>
1

> <r_epik_Metal_State_Penalty>
1.15682

> <b_epik_Metal_Only>
0

> <s_lp_Force_Field>
OPLS_2005

> <r_lp_Energy>
25.0727

> <b_lp_Chiralities_Consistent>
1

> <s_lp_Variant>
AV-unprocessed.smi:1368-3

> <Gold.Version>
5.8.1

> <Gold.Id.Protein>
6NUR|6NUR_protein|mol2

> <Gold.PLP.Fitness>
58.0572

> <Gold.PLP.PLP>
-47.1673

> <Gold.PLP.part.hbond>
-4.0000

> <Gold.PLP.part.metal>
0.0000

> <Gold.PLP.part.buried>
-6.1112

> <Gold.PLP.part.nonpolar>
-37.6884

> <Gold.PLP.part.repulsive>
0.1636

> <Gold.PLP.ligand.clash>
0.0000

> <Gold.PLP.ligand.torsion>
1.7917

> <Gold.PLP.Chemscore.Hbond>
4.8000

> <Gold.PLP.Chemscore.CHOScore>
0.0000

> <Gold.PLP.Chemscore.Metal>
0.0000

> <Gold.Chemscore.Hbonds>
donor molecule, donor type, donor heavy atom, donor atom, acceptor molecule, acceptor atom, score
      L1  H    17    47       P1  8028  2.00
      P1  H  6931  6943       L1     3  0.50
      P1  H  6934  6947       L1     3  0.57
      P1  H  7997  8009       L1    12  1.00

> <Gold.PLP.Chemscore.Internal.Correction>
0.0733

> <Gold.Rescore>
     Score         DG    S(hbond)    S(metal)    S(lipo)     H(rot)  DE(clash)    DE(int)     intcor
     20.35     -23.23       3.06        0.00     118.41       2.47       0.04       2.84       ----

> <Gold.Chemscore.Fitness>
20.3500

> <Gold.Chemscore.DG>
-23.2265

> <Gold.Chemscore.ZeroCoef>
-5.4800

> <Gold.Chemscore.Hbond>
3.0598

> <Gold.Chemscore.Metal>
0.0000

> <Gold.Chemscore.Lipo>
118.4090

> <Gold.Chemscore.Internal_Hbond>
0.0000

> <Gold.Chemscore.DEClash>
0.0369

> <Gold.Chemscore.DEInternal>
2.8396

> <Gold.Chemscore.Rot>
2.4715

> <Gold.Chemscore.Internal.Correction>
   9.000000E+99

> <Gold.Chemscore.Hbonds>
donor molecule, donor type, donor heavy atom, donor atom, acceptor molecule, acceptor atom, score
      L1  H    17    47       P1  8028  0.95
      P1  H  6931  6943       L1     3  0.48
      P1  H  6934  6947       L1     3  0.54
      P1  H  7997  8009       L1    12  0.25

> <Gold.Chemscore.Hbond.Weighted>
-10.2197

> <Gold.Chemscore.Metal.Weighted>
-0.0000

> <Gold.Chemscore.Lipo.Weighted>
-13.8539

> <Gold.Chemscore.Internal_Hbond.Weighted>
0.0000

> <Gold.Chemscore.DEClash.Weighted>
0.0369

> <Gold.Chemscore.DEInternal.Weighted>
2.8396

> <Gold.Chemscore.Rot.Weighted>
6.3271

> <Gold.Chemscore.Internal.Correction.Weighted>
   9.000000E+99

> <Gold.Protein.RotatedTorsions>
[ 6907 6896 6895 6894 ] final -169.82 input  -60.11 | X-H torsion
[ 7974 7965 7964 7962 ] final    5.80 input  175.53 | X-H torsion
[ 8008 7997 7996 7995 ] final -140.79 input   59.86 | X-H torsion
[ 10167 10162 10161 10158 ] final   55.92 input  -65.29 | X-H torsion
[ 10718 10713 10712 10709 ] final  152.42 input   66.30 | X-H torsion
[ 10763 10752 10751 10750 ] final   65.12 input  -60.55 | X-H torsion
[ 11005 11000 10999 10996 ] final   27.59 input  -57.11 | X-H torsion

> <Gold.Protein.ActiveResidues>
 VAL166  LYS551  ARG553  GLY616  TRP617  ASP618  TYR619  PRO620  LYS621  CYS622 
 ASP623  PHE694  ASN695  SER759  ASP760  ASP761  ALA762  ILE779  LEU786  VAL792 
 PHE793  MET794  SER795  GLU796  ALA797  LYS798  CYS799  TRP800  GLU811  SER814 

> <Gold.Protein.RotatedAtoms>
  151.4978  133.3511  159.2863 H   0  0  0  0  0  0  0  0  0  0  0  0  # atno 6907 bound_to 6896
  150.8793  134.8183  159.7224 H   0  0  0  0  0  0  0  0  0  0  0  0  # atno 6908 bound_to 6896
  152.4751  134.4873  159.9736 H   0  0  0  0  0  0  0  0  0  0  0  0  # atno 6909 bound_to 6896
  146.2438  140.0330  142.8388 H   0  0  0  0  0  0  0  0  0  0  0  0  # atno 7974 bound_to 7965
  155.4671  140.0550  157.2984 H   0  0  0  0  0  0  0  0  0  0  0  0  # atno 8008 bound_to 7997
  154.4713  140.2041  155.9941 H   0  0  0  0  0  0  0  0  0  0  0  0  # atno 8009 bound_to 7997
  156.1061  140.3211  155.8012 H   0  0  0  0  0  0  0  0  0  0  0  0  # atno 8010 bound_to 7997
  140.2143  144.3856  150.6476 H   0  0  0  0  0  0  0  0  0  0  0  0  # atno 10167 bound_to 10162
  157.2580  131.0792  151.1685 H   0  0  0  0  0  0  0  0  0  0  0  0  # atno 10718 bound_to 10713
  153.0083  135.5368  154.6617 H   0  0  0  0  0  0  0  0  0  0  0  0  # atno 10763 bound_to 10752
  154.5824  135.2851  155.0722 H   0  0  0  0  0  0  0  0  0  0  0  0  # atno 10764 bound_to 10752
  154.1846  135.6510  153.5096 H   0  0  0  0  0  0  0  0  0  0  0  0  # atno 10765 bound_to 10752
  140.3247  134.2504  155.7711 H   0  0  0  0  0  0  0  0  0  0  0  0  # atno 11005 bound_to 11000
  145.1138  140.9421  143.4641 LP  0  0  0  0  0  0  0  0  0  0  0  0  # atno 17320 bound_to 7965
  145.0549  139.3151  143.5909 LP  0  0  0  0  0  0  0  0  0  0  0  0  # atno 17321 bound_to 7965
  140.6301  143.2186  151.6514 LP  0  0  0  0  0  0  0  0  0  0  0  0  # atno 17342 bound_to 10162
  139.5168  144.3336  152.0804 LP  0  0  0  0  0  0  0  0  0  0  0  0  # atno 17343 bound_to 10162
  157.3206  130.6935  149.6267 LP  0  0  0  0  0  0  0  0  0  0  0  0  # atno 17370 bound_to 10713
  155.9664  130.4336  150.5015 LP  0  0  0  0  0  0  0  0  0  0  0  0  # atno 17371 bound_to 10713
  141.2078  133.7795  157.0097 LP  0  0  0  0  0  0  0  0  0  0  0  0  # atno 17394 bound_to 11000
  140.0912  134.9591  157.1778 LP  0  0  0  0  0  0  0  0  0  0  0  0  # atno 17395 bound_to 11000

$$$$
