#       Name:                AV-unprocessed.smi:1487
#       Creating user name   scv26
#       Creation time:       Fri Mar 27 06:12:35 2020


#       File generated by GOLD software.
#

@<TRIPOS>MOLECULE
AV-unprocessed.smi:1487
    53    55     1
SMALL
NO_CHARGES


@<TRIPOS>ATOM
      1 ****        -4.4760   3.8576   3.0383 C.3            1 S1                 0.0000
      2 ****        -3.7488   3.0600   1.9691 C.ar           1 S1                 0.0000
      3 ****        -3.4662   3.6877   0.7352 C.ar           1 S1                 0.0000
      4 ****        -2.7997   2.9331  -0.2227 C.ar           1 S1                 0.0000
      5 ****        -2.3833   3.2588  -1.5148 N.pl3          1 S1                 1.0000
      6 ****        -1.7652   2.1843  -2.0781 C.2            1 S1                 0.0000
      7 ****        -1.7769   1.1765  -1.1631 N.pl3          1 S1                 0.0000
      8 ****        -1.2497  -0.1927  -1.2677 C.3            1 S1                 0.0000
      9 ****         0.2519  -0.2885  -0.9319 C.3            1 S1                 0.0000
     10 ****         0.4739   0.1688   0.3880 O.3            1 S1                 0.0000
     11 ****         0.7668  -1.7379  -1.0410 C.3            1 S1                 0.0000
     12 ****         2.2364  -1.8390  -0.8472 N.4            1 S1                 1.0000
     13 ****         3.0167  -1.4474  -2.0522 C.3            1 S1                 0.0000
     14 ****         4.5268  -1.4426  -1.7603 C.3            1 S1                 0.0000
     15 ****         4.9890  -2.8080  -1.2357 C.3            1 S1                 0.0000
     16 ****         4.1523  -3.2040  -0.0106 C.3            1 S1                 0.0000
     17 ****         4.5146  -4.5026   0.4078 O.3            1 S1                 0.0000
     18 ****         2.6482  -3.1740  -0.3396 C.3            1 S1                 0.0000
     19 ****        -2.4155   1.5980   0.0105 C.ar           1 S1                 0.0000
     20 ****        -2.6859   0.9649   1.2218 C.ar           1 S1                 0.0000
     21 ****        -3.3646   1.7153   2.2087 C.ar           1 S1                 0.0000
     22 ****        -3.6744   1.0502   3.5390 C.3            1 S1                 0.0000
     23 ****        -4.6438   4.8877   2.7223 H              1 S1                 0.0000
     24 ****        -3.8950   3.8844   3.9604 H              1 S1                 0.0000
     25 ****        -5.4475   3.4115   3.2526 H              1 S1                 0.0000
     26 ****        -3.7564   4.7111   0.5461 H              1 S1                 0.0000
     27 ****        -1.3445   2.1406  -3.0725 H              1 S1                 0.0000
     28 ****        -1.8415  -0.8562  -0.6369 H              1 S1                 0.0000
     29 ****        -1.4197  -0.5209  -2.2939 H              1 S1                 0.0000
     30 ****         0.7988   0.3639  -1.6120 H              1 S1                 0.0000
     31 ****         0.1662   1.0606   0.4527 H              1 S1                 0.0000
     32 ****         0.2513  -2.3412  -0.2916 H              1 S1                 0.0000
     33 ****         0.5019  -2.1686  -2.0078 H              1 S1                 0.0000
     34 ****         2.7976  -2.1381  -2.8682 H              1 S1                 0.0000
     35 ****         2.7208  -0.4560  -2.3927 H              1 S1                 0.0000
     36 ****         5.0804  -1.1858  -2.6638 H              1 S1                 0.0000
     37 ****         4.7564  -0.6691  -1.0260 H              1 S1                 0.0000
     38 ****         4.8801  -3.5569  -2.0218 H              1 S1                 0.0000
     39 ****         6.0487  -2.7725  -0.9798 H              1 S1                 0.0000
     40 ****         4.3589  -2.5153   0.8100 H              1 S1                 0.0000
     41 ****         5.4303  -4.5008   0.6429 H              1 S1                 0.0000
     42 ****         2.0796  -3.4153   0.5598 H              1 S1                 0.0000
     43 ****         2.4044  -3.9340  -1.0843 H              1 S1                 0.0000
     44 ****        -2.3902  -0.0566   1.4097 H              1 S1                 0.0000
     45 ****        -3.3587   0.0065   3.5467 H              1 S1                 0.0000
     46 ****        -4.7457   1.0738   3.7403 H              1 S1                 0.0000
     47 ****        -3.1570   1.5617   4.3508 H              1 S1                 0.0000
     48 ****         2.4674  -1.1813  -0.1159 H              1 S1                 0.0000
     49 ****        -2.5133   4.1478  -1.9813 H              1 S1                 0.0000
     50 ****         1.4511   0.1332   0.5974 LP             1 S1                 0.0000
     51 ****        -0.0265  -0.4082   1.0335 LP             1 S1                 0.0000
     52 ****         4.3597  -5.1516  -0.3370 LP             1 S1                 0.0000
     53 ****         3.9643  -4.7667   1.1999 LP             1 S1                 0.0000
@<TRIPOS>BOND
    1    1    2 1     
    2    1   23 1     
    3    1   24 1     
    4    1   25 1     
    5    2   21 ar    
    6    2    3 ar    
    7    3    4 ar    
    8    3   26 1     
    9    4   19 ar    
   10    4    5 1     
   11    5    6 2     
   12    5   49 1     
   13    6    7 1     
   14    6   27 1     
   15    7    8 1     
   16    7   19 1     
   17    8    9 1     
   18    8   28 1     
   19    8   29 1     
   20    9   10 1     
   21    9   11 1     
   22    9   30 1     
   23   10   31 1     
   24   11   12 1     
   25   11   32 1     
   26   11   33 1     
   27   12   18 1     
   28   12   13 1     
   29   12   48 1     
   30   13   14 1     
   31   13   34 1     
   32   13   35 1     
   33   14   15 1     
   34   14   36 1     
   35   14   37 1     
   36   15   16 1     
   37   15   38 1     
   38   15   39 1     
   39   16   17 1     
   40   16   18 1     
   41   16   40 1     
   42   17   41 1     
   43   18   42 1     
   44   18   43 1     
   45   19   20 ar    
   46   20   21 ar    
   47   20   44 1     
   48   21   22 1     
   49   22   45 1     
   50   22   46 1     
   51   22   47 1     
   52   10   50 1     
   53   10   51 1     
   54   17   52 1     
   55   17   53 1     
@<TRIPOS>SUBSTRUCTURE
      1 S1             1
@<TRIPOS>SET
LONE_PAIRS      STATIC     ATOMS    <user>   **** ""
4 50 51 52 53
DONOR_HYDROGENS      STATIC     ATOMS    <user>   **** ""
4 49 31 48 41
ATOM$BLUE        STATIC     ATOMS    COLORGROUP SYSTEM
4 50 51 52 53
ATOM$RED        STATIC     ATOMS    COLORGROUP SYSTEM
4 49 31 48 41
