AV-unprocessed.smi:1744|AV-procd|sdf|7026|dock5
  -GOLD-   22720 8243D 1   1.00000     0.00000
 Structure written by MMmdl.
 44 45  0  0  0  0  0  0  0  0  2 V2000
  152.9141  142.4462  161.9150 C   0  0  0  0  0  0  0  0  0  0  0  0
  153.0581  141.6810  160.5935 C   0  0  0  0  0  0  0  0  0  0  0  0
  152.4105  142.3740  159.4966 N   0  0  0  0  0  0  0  0  0  0  0  0
  151.3927  141.9199  158.6815 C   0  0  0  0  0  0  0  0  0  0  0  0
  151.1330  142.9348  157.8104 C   0  0  0  0  0  0  0  0  0  0  0  0
  150.1518  142.8927  156.7887 N   0  0  0  0  0  0  0  0  0  0  0  0
  149.6040  141.7998  156.2336 C   0  0  0  0  0  0  0  0  0  0  0  0
  149.8863  140.6385  156.5274 O   0  0  0  0  0  0  0  0  0  0  0  0
  148.7000  142.1291  155.2996 N   0  0  0  0  0  0  0  0  0  0  0  0
  147.9148  141.1797  154.5111 C   0  0  2  0  0  0  0  0  0  0  0  0
  147.2358  141.8584  153.3048 C   0  0  0  0  0  0  0  0  0  0  0  0
  146.0946  142.7950  153.7383 C   0  0  0  0  0  0  0  0  0  0  0  0
  145.0915  142.0707  154.5640 N   0  3  2  0  0  0  0  0  0  0  0  0
  143.9012  142.8971  154.8927 C   0  0  0  0  0  0  0  0  0  0  0  0
  142.7200  142.0696  155.4105 C   0  0  0  0  0  0  0  0  0  0  0  0
  142.2766  141.0917  154.6174 N   0  0  0  0  0  0  0  0  0  0  0  0
  142.2035  142.3153  156.4991 O   0  0  0  0  0  0  0  0  0  0  0  0
  145.7112  141.4655  155.7705 C   0  0  0  0  0  0  0  0  0  0  0  0
  146.8501  140.5011  155.3903 C   0  0  0  0  0  0  0  0  0  0  0  0
  152.0368  143.9807  158.1516 C   0  0  0  0  0  0  0  0  0  0  0  0
  152.8045  143.6305  159.1727 N   0  0  0  0  0  0  0  0  0  0  0  0
  153.3953  141.9054  162.7299 H   0  0  0  0  0  0  0  0  0  0  0  0
  151.8648  142.5822  162.1788 H   0  0  0  0  0  0  0  0  0  0  0  0
  153.3757  143.4324  161.8534 H   0  0  0  0  0  0  0  0  0  0  0  0
  154.1117  141.5414  160.3471 H   0  0  0  0  0  0  0  0  0  0  0  0
  152.6197  140.6865  160.6856 H   0  0  0  0  0  0  0  0  0  0  0  0
  150.9533  140.9394  158.7924 H   0  0  0  0  0  0  0  0  0  0  0  0
  149.8357  143.7877  156.4454 H   0  0  0  0  0  0  0  0  0  0  0  0
  148.5313  143.1102  155.1329 H   0  0  0  0  0  0  0  0  0  0  0  0
  148.5927  140.4065  154.1446 H   0  0  0  0  0  0  0  0  0  0  0  0
  147.9661  142.4084  152.7101 H   0  0  0  0  0  0  0  0  0  0  0  0
  146.8311  141.0899  152.6448 H   0  0  0  0  0  0  0  0  0  0  0  0
  146.4932  143.6397  154.3023 H   0  0  0  0  0  0  0  0  0  0  0  0
  145.6196  143.2102  152.8491 H   0  0  0  0  0  0  0  0  0  0  0  0
  144.1529  143.6061  155.6827 H   0  0  0  0  0  0  0  0  0  0  0  0
  143.6036  143.4885  154.0249 H   0  0  0  0  0  0  0  0  0  0  0  0
  141.5044  140.5102  154.9094 H   0  0  0  0  0  0  0  0  0  0  0  0
  142.7210  140.9312  153.7242 H   0  0  0  0  0  0  0  0  0  0  0  0
  146.0821  142.2551  156.4258 H   0  0  0  0  0  0  0  0  0  0  0  0
  144.9564  140.9165  156.3349 H   0  0  0  0  0  0  0  0  0  0  0  0
  146.4296  139.6524  154.8493 H   0  0  0  0  0  0  0  0  0  0  0  0
  147.3087  140.0878  156.2896 H   0  0  0  0  0  0  0  0  0  0  0  0
  152.1675  144.9580  157.7113 H   0  0  0  0  0  0  0  0  0  0  0  0
  144.7499  141.3017  154.0045 H   0  0  0  0  0  0  0  0  0  0  0  0
  1  2  1  0  0  0  0
  1 22  1  0  0  0  0
  1 23  1  0  0  0  0
  1 24  1  0  0  0  0
  2  3  1  0  0  0  0
  2 25  1  0  0  0  0
  2 26  1  0  0  0  0
  3 21  1  0  0  0  0
  3  4  1  0  0  0  0
  4  5  2  0  0  0  0
  4 27  1  0  0  0  0
  5  6  1  0  0  0  0
  5 20  1  0  0  0  0
  6  7  1  0  0  0  0
  6 28  1  0  0  0  0
  7  8  2  0  0  0  0
  7  9  1  0  0  0  0
  9 10  1  0  0  0  0
  9 29  1  0  0  0  0
 10 19  1  0  0  0  0
 10 11  1  0  0  0  0
 10 30  1  0  0  0  0
 11 12  1  0  0  0  0
 11 31  1  0  0  0  0
 11 32  1  0  0  0  0
 12 13  1  0  0  0  0
 12 33  1  0  0  0  0
 12 34  1  0  0  0  0
 13 14  1  0  0  0  0
 13 18  1  0  0  0  0
 13 44  1  0  0  0  0
 14 15  1  0  0  0  0
 14 35  1  0  0  0  0
 14 36  1  0  0  0  0
 15 16  1  0  0  0  0
 15 17  2  0  0  0  0
 16 37  1  0  0  0  0
 16 38  1  0  0  0  0
 18 19  1  0  0  0  0
 18 39  1  0  0  0  0
 18 40  1  0  0  0  0
 19 41  1  0  0  0  0
 19 42  1  0  0  0  0
 20 21  2  0  0  0  0
 20 43  1  0  0  0  0
M  CHG  1  13   1
M  END
> <s_m_source_file>
AV-unprocessed.smi

> <i_m_source_file_index>
1744

> <i_lp_mmshare_version>
43012

> <i_f3d_flags>
0

> <s_epik_input>
W0NIM11bQ0gyXW4xW2NIXWMoW2NIXW4xKVtOSF1DKD1PKVtOSF1bQ0hdMltDSDJdW0NIMl1OKFtDSDJdW0NIMl0yKVtDSDJdQyg9TylbTkgyXQ==

> <s_epik_cmdline>
J2VwaWtfcHl0aG9uJywgJy1waCcsICc3LjAnLCAnLXRuJywgJzgnLCAnLW1hJywgJzIwMCcsICctbWV0YWxfYmluZGluZycsICctaW1hZScsICc8aW5maWxlLm1hZT4nLCAnLW9tYWUnLCAnPG91dGZpbGUubWFlPic=

> <r_lp_tautomer_probability>
1

> <r_epik_Ionization_Penalty>
0.839033

> <r_epik_Ionization_Penalty_Charging>
0.838844

> <r_epik_Ionization_Penalty_Neutral>
0.000189439

> <r_epik_State_Penalty>
0.8734

> <r_epik_Charging_Adjusted_Penalty>
1.71224

> <i_epik_Tot_Q>
1

> <i_epik_Tot_abs_Q>
1

> <r_epik_Metal_State_Penalty>
0.89072

> <b_epik_Metal_Only>
0

> <s_lp_Force_Field>
OPLS_2005

> <r_lp_Energy>
17.546

> <b_lp_Chiralities_Consistent>
1

> <s_lp_Variant>
AV-unprocessed.smi:1744-3

> <Gold.Version>
5.8.1

> <Gold.Id.Protein>
6NUR|6NUR_protein|mol2

> <Gold.PLP.Fitness>
50.8261

> <Gold.PLP.PLP>
-36.7550

> <Gold.PLP.part.hbond>
-4.8499

> <Gold.PLP.part.metal>
0.0000

> <Gold.PLP.part.buried>
-4.3831

> <Gold.PLP.part.nonpolar>
-28.7084

> <Gold.PLP.part.repulsive>
0.2728

> <Gold.PLP.ligand.clash>
0.0000

> <Gold.PLP.ligand.torsion>
0.3305

> <Gold.PLP.Chemscore.Hbond>
4.8940

> <Gold.PLP.Chemscore.CHOScore>
0.0000

> <Gold.PLP.Chemscore.Metal>
0.0000

> <Gold.Chemscore.Hbonds>
donor molecule, donor type, donor heavy atom, donor atom, acceptor molecule, acceptor atom, score
      L1  H     6    28       P1  8028  1.00
      L1  H     9    29       P1  8028  0.93
      L1  H    13    44       P1 10175  2.00
      L1  H    16    38       P1 10175  0.85

> <Gold.PLP.Chemscore.Internal.Correction>
0.0502

> <Gold.Rescore>
     Score         DG    S(hbond)    S(metal)    S(lipo)     H(rot)  DE(clash)    DE(int)     intcor
     18.48     -20.25       3.34        0.00      79.47       2.22       0.20       1.56       ----

> <Gold.Chemscore.Fitness>
18.4821

> <Gold.Chemscore.DG>
-20.2450

> <Gold.Chemscore.ZeroCoef>
-5.4800

> <Gold.Chemscore.Hbond>
3.3392

> <Gold.Chemscore.Metal>
0.0000

> <Gold.Chemscore.Lipo>
79.4696

> <Gold.Chemscore.Internal_Hbond>
0.0000

> <Gold.Chemscore.DEClash>
0.2049

> <Gold.Chemscore.DEInternal>
1.5581

> <Gold.Chemscore.Rot>
2.2211

> <Gold.Chemscore.Internal.Correction>
   9.000000E+99

> <Gold.Chemscore.Hbonds>
donor molecule, donor type, donor heavy atom, donor atom, acceptor molecule, acceptor atom, score
      L1  H     6    28       P1  8028  0.92
      L1  H     9    29       P1  8028  0.91
      L1  H    13    44       P1 10175  0.46
      L1  H    16    38       P1 10175  0.14

> <Gold.Chemscore.Hbond.Weighted>
-11.1531

> <Gold.Chemscore.Metal.Weighted>
-0.0000

> <Gold.Chemscore.Lipo.Weighted>
-9.2979

> <Gold.Chemscore.Internal_Hbond.Weighted>
0.0000

> <Gold.Chemscore.DEClash.Weighted>
0.2049

> <Gold.Chemscore.DEInternal.Weighted>
1.5581

> <Gold.Chemscore.Rot.Weighted>
5.6860

> <Gold.Chemscore.Internal.Correction.Weighted>
   9.000000E+99

> <Gold.Protein.RotatedTorsions>
[ 6907 6896 6895 6894 ] final  -51.39 input  -60.11 | X-H torsion
[ 7974 7965 7964 7962 ] final -134.96 input  175.53 | X-H torsion
[ 8008 7997 7996 7995 ] final  158.92 input   59.86 | X-H torsion
[ 10167 10162 10161 10158 ] final   61.17 input  -65.29 | X-H torsion
[ 10718 10713 10712 10709 ] final  -89.81 input   66.30 | X-H torsion
[ 10763 10752 10751 10750 ] final   59.91 input  -60.55 | X-H torsion
[ 11005 11000 10999 10996 ] final  106.17 input  -57.11 | X-H torsion

> <Gold.Protein.ActiveResidues>
 VAL166  LYS551  ARG553  GLY616  TRP617  ASP618  TYR619  PRO620  LYS621  CYS622 
 ASP623  PHE694  ASN695  SER759  ASP760  ASP761  ALA762  ILE779  LEU786  VAL792 
 PHE793  MET794  SER795  GLU796  ALA797  LYS798  CYS799  TRP800  GLU811  SER814 

> <Gold.Protein.RotatedAtoms>
  150.8616  134.7970  159.7086 H   0  0  0  0  0  0  0  0  0  0  0  0  # atno 6907 bound_to 6896
  152.4651  134.5090  159.9758 H   0  0  0  0  0  0  0  0  0  0  0  0  # atno 6908 bound_to 6896
  151.5193  133.3431  159.2934 H   0  0  0  0  0  0  0  0  0  0  0  0  # atno 6909 bound_to 6896
  144.9056  140.6828  143.5057 H   0  0  0  0  0  0  0  0  0  0  0  0  # atno 7974 bound_to 7965
  156.2272  140.1845  156.7333 H   0  0  0  0  0  0  0  0  0  0  0  0  # atno 8008 bound_to 7997
  154.5961  140.0643  156.9333 H   0  0  0  0  0  0  0  0  0  0  0  0  # atno 8009 bound_to 7997
  155.2253  140.3310  155.4313 H   0  0  0  0  0  0  0  0  0  0  0  0  # atno 8010 bound_to 7997
  140.1577  144.4401  150.6726 H   0  0  0  0  0  0  0  0  0  0  0  0  # atno 10167 bound_to 10162
  155.9985  130.4886  150.5228 H   0  0  0  0  0  0  0  0  0  0  0  0  # atno 10718 bound_to 10713
  152.9907  135.5555  154.5789 H   0  0  0  0  0  0  0  0  0  0  0  0  # atno 10763 bound_to 10752
  154.5174  135.2805  155.1293 H   0  0  0  0  0  0  0  0  0  0  0  0  # atno 10764 bound_to 10752
  154.2660  135.6372  153.5345 H   0  0  0  0  0  0  0  0  0  0  0  0  # atno 10765 bound_to 10752
  139.8811  134.9360  156.5625 H   0  0  0  0  0  0  0  0  0  0  0  0  # atno 11005 bound_to 11000
  145.3542  139.1698  143.4418 LP  0  0  0  0  0  0  0  0  0  0  0  0  # atno 17320 bound_to 7965
  146.3132  140.3597  142.8663 LP  0  0  0  0  0  0  0  0  0  0  0  0  # atno 17321 bound_to 7965
  140.6663  143.2269  151.5735 LP  0  0  0  0  0  0  0  0  0  0  0  0  # atno 17342 bound_to 10162
  139.5396  144.2685  152.1323 LP  0  0  0  0  0  0  0  0  0  0  0  0  # atno 17343 bound_to 10162
  157.3187  131.0678  151.1947 LP  0  0  0  0  0  0  0  0  0  0  0  0  # atno 17370 bound_to 10713
  157.2868  130.6777  149.6094 LP  0  0  0  0  0  0  0  0  0  0  0  0  # atno 17371 bound_to 10713
  140.8158  133.8393  155.8851 LP  0  0  0  0  0  0  0  0  0  0  0  0  # atno 17394 bound_to 11000
  140.9464  134.1835  157.4760 LP  0  0  0  0  0  0  0  0  0  0  0  0  # atno 17395 bound_to 11000

$$$$
