AV-unprocessed.smi:863|AV-procd|sdf|3985|dock7
  -GOLD-   22720 1463D 1   1.00000     0.00000
 Structure written by MMmdl.
 42 44  0  0  0  0  0  0  0  0  1 V2000
  149.0965  134.4655  158.4371 O   0  0  0  0  0  0  0  0  0  0  0  0
  148.1026  133.8022  158.7340 C   0  0  0  0  0  0  0  0  0  0  0  0
  147.7552  133.5618  160.2034 C   0  0  0  0  0  0  0  0  0  0  0  0
  147.6904  134.8718  160.9413 C   0  0  0  0  0  0  0  0  0  0  0  0
  147.2734  135.1114  162.2804 C   0  0  0  0  0  0  0  0  0  0  0  0
  147.4162  136.4614  162.4227 C   0  0  0  0  0  0  0  0  0  0  0  0
  147.8832  137.0136  161.2745 O   0  0  0  0  0  0  0  0  0  0  0  0
  148.0578  135.9910  160.3350 N   0  0  0  0  0  0  0  0  0  0  0  0
  147.2782  133.2555  157.8264 N   0  0  0  0  0  0  0  0  0  0  0  0
  147.4385  133.3484  156.3786 C   0  0  1  0  0  0  0  0  0  0  0  0
  148.8745  132.9945  155.9673 C   0  0  0  0  0  0  0  0  0  0  0  0
  149.0043  132.9556  154.4388 C   0  0  0  0  0  0  0  0  0  0  0  0
  148.0495  132.0572  153.8770 O   0  0  0  0  0  0  0  0  0  0  0  0
  146.6694  132.3367  154.1476 C   0  0  0  0  0  0  0  0  0  0  0  0
  146.2011  133.6466  153.4566 C   0  0  0  0  0  0  0  0  0  0  0  0
  146.3078  133.5723  151.9246 C   0  0  0  0  0  0  0  0  0  0  0  0
  145.5152  132.3811  151.3702 C   0  0  0  0  0  0  0  0  0  0  0  0
  145.9679  131.0694  152.0260 C   0  0  0  0  0  0  0  0  0  0  0  0
  145.8741  131.1471  153.5601 C   0  0  0  0  0  0  0  0  0  0  0  0
  146.4650  132.3846  155.6820 C   0  0  0  0  0  0  0  0  0  0  0  0
  146.7969  133.0450  160.2658 H   0  0  0  0  0  0  0  0  0  0  0  0
  148.4941  132.8952  160.6510 H   0  0  0  0  0  0  0  0  0  0  0  0
  146.9235  134.4042  163.0177 H   0  0  0  0  0  0  0  0  0  0  0  0
  147.2364  137.1446  163.2396 H   0  0  0  0  0  0  0  0  0  0  0  0
  146.4886  132.7239  158.1642 H   0  0  0  0  0  0  0  0  0  0  0  0
  147.2127  134.3681  156.0627 H   0  0  0  0  0  0  0  0  0  0  0  0
  149.5807  133.7151  156.3815 H   0  0  0  0  0  0  0  0  0  0  0  0
  149.1470  132.0201  156.3752 H   0  0  0  0  0  0  0  0  0  0  0  0
  148.8995  133.9527  154.0121 H   0  0  0  0  0  0  0  0  0  0  0  0
  150.0012  132.6112  154.1637 H   0  0  0  0  0  0  0  0  0  0  0  0
  145.1614  133.8389  153.7252 H   0  0  0  0  0  0  0  0  0  0  0  0
  146.7557  134.5129  153.8133 H   0  0  0  0  0  0  0  0  0  0  0  0
  145.9404  134.4988  151.4829 H   0  0  0  0  0  0  0  0  0  0  0  0
  147.3551  133.4860  151.6325 H   0  0  0  0  0  0  0  0  0  0  0  0
  144.4505  132.5330  151.5516 H   0  0  0  0  0  0  0  0  0  0  0  0
  145.6404  132.3203  150.2889 H   0  0  0  0  0  0  0  0  0  0  0  0
  145.3586  130.2429  151.6592 H   0  0  0  0  0  0  0  0  0  0  0  0
  146.9942  130.8482  151.7305 H   0  0  0  0  0  0  0  0  0  0  0  0
  146.2288  130.2097  153.9906 H   0  0  0  0  0  0  0  0  0  0  0  0
  144.8247  131.2339  153.8458 H   0  0  0  0  0  0  0  0  0  0  0  0
  146.6132  131.3835  156.0908 H   0  0  0  0  0  0  0  0  0  0  0  0
  145.4348  132.6564  155.9159 H   0  0  0  0  0  0  0  0  0  0  0  0
  1  2  2  0  0  0  0
  2  3  1  0  0  0  0
  2  9  1  0  0  0  0
  3  4  1  0  0  0  0
  3 21  1  0  0  0  0
  3 22  1  0  0  0  0
  4  8  2  0  0  0  0
  4  5  1  0  0  0  0
  5  6  2  0  0  0  0
  5 23  1  0  0  0  0
  6  7  1  0  0  0  0
  6 24  1  0  0  0  0
  7  8  1  0  0  0  0
  9 10  1  0  0  0  0
  9 25  1  0  0  0  0
 10 20  1  0  0  0  0
 10 11  1  0  0  0  0
 10 26  1  0  0  0  0
 11 12  1  0  0  0  0
 11 27  1  0  0  0  0
 11 28  1  0  0  0  0
 12 13  1  0  0  0  0
 12 29  1  0  0  0  0
 12 30  1  0  0  0  0
 13 14  1  0  0  0  0
 14 19  1  0  0  0  0
 14 15  1  0  0  0  0
 14 20  1  0  0  0  0
 15 16  1  0  0  0  0
 15 31  1  0  0  0  0
 15 32  1  0  0  0  0
 16 17  1  0  0  0  0
 16 33  1  0  0  0  0
 16 34  1  0  0  0  0
 17 18  1  0  0  0  0
 17 35  1  0  0  0  0
 17 36  1  0  0  0  0
 18 19  1  0  0  0  0
 18 37  1  0  0  0  0
 18 38  1  0  0  0  0
 19 39  1  0  0  0  0
 19 40  1  0  0  0  0
 20 41  1  0  0  0  0
 20 42  1  0  0  0  0
M  END
> <s_m_source_file>
AV-unprocessed.smi

> <i_m_source_file_index>
863

> <i_lp_mmshare_version>
43012

> <i_f3d_flags>
0

> <s_epik_input>
bjFvW2NIXVtjSF1jMVtDSDJdQyg9TylbTkhdW0NAQEhdKFtDSDJdMilbQ0gyXVtDSDJdT0MyM1tDSDJdW0NIMl1bQ0gyXVtDSDJdW0NIMl0z

> <s_epik_cmdline>
J2VwaWtfcHl0aG9uJywgJy1waCcsICc3LjAnLCAnLXRuJywgJzgnLCAnLW1hJywgJzIwMCcsICctbWV0YWxfYmluZGluZycsICctaW1hZScsICc8aW5maWxlLm1hZT4nLCAnLW9tYWUnLCAnPG91dGZpbGUubWFlPic=

> <r_lp_tautomer_probability>
1

> <r_epik_Ionization_Penalty>
1.10177e-07

> <r_epik_Ionization_Penalty_Charging>
0

> <r_epik_Ionization_Penalty_Neutral>
1.10177e-07

> <r_epik_State_Penalty>
-0

> <r_epik_Charging_Adjusted_Penalty>
0

> <i_epik_Tot_Q>
0

> <i_epik_Tot_abs_Q>
0

> <r_epik_Metal_State_Penalty>
-0

> <b_epik_Metal_Only>
0

> <s_lp_Force_Field>
OPLS_2005

> <r_lp_Energy>
15.5582

> <b_lp_Chiralities_Consistent>
1

> <s_lp_Variant>
AV-unprocessed.smi:863-2

> <Gold.Version>
5.8.1

> <Gold.Id.Protein>
6NUR|6NUR_protein|mol2

> <Gold.PLP.Fitness>
37.1738

> <Gold.PLP.PLP>
-29.0398

> <Gold.PLP.part.hbond>
-3.0000

> <Gold.PLP.part.metal>
0.0000

> <Gold.PLP.part.buried>
-5.0232

> <Gold.PLP.part.nonpolar>
-21.0102

> <Gold.PLP.part.repulsive>
0.1043

> <Gold.PLP.ligand.clash>
0.0000

> <Gold.PLP.ligand.torsion>
0.2054

> <Gold.PLP.Chemscore.Hbond>
2.8480

> <Gold.PLP.Chemscore.CHOScore>
0.0000

> <Gold.PLP.Chemscore.Metal>
0.0000

> <Gold.Chemscore.Hbonds>
donor molecule, donor type, donor heavy atom, donor atom, acceptor molecule, acceptor atom, score
      P1  H  6896  6908       L1     1  1.00
      P1  H  6931  6943       L1     7  1.00
      P1  H  6934  6947       L1     7  0.55

> <Gold.PLP.Chemscore.Internal.Correction>
0.0009

> <Gold.Rescore>
     Score         DG    S(hbond)    S(metal)    S(lipo)     H(rot)  DE(clash)    DE(int)     intcor
     15.56     -18.67       2.51        0.00      72.15       1.42       0.00       3.11       ----

> <Gold.Chemscore.Fitness>
15.5605

> <Gold.Chemscore.DG>
-18.6710

> <Gold.Chemscore.ZeroCoef>
-5.4800

> <Gold.Chemscore.Hbond>
2.5076

> <Gold.Chemscore.Metal>
0.0000

> <Gold.Chemscore.Lipo>
72.1500

> <Gold.Chemscore.Internal_Hbond>
0.0000

> <Gold.Chemscore.DEClash>
0.0048

> <Gold.Chemscore.DEInternal>
3.1056

> <Gold.Chemscore.Rot>
1.4164

> <Gold.Chemscore.Internal.Correction>
   9.000000E+99

> <Gold.Chemscore.Hbonds>
donor molecule, donor type, donor heavy atom, donor atom, acceptor molecule, acceptor atom, score
      P1  H  6896  6908       L1     1  0.98
      P1  H  6931  6943       L1     7  0.34
      P1  H  6934  6947       L1     7  0.48

> <Gold.Chemscore.Hbond.Weighted>
-8.3753

> <Gold.Chemscore.Metal.Weighted>
-0.0000

> <Gold.Chemscore.Lipo.Weighted>
-8.4415

> <Gold.Chemscore.Internal_Hbond.Weighted>
0.0000

> <Gold.Chemscore.DEClash.Weighted>
0.0048

> <Gold.Chemscore.DEInternal.Weighted>
3.1056

> <Gold.Chemscore.Rot.Weighted>
3.6259

> <Gold.Chemscore.Internal.Correction.Weighted>
   9.000000E+99

> <Gold.Protein.RotatedTorsions>
[ 6907 6896 6895 6894 ] final  153.80 input  -60.11 | X-H torsion
[ 7974 7965 7964 7962 ] final  173.89 input  175.53 | X-H torsion
[ 8008 7997 7996 7995 ] final  -17.59 input   59.86 | X-H torsion
[ 10167 10162 10161 10158 ] final  -12.00 input  -65.29 | X-H torsion
[ 10718 10713 10712 10709 ] final  165.60 input   66.30 | X-H torsion
[ 10763 10752 10751 10750 ] final   66.57 input  -60.55 | X-H torsion
[ 11005 11000 10999 10996 ] final -139.67 input  -57.11 | X-H torsion

> <Gold.Protein.ActiveResidues>
 VAL166  LYS551  ARG553  GLY616  TRP617  ASP618  TYR619  PRO620  LYS621  CYS622 
 ASP623  PHE694  ASN695  SER759  ASP760  ASP761  ALA762  ILE779  LEU786  VAL792 
 PHE793  MET794  SER795  GLU796  ALA797  LYS798  CYS799  TRP800  GLU811  SER814 

> <Gold.Protein.RotatedAtoms>
  152.0675  133.4091  159.4444 H   0  0  0  0  0  0  0  0  0  0  0  0  # atno 6907 bound_to 6896
  150.6864  134.3129  159.4763 H   0  0  0  0  0  0  0  0  0  0  0  0  # atno 6908 bound_to 6896
  152.0957  134.9376  160.0621 H   0  0  0  0  0  0  0  0  0  0  0  0  # atno 6909 bound_to 6896
  144.7233  139.9715  143.6437 H   0  0  0  0  0  0  0  0  0  0  0  0  # atno 7974 bound_to 7965
  154.4967  140.2138  155.9432 H   0  0  0  0  0  0  0  0  0  0  0  0  # atno 8008 bound_to 7997
  156.1380  140.3185  155.8418 H   0  0  0  0  0  0  0  0  0  0  0  0  # atno 8009 bound_to 7997
  155.4174  140.0494  157.3018 H   0  0  0  0  0  0  0  0  0  0  0  0  # atno 8010 bound_to 7997
  140.7151  143.5579  150.9227 H   0  0  0  0  0  0  0  0  0  0  0  0  # atno 10167 bound_to 10162
  157.0779  131.0384  151.2587 H   0  0  0  0  0  0  0  0  0  0  0  0  # atno 10718 bound_to 10713
  153.0146  135.5316  154.6844 H   0  0  0  0  0  0  0  0  0  0  0  0  # atno 10763 bound_to 10752
  154.5995  135.2867  155.0552 H   0  0  0  0  0  0  0  0  0  0  0  0  # atno 10764 bound_to 10752
  154.1615  135.6547  153.5039 H   0  0  0  0  0  0  0  0  0  0  0  0  # atno 10765 bound_to 10752
  140.8497  134.2301  157.4767 H   0  0  0  0  0  0  0  0  0  0  0  0  # atno 11005 bound_to 11000
  146.0559  139.3556  143.0611 LP  0  0  0  0  0  0  0  0  0  0  0  0  # atno 17320 bound_to 7965
  145.8155  140.9705  143.0926 LP  0  0  0  0  0  0  0  0  0  0  0  0  # atno 17321 bound_to 7965
  139.9305  143.6499  152.3077 LP  0  0  0  0  0  0  0  0  0  0  0  0  # atno 17342 bound_to 10162
  139.6948  144.7642  151.1375 LP  0  0  0  0  0  0  0  0  0  0  0  0  # atno 17343 bound_to 10162
  157.4825  130.7773  149.7427 LP  0  0  0  0  0  0  0  0  0  0  0  0  # atno 17370 bound_to 10713
  155.9932  130.3926  150.2910 LP  0  0  0  0  0  0  0  0  0  0  0  0  # atno 17371 bound_to 10713
  139.8704  134.9677  156.4605 LP  0  0  0  0  0  0  0  0  0  0  0  0  # atno 17394 bound_to 11000
  140.8804  133.7922  155.9460 LP  0  0  0  0  0  0  0  0  0  0  0  0  # atno 17395 bound_to 11000

$$$$
