AV-unprocessed.smi:1836|AV-procd|sdf|7478|dock10
  -GOLD-   22720 9173D 1   1.00000     0.00000
 Structure written by MMmdl.
 33 34  0  0  0  0  0  0  0  0  1 V2000
  149.3051  141.4199  155.1106 C   0  0  0  0  0  0  0  0  0  0  0  0
  149.8661  141.5732  156.5310 C   0  0  1  0  0  0  0  0  0  0  0  0
  151.3640  141.9563  156.4966 C   0  0  0  0  0  0  0  0  0  0  0  0
  151.9199  142.1784  157.8307 N   0  0  0  0  0  0  0  0  0  0  0  0
  151.7585  143.4590  158.4995 C   0  0  0  0  0  0  0  0  0  0  0  0
  152.1912  143.2015  159.9491 C   0  0  0  0  0  0  0  0  0  0  0  0
  152.9808  141.8885  159.9144 C   0  0  0  0  0  0  0  0  0  0  0  0
  152.6179  141.3004  158.5615 C   0  0  0  0  0  0  0  0  0  0  0  0
  152.9334  140.1612  158.2213 O   0  0  0  0  0  0  0  0  0  0  0  0
  149.0882  142.5977  157.2261 N   0  0  0  0  0  0  0  0  0  0  0  0
  148.2211  142.3734  158.2252 C   0  0  0  0  0  0  0  0  0  0  0  0
  147.9671  141.2528  158.6675 O   0  0  0  0  0  0  0  0  0  0  0  0
  147.6853  143.5229  158.6713 N   0  0  0  0  0  0  0  0  0  0  0  0
  146.7876  143.7109  159.7554 C   0  0  0  0  0  0  0  0  0  0  0  0
  146.6303  142.8272  160.7534 N   0  0  0  0  0  0  0  0  0  0  0  0
  145.6983  143.2595  161.6881 N   0  0  0  0  0  0  0  0  0  0  0  0
  145.1917  144.4512  161.3597 C   0  0  0  0  0  0  0  0  0  0  0  0
  145.8059  145.1636  159.8780 S   0  0  0  0  0  0  0  0  0  0  0  0
  149.8293  140.6340  154.5659 H   0  0  0  0  0  0  0  0  0  0  0  0
  149.4050  142.3436  154.5396 H   0  0  0  0  0  0  0  0  0  0  0  0
  148.2479  141.1528  155.1318 H   0  0  0  0  0  0  0  0  0  0  0  0
  149.7405  140.6098  157.0284 H   0  0  0  0  0  0  0  0  0  0  0  0
  151.9383  141.1565  156.0263 H   0  0  0  0  0  0  0  0  0  0  0  0
  151.5180  142.8402  155.8757 H   0  0  0  0  0  0  0  0  0  0  0  0
  152.4073  144.1952  158.0231 H   0  0  0  0  0  0  0  0  0  0  0  0
  150.7312  143.8205  158.4420 H   0  0  0  0  0  0  0  0  0  0  0  0
  152.7796  144.0269  160.3505 H   0  0  0  0  0  0  0  0  0  0  0  0
  151.3116  143.0843  160.5840 H   0  0  0  0  0  0  0  0  0  0  0  0
  154.0555  142.0676  159.9552 H   0  0  0  0  0  0  0  0  0  0  0  0
  152.7031  141.2186  160.7289 H   0  0  0  0  0  0  0  0  0  0  0  0
  149.2306  143.5515  156.9278 H   0  0  0  0  0  0  0  0  0  0  0  0
  147.9663  144.3649  158.1911 H   0  0  0  0  0  0  0  0  0  0  0  0
  144.4523  144.9148  161.9958 H   0  0  0  0  0  0  0  0  0  0  0  0
  1  2  1  0  0  0  0
  1 19  1  0  0  0  0
  1 20  1  0  0  0  0
  1 21  1  0  0  0  0
  2  3  1  0  0  0  0
  2 10  1  0  0  0  0
  2 22  1  0  0  0  0
  3  4  1  0  0  0  0
  3 23  1  0  0  0  0
  3 24  1  0  0  0  0
  4  8  1  0  0  0  0
  4  5  1  0  0  0  0
  5  6  1  0  0  0  0
  5 25  1  0  0  0  0
  5 26  1  0  0  0  0
  6  7  1  0  0  0  0
  6 27  1  0  0  0  0
  6 28  1  0  0  0  0
  7  8  1  0  0  0  0
  7 29  1  0  0  0  0
  7 30  1  0  0  0  0
  8  9  2  0  0  0  0
 10 11  1  0  0  0  0
 10 31  1  0  0  0  0
 11 12  2  0  0  0  0
 11 13  1  0  0  0  0
 13 14  1  0  0  0  0
 13 32  1  0  0  0  0
 14 18  1  0  0  0  0
 14 15  2  0  0  0  0
 15 16  1  0  0  0  0
 16 17  2  0  0  0  0
 17 18  1  0  0  0  0
 17 33  1  0  0  0  0
M  END
> <s_m_source_file>
AV-unprocessed.smi

> <i_m_source_file_index>
1836

> <i_lp_mmshare_version>
43012

> <i_f3d_flags>
0

> <s_epik_input>
Tz1DMVtDSDJdW0NIMl1bQ0gyXU4xW0NIMl1bQ0BASF0oW0NIM10pW05IXUMoPU8pW05IXWMybm5bY0hdczI=

> <s_epik_cmdline>
J2VwaWtfcHl0aG9uJywgJy1waCcsICc3LjAnLCAnLXRuJywgJzgnLCAnLW1hJywgJzIwMCcsICctbWV0YWxfYmluZGluZycsICctaW1hZScsICc8aW5maWxlLm1hZT4nLCAnLW9tYWUnLCAnPG91dGZpbGUubWFlPic=

> <r_lp_tautomer_probability>
1

> <r_epik_Ionization_Penalty>
0.00192022

> <r_epik_Ionization_Penalty_Charging>
0

> <r_epik_Ionization_Penalty_Neutral>
0.00192022

> <r_epik_State_Penalty>
-0

> <r_epik_Charging_Adjusted_Penalty>
0

> <i_epik_Tot_Q>
0

> <i_epik_Tot_abs_Q>
0

> <r_epik_Metal_State_Penalty>
0.336618

> <b_epik_Metal_Only>
0

> <s_lp_Force_Field>
OPLS_2005

> <r_lp_Energy>
17.3914

> <b_lp_Chiralities_Consistent>
1

> <s_lp_Variant>
AV-unprocessed.smi:1836-2

> <Gold.Version>
5.8.1

> <Gold.Id.Protein>
6NUR|6NUR_protein|mol2

> <Gold.PLP.Fitness>
42.1626

> <Gold.PLP.PLP>
-29.1591

> <Gold.PLP.part.hbond>
-6.1328

> <Gold.PLP.part.metal>
0.0000

> <Gold.PLP.part.buried>
-3.6635

> <Gold.PLP.part.nonpolar>
-19.0808

> <Gold.PLP.part.repulsive>
0.1811

> <Gold.PLP.ligand.clash>
0.0000

> <Gold.PLP.ligand.torsion>
0.5104

> <Gold.PLP.Chemscore.Hbond>
4.6706

> <Gold.PLP.Chemscore.CHOScore>
0.0000

> <Gold.PLP.Chemscore.Metal>
0.0000

> <Gold.Chemscore.Hbonds>
donor molecule, donor type, donor heavy atom, donor atom, acceptor molecule, acceptor atom, score
      L1  H    10    31       P1  8028  0.90
      L1  H    13    32       P1  8029  1.00
      P1  H  6933  6944       L1    15  0.87
      P1  H  6934  6946       L1    15  0.93
      P1  H  7997  8009       L1     9  0.98

> <Gold.PLP.Chemscore.Internal.Correction>
0.0126

> <Gold.Rescore>
     Score         DG    S(hbond)    S(metal)    S(lipo)     H(rot)  DE(clash)    DE(int)     intcor
     18.24     -20.08       3.51        0.00      63.00       1.76       0.19       1.66       ----

> <Gold.Chemscore.Fitness>
18.2368

> <Gold.Chemscore.DG>
-20.0819

> <Gold.Chemscore.ZeroCoef>
-5.4800

> <Gold.Chemscore.Hbond>
3.5118

> <Gold.Chemscore.Metal>
0.0000

> <Gold.Chemscore.Lipo>
62.9998

> <Gold.Chemscore.Internal_Hbond>
0.0000

> <Gold.Chemscore.DEClash>
0.1901

> <Gold.Chemscore.DEInternal>
1.6550

> <Gold.Chemscore.Rot>
1.7571

> <Gold.Chemscore.Internal.Correction>
   9.000000E+99

> <Gold.Chemscore.Hbonds>
donor molecule, donor type, donor heavy atom, donor atom, acceptor molecule, acceptor atom, score
      L1  H    10    31       P1  8028  0.75
      L1  H    13    32       P1  8029  0.50
      P1  H  6933  6944       L1    15  0.49
      P1  H  6934  6946       L1    15  0.78
      P1  H  7997  8009       L1     9  0.77

> <Gold.Chemscore.Hbond.Weighted>
-11.7292

> <Gold.Chemscore.Metal.Weighted>
-0.0000

> <Gold.Chemscore.Lipo.Weighted>
-7.3710

> <Gold.Chemscore.Internal_Hbond.Weighted>
0.0000

> <Gold.Chemscore.DEClash.Weighted>
0.1901

> <Gold.Chemscore.DEInternal.Weighted>
1.6550

> <Gold.Chemscore.Rot.Weighted>
4.4983

> <Gold.Chemscore.Internal.Correction.Weighted>
   9.000000E+99

> <Gold.Protein.RotatedTorsions>
[ 6907 6896 6895 6894 ] final    6.48 input  -60.11 | X-H torsion
[ 7974 7965 7964 7962 ] final   43.78 input  175.53 | X-H torsion
[ 8008 7997 7996 7995 ] final  161.38 input   59.86 | X-H torsion
[ 10167 10162 10161 10158 ] final -112.85 input  -65.29 | X-H torsion
[ 10718 10713 10712 10709 ] final    5.97 input   66.30 | X-H torsion
[ 10763 10752 10751 10750 ] final   40.81 input  -60.55 | X-H torsion
[ 11005 11000 10999 10996 ] final -100.90 input  -57.11 | X-H torsion

> <Gold.Protein.ActiveResidues>
 VAL166  LYS551  ARG553  GLY616  TRP617  ASP618  TYR619  PRO620  LYS621  CYS622 
 ASP623  PHE694  ASN695  SER759  ASP760  ASP761  ALA762  ILE779  LEU786  VAL792 
 PHE793  MET794  SER795  GLU796  ALA797  LYS798  CYS799  TRP800  GLU811  SER814 

> <Gold.Protein.RotatedAtoms>
  151.6744  135.0971  160.0203 H   0  0  0  0  0  0  0  0  0  0  0  0  # atno 6907 bound_to 6896
  152.3872  133.6624  159.6217 H   0  0  0  0  0  0  0  0  0  0  0  0  # atno 6908 bound_to 6896
  150.7795  133.8931  159.3360 H   0  0  0  0  0  0  0  0  0  0  0  0  # atno 6909 bound_to 6896
  146.0626  139.5148  142.9649 H   0  0  0  0  0  0  0  0  0  0  0  0  # atno 7974 bound_to 7965
  156.2107  140.1779  156.7700 H   0  0  0  0  0  0  0  0  0  0  0  0  # atno 8008 bound_to 7997
  154.5719  140.0681  156.9006 H   0  0  0  0  0  0  0  0  0  0  0  0  # atno 8009 bound_to 7997
  155.2658  140.3339  155.4271 H   0  0  0  0  0  0  0  0  0  0  0  0  # atno 8010 bound_to 7997
  140.1183  143.4466  152.1708 H   0  0  0  0  0  0  0  0  0  0  0  0  # atno 10167 bound_to 10162
  156.9153  130.5771  149.5647 H   0  0  0  0  0  0  0  0  0  0  0  0  # atno 10718 bound_to 10713
  152.9926  135.6180  154.2685 H   0  0  0  0  0  0  0  0  0  0  0  0  # atno 10763 bound_to 10752
  154.2419  135.2788  155.2852 H   0  0  0  0  0  0  0  0  0  0  0  0  # atno 10764 bound_to 10752
  154.5362  135.5774  153.6858 H   0  0  0  0  0  0  0  0  0  0  0  0  # atno 10765 bound_to 10752
  141.1252  133.8435  157.1163 H   0  0  0  0  0  0  0  0  0  0  0  0  # atno 11005 bound_to 11000
  145.6534  141.0258  143.1748 LP  0  0  0  0  0  0  0  0  0  0  0  0  # atno 17320 bound_to 7965
  144.7183  139.8117  143.7391 LP  0  0  0  0  0  0  0  0  0  0  0  0  # atno 17321 bound_to 7965
  139.5582  144.7388  151.4231 LP  0  0  0  0  0  0  0  0  0  0  0  0  # atno 17342 bound_to 10162
  140.6887  143.7913  150.7223 LP  0  0  0  0  0  0  0  0  0  0  0  0  # atno 17343 bound_to 10162
  156.0516  130.5585  150.9002 LP  0  0  0  0  0  0  0  0  0  0  0  0  # atno 17370 bound_to 10713
  157.5942  131.0943  150.9069 LP  0  0  0  0  0  0  0  0  0  0  0  0  # atno 17371 bound_to 10713
  140.0244  134.9931  157.0657 LP  0  0  0  0  0  0  0  0  0  0  0  0  # atno 17394 bound_to 11000
  140.4386  134.1705  155.7172 LP  0  0  0  0  0  0  0  0  0  0  0  0  # atno 17395 bound_to 11000

$$$$
