AV-unprocessed.smi:724|AV-procd|sdf|3507|dock3
  -GOLD-   22720 0503D 1   1.00000     0.00000
 Structure written by MMmdl.
 36 37  0  0  0  0  0  0  0  0  1 V2000
  152.4465  145.1611  157.8511 C   0  0  0  0  0  0  0  0  0  0  0  0
  151.7494  144.2693  158.8994 C   0  0  0  0  0  0  0  0  0  0  0  0
  152.6971  144.0668  160.0997 C   0  0  0  0  0  0  0  0  0  0  0  0
  150.4648  144.9790  159.3887 C   0  0  0  0  0  0  0  0  0  0  0  0
  151.4595  142.8928  158.2547 C   0  0  0  0  0  0  0  0  0  0  0  0
  152.0412  141.8917  158.6765 O   0  0  0  0  0  0  0  0  0  0  0  0
  150.5912  142.8379  157.2284 N   0  0  0  0  0  0  0  0  0  0  0  0
  150.2659  141.6436  156.4499 C   0  0  0  0  0  0  0  0  0  0  0  0
  151.5219  140.8853  155.9753 C   0  0  0  0  0  0  0  0  0  0  0  0
  151.2393  139.5105  155.4618 C   0  0  0  0  0  0  0  0  0  0  0  0
  151.4028  138.3620  156.1130 N   0  0  0  0  0  0  0  0  0  0  0  0
  151.1326  137.4644  155.1261 C   0  0  0  0  0  0  0  0  0  0  0  0
  151.1846  135.9863  155.3404 C   0  0  0  0  0  0  0  0  0  0  0  0
  149.9770  135.1241  155.0386 C   0  0  0  0  0  0  0  0  0  0  0  0
  150.4002  135.3430  156.4649 C   0  0  0  0  0  0  0  0  0  0  0  0
  150.7766  137.9766  153.9546 N   0  0  0  0  0  0  0  0  0  0  0  0
  150.8686  139.3591  154.1669 O   0  0  0  0  0  0  0  0  0  0  0  0
  152.6904  146.1398  158.2652 H   0  0  0  0  0  0  0  0  0  0  0  0
  151.8091  145.3261  156.9813 H   0  0  0  0  0  0  0  0  0  0  0  0
  153.3790  144.7201  157.4954 H   0  0  0  0  0  0  0  0  0  0  0  0
  153.6444  143.6163  159.7990 H   0  0  0  0  0  0  0  0  0  0  0  0
  152.2504  143.4200  160.8565 H   0  0  0  0  0  0  0  0  0  0  0  0
  152.9320  145.0167  160.5812 H   0  0  0  0  0  0  0  0  0  0  0  0
  150.6993  145.9443  159.8388 H   0  0  0  0  0  0  0  0  0  0  0  0
  149.9416  144.3925  160.1453 H   0  0  0  0  0  0  0  0  0  0  0  0
  149.7691  145.1699  158.5700 H   0  0  0  0  0  0  0  0  0  0  0  0
  150.1525  143.7007  156.9405 H   0  0  0  0  0  0  0  0  0  0  0  0
  149.6293  140.9738  157.0306 H   0  0  0  0  0  0  0  0  0  0  0  0
  149.6738  141.9469  155.5864 H   0  0  0  0  0  0  0  0  0  0  0  0
  152.0235  141.4543  155.1919 H   0  0  0  0  0  0  0  0  0  0  0  0
  152.2327  140.8036  156.7983 H   0  0  0  0  0  0  0  0  0  0  0  0
  152.1703  135.5881  155.1076 H   0  0  0  0  0  0  0  0  0  0  0  0
  149.0688  135.6223  154.7042 H   0  0  0  0  0  0  0  0  0  0  0  0
  150.1577  134.1431  154.6042 H   0  0  0  0  0  0  0  0  0  0  0  0
  150.8638  134.5079  156.9861 H   0  0  0  0  0  0  0  0  0  0  0  0
  149.7729  135.9863  157.0793 H   0  0  0  0  0  0  0  0  0  0  0  0
  1  2  1  0  0  0  0
  1 18  1  0  0  0  0
  1 19  1  0  0  0  0
  1 20  1  0  0  0  0
  2  3  1  0  0  0  0
  2  4  1  0  0  0  0
  2  5  1  0  0  0  0
  3 21  1  0  0  0  0
  3 22  1  0  0  0  0
  3 23  1  0  0  0  0
  4 24  1  0  0  0  0
  4 25  1  0  0  0  0
  4 26  1  0  0  0  0
  5  6  2  0  0  0  0
  5  7  1  0  0  0  0
  7  8  1  0  0  0  0
  7 27  1  0  0  0  0
  8  9  1  0  0  0  0
  8 28  1  0  0  0  0
  8 29  1  0  0  0  0
  9 10  1  0  0  0  0
  9 30  1  0  0  0  0
  9 31  1  0  0  0  0
 10 17  1  0  0  0  0
 10 11  2  0  0  0  0
 11 12  1  0  0  0  0
 12 13  1  0  0  0  0
 12 16  2  0  0  0  0
 13 15  1  0  0  0  0
 13 14  1  0  0  0  0
 13 32  1  0  0  0  0
 14 15  1  0  0  0  0
 14 33  1  0  0  0  0
 14 34  1  0  0  0  0
 15 35  1  0  0  0  0
 15 36  1  0  0  0  0
 16 17  1  0  0  0  0
M  END
> <s_m_source_file>
AV-unprocessed.smi

> <i_m_source_file_index>
724

> <i_lp_mmshare_version>
43012

> <i_f3d_flags>
0

> <s_epik_input>
W0NIM11DKFtDSDNdKShbQ0gzXSlDKD1PKVtOSF1bQ0gyXVtDSDJdYzFuYyhubzEpW0NIXTJbQ0gyXVtDSDJdMg==

> <s_epik_cmdline>
J2VwaWtfcHl0aG9uJywgJy1waCcsICc3LjAnLCAnLXRuJywgJzgnLCAnLW1hJywgJzIwMCcsICctbWV0YWxfYmluZGluZycsICctaW1hZScsICc8aW5maWxlLm1hZT4nLCAnLW9tYWUnLCAnPG91dGZpbGUubWFlPic=

> <r_lp_tautomer_probability>
1

> <r_epik_Ionization_Penalty>
2.89377e-08

> <r_epik_Ionization_Penalty_Charging>
0

> <r_epik_Ionization_Penalty_Neutral>
2.89377e-08

> <r_epik_State_Penalty>
-0

> <r_epik_Charging_Adjusted_Penalty>
0

> <i_epik_Tot_Q>
0

> <i_epik_Tot_abs_Q>
0

> <r_epik_Metal_State_Penalty>
-0

> <b_epik_Metal_Only>
0

> <s_lp_Force_Field>
OPLS_2005

> <r_lp_Energy>
6.75537

> <b_lp_Chiralities_Consistent>
1

> <s_lp_Variant>
AV-unprocessed.smi:724-1

> <Gold.Version>
5.8.1

> <Gold.Id.Protein>
6NUR|6NUR_protein|mol2

> <Gold.PLP.Fitness>
36.8547

> <Gold.PLP.PLP>
-32.0036

> <Gold.PLP.part.hbond>
-2.0000

> <Gold.PLP.part.metal>
0.0000

> <Gold.PLP.part.buried>
-5.6522

> <Gold.PLP.part.nonpolar>
-25.7565

> <Gold.PLP.part.repulsive>
0.4495

> <Gold.PLP.ligand.clash>
0.0000

> <Gold.PLP.ligand.torsion>
0.5451

> <Gold.PLP.Chemscore.Hbond>
1.9204

> <Gold.PLP.Chemscore.CHOScore>
0.0000

> <Gold.PLP.Chemscore.Metal>
0.0000

> <Gold.Chemscore.Hbonds>
donor molecule, donor type, donor heavy atom, donor atom, acceptor molecule, acceptor atom, score
      L1  H     7    27       P1  8028  0.94
      P1  H  7989  7998       L1    17  0.95

> <Gold.PLP.Chemscore.Internal.Correction>
0.1801

> <Gold.Rescore>
     Score         DG    S(hbond)    S(metal)    S(lipo)     H(rot)  DE(clash)    DE(int)     intcor
     12.55     -14.57       1.65        0.00      72.47       1.91       0.12       1.90       ----

> <Gold.Chemscore.Fitness>
12.5531

> <Gold.Chemscore.DG>
-14.5714

> <Gold.Chemscore.ZeroCoef>
-5.4800

> <Gold.Chemscore.Hbond>
1.6494

> <Gold.Chemscore.Metal>
0.0000

> <Gold.Chemscore.Lipo>
72.4735

> <Gold.Chemscore.Internal_Hbond>
0.0000

> <Gold.Chemscore.DEClash>
0.1205

> <Gold.Chemscore.DEInternal>
1.8978

> <Gold.Chemscore.Rot>
1.9129

> <Gold.Chemscore.Internal.Correction>
   9.000000E+99

> <Gold.Chemscore.Hbonds>
donor molecule, donor type, donor heavy atom, donor atom, acceptor molecule, acceptor atom, score
      L1  H     7    27       P1  8028  0.85
      P1  H  7989  7998       L1    17  0.22

> <Gold.Chemscore.Hbond.Weighted>
-5.5090

> <Gold.Chemscore.Metal.Weighted>
-0.0000

> <Gold.Chemscore.Lipo.Weighted>
-8.4794

> <Gold.Chemscore.Internal_Hbond.Weighted>
0.0000

> <Gold.Chemscore.DEClash.Weighted>
0.1205

> <Gold.Chemscore.DEInternal.Weighted>
1.8978

> <Gold.Chemscore.Rot.Weighted>
4.8970

> <Gold.Chemscore.Internal.Correction.Weighted>
   9.000000E+99

> <Gold.Protein.RotatedTorsions>
[ 6907 6896 6895 6894 ] final -158.68 input  -60.11 | X-H torsion
[ 7974 7965 7964 7962 ] final   -2.67 input  175.53 | X-H torsion
[ 8008 7997 7996 7995 ] final  143.41 input   59.86 | X-H torsion
[ 10167 10162 10161 10158 ] final  -99.49 input  -65.29 | X-H torsion
[ 10718 10713 10712 10709 ] final   64.73 input   66.30 | X-H torsion
[ 10763 10752 10751 10750 ] final  -19.02 input  -60.55 | X-H torsion
[ 11005 11000 10999 10996 ] final -112.76 input  -57.11 | X-H torsion

> <Gold.Protein.ActiveResidues>
 VAL166  LYS551  ARG553  GLY616  TRP617  ASP618  TYR619  PRO620  LYS621  CYS622 
 ASP623  PHE694  ASN695  SER759  ASP760  ASP761  ALA762  ILE779  LEU786  VAL792 
 PHE793  MET794  SER795  GLU796  ALA797  LYS798  CYS799  TRP800  GLU811  SER814 

> <Gold.Protein.RotatedAtoms>
  151.3219  133.4036  159.2654 H   0  0  0  0  0  0  0  0  0  0  0  0  # atno 6907 bound_to 6896
  151.0027  134.9336  159.7973 H   0  0  0  0  0  0  0  0  0  0  0  0  # atno 6908 bound_to 6896
  152.5279  134.3184  159.9191 H   0  0  0  0  0  0  0  0  0  0  0  0  # atno 6909 bound_to 6896
  146.2401  140.1606  142.8333 H   0  0  0  0  0  0  0  0  0  0  0  0  # atno 7974 bound_to 7965
  156.2930  140.2263  156.4887 H   0  0  0  0  0  0  0  0  0  0  0  0  # atno 8008 bound_to 7997
  154.7790  140.0461  157.1133 H   0  0  0  0  0  0  0  0  0  0  0  0  # atno 8009 bound_to 7997
  154.9782  140.3075  155.4961 H   0  0  0  0  0  0  0  0  0  0  0  0  # atno 8010 bound_to 7997
  140.2619  143.3402  152.0618 H   0  0  0  0  0  0  0  0  0  0  0  0  # atno 10167 bound_to 10162
  157.6059  130.9176  149.9884 H   0  0  0  0  0  0  0  0  0  0  0  0  # atno 10718 bound_to 10713
  153.5984  135.7000  153.5394 H   0  0  0  0  0  0  0  0  0  0  0  0  # atno 10763 bound_to 10752
  153.3118  135.4099  155.1342 H   0  0  0  0  0  0  0  0  0  0  0  0  # atno 10764 bound_to 10752
  154.8587  135.3674  154.5518 H   0  0  0  0  0  0  0  0  0  0  0  0  # atno 10765 bound_to 10752
  141.0655  133.9465  157.2586 H   0  0  0  0  0  0  0  0  0  0  0  0  # atno 11005 bound_to 11000
  145.0092  140.8700  143.5234 LP  0  0  0  0  0  0  0  0  0  0  0  0  # atno 17320 bound_to 7965
  145.1637  139.2444  143.5378 LP  0  0  0  0  0  0  0  0  0  0  0  0  # atno 17321 bound_to 7965
  139.5014  144.6713  151.6235 LP  0  0  0  0  0  0  0  0  0  0  0  0  # atno 17342 bound_to 10162
  140.5959  143.9697  150.6354 LP  0  0  0  0  0  0  0  0  0  0  0  0  # atno 17343 bound_to 10162
  156.1145  130.3648  149.9991 LP  0  0  0  0  0  0  0  0  0  0  0  0  # atno 17370 bound_to 10713
  156.8083  130.9315  151.3644 LP  0  0  0  0  0  0  0  0  0  0  0  0  # atno 17371 bound_to 10713
  139.9473  135.0182  156.8889 LP  0  0  0  0  0  0  0  0  0  0  0  0  # atno 17394 bound_to 11000
  140.5781  134.0378  155.7454 LP  0  0  0  0  0  0  0  0  0  0  0  0  # atno 17395 bound_to 11000

$$$$
