AV-unprocessed.smi:391|AV-procd|sdf|2479|dock3
  -GOLD-   2262022423D 1   1.00000     0.00000
 Structure written by MMmdl.
 36 37  0  0  0  0  0  0  0  0  1 V2000
  155.8268  139.8713  162.2730 C   0  0  0  0  0  0  0  0  0  0  0  0
  155.6448  139.4829  160.7999 C   0  0  0  0  0  0  0  0  0  0  0  0
  156.3527  140.4725  159.8609 C   0  0  0  0  0  0  0  0  0  0  0  0
  154.2201  139.4149  160.4888 N   0  0  0  0  0  0  0  0  0  0  0  0
  153.6971  139.1877  159.2743 C   0  0  0  0  0  0  0  0  0  0  0  0
  154.3825  138.9954  158.2687 O   0  0  0  0  0  0  0  0  0  0  0  0
  152.1627  139.1747  159.2014 C   0  0  0  0  0  0  0  0  0  0  0  0
  151.5928  140.3565  158.5178 N   0  0  0  0  0  0  0  0  0  0  0  0
  151.0961  140.2108  157.1973 C   0  0  0  0  0  0  0  0  0  0  0  0
  151.1173  139.1190  156.6268 O   0  0  0  0  0  0  0  0  0  0  0  0
  150.5844  141.4324  156.5797 C   0  0  0  0  0  0  0  0  0  0  0  0
  150.1017  141.3328  155.2423 C   0  0  0  0  0  0  0  0  0  0  0  0
  149.6864  141.2553  154.1647 N   0  0  0  0  0  0  0  0  0  0  0  0
  150.5773  142.6013  157.2528 C   0  0  0  0  0  0  0  0  0  0  0  0
  151.0314  142.7135  158.5487 N   0  0  0  0  0  0  0  0  0  0  0  0
  151.1619  143.9928  159.1870 C   0  0  0  0  0  0  0  0  0  0  0  0
  152.0039  145.0843  158.5550 C   0  0  0  0  0  0  0  0  0  0  0  0
  152.4935  144.3760  159.7944 C   0  0  0  0  0  0  0  0  0  0  0  0
  151.6024  141.5978  159.1992 C   0  0  0  0  0  0  0  0  0  0  0  0
  152.1042  141.7002  160.3217 O   0  0  0  0  0  0  0  0  0  0  0  0
  156.8829  139.9020  162.5423 H   0  0  0  0  0  0  0  0  0  0  0  0
  155.3405  139.1509  162.9315 H   0  0  0  0  0  0  0  0  0  0  0  0
  155.4021  140.8540  162.4813 H   0  0  0  0  0  0  0  0  0  0  0  0
  156.0866  138.4945  160.6607 H   0  0  0  0  0  0  0  0  0  0  0  0
  157.4190  140.5272  160.0817 H   0  0  0  0  0  0  0  0  0  0  0  0
  155.9410  141.4775  159.9601 H   0  0  0  0  0  0  0  0  0  0  0  0
  156.2500  140.1723  158.8176 H   0  0  0  0  0  0  0  0  0  0  0  0
  153.5808  139.5582  161.2573 H   0  0  0  0  0  0  0  0  0  0  0  0
  151.8536  138.2461  158.7192 H   0  0  0  0  0  0  0  0  0  0  0  0
  151.7614  139.0927  160.2132 H   0  0  0  0  0  0  0  0  0  0  0  0
  150.1967  143.4853  156.7614 H   0  0  0  0  0  0  0  0  0  0  0  0
  150.2808  144.3309  159.7294 H   0  0  0  0  0  0  0  0  0  0  0  0
  152.5188  144.8640  157.6216 H   0  0  0  0  0  0  0  0  0  0  0  0
  151.6568  146.1095  158.6638 H   0  0  0  0  0  0  0  0  0  0  0  0
  152.4758  144.9303  160.7304 H   0  0  0  0  0  0  0  0  0  0  0  0
  153.3286  143.6879  159.6765 H   0  0  0  0  0  0  0  0  0  0  0  0
  1  2  1  0  0  0  0
  1 21  1  0  0  0  0
  1 22  1  0  0  0  0
  1 23  1  0  0  0  0
  2  3  1  0  0  0  0
  2  4  1  0  0  0  0
  2 24  1  0  0  0  0
  3 25  1  0  0  0  0
  3 26  1  0  0  0  0
  3 27  1  0  0  0  0
  4  5  1  0  0  0  0
  4 28  1  0  0  0  0
  5  6  2  0  0  0  0
  5  7  1  0  0  0  0
  7  8  1  0  0  0  0
  7 29  1  0  0  0  0
  7 30  1  0  0  0  0
  8 19  1  0  0  0  0
  8  9  1  0  0  0  0
  9 10  2  0  0  0  0
  9 11  1  0  0  0  0
 11 12  1  0  0  0  0
 11 14  2  0  0  0  0
 12 13  3  0  0  0  0
 14 15  1  0  0  0  0
 14 31  1  0  0  0  0
 15 16  1  0  0  0  0
 15 19  1  0  0  0  0
 16 18  1  0  0  0  0
 16 17  1  0  0  0  0
 16 32  1  0  0  0  0
 17 18  1  0  0  0  0
 17 33  1  0  0  0  0
 17 34  1  0  0  0  0
 18 35  1  0  0  0  0
 18 36  1  0  0  0  0
 19 20  2  0  0  0  0
M  END
> <s_m_source_file>
AV-unprocessed.smi

> <i_m_source_file_index>
391

> <i_lp_mmshare_version>
43012

> <i_f3d_flags>
0

> <s_epik_input>
W0NIM11bQ0hdKFtDSDNdKVtOSF1DKD1PKVtDSDJdbjFjKD1PKWMoQyNOKVtjSF1uKGMxPU8pW0NIXTJbQ0gyXVtDSDJdMg==

> <s_epik_cmdline>
J2VwaWtfcHl0aG9uJywgJy1waCcsICc3LjAnLCAnLXRuJywgJzgnLCAnLW1hJywgJzIwMCcsICctbWV0YWxfYmluZGluZycsICctaW1hZScsICc8aW5maWxlLm1hZT4nLCAnLW9tYWUnLCAnPG91dGZpbGUubWFlPic=

> <r_lp_tautomer_probability>
1

> <r_epik_Ionization_Penalty>
2.07526e-08

> <r_epik_Ionization_Penalty_Charging>
8.22213e-11

> <r_epik_Ionization_Penalty_Neutral>
2.06703e-08

> <r_epik_State_Penalty>
-0

> <r_epik_Charging_Adjusted_Penalty>
8.22213e-11

> <i_epik_Tot_Q>
0

> <i_epik_Tot_abs_Q>
0

> <r_epik_Metal_State_Penalty>
-0

> <b_epik_Metal_Only>
0

> <s_lp_Force_Field>
OPLS_2005

> <r_lp_Energy>
27.641

> <b_lp_Chiralities_Consistent>
1

> <s_lp_Variant>
AV-unprocessed.smi:391-1

> <Gold.Version>
5.8.1

> <Gold.Id.Protein>
6NUR|6NUR_protein|mol2

> <Gold.PLP.Fitness>
42.6874

> <Gold.PLP.PLP>
-35.4960

> <Gold.PLP.part.hbond>
-3.1366

> <Gold.PLP.part.metal>
0.0000

> <Gold.PLP.part.buried>
-2.4515

> <Gold.PLP.part.nonpolar>
-28.3735

> <Gold.PLP.part.repulsive>
0.2264

> <Gold.PLP.ligand.clash>
0.0000

> <Gold.PLP.ligand.torsion>
0.5006

> <Gold.PLP.Chemscore.Hbond>
1.6544

> <Gold.PLP.Chemscore.CHOScore>
1.0000

> <Gold.PLP.Chemscore.Metal>
0.0000

> <Gold.Chemscore.Hbonds>
donor molecule, donor type, donor heavy atom, donor atom, acceptor molecule, acceptor atom, score
      P1  H  7989  7998       L1    13  0.17
      P1  H  7997  8010       L1     6  1.00
      P1  H  8011  8017       L1    13  0.48
      L1  C    14    31       P1  8028  1.00

> <Gold.PLP.Chemscore.Internal.Correction>
0.2293

> <Gold.Rescore>
     Score         DG    S(hbond)    S(metal)    S(lipo)     H(rot)  DE(clash)    DE(int)     intcor
     11.58     -14.70       1.48        0.00      76.55       1.82       0.28       2.84       ----

> <Gold.Chemscore.Fitness>
11.5750

> <Gold.Chemscore.DG>
-14.6992

> <Gold.Chemscore.ZeroCoef>
-5.4800

> <Gold.Chemscore.Hbond>
1.4761

> <Gold.Chemscore.Metal>
0.0000

> <Gold.Chemscore.Lipo>
76.5543

> <Gold.Chemscore.Internal_Hbond>
0.0000

> <Gold.Chemscore.DEClash>
0.2822

> <Gold.Chemscore.DEInternal>
2.8420

> <Gold.Chemscore.Rot>
1.8234

> <Gold.Chemscore.Internal.Correction>
   9.000000E+99

> <Gold.Chemscore.Hbonds>
donor molecule, donor type, donor heavy atom, donor atom, acceptor molecule, acceptor atom, score
      P1  H  7989  7998       L1    13  0.01
      P1  H  7997  8010       L1     6  0.94
      P1  H  8011  8017       L1    13  0.48

> <Gold.Chemscore.Hbond.Weighted>
-4.9303

> <Gold.Chemscore.Metal.Weighted>
-0.0000

> <Gold.Chemscore.Lipo.Weighted>
-8.9569

> <Gold.Chemscore.Internal_Hbond.Weighted>
0.0000

> <Gold.Chemscore.DEClash.Weighted>
0.2822

> <Gold.Chemscore.DEInternal.Weighted>
2.8420

> <Gold.Chemscore.Rot.Weighted>
4.6680

> <Gold.Chemscore.Internal.Correction.Weighted>
   9.000000E+99

> <Gold.Protein.RotatedTorsions>
[ 6907 6896 6895 6894 ] final -125.47 input  -60.11 | X-H torsion
[ 7974 7965 7964 7962 ] final  -65.54 input  175.53 | X-H torsion
[ 8008 7997 7996 7995 ] final   27.36 input   59.86 | X-H torsion
[ 10167 10162 10161 10158 ] final  -85.67 input  -65.29 | X-H torsion
[ 10718 10713 10712 10709 ] final  -41.25 input   66.30 | X-H torsion
[ 10763 10752 10751 10750 ] final  -36.28 input  -60.55 | X-H torsion
[ 11005 11000 10999 10996 ] final  -48.69 input  -57.11 | X-H torsion

> <Gold.Protein.ActiveResidues>
 VAL166  LYS551  ARG553  GLY616  TRP617  ASP618  TYR619  PRO620  LYS621  CYS622 
 ASP623  PHE694  ASN695  SER759  ASP760  ASP761  ALA762  ILE779  LEU786  VAL792 
 PHE793  MET794  SER795  GLU796  ALA797  LYS798  CYS799  TRP800  GLU811  SER814 

> <Gold.Protein.RotatedAtoms>
  150.8871  133.7293  159.2914 H   0  0  0  0  0  0  0  0  0  0  0  0  # atno 6907 bound_to 6896
  151.4855  135.1053  159.9799 H   0  0  0  0  0  0  0  0  0  0  0  0  # atno 6908 bound_to 6896
  152.4797  133.8177  159.7092 H   0  0  0  0  0  0  0  0  0  0  0  0  # atno 6909 bound_to 6896
  145.7530  140.8899  143.0470 H   0  0  0  0  0  0  0  0  0  0  0  0  # atno 7974 bound_to 7965
  155.0416  140.3170  155.4722 H   0  0  0  0  0  0  0  0  0  0  0  0  # atno 8008 bound_to 7997
  156.2853  140.2162  156.5484 H   0  0  0  0  0  0  0  0  0  0  0  0  # atno 8009 bound_to 7997
  154.7285  140.0483  157.0692 H   0  0  0  0  0  0  0  0  0  0  0  0  # atno 8010 bound_to 7997
  140.4015  143.2660  151.9136 H   0  0  0  0  0  0  0  0  0  0  0  0  # atno 10167 bound_to 10162
  156.2724  130.4208  149.8423 H   0  0  0  0  0  0  0  0  0  0  0  0  # atno 10718 bound_to 10713
  153.8771  135.6825  153.4770 H   0  0  0  0  0  0  0  0  0  0  0  0  # atno 10763 bound_to 10752
  153.1255  135.4721  154.9262 H   0  0  0  0  0  0  0  0  0  0  0  0  # atno 10764 bound_to 10752
  154.7687  135.3232  154.8186 H   0  0  0  0  0  0  0  0  0  0  0  0  # atno 10765 bound_to 10752
  141.0716  133.6677  156.3478 H   0  0  0  0  0  0  0  0  0  0  0  0  # atno 11005 bound_to 11000
  144.6846  139.9617  143.7480 LP  0  0  0  0  0  0  0  0  0  0  0  0  # atno 17320 bound_to 7965
  146.0338  139.3359  143.0739 LP  0  0  0  0  0  0  0  0  0  0  0  0  # atno 17321 bound_to 7965
  139.4784  144.5628  151.8212 LP  0  0  0  0  0  0  0  0  0  0  0  0  # atno 17342 bound_to 10162
  140.4734  144.1553  150.5921 LP  0  0  0  0  0  0  0  0  0  0  0  0  # atno 17343 bound_to 10162
  156.5900  130.8502  151.3405 LP  0  0  0  0  0  0  0  0  0  0  0  0  # atno 17370 bound_to 10713
  157.7288  130.9662  150.1760 LP  0  0  0  0  0  0  0  0  0  0  0  0  # atno 17371 bound_to 10713
  140.5662  134.5885  157.5446 LP  0  0  0  0  0  0  0  0  0  0  0  0  # atno 17394 bound_to 11000
  139.9529  134.7586  156.0407 LP  0  0  0  0  0  0  0  0  0  0  0  0  # atno 17395 bound_to 11000

$$$$
