AV-unprocessed.smi:1213|AV-procd|sdf|5091|dock5
  -GOLD-   22720 4143D 1   1.00000     0.00000
 Structure written by MMmdl.
 36 37  0  0  0  0  0  0  0  0  3 V2000
  144.9614  138.2860  152.3311 N   0  0  0  0  0  0  0  0  0  0  0  0
  146.2841  138.1873  152.4841 C   0  0  0  0  0  0  0  0  0  0  0  0
  147.0627  138.2874  151.5374 O   0  0  0  0  0  0  0  0  0  0  0  0
  146.8004  137.9652  153.9095 C   0  0  0  0  0  0  0  0  0  0  0  0
  148.2645  137.7189  153.9677 N   0  3  2  0  0  0  0  0  0  0  0  0
  148.6746  136.9295  155.1602 C   0  0  0  0  0  0  0  0  0  0  0  0
  150.1755  136.5933  155.1153 C   0  0  0  0  0  0  0  0  0  0  0  0
  151.0415  137.8618  154.9845 C   0  0  2  0  0  0  0  0  0  0  0  0
  150.9892  138.6798  156.1958 N   0  0  0  0  0  0  0  0  0  0  0  0
  151.6238  139.8424  156.4001 C   0  0  0  0  0  0  0  0  0  0  0  0
  152.3237  140.3281  155.5090 O   0  0  0  0  0  0  0  0  0  0  0  0
  151.4112  140.3620  157.6298 N   0  5  0  0  0  0  0  0  0  0  0  0
  151.5732  141.6782  157.8410 C   0  0  0  0  0  0  0  0  0  0  0  0
  150.9281  142.6146  157.1363 N   0  0  0  0  0  0  0  0  0  0  0  0
  151.2383  143.9174  157.5306 C   0  0  0  0  0  0  0  0  0  0  0  0
  152.1352  143.9741  158.5642 C   0  0  0  0  0  0  0  0  0  0  0  0
  152.6185  142.3829  159.0778 S   0  0  0  0  0  0  0  0  0  0  0  0
  150.5637  138.6811  153.7740 C   0  0  0  0  0  0  0  0  0  0  0  0
  149.0524  138.9719  153.8387 C   0  0  0  0  0  0  0  0  0  0  0  0
  144.5730  138.4344  151.4104 H   0  0  0  0  0  0  0  0  0  0  0  0
  144.3508  138.2142  153.1324 H   0  0  0  0  0  0  0  0  0  0  0  0
  146.5578  138.8684  154.4710 H   0  0  0  0  0  0  0  0  0  0  0  0
  146.2642  137.1449  154.3898 H   0  0  0  0  0  0  0  0  0  0  0  0
  148.4400  137.4878  156.0680 H   0  0  0  0  0  0  0  0  0  0  0  0
  148.1050  136.0012  155.2093 H   0  0  0  0  0  0  0  0  0  0  0  0
  150.4573  136.0239  156.0017 H   0  0  0  0  0  0  0  0  0  0  0  0
  150.3693  135.9383  154.2649 H   0  0  0  0  0  0  0  0  0  0  0  0
  152.0797  137.5713  154.8147 H   0  0  0  0  0  0  0  0  0  0  0  0
  150.4190  138.3352  156.9539 H   0  0  0  0  0  0  0  0  0  0  0  0
  150.7718  144.7465  157.0197 H   0  0  0  0  0  0  0  0  0  0  0  0
  152.5370  144.8480  159.0539 H   0  0  0  0  0  0  0  0  0  0  0  0
  151.1225  139.6155  153.7064 H   0  0  0  0  0  0  0  0  0  0  0  0
  150.7832  138.1302  152.8583 H   0  0  0  0  0  0  0  0  0  0  0  0
  148.7547  139.5011  152.9329 H   0  0  0  0  0  0  0  0  0  0  0  0
  148.8262  139.6322  154.6776 H   0  0  0  0  0  0  0  0  0  0  0  0
  148.4874  137.1602  153.1560 H   0  0  0  0  0  0  0  0  0  0  0  0
  1  2  1  0  0  0  0
  1 20  1  0  0  0  0
  1 21  1  0  0  0  0
  2  3  2  0  0  0  0
  2  4  1  0  0  0  0
  4  5  1  0  0  0  0
  4 22  1  0  0  0  0
  4 23  1  0  0  0  0
  5 19  1  0  0  0  0
  5  6  1  0  0  0  0
  5 36  1  0  0  0  0
  6  7  1  0  0  0  0
  6 24  1  0  0  0  0
  6 25  1  0  0  0  0
  7  8  1  0  0  0  0
  7 26  1  0  0  0  0
  7 27  1  0  0  0  0
  8  9  1  0  0  0  0
  8 18  1  0  0  0  0
  8 28  1  0  0  0  0
  9 10  1  0  0  0  0
  9 29  1  0  0  0  0
 10 11  2  0  0  0  0
 10 12  1  0  0  0  0
 12 13  1  0  0  0  0
 13 17  1  0  0  0  0
 13 14  2  0  0  0  0
 14 15  1  0  0  0  0
 15 16  2  0  0  0  0
 15 30  1  0  0  0  0
 16 17  1  0  0  0  0
 16 31  1  0  0  0  0
 18 19  1  0  0  0  0
 18 32  1  0  0  0  0
 18 33  1  0  0  0  0
 19 34  1  0  0  0  0
 19 35  1  0  0  0  0
M  CHG  1   5   1
M  CHG  1  12  -1
M  END
> <s_m_source_file>
AV-unprocessed.smi

> <i_m_source_file_index>
1213

> <i_lp_mmshare_version>
43012

> <i_f3d_flags>
0

> <s_epik_input>
W05IMl1DKD1PKVtDSDJdTjFbQ0gyXVtDSDJdW0NIXShbQ0gyXVtDSDJdMSlbTkhdQyg9TylbTkhdYzJuW2NIXVtjSF1zMg==

> <s_epik_cmdline>
J2VwaWtfcHl0aG9uJywgJy1waCcsICc3LjAnLCAnLXRuJywgJzgnLCAnLW1hJywgJzIwMCcsICctbWV0YWxfYmluZGluZycsICctaW1hZScsICc8aW5maWxlLm1hZT4nLCAnLW9tYWUnLCAnPG91dGZpbGUubWFlPic=

> <r_lp_tautomer_probability>
0.999

> <r_epik_Ionization_Penalty>
7.1168

> <r_epik_Ionization_Penalty_Charging>
6.25003

> <r_epik_Ionization_Penalty_Neutral>
0.866763

> <r_epik_State_Penalty>
6.33484

> <r_epik_Charging_Adjusted_Penalty>
12.5849

> <i_epik_Tot_Q>
0

> <i_epik_Tot_abs_Q>
2

> <r_epik_Metal_State_Penalty>
2.3501

> <b_epik_Metal_Only>
1

> <s_lp_Force_Field>
OPLS_2005

> <r_lp_Energy>
4.12503

> <b_lp_Chiralities_Consistent>
1

> <s_lp_Variant>
AV-unprocessed.smi:1213-8

> <Gold.Version>
5.8.1

> <Gold.Id.Protein>
6NUR|6NUR_protein|mol2

> <Gold.PLP.Fitness>
45.1110

> <Gold.PLP.PLP>
-28.1340

> <Gold.PLP.part.hbond>
-5.6553

> <Gold.PLP.part.metal>
0.0000

> <Gold.PLP.part.buried>
-1.5654

> <Gold.PLP.part.nonpolar>
-24.6012

> <Gold.PLP.part.repulsive>
3.3271

> <Gold.PLP.ligand.clash>
0.0000

> <Gold.PLP.ligand.torsion>
0.8932

> <Gold.PLP.Chemscore.Hbond>
5.2309

> <Gold.PLP.Chemscore.CHOScore>
0.9968

> <Gold.PLP.Chemscore.Metal>
0.0000

> <Gold.Chemscore.Hbonds>
donor molecule, donor type, donor heavy atom, donor atom, acceptor molecule, acceptor atom, score
      L1  H     1    20       P1 10171  1.00
      L1  H     5    36       P1  7948  2.00
      P1  H  7954  7966       L1     3  1.00
      P1  H  7989  7998       L1    11  0.37
      P1  H  7997  8010       L1    11  0.75
      L1  C    15    30       P1  8028  0.99

> <Gold.PLP.Chemscore.Internal.Correction>
0.0801

> <Gold.Rescore>
     Score         DG    S(hbond)    S(metal)    S(lipo)     H(rot)  DE(clash)    DE(int)     intcor
     18.76     -21.34       3.95        0.00      67.38       2.04       1.52       1.05       ----

> <Gold.Chemscore.Fitness>
18.7588

> <Gold.Chemscore.DG>
-21.3371

> <Gold.Chemscore.ZeroCoef>
-5.4800

> <Gold.Chemscore.Hbond>
3.9486

> <Gold.Chemscore.Metal>
0.0000

> <Gold.Chemscore.Lipo>
67.3846

> <Gold.Chemscore.Internal_Hbond>
0.0000

> <Gold.Chemscore.DEClash>
1.5234

> <Gold.Chemscore.DEInternal>
1.0549

> <Gold.Chemscore.Rot>
2.0373

> <Gold.Chemscore.Internal.Correction>
   9.000000E+99

> <Gold.Chemscore.Hbonds>
donor molecule, donor type, donor heavy atom, donor atom, acceptor molecule, acceptor atom, score
      L1  H     1    20       P1 10171  1.00
      L1  H     5    36       P1  7948  1.00
      P1  H  7954  7966       L1     3  0.94
      P1  H  7989  7998       L1    11  0.37
      P1  H  7997  8010       L1    11  0.48

> <Gold.Chemscore.Hbond.Weighted>
-13.1885

> <Gold.Chemscore.Metal.Weighted>
-0.0000

> <Gold.Chemscore.Lipo.Weighted>
-7.8840

> <Gold.Chemscore.Internal_Hbond.Weighted>
0.0000

> <Gold.Chemscore.DEClash.Weighted>
1.5234

> <Gold.Chemscore.DEInternal.Weighted>
1.0549

> <Gold.Chemscore.Rot.Weighted>
5.2154

> <Gold.Chemscore.Internal.Correction.Weighted>
   9.000000E+99

> <Gold.Protein.RotatedTorsions>
[ 6907 6896 6895 6894 ] final -108.82 input  -60.11 | X-H torsion
[ 7974 7965 7964 7962 ] final   96.64 input  175.53 | X-H torsion
[ 8008 7997 7996 7995 ] final   89.13 input   59.86 | X-H torsion
[ 10167 10162 10161 10158 ] final -169.12 input  -65.29 | X-H torsion
[ 10718 10713 10712 10709 ] final  129.25 input   66.30 | X-H torsion
[ 10763 10752 10751 10750 ] final   51.21 input  -60.55 | X-H torsion
[ 11005 11000 10999 10996 ] final  -68.16 input  -57.11 | X-H torsion

> <Gold.Protein.ActiveResidues>
 VAL166  LYS551  ARG553  GLY616  TRP617  ASP618  TYR619  PRO620  LYS621  CYS622 
 ASP623  PHE694  ASN695  SER759  ASP760  ASP761  ALA762  ILE779  LEU786  VAL792 
 PHE793  MET794  SER795  GLU796  ALA797  LYS798  CYS799  TRP800  GLU811  SER814 

> <Gold.Protein.RotatedAtoms>
  150.7525  133.9620  159.3518 H   0  0  0  0  0  0  0  0  0  0  0  0  # atno 6907 bound_to 6896
  151.7547  135.0822  160.0345 H   0  0  0  0  0  0  0  0  0  0  0  0  # atno 6908 bound_to 6896
  152.3443  133.6066  159.5935 H   0  0  0  0  0  0  0  0  0  0  0  0  # atno 6909 bound_to 6896
  145.4361  139.2305  143.3117 H   0  0  0  0  0  0  0  0  0  0  0  0  # atno 7974 bound_to 7965
  155.9962  140.3364  155.6800 H   0  0  0  0  0  0  0  0  0  0  0  0  # atno 8008 bound_to 7997
  155.6353  140.0689  157.2654 H   0  0  0  0  0  0  0  0  0  0  0  0  # atno 8009 bound_to 7997
  154.4234  140.1752  156.1503 H   0  0  0  0  0  0  0  0  0  0  0  0  # atno 8010 bound_to 7997
  139.5942  144.1147  152.1670 H   0  0  0  0  0  0  0  0  0  0  0  0  # atno 10167 bound_to 10162
  157.5171  131.1097  150.9208 H   0  0  0  0  0  0  0  0  0  0  0  0  # atno 10718 bound_to 10713
  152.9785  135.5853  154.4377 H   0  0  0  0  0  0  0  0  0  0  0  0  # atno 10763 bound_to 10752
  154.3983  135.2768  155.2114 H   0  0  0  0  0  0  0  0  0  0  0  0  # atno 10764 bound_to 10752
  154.3957  135.6115  153.5922 H   0  0  0  0  0  0  0  0  0  0  0  0  # atno 10765 bound_to 10752
  141.1525  133.6734  156.6403 H   0  0  0  0  0  0  0  0  0  0  0  0  # atno 11005 bound_to 11000
  146.2581  140.5104  142.8865 LP  0  0  0  0  0  0  0  0  0  0  0  0  # atno 17320 bound_to 7965
  144.8151  140.6454  143.6389 LP  0  0  0  0  0  0  0  0  0  0  0  0  # atno 17321 bound_to 7965
  140.0729  144.5764  150.7179 LP  0  0  0  0  0  0  0  0  0  0  0  0  # atno 17342 bound_to 10162
  140.7198  143.2578  151.4315 LP  0  0  0  0  0  0  0  0  0  0  0  0  # atno 17343 bound_to 10162
  156.9830  130.5534  149.5297 LP  0  0  0  0  0  0  0  0  0  0  0  0  # atno 17370 bound_to 10713
  156.0328  130.5418  150.8578 LP  0  0  0  0  0  0  0  0  0  0  0  0  # atno 17371 bound_to 10713
  140.3399  134.7858  157.4389 LP  0  0  0  0  0  0  0  0  0  0  0  0  # atno 17394 bound_to 11000
  140.0947  134.5554  155.8410 LP  0  0  0  0  0  0  0  0  0  0  0  0  # atno 17395 bound_to 11000

$$$$
