AV-unprocessed.smi:1885|AV-procd|sdf|7651|dock9
  -GOLD-   22720 9383D 1   1.00000     0.00000
 Structure written by MMmdl.
 43 45  0  0  0  0  0  0  0  0  1 V2000
  152.5012  143.7943  161.7497 C   0  0  0  0  0  0  0  0  0  0  0  0
  153.0189  142.6550  161.0784 O   0  0  0  0  0  0  0  0  0  0  0  0
  152.5126  142.3515  159.8328 C   0  0  0  0  0  0  0  0  0  0  0  0
  151.7884  143.2631  159.0235 C   0  0  0  0  0  0  0  0  0  0  0  0
  151.3001  142.8662  157.7634 C   0  0  0  0  0  0  0  0  0  0  0  0
  151.5214  141.5551  157.2956 C   0  0  0  0  0  0  0  0  0  0  0  0
  150.9848  141.1226  155.9458 C   0  0  0  0  0  0  0  0  0  0  0  0
  151.2114  139.7414  155.7196 O   0  0  0  0  0  0  0  0  0  0  0  0
  150.5144  139.2385  154.5916 C   0  0  0  0  0  0  0  0  0  0  0  0
  150.6332  137.7029  154.5417 C   0  0  1  0  0  0  0  0  0  0  0  0
  151.9970  137.3390  154.5122 O   0  0  0  0  0  0  0  0  0  0  0  0
  149.9101  136.9443  155.6762 C   0  0  0  0  0  0  0  0  0  0  0  0
  150.3983  135.5872  155.8529 N   0  0  0  0  0  0  0  0  0  0  0  0
  151.3757  135.1799  156.6856 C   0  0  0  0  0  0  0  0  0  0  0  0
  151.6794  133.8851  156.6813 N   0  0  0  0  0  0  0  0  0  0  0  0
  150.7878  133.3913  155.7444 C   0  0  0  0  0  0  0  0  0  0  0  0
  150.5941  132.0749  155.2680 C   0  0  0  0  0  0  0  0  0  0  0  0
  149.6066  131.8026  154.2985 C   0  0  0  0  0  0  0  0  0  0  0  0
  149.4348  130.5355  153.8526 F   0  0  0  0  0  0  0  0  0  0  0  0
  148.7975  132.8410  153.7921 C   0  0  0  0  0  0  0  0  0  0  0  0
  147.8505  132.5707  152.8628 F   0  0  0  0  0  0  0  0  0  0  0  0
  148.9752  134.1610  154.2482 C   0  0  0  0  0  0  0  0  0  0  0  0
  149.9640  134.4294  155.2137 C   0  0  0  0  0  0  0  0  0  0  0  0
  152.2503  140.6485  158.0906 C   0  0  0  0  0  0  0  0  0  0  0  0
  152.7389  141.0464  159.3495 C   0  0  0  0  0  0  0  0  0  0  0  0
  152.9852  143.8896  162.7216 H   0  0  0  0  0  0  0  0  0  0  0  0
  151.4281  143.7008  161.9232 H   0  0  0  0  0  0  0  0  0  0  0  0
  152.6995  144.7102  161.1916 H   0  0  0  0  0  0  0  0  0  0  0  0
  151.5906  144.2733  159.3481 H   0  0  0  0  0  0  0  0  0  0  0  0
  150.7455  143.5721  157.1625 H   0  0  0  0  0  0  0  0  0  0  0  0
  149.9154  141.3361  155.9015 H   0  0  0  0  0  0  0  0  0  0  0  0
  151.4678  141.7109  155.1646 H   0  0  0  0  0  0  0  0  0  0  0  0
  149.4599  139.5059  154.6776 H   0  0  0  0  0  0  0  0  0  0  0  0
  150.8826  139.6950  153.6713 H   0  0  0  0  0  0  0  0  0  0  0  0
  150.2145  137.3742  153.5897 H   0  0  0  0  0  0  0  0  0  0  0  0
  152.4262  137.8462  153.8398 H   0  0  0  0  0  0  0  0  0  0  0  0
  150.0204  137.4783  156.6207 H   0  0  0  0  0  0  0  0  0  0  0  0
  148.8400  136.8985  155.4713 H   0  0  0  0  0  0  0  0  0  0  0  0
  151.9007  135.8761  157.3235 H   0  0  0  0  0  0  0  0  0  0  0  0
  151.2060  131.2713  155.6499 H   0  0  0  0  0  0  0  0  0  0  0  0
  148.3629  134.9573  153.8524 H   0  0  0  0  0  0  0  0  0  0  0  0
  152.4309  139.6429  157.7398 H   0  0  0  0  0  0  0  0  0  0  0  0
  153.2908  140.3407  159.9530 H   0  0  0  0  0  0  0  0  0  0  0  0
  1  2  1  0  0  0  0
  1 26  1  0  0  0  0
  1 27  1  0  0  0  0
  1 28  1  0  0  0  0
  2  3  1  0  0  0  0
  3 25  1  0  0  0  0
  3  4  2  0  0  0  0
  4  5  1  0  0  0  0
  4 29  1  0  0  0  0
  5  6  2  0  0  0  0
  5 30  1  0  0  0  0
  6  7  1  0  0  0  0
  6 24  1  0  0  0  0
  7  8  1  0  0  0  0
  7 31  1  0  0  0  0
  7 32  1  0  0  0  0
  8  9  1  0  0  0  0
  9 10  1  0  0  0  0
  9 33  1  0  0  0  0
  9 34  1  0  0  0  0
 10 11  1  0  0  0  0
 10 12  1  0  0  0  0
 10 35  1  0  0  0  0
 11 36  1  0  0  0  0
 12 13  1  0  0  0  0
 12 37  1  0  0  0  0
 12 38  1  0  0  0  0
 13 23  1  0  0  0  0
 13 14  1  0  0  0  0
 14 15  2  0  0  0  0
 14 39  1  0  0  0  0
 15 16  1  0  0  0  0
 16 23  2  0  0  0  0
 16 17  1  0  0  0  0
 17 18  2  0  0  0  0
 17 40  1  0  0  0  0
 18 19  1  0  0  0  0
 18 20  1  0  0  0  0
 20 21  1  0  0  0  0
 20 22  2  0  0  0  0
 22 23  1  0  0  0  0
 22 41  1  0  0  0  0
 24 25  2  0  0  0  0
 24 42  1  0  0  0  0
 25 43  1  0  0  0  0
M  END
> <s_m_source_file>
AV-unprocessed.smi

> <i_m_source_file_index>
1885

> <i_lp_mmshare_version>
43012

> <i_f3d_flags>
0

> <s_epik_input>
W0NIM11PYzFbY0hdW2NIXWMoW2NIXVtjSF0xKVtDSDJdT1tDSDJdW0NASF0oW09IXSlbQ0gyXW4oW2NIXW4yKWMoYzIzKVtjSF1jKEYpYyhGKVtjSF0z

> <s_epik_cmdline>
J2VwaWtfcHl0aG9uJywgJy1waCcsICc3LjAnLCAnLXRuJywgJzgnLCAnLW1hJywgJzIwMCcsICctbWV0YWxfYmluZGluZycsICctaW1hZScsICc8aW5maWxlLm1hZT4nLCAnLW9tYWUnLCAnPG91dGZpbGUubWFlPic=

> <r_lp_tautomer_probability>
1

> <r_epik_Ionization_Penalty>
0.0160256

> <r_epik_Ionization_Penalty_Charging>
0

> <r_epik_Ionization_Penalty_Neutral>
0.0160256

> <r_epik_State_Penalty>
0.0126263

> <r_epik_Charging_Adjusted_Penalty>
0.0126263

> <i_epik_Tot_Q>
0

> <i_epik_Tot_abs_Q>
0

> <r_epik_Metal_State_Penalty>
1.27616e-05

> <b_epik_Metal_Only>
0

> <s_lp_Force_Field>
OPLS_2005

> <r_lp_Energy>
16.1037

> <b_lp_Chiralities_Consistent>
1

> <s_lp_Variant>
AV-unprocessed.smi:1885-2

> <Gold.Version>
5.8.1

> <Gold.Id.Protein>
6NUR|6NUR_protein|mol2

> <Gold.PLP.Fitness>
53.1840

> <Gold.PLP.PLP>
-52.0655

> <Gold.PLP.part.hbond>
-1.4963

> <Gold.PLP.part.metal>
0.0000

> <Gold.PLP.part.buried>
-6.6138

> <Gold.PLP.part.nonpolar>
-43.0651

> <Gold.PLP.part.repulsive>
0.0320

> <Gold.PLP.ligand.clash>
0.0000

> <Gold.PLP.ligand.torsion>
0.9168

> <Gold.PLP.Chemscore.Hbond>
0.9120

> <Gold.PLP.Chemscore.CHOScore>
0.0000

> <Gold.PLP.Chemscore.Metal>
0.0000

> <Gold.Chemscore.Hbonds>
donor molecule, donor type, donor heavy atom, donor atom, acceptor molecule, acceptor atom, score
      P1  H 10752 10763       L1    11  0.90

> <Gold.PLP.Chemscore.Internal.Correction>
0.2161

> <Gold.Rescore>
     Score         DG    S(hbond)    S(metal)    S(lipo)     H(rot)  DE(clash)    DE(int)     intcor
     13.00     -13.92       0.50        0.00     122.19       2.93       0.03       0.90       ----

> <Gold.Chemscore.Fitness>
12.9972

> <Gold.Chemscore.DG>
-13.9248

> <Gold.Chemscore.ZeroCoef>
-5.4800

> <Gold.Chemscore.Hbond>
0.4963

> <Gold.Chemscore.Metal>
0.0000

> <Gold.Chemscore.Lipo>
122.1940

> <Gold.Chemscore.Internal_Hbond>
0.0000

> <Gold.Chemscore.DEClash>
0.0277

> <Gold.Chemscore.DEInternal>
0.8999

> <Gold.Chemscore.Rot>
2.9335

> <Gold.Chemscore.Internal.Correction>
   9.000000E+99

> <Gold.Chemscore.Hbonds>
donor molecule, donor type, donor heavy atom, donor atom, acceptor molecule, acceptor atom, score
      P1  H 10752 10763       L1    11  0.30

> <Gold.Chemscore.Hbond.Weighted>
-1.6577

> <Gold.Chemscore.Metal.Weighted>
-0.0000

> <Gold.Chemscore.Lipo.Weighted>
-14.2967

> <Gold.Chemscore.Internal_Hbond.Weighted>
0.0000

> <Gold.Chemscore.DEClash.Weighted>
0.0277

> <Gold.Chemscore.DEInternal.Weighted>
0.8999

> <Gold.Chemscore.Rot.Weighted>
7.5097

> <Gold.Chemscore.Internal.Correction.Weighted>
   9.000000E+99

> <Gold.Protein.RotatedTorsions>
[ 6907 6896 6895 6894 ] final  -37.31 input  -60.11 | X-H torsion
[ 7974 7965 7964 7962 ] final  126.62 input  175.53 | X-H torsion
[ 8008 7997 7996 7995 ] final   -4.10 input   59.86 | X-H torsion
[ 10167 10162 10161 10158 ] final -141.41 input  -65.29 | X-H torsion
[ 10718 10713 10712 10709 ] final   37.67 input   66.30 | X-H torsion
[ 10763 10752 10751 10750 ] final   48.74 input  -60.55 | X-H torsion
[ 11005 11000 10999 10996 ] final  176.90 input  -57.11 | X-H torsion

> <Gold.Protein.ActiveResidues>
 VAL166  LYS551  ARG553  GLY616  TRP617  ASP618  TYR619  PRO620  LYS621  CYS622 
 ASP623  PHE694  ASN695  SER759  ASP760  ASP761  ALA762  ILE779  LEU786  VAL792 
 PHE793  MET794  SER795  GLU796  ALA797  LYS798  CYS799  TRP800  GLU811  SER814 

> <Gold.Protein.RotatedAtoms>
  151.0163  134.9435  159.8034 H   0  0  0  0  0  0  0  0  0  0  0  0  # atno 6907 bound_to 6896
  152.5314  134.2962  159.9071 H   0  0  0  0  0  0  0  0  0  0  0  0  # atno 6908 bound_to 6896
  151.2969  133.4098  159.2671 H   0  0  0  0  0  0  0  0  0  0  0  0  # atno 6909 bound_to 6896
  145.0597  139.3815  143.5012 H   0  0  0  0  0  0  0  0  0  0  0  0  # atno 7974 bound_to 7965
  154.6178  140.2492  155.7587 H   0  0  0  0  0  0  0  0  0  0  0  0  # atno 8008 bound_to 7997
  156.2409  140.2933  156.0391 H   0  0  0  0  0  0  0  0  0  0  0  0  # atno 8009 bound_to 7997
  155.1945  140.0392  157.2897 H   0  0  0  0  0  0  0  0  0  0  0  0  # atno 8010 bound_to 7997
  139.8188  143.7603  152.2665 H   0  0  0  0  0  0  0  0  0  0  0  0  # atno 10167 bound_to 10162
  157.3496  130.7591  149.6969 H   0  0  0  0  0  0  0  0  0  0  0  0  # atno 10718 bound_to 10713
  152.9790  135.5934  154.3975 H   0  0  0  0  0  0  0  0  0  0  0  0  # atno 10763 bound_to 10752
  154.3624  135.2767  155.2314 H   0  0  0  0  0  0  0  0  0  0  0  0  # atno 10764 bound_to 10752
  154.4306  135.6037  153.6121 H   0  0  0  0  0  0  0  0  0  0  0  0  # atno 10765 bound_to 10752
  140.3782  134.6969  157.4435 H   0  0  0  0  0  0  0  0  0  0  0  0  # atno 11005 bound_to 11000
  146.3523  140.0289  142.8652 LP  0  0  0  0  0  0  0  0  0  0  0  0  # atno 17320 bound_to 7965
  145.1424  140.9578  143.4481 LP  0  0  0  0  0  0  0  0  0  0  0  0  # atno 17321 bound_to 7965
  139.7774  144.7456  151.0137 LP  0  0  0  0  0  0  0  0  0  0  0  0  # atno 17342 bound_to 10162
  140.7814  143.4579  151.0320 LP  0  0  0  0  0  0  0  0  0  0  0  0  # atno 17343 bound_to 10162
  155.9719  130.4144  150.4131 LP  0  0  0  0  0  0  0  0  0  0  0  0  # atno 17370 bound_to 10713
  157.2192  131.0478  151.2556 LP  0  0  0  0  0  0  0  0  0  0  0  0  # atno 17371 bound_to 10713
  140.0499  134.6146  155.8875 LP  0  0  0  0  0  0  0  0  0  0  0  0  # atno 17394 bound_to 11000
  141.1932  133.6578  156.5537 LP  0  0  0  0  0  0  0  0  0  0  0  0  # atno 17395 bound_to 11000

$$$$
