AV-unprocessed.smi:389|AV-procd|sdf|2476|dock4
  -GOLD-   2262022413D 1   1.00000     0.00000
 Structure written by MMmdl.
 34 34  0  0  0  0  0  0  0  0  1 V2000
  152.6149  142.9070  159.9766 C   0  0  0  0  0  0  0  0  0  0  0  0
  152.1303  144.0915  159.1272 C   0  0  0  0  0  0  0  0  0  0  0  0
  151.8309  145.3074  160.0194 C   0  0  0  0  0  0  0  0  0  0  0  0
  150.9150  143.6832  158.2638 C   0  0  0  0  0  0  0  0  0  0  0  0
  151.1224  142.4357  157.3790 C   0  0  0  0  0  0  0  0  0  0  0  0
  150.0909  142.3031  156.3559 N   0  0  0  0  0  0  0  0  0  0  0  0
  150.0714  141.3650  155.3972 C   0  0  0  0  0  0  0  0  0  0  0  0
  150.9010  140.4577  155.3232 O   0  0  0  0  0  0  0  0  0  0  0  0
  148.9347  141.4670  154.3710 C   0  0  0  0  0  0  0  0  0  0  0  0
  147.9277  140.4091  154.5393 N   0  0  0  0  0  0  0  0  0  0  0  0
  147.5317  139.6373  153.4561 C   0  0  0  0  0  0  0  0  0  0  0  0
  146.6019  138.6563  153.5403 C   0  0  0  0  0  0  0  0  0  0  0  0
  145.9547  138.3587  154.8135 C   0  0  0  0  0  0  0  0  0  0  0  0
  145.1028  137.4905  154.9902 O   0  0  0  0  0  0  0  0  0  0  0  0
  146.3785  139.1574  155.8790 N   0  0  0  0  0  0  0  0  0  0  0  0
  147.3355  140.1701  155.7994 C   0  0  0  0  0  0  0  0  0  0  0  0
  147.6350  140.8185  156.8019 O   0  0  0  0  0  0  0  0  0  0  0  0
  145.9557  138.9895  156.7804 H   0  0  0  0  0  0  0  0  0  0  0  0
  151.8427  142.5742  160.6708 H   0  0  0  0  0  0  0  0  0  0  0  0
  153.4953  143.1763  160.5610 H   0  0  0  0  0  0  0  0  0  0  0  0
  152.8875  142.0582  159.3486 H   0  0  0  0  0  0  0  0  0  0  0  0
  152.9547  144.3584  158.4653 H   0  0  0  0  0  0  0  0  0  0  0  0
  150.9935  145.1106  160.6894 H   0  0  0  0  0  0  0  0  0  0  0  0
  151.5860  146.1890  159.4275 H   0  0  0  0  0  0  0  0  0  0  0  0
  152.6941  145.5637  160.6341 H   0  0  0  0  0  0  0  0  0  0  0  0
  150.0618  143.5021  158.9190 H   0  0  0  0  0  0  0  0  0  0  0  0
  150.6224  144.5216  157.6307 H   0  0  0  0  0  0  0  0  0  0  0  0
  152.1059  142.4725  156.9079 H   0  0  0  0  0  0  0  0  0  0  0  0
  151.1165  141.5330  157.9896 H   0  0  0  0  0  0  0  0  0  0  0  0
  149.3640  143.0039  156.3480 H   0  0  0  0  0  0  0  0  0  0  0  0
  148.4775  142.4525  154.4700 H   0  0  0  0  0  0  0  0  0  0  0  0
  149.3374  141.4343  153.3564 H   0  0  0  0  0  0  0  0  0  0  0  0
  147.9810  139.8243  152.4911 H   0  0  0  0  0  0  0  0  0  0  0  0
  146.3343  138.0898  152.6602 H   0  0  0  0  0  0  0  0  0  0  0  0
  1  2  1  0  0  0  0
  1 19  1  0  0  0  0
  1 20  1  0  0  0  0
  1 21  1  0  0  0  0
  2  3  1  0  0  0  0
  2  4  1  0  0  0  0
  2 22  1  0  0  0  0
  3 23  1  0  0  0  0
  3 24  1  0  0  0  0
  3 25  1  0  0  0  0
  4  5  1  0  0  0  0
  4 26  1  0  0  0  0
  4 27  1  0  0  0  0
  5  6  1  0  0  0  0
  5 28  1  0  0  0  0
  5 29  1  0  0  0  0
  6  7  1  0  0  0  0
  6 30  1  0  0  0  0
  7  8  2  0  0  0  0
  7  9  1  0  0  0  0
  9 10  1  0  0  0  0
  9 31  1  0  0  0  0
  9 32  1  0  0  0  0
 10 16  1  0  0  0  0
 10 11  1  0  0  0  0
 11 12  2  0  0  0  0
 11 33  1  0  0  0  0
 12 13  1  0  0  0  0
 12 34  1  0  0  0  0
 13 14  2  0  0  0  0
 13 15  1  0  0  0  0
 15 18  1  0  0  0  0
 15 16  1  0  0  0  0
 16 17  2  0  0  0  0
M  END
> <s_m_source_file>
AV-unprocessed.smi

> <i_m_source_file_index>
389

> <i_lp_mmshare_version>
43012

> <i_f3d_flags>
0

> <s_epik_input>
W0NIM11bQ0hdKFtDSDNdKVtDSDJdW0NIMl1bTkhdQyg9TylbQ0gyXW4xW2NIXVtjSF1jKD1PKVtuSF1jMT1P

> <s_epik_cmdline>
J2VwaWtfcHl0aG9uJywgJy1waCcsICc3LjAnLCAnLXRuJywgJzgnLCAnLW1hJywgJzIwMCcsICctbWV0YWxfYmluZGluZycsICctaW1hZScsICc8aW5maWxlLm1hZT4nLCAnLW9tYWUnLCAnPG91dGZpbGUubWFlPic=

> <r_lp_tautomer_probability>
0.999537

> <r_epik_Ionization_Penalty>
0.00305319

> <r_epik_Ionization_Penalty_Charging>
0.00305317

> <r_epik_Ionization_Penalty_Neutral>
2.06703e-08

> <r_epik_State_Penalty>
0.00214626

> <r_epik_Charging_Adjusted_Penalty>
0.00519944

> <i_epik_Tot_Q>
0

> <i_epik_Tot_abs_Q>
0

> <r_epik_Metal_State_Penalty>
0.361976

> <b_epik_Metal_Only>
0

> <s_lp_Force_Field>
OPLS_2005

> <r_lp_Energy>
4.98151

> <b_lp_Chiralities_Consistent>
1

> <s_lp_Variant>
AV-unprocessed.smi:389-1

> <Gold.Version>
5.8.1

> <Gold.Id.Protein>
6NUR|6NUR_protein|mol2

> <Gold.PLP.Fitness>
39.3169

> <Gold.PLP.PLP>
-31.2132

> <Gold.PLP.part.hbond>
-2.0000

> <Gold.PLP.part.metal>
0.0000

> <Gold.PLP.part.buried>
-2.9108

> <Gold.PLP.part.nonpolar>
-26.1213

> <Gold.PLP.part.repulsive>
0.2085

> <Gold.PLP.ligand.clash>
0.0000

> <Gold.PLP.ligand.torsion>
0.2653

> <Gold.PLP.Chemscore.Hbond>
1.8720

> <Gold.PLP.Chemscore.CHOScore>
1.0000

> <Gold.PLP.Chemscore.Metal>
0.0000

> <Gold.Chemscore.Hbonds>
donor molecule, donor type, donor heavy atom, donor atom, acceptor molecule, acceptor atom, score
      L1  H     6    30       P1  8028  0.88
      P1  H  7989  7998       L1     8  0.89
      L1  C    11    33       P1  7957  1.00

> <Gold.PLP.Chemscore.Internal.Correction>
0.0183

> <Gold.Rescore>
     Score         DG    S(hbond)    S(metal)    S(lipo)     H(rot)  DE(clash)    DE(int)     intcor
     13.81     -14.09       1.58        0.00      77.61       2.24       0.11       0.17       ----

> <Gold.Chemscore.Fitness>
13.8105

> <Gold.Chemscore.DG>
-14.0862

> <Gold.Chemscore.ZeroCoef>
-5.4800

> <Gold.Chemscore.Hbond>
1.5761

> <Gold.Chemscore.Metal>
0.0000

> <Gold.Chemscore.Lipo>
77.6068

> <Gold.Chemscore.Internal_Hbond>
0.0000

> <Gold.Chemscore.DEClash>
0.1097

> <Gold.Chemscore.DEInternal>
0.1660

> <Gold.Chemscore.Rot>
2.2414

> <Gold.Chemscore.Internal.Correction>
   9.000000E+99

> <Gold.Chemscore.Hbonds>
donor molecule, donor type, donor heavy atom, donor atom, acceptor molecule, acceptor atom, score
      L1  H     6    30       P1  8028  0.86
      P1  H  7989  7998       L1     8  0.16

> <Gold.Chemscore.Hbond.Weighted>
-5.2642

> <Gold.Chemscore.Metal.Weighted>
-0.0000

> <Gold.Chemscore.Lipo.Weighted>
-9.0800

> <Gold.Chemscore.Internal_Hbond.Weighted>
0.0000

> <Gold.Chemscore.DEClash.Weighted>
0.1097

> <Gold.Chemscore.DEInternal.Weighted>
0.1660

> <Gold.Chemscore.Rot.Weighted>
5.7380

> <Gold.Chemscore.Internal.Correction.Weighted>
   9.000000E+99

> <Gold.Protein.RotatedTorsions>
[ 6907 6896 6895 6894 ] final   89.41 input  -60.11 | X-H torsion
[ 7974 7965 7964 7962 ] final  -93.43 input  175.53 | X-H torsion
[ 8008 7997 7996 7995 ] final -168.29 input   59.86 | X-H torsion
[ 10167 10162 10161 10158 ] final  150.00 input  -65.29 | X-H torsion
[ 10718 10713 10712 10709 ] final  -73.45 input   66.30 | X-H torsion
[ 10763 10752 10751 10750 ] final   91.21 input  -60.55 | X-H torsion
[ 11005 11000 10999 10996 ] final  -63.63 input  -57.11 | X-H torsion

> <Gold.Protein.ActiveResidues>
 VAL166  LYS551  ARG553  GLY616  TRP617  ASP618  TYR619  PRO620  LYS621  CYS622 
 ASP623  PHE694  ASN695  SER759  ASP760  ASP761  ALA762  ILE779  LEU786  VAL792 
 PHE793  MET794  SER795  GLU796  ALA797  LYS798  CYS799  TRP800  GLU811  SER814 

> <Gold.Protein.RotatedAtoms>
  152.5436  134.1970  159.8696 H   0  0  0  0  0  0  0  0  0  0  0  0  # atno 6907 bound_to 6896
  151.1962  133.4631  159.2603 H   0  0  0  0  0  0  0  0  0  0  0  0  # atno 6908 bound_to 6896
  151.1034  134.9998  159.8515 H   0  0  0  0  0  0  0  0  0  0  0  0  # atno 6909 bound_to 6896
  145.3866  140.9523  143.2364 H   0  0  0  0  0  0  0  0  0  0  0  0  # atno 7974 bound_to 7965
  155.8894  140.1022  157.1429 H   0  0  0  0  0  0  0  0  0  0  0  0  # atno 8008 bound_to 7997
  154.4013  140.1314  156.4360 H   0  0  0  0  0  0  0  0  0  0  0  0  # atno 8009 bound_to 7997
  155.7551  140.3464  155.5172 H   0  0  0  0  0  0  0  0  0  0  0  0  # atno 8010 bound_to 7997
  139.4855  144.5557  151.7322 H   0  0  0  0  0  0  0  0  0  0  0  0  # atno 10167 bound_to 10162
  156.0280  130.4394  150.2744 H   0  0  0  0  0  0  0  0  0  0  0  0  # atno 10718 bound_to 10713
  153.2058  135.4406  155.0321 H   0  0  0  0  0  0  0  0  0  0  0  0  # atno 10763 bound_to 10752
  154.8173  135.3321  154.7143 H   0  0  0  0  0  0  0  0  0  0  0  0  # atno 10764 bound_to 10752
  153.7584  135.6993  153.4986 H   0  0  0  0  0  0  0  0  0  0  0  0  # atno 10765 bound_to 10752
  141.1399  133.6654  156.5710 H   0  0  0  0  0  0  0  0  0  0  0  0  # atno 11005 bound_to 11000
  144.8470  139.5382  143.6874 LP  0  0  0  0  0  0  0  0  0  0  0  0  # atno 17320 bound_to 7965
  146.2817  139.6895  142.9224 LP  0  0  0  0  0  0  0  0  0  0  0  0  # atno 17321 bound_to 7965
  140.5118  144.1013  150.5997 LP  0  0  0  0  0  0  0  0  0  0  0  0  # atno 17342 bound_to 10162
  140.3942  143.2737  152.0025 LP  0  0  0  0  0  0  0  0  0  0  0  0  # atno 17343 bound_to 10162
  157.0847  131.0153  151.3143 LP  0  0  0  0  0  0  0  0  0  0  0  0  # atno 17370 bound_to 10713
  157.4900  130.7816  149.7498 LP  0  0  0  0  0  0  0  0  0  0  0  0  # atno 17371 bound_to 10713
  140.3913  134.7438  157.4723 LP  0  0  0  0  0  0  0  0  0  0  0  0  # atno 17394 bound_to 11000
  140.0564  134.6057  155.8800 LP  0  0  0  0  0  0  0  0  0  0  0  0  # atno 17395 bound_to 11000

$$$$
