AV-unprocessed.smi:1645|AV-procd|sdf|6619|dock10
  -GOLD-   22720 7313D 1   1.00000     0.00000
 Structure written by MMmdl.
 55 58  0  0  0  0  0  0  0  0  4 V2000
  148.2865  137.3848  158.3206 O   0  0  0  0  0  0  0  0  0  0  0  0
  148.1136  137.3770  157.0962 C   0  0  0  0  0  0  0  0  0  0  0  0
  148.4828  138.4341  156.3520 N   0  0  0  0  0  0  0  0  0  0  0  0
  149.0456  139.6654  156.7796 C   0  0  0  0  0  0  0  0  0  0  0  0
  149.8979  139.6489  157.9036 C   0  0  0  0  0  0  0  0  0  0  0  0
  150.4888  140.8490  158.3484 C   0  0  0  0  0  0  0  0  0  0  0  0
  150.2262  142.0501  157.6503 C   0  0  0  0  0  0  0  0  0  0  0  0
  150.7658  143.2891  158.0190 N   0  0  0  0  0  0  0  0  0  0  0  0
  152.2265  143.2922  158.0078 C   0  0  0  0  0  0  0  0  0  0  0  0
  152.7738  144.7115  158.2395 C   0  0  0  0  0  0  0  0  0  0  0  0
  152.1935  145.3212  159.5259 C   0  0  0  0  0  0  0  0  0  0  0  0
  150.6577  145.2700  159.4903 C   0  0  0  0  0  0  0  0  0  0  0  0
  150.1641  143.8358  159.2329 C   0  0  0  0  0  0  0  0  0  0  0  0
  149.4228  142.0212  156.5650 N   0  3  0  0  0  0  0  0  0  0  0  0
  148.8354  140.8940  156.1082 C   0  0  0  0  0  0  0  0  0  0  0  0
  147.5927  136.3738  156.3394 N   0  5  0  0  0  0  0  0  0  0  0  0
  148.2265  135.8224  155.1392 C   0  0  1  0  0  0  0  0  0  0  0  0
  149.5546  135.1194  155.4491 C   0  0  0  0  0  0  0  0  0  0  0  0
  149.6957  134.0556  154.3451 C   0  0  0  0  0  0  0  0  0  0  0  0
  148.4204  134.0759  153.5918 N   0  3  1  0  0  0  0  0  0  0  0  0
  148.0202  132.8135  152.9188 C   0  0  0  0  0  0  0  0  0  0  0  0
  147.3801  131.8040  153.8849 C   0  0  0  0  0  0  0  0  0  0  0  0
  146.2227  132.4513  154.6515 C   0  0  0  0  0  0  0  0  0  0  0  0
  146.7374  133.6784  155.4117 C   0  0  0  0  0  0  0  0  0  0  0  0
  147.3989  134.7151  154.4532 C   0  0  1  0  0  0  0  0  0  0  0  0
  148.4084  138.3089  155.3531 H   0  0  0  0  0  0  0  0  0  0  0  0
  150.0923  138.7249  158.4286 H   0  0  0  0  0  0  0  0  0  0  0  0
  151.1359  140.8415  159.2132 H   0  0  0  0  0  0  0  0  0  0  0  0
  152.5983  142.6214  158.7834 H   0  0  0  0  0  0  0  0  0  0  0  0
  152.5877  142.9081  157.0528 H   0  0  0  0  0  0  0  0  0  0  0  0
  153.8626  144.6882  158.2931 H   0  0  0  0  0  0  0  0  0  0  0  0
  152.5185  145.3444  157.3885 H   0  0  0  0  0  0  0  0  0  0  0  0
  152.5592  144.7684  160.3921 H   0  0  0  0  0  0  0  0  0  0  0  0
  152.5351  146.3498  159.6446 H   0  0  0  0  0  0  0  0  0  0  0  0
  150.2474  145.6442  160.4285 H   0  0  0  0  0  0  0  0  0  0  0  0
  150.2880  145.9305  158.7046 H   0  0  0  0  0  0  0  0  0  0  0  0
  149.0773  143.8292  159.1392 H   0  0  0  0  0  0  0  0  0  0  0  0
  150.4161  143.2026  160.0847 H   0  0  0  0  0  0  0  0  0  0  0  0
  148.2319  141.0182  155.2213 H   0  0  0  0  0  0  0  0  0  0  0  0
  148.4308  136.5982  154.3986 H   0  0  0  0  0  0  0  0  0  0  0  0
  150.3915  135.8183  155.4609 H   0  0  0  0  0  0  0  0  0  0  0  0
  149.5218  134.6305  156.4243 H   0  0  0  0  0  0  0  0  0  0  0  0
  150.5241  134.2744  153.6701 H   0  0  0  0  0  0  0  0  0  0  0  0
  149.8788  133.0756  154.7880 H   0  0  0  0  0  0  0  0  0  0  0  0
  147.3008  133.0666  152.1391 H   0  0  0  0  0  0  0  0  0  0  0  0
  148.8815  132.3746  152.4143 H   0  0  0  0  0  0  0  0  0  0  0  0
  147.0204  130.9373  153.3295 H   0  0  0  0  0  0  0  0  0  0  0  0
  148.1261  131.4313  154.5875 H   0  0  0  0  0  0  0  0  0  0  0  0
  145.4303  132.7437  153.9613 H   0  0  0  0  0  0  0  0  0  0  0  0
  145.7857  131.7345  155.3474 H   0  0  0  0  0  0  0  0  0  0  0  0
  145.9051  134.1363  155.9488 H   0  0  0  0  0  0  0  0  0  0  0  0
  147.4362  133.3311  156.1760 H   0  0  0  0  0  0  0  0  0  0  0  0
  146.6262  135.1547  153.8208 H   0  0  0  0  0  0  0  0  0  0  0  0
  148.5816  134.7448  152.8526 H   0  0  0  0  0  0  0  0  0  0  0  0
  149.2511  142.8930  156.0637 H   0  0  0  0  0  0  0  0  0  0  0  0
  1  2  2  0  0  0  0
  2  3  1  0  0  0  0
  2 16  1  0  0  0  0
  3  4  1  0  0  0  0
  3 26  1  0  0  0  0
  4 15  1  0  0  0  0
  4  5  2  0  0  0  0
  5  6  1  0  0  0  0
  5 27  1  0  0  0  0
  6  7  2  0  0  0  0
  6 28  1  0  0  0  0
  7  8  1  0  0  0  0
  7 14  1  0  0  0  0
  8 13  1  0  0  0  0
  8  9  1  0  0  0  0
  9 10  1  0  0  0  0
  9 29  1  0  0  0  0
  9 30  1  0  0  0  0
 10 11  1  0  0  0  0
 10 31  1  0  0  0  0
 10 32  1  0  0  0  0
 11 12  1  0  0  0  0
 11 33  1  0  0  0  0
 11 34  1  0  0  0  0
 12 13  1  0  0  0  0
 12 35  1  0  0  0  0
 12 36  1  0  0  0  0
 13 37  1  0  0  0  0
 13 38  1  0  0  0  0
 14 15  2  0  0  0  0
 14 55  1  0  0  0  0
 15 39  1  0  0  0  0
 16 17  1  0  0  0  0
 17 25  1  0  0  0  0
 17 18  1  0  0  0  0
 17 40  1  0  0  0  0
 18 19  1  0  0  0  0
 18 41  1  0  0  0  0
 18 42  1  0  0  0  0
 19 20  1  0  0  0  0
 19 43  1  0  0  0  0
 19 44  1  0  0  0  0
 20 25  1  0  0  0  0
 20 21  1  0  0  0  0
 20 54  1  0  0  0  0
 21 22  1  0  0  0  0
 21 45  1  0  0  0  0
 21 46  1  0  0  0  0
 22 23  1  0  0  0  0
 22 47  1  0  0  0  0
 22 48  1  0  0  0  0
 23 24  1  0  0  0  0
 23 49  1  0  0  0  0
 23 50  1  0  0  0  0
 24 25  1  0  0  0  0
 24 51  1  0  0  0  0
 24 52  1  0  0  0  0
 25 53  1  0  0  0  0
M  CHG  1  14   1
M  CHG  1  16  -1
M  CHG  1  20   1
M  END
> <s_m_source_file>
AV-unprocessed.smi

> <i_m_source_file_index>
1645

> <i_lp_mmshare_version>
43012

> <i_f3d_flags>
0

> <s_epik_input>
W0NIMl0xW0NIMl1bQ0gyXVtDSDJdW0NASF0oTjEyKVtDQEBIXShbQ0gyXVtDSDJdMilbTkhdQyg9TylbTkhdYzNbY0hdW2NIXWMobltjSF0zKU40W0NIMl1bQ0gyXVtDSDJdW0NIMl1bQ0gyXTQ=

> <s_epik_cmdline>
J2VwaWtfcHl0aG9uJywgJy1waCcsICc3LjAnLCAnLXRuJywgJzgnLCAnLW1hJywgJzIwMCcsICctbWV0YWxfYmluZGluZycsICctaW1hZScsICc8aW5maWxlLm1hZT4nLCAnLW9tYWUnLCAnPG91dGZpbGUubWFlPic=

> <r_lp_tautomer_probability>
0.999994

> <r_epik_Ionization_Penalty>
8.55589

> <r_epik_Ionization_Penalty_Charging>
8.55589

> <r_epik_Ionization_Penalty_Neutral>
3.8092e-06

> <r_epik_State_Penalty>
8.15703

> <r_epik_Charging_Adjusted_Penalty>
16.7129

> <i_epik_Tot_Q>
1

> <i_epik_Tot_abs_Q>
3

> <r_epik_Metal_State_Penalty>
4.13781

> <b_epik_Metal_Only>
1

> <s_lp_Force_Field>
OPLS_2005

> <r_lp_Energy>
57.4093

> <b_lp_Chiralities_Consistent>
1

> <s_lp_Variant>
AV-unprocessed.smi:1645-20

> <Gold.Version>
5.8.1

> <Gold.Id.Protein>
6NUR|6NUR_protein|mol2

> <Gold.PLP.Fitness>
45.6909

> <Gold.PLP.PLP>
-35.1530

> <Gold.PLP.part.hbond>
-2.0000

> <Gold.PLP.part.metal>
0.0000

> <Gold.PLP.part.buried>
-6.4318

> <Gold.PLP.part.nonpolar>
-26.0701

> <Gold.PLP.part.repulsive>
0.1976

> <Gold.PLP.ligand.clash>
0.0000

> <Gold.PLP.ligand.torsion>
0.8079

> <Gold.PLP.Chemscore.Hbond>
4.0000

> <Gold.PLP.Chemscore.CHOScore>
0.0000

> <Gold.PLP.Chemscore.Metal>
0.0000

> <Gold.Chemscore.Hbonds>
donor molecule, donor type, donor heavy atom, donor atom, acceptor molecule, acceptor atom, score
      L1  H    14    55       P1  8028  2.00
      L1  H    20    54       P1  7948  2.00

> <Gold.PLP.Chemscore.Internal.Correction>
0.1538

> <Gold.Rescore>
     Score         DG    S(hbond)    S(metal)    S(lipo)     H(rot)  DE(clash)    DE(int)     intcor
     17.42     -19.69       1.79        0.00      96.07       1.17       0.15       2.11       ----

> <Gold.Chemscore.Fitness>
17.4211

> <Gold.Chemscore.DG>
-19.6869

> <Gold.Chemscore.ZeroCoef>
-5.4800

> <Gold.Chemscore.Hbond>
1.7872

> <Gold.Chemscore.Metal>
0.0000

> <Gold.Chemscore.Lipo>
96.0744

> <Gold.Chemscore.Internal_Hbond>
0.0000

> <Gold.Chemscore.DEClash>
0.1521

> <Gold.Chemscore.DEInternal>
2.1136

> <Gold.Chemscore.Rot>
1.1731

> <Gold.Chemscore.Internal.Correction>
   9.000000E+99

> <Gold.Chemscore.Hbonds>
donor molecule, donor type, donor heavy atom, donor atom, acceptor molecule, acceptor atom, score
      L1  H    14    55       P1  8028  1.00
      L1  H    20    54       P1  7948  0.26

> <Gold.Chemscore.Hbond.Weighted>
-5.9694

> <Gold.Chemscore.Metal.Weighted>
-0.0000

> <Gold.Chemscore.Lipo.Weighted>
-11.2407

> <Gold.Chemscore.Internal_Hbond.Weighted>
0.0000

> <Gold.Chemscore.DEClash.Weighted>
0.1521

> <Gold.Chemscore.DEInternal.Weighted>
2.1136

> <Gold.Chemscore.Rot.Weighted>
3.0032

> <Gold.Chemscore.Internal.Correction.Weighted>
   9.000000E+99

> <Gold.Protein.RotatedTorsions>
[ 6907 6896 6895 6894 ] final   16.86 input  -60.11 | X-H torsion
[ 7974 7965 7964 7962 ] final -131.40 input  175.53 | X-H torsion
[ 8008 7997 7996 7995 ] final -122.44 input   59.86 | X-H torsion
[ 10167 10162 10161 10158 ] final -100.64 input  -65.29 | X-H torsion
[ 10718 10713 10712 10709 ] final  -72.94 input   66.30 | X-H torsion
[ 10763 10752 10751 10750 ] final  -87.14 input  -60.55 | X-H torsion
[ 11005 11000 10999 10996 ] final -107.44 input  -57.11 | X-H torsion

> <Gold.Protein.ActiveResidues>
 VAL166  LYS551  ARG553  GLY616  TRP617  ASP618  TYR619  PRO620  LYS621  CYS622 
 ASP623  PHE694  ASN695  SER759  ASP760  ASP761  ALA762  ILE779  LEU786  VAL792 
 PHE793  MET794  SER795  GLU796  ALA797  LYS798  CYS799  TRP800  GLU811  SER814 

> <Gold.Protein.RotatedAtoms>
  151.8406  135.0591  160.0447 H   0  0  0  0  0  0  0  0  0  0  0  0  # atno 6907 bound_to 6896
  152.2812  133.5467  159.5507 H   0  0  0  0  0  0  0  0  0  0  0  0  # atno 6908 bound_to 6896
  150.7190  134.0478  159.3830 H   0  0  0  0  0  0  0  0  0  0  0  0  # atno 6909 bound_to 6896
  144.9383  140.7209  143.4863 H   0  0  0  0  0  0  0  0  0  0  0  0  # atno 7974 bound_to 7965
  155.1643  140.0406  157.2849 H   0  0  0  0  0  0  0  0  0  0  0  0  # atno 8008 bound_to 7997
  154.6314  140.2525  155.7402 H   0  0  0  0  0  0  0  0  0  0  0  0  # atno 8009 bound_to 7997
  156.2486  140.2874  156.0667 H   0  0  0  0  0  0  0  0  0  0  0  0  # atno 8010 bound_to 7997
  140.2497  143.3481  152.0726 H   0  0  0  0  0  0  0  0  0  0  0  0  # atno 10167 bound_to 10162
  156.0300  130.4383  150.2668 H   0  0  0  0  0  0  0  0  0  0  0  0  # atno 10718 bound_to 10713
  154.6303  135.5424  153.7673 H   0  0  0  0  0  0  0  0  0  0  0  0  # atno 10763 bound_to 10752
  153.0281  135.6434  154.1311 H   0  0  0  0  0  0  0  0  0  0  0  0  # atno 10764 bound_to 10752
  154.1241  135.2918  155.3181 H   0  0  0  0  0  0  0  0  0  0  0  0  # atno 10765 bound_to 10752
  141.0953  133.8981  157.1977 H   0  0  0  0  0  0  0  0  0  0  0  0  # atno 11005 bound_to 11000
  145.3032  139.1843  143.4678 LP  0  0  0  0  0  0  0  0  0  0  0  0  # atno 17320 bound_to 7965
  146.3275  140.3026  142.8621 LP  0  0  0  0  0  0  0  0  0  0  0  0  # atno 17321 bound_to 7965
  139.5050  144.6787  151.6064 LP  0  0  0  0  0  0  0  0  0  0  0  0  # atno 17342 bound_to 10162
  140.6050  143.9541  150.6412 LP  0  0  0  0  0  0  0  0  0  0  0  0  # atno 17343 bound_to 10162
  157.0771  131.0133  151.3170 LP  0  0  0  0  0  0  0  0  0  0  0  0  # atno 17370 bound_to 10713
  157.4956  130.7848  149.7552 LP  0  0  0  0  0  0  0  0  0  0  0  0  # atno 17371 bound_to 10713
  139.9789  135.0105  156.9700 LP  0  0  0  0  0  0  0  0  0  0  0  0  # atno 17394 bound_to 11000
  140.5154  134.0961  155.7279 LP  0  0  0  0  0  0  0  0  0  0  0  0  # atno 17395 bound_to 11000

$$$$
