AV-unprocessed.smi:158|AV-procd|sdf|1337|dock6
  -GOLD-   2262019 33D 1   1.00000     0.00000
 Structure written by MMmdl.
 31 33  0  0  0  0  0  0  0  0  1 V2000
  153.1517  137.2493  159.8869 N   0  0  0  0  0  0  0  0  0  0  0  0
  152.7911  138.1798  158.9922 C   0  0  0  0  0  0  0  0  0  0  0  0
  153.6999  138.5716  158.0688 N   0  0  0  0  0  0  0  0  0  0  0  0
  153.3804  139.4984  157.1567 C   0  0  0  0  0  0  0  0  0  0  0  0
  154.6139  139.9228  156.0290 Cl  0  0  0  0  0  0  0  0  0  0  0  0
  152.2120  140.1342  157.0218 N   0  0  0  0  0  0  0  0  0  0  0  0
  151.2945  139.7425  157.9524 C   0  0  0  0  0  0  0  0  0  0  0  0
  151.5050  138.7724  158.9679 C   0  0  0  0  0  0  0  0  0  0  0  0
  150.3527  138.6261  159.7288 N   0  0  0  0  0  0  0  0  0  0  0  0
  149.5100  139.4652  159.1872 C   0  0  0  0  0  0  0  0  0  0  0  0
  149.9982  140.1834  158.1177 N   0  0  0  0  0  0  0  0  0  0  0  0
  149.2863  141.2019  157.2915 C   0  0  2  0  0  0  0  0  0  0  0  0
  148.5851  140.5318  156.2941 O   0  0  0  0  0  0  0  0  0  0  0  0
  148.5170  141.3399  155.1246 C   0  0  1  0  0  0  0  0  0  0  0  0
  147.2774  142.2530  155.2108 C   0  0  0  0  0  0  0  0  0  0  0  0
  147.2062  143.0806  154.0695 O   0  0  0  0  0  0  0  0  0  0  0  0
  149.8381  142.1254  155.1427 C   0  0  2  0  0  0  0  0  0  0  0  0
  150.8110  141.4797  154.3451 O   0  0  0  0  0  0  0  0  0  0  0  0
  150.2724  142.1539  156.6042 C   0  0  1  0  0  0  0  0  0  0  0  0
  150.1188  143.3782  157.1101 F   0  0  0  0  0  0  0  0  0  0  0  0
  148.6004  141.7036  157.9756 H   0  0  0  0  0  0  0  0  0  0  0  0
  148.4470  140.7140  154.2330 H   0  0  0  0  0  0  0  0  0  0  0  0
  149.7148  143.1318  154.7404 H   0  0  0  0  0  0  0  0  0  0  0  0
  151.3108  141.8531  156.7548 H   0  0  0  0  0  0  0  0  0  0  0  0
  152.4912  136.9411  160.5860 H   0  0  0  0  0  0  0  0  0  0  0  0
  154.0826  136.8588  159.8609 H   0  0  0  0  0  0  0  0  0  0  0  0
  148.5024  139.5854  159.5579 H   0  0  0  0  0  0  0  0  0  0  0  0
  146.3547  141.6833  155.3222 H   0  0  0  0  0  0  0  0  0  0  0  0
  147.3537  142.9109  156.0768 H   0  0  0  0  0  0  0  0  0  0  0  0
  147.9533  142.9011  153.5194 H   0  0  0  0  0  0  0  0  0  0  0  0
  150.6060  141.6335  153.4355 H   0  0  0  0  0  0  0  0  0  0  0  0
  1  2  1  0  0  0  0
  1 25  1  0  0  0  0
  1 26  1  0  0  0  0
  2  8  1  0  0  0  0
  2  3  2  0  0  0  0
  3  4  1  0  0  0  0
  4  5  1  0  0  0  0
  4  6  2  0  0  0  0
  6  7  1  0  0  0  0
  7 11  1  0  0  0  0
  7  8  2  0  0  0  0
  8  9  1  0  0  0  0
  9 10  2  0  0  0  0
 10 11  1  0  0  0  0
 10 27  1  0  0  0  0
 11 12  1  0  0  0  0
 12 21  1  0  0  0  0
 12 19  1  0  0  0  0
 12 13  1  0  0  0  0
 13 14  1  0  0  0  0
 14 22  1  0  0  0  0
 14 15  1  0  0  0  0
 14 17  1  0  0  0  0
 15 16  1  0  0  0  0
 15 28  1  0  0  0  0
 15 29  1  0  0  0  0
 16 30  1  0  0  0  0
 17 23  1  0  0  0  0
 17 18  1  0  0  0  0
 17 19  1  0  0  0  0
 18 31  1  0  0  0  0
 19 24  1  0  0  0  0
 19 20  1  0  0  0  0
M  END
> <s_m_source_file>
AV-unprocessed.smi

> <i_m_source_file_index>
158

> <i_lp_mmshare_version>
43012

> <i_f3d_flags>
0

> <s_epik_input>
Q2xjKG4xKW5jKFtOSDJdKWMoYzEyKW5bY0hdbjJbQ0BASF0zT1tDQEhdKFtDSDJdW09IXSlbQ0BASF0oW09IXSlbQ0BASF0zRg==

> <s_epik_cmdline>
J2VwaWtfcHl0aG9uJywgJy1waCcsICc3LjAnLCAnLXRuJywgJzgnLCAnLW1hJywgJzIwMCcsICctbWV0YWxfYmluZGluZycsICctaW1hZScsICc8aW5maWxlLm1hZT4nLCAnLW9tYWUnLCAnPG91dGZpbGUubWFlPic=

> <r_lp_tautomer_probability>
1

> <r_epik_Ionization_Penalty>
6.51543e-05

> <r_epik_Ionization_Penalty_Charging>
0

> <r_epik_Ionization_Penalty_Neutral>
6.51543e-05

> <r_epik_State_Penalty>
-0

> <r_epik_Charging_Adjusted_Penalty>
0

> <i_epik_Tot_Q>
0

> <i_epik_Tot_abs_Q>
0

> <r_epik_Metal_State_Penalty>
-0

> <b_epik_Metal_Only>
0

> <s_epik_Chemistry_Notes>
This compound contains an acetal/aminal-like group ( X-CH(R)-Y where X, Y are N, S, or O) that may be acid/base labile, releasing an aldehyde.

> <s_lp_Force_Field>
OPLS_2005

> <r_lp_Energy>
33.5879

> <b_lp_Chiralities_Consistent>
1

> <s_lp_Variant>
AV-unprocessed.smi:158-15

> <Gold.Version>
5.8.1

> <Gold.Id.Protein>
6NUR|6NUR_protein|mol2

> <Gold.PLP.Fitness>
37.5066

> <Gold.PLP.PLP>
-25.2404

> <Gold.PLP.part.hbond>
-5.3449

> <Gold.PLP.part.metal>
0.0000

> <Gold.PLP.part.buried>
-1.6237

> <Gold.PLP.part.nonpolar>
-18.1070

> <Gold.PLP.part.repulsive>
0.3833

> <Gold.PLP.ligand.clash>
0.0000

> <Gold.PLP.ligand.torsion>
0.6946

> <Gold.PLP.Chemscore.Hbond>
3.6720

> <Gold.PLP.Chemscore.CHOScore>
0.8756

> <Gold.PLP.Chemscore.Metal>
0.0000

> <Gold.PLP.Chemscore.Internal.Correction>
0.0128

> <Gold.Rescore>
     Score         DG    S(hbond)    S(metal)    S(lipo)     H(rot)  DE(clash)    DE(int)     intcor
      9.44     -11.74       2.93        0.00      38.33       3.12       0.27       2.03       ----

> <Gold.Chemscore.Fitness>
9.4388

> <Gold.Chemscore.DG>
-11.7424

> <Gold.Chemscore.ZeroCoef>
-5.4800

> <Gold.Chemscore.Hbond>
2.9260

> <Gold.Chemscore.Metal>
0.0000

> <Gold.Chemscore.Lipo>
38.3300

> <Gold.Chemscore.Internal_Hbond>
0.0000

> <Gold.Chemscore.DEClash>
0.2709

> <Gold.Chemscore.DEInternal>
2.0328

> <Gold.Chemscore.Rot>
3.1230

> <Gold.Chemscore.Internal.Correction>
   9.000000E+99

> <Gold.Chemscore.Hbond.Weighted>
-9.7728

> <Gold.Chemscore.Metal.Weighted>
-0.0000

> <Gold.Chemscore.Lipo.Weighted>
-4.4846

> <Gold.Chemscore.Internal_Hbond.Weighted>
0.0000

> <Gold.Chemscore.DEClash.Weighted>
0.2709

> <Gold.Chemscore.DEInternal.Weighted>
2.0328

> <Gold.Chemscore.Rot.Weighted>
7.9950

> <Gold.Chemscore.Internal.Correction.Weighted>
   9.000000E+99

> <Gold.Protein.RotatedTorsions>
[ 6907 6896 6895 6894 ] final  -52.49 input  -60.11 | X-H torsion
[ 7974 7965 7964 7962 ] final   -8.91 input  175.53 | X-H torsion
[ 8008 7997 7996 7995 ] final   39.85 input   59.86 | X-H torsion
[ 10167 10162 10161 10158 ] final   -4.89 input  -65.29 | X-H torsion
[ 10718 10713 10712 10709 ] final   77.00 input   66.30 | X-H torsion
[ 10763 10752 10751 10750 ] final -175.17 input  -60.55 | X-H torsion
[ 11005 11000 10999 10996 ] final  -17.19 input  -57.11 | X-H torsion

> <Gold.Protein.ActiveResidues>
 VAL166  LYS551  ARG553  GLY616  TRP617  ASP618  TYR619  PRO620  LYS621  CYS622 
 ASP623  PHE694  ASN695  SER759  ASP760  ASP761  ALA762  ILE779  LEU786  VAL792 
 PHE793  MET794  SER795  GLU796  ALA797  LYS798  CYS799  TRP800  GLU811  SER814 

> <Gold.Protein.RotatedAtoms>
  150.8513  134.7839  159.7010 H   0  0  0  0  0  0  0  0  0  0  0  0  # atno 6907 bound_to 6896
  152.4577  134.5251  159.9804 H   0  0  0  0  0  0  0  0  0  0  0  0  # atno 6908 bound_to 6896
  151.5371  133.3401  159.2964 H   0  0  0  0  0  0  0  0  0  0  0  0  # atno 6909 bound_to 6896
  146.2267  140.2539  142.8348 H   0  0  0  0  0  0  0  0  0  0  0  0  # atno 7974 bound_to 7965
  155.2434  140.3347  155.4290 H   0  0  0  0  0  0  0  0  0  0  0  0  # atno 8008 bound_to 7997
  156.2246  140.1824  156.7438 H   0  0  0  0  0  0  0  0  0  0  0  0  # atno 8009 bound_to 7997
  154.5879  140.0643  156.9182 H   0  0  0  0  0  0  0  0  0  0  0  0  # atno 8010 bound_to 7997
  140.6944  143.6371  150.8469 H   0  0  0  0  0  0  0  0  0  0  0  0  # atno 10167 bound_to 10162
  157.6694  130.9801  150.1577 H   0  0  0  0  0  0  0  0  0  0  0  0  # atno 10718 bound_to 10713
  154.5876  135.2842  155.0668 H   0  0  0  0  0  0  0  0  0  0  0  0  # atno 10763 bound_to 10752
  154.1981  135.6429  153.5083 H   0  0  0  0  0  0  0  0  0  0  0  0  # atno 10764 bound_to 10752
  153.0110  135.5462  154.6551 H   0  0  0  0  0  0  0  0  0  0  0  0  # atno 10765 bound_to 10752
  140.8143  133.8116  155.9595 H   0  0  0  0  0  0  0  0  0  0  0  0  # atno 11005 bound_to 11000
  144.9391  140.8059  143.5642 LP  0  0  0  0  0  0  0  0  0  0  0  0  # atno 17320 bound_to 7965
  145.2489  139.2040  143.4953 LP  0  0  0  0  0  0  0  0  0  0  0  0  # atno 17321 bound_to 7965
  140.0088  143.5665  152.2847 LP  0  0  0  0  0  0  0  0  0  0  0  0  # atno 17342 bound_to 10162
  139.6381  144.7652  151.2395 LP  0  0  0  0  0  0  0  0  0  0  0  0  # atno 17343 bound_to 10162
  156.2361  130.3686  149.8389 LP  0  0  0  0  0  0  0  0  0  0  0  0  # atno 17370 bound_to 10713
  156.6203  130.8623  151.3474 LP  0  0  0  0  0  0  0  0  0  0  0  0  # atno 17371 bound_to 10713
  140.9165  134.2195  157.4953 LP  0  0  0  0  0  0  0  0  0  0  0  0  # atno 17394 bound_to 11000
  139.8712  134.9773  156.4955 LP  0  0  0  0  0  0  0  0  0  0  0  0  # atno 17395 bound_to 11000

$$$$
