AV-unprocessed.smi:160|AV-procd|sdf|1358|dock3
  -GOLD-   2262019 63D 1   1.00000     0.00000
 Structure written by MMmdl.
 29 30  0  0  0  0  0  0  0  0  1 V2000
  149.9772  144.9286  159.0452 N   0  0  0  0  0  0  0  0  0  0  0  0
  150.5543  143.7584  159.3374 C   0  0  0  0  0  0  0  0  0  0  0  0
  151.2420  143.5967  160.3442 O   0  0  0  0  0  0  0  0  0  0  0  0
  150.3199  142.6398  158.3602 C   0  0  0  0  0  0  0  0  0  0  0  0
  149.6565  141.5050  158.7321 N   0  0  0  0  0  0  0  0  0  0  0  0
  149.6930  140.8537  157.5766 C   0  0  0  0  0  0  0  0  0  0  0  0
  150.3231  141.5110  156.5980 N   0  0  0  0  0  0  0  0  0  0  0  0
  150.5373  141.1307  155.1692 C   0  0  1  0  0  0  0  0  0  0  0  0
  151.3232  139.9754  155.1635 O   0  0  0  0  0  0  0  0  0  0  0  0
  150.6934  138.9354  154.4187 C   0  0  1  0  0  0  0  0  0  0  0  0
  151.0605  137.5726  155.0260 C   0  0  0  0  0  0  0  0  0  0  0  0
  151.9549  136.8867  154.1765 O   0  0  0  0  0  0  0  0  0  0  0  0
  149.2053  139.2715  154.5290 C   0  0  2  0  0  0  0  0  0  0  0  0
  148.4196  138.6900  153.5050 O   0  0  0  0  0  0  0  0  0  0  0  0
  149.2033  140.7945  154.4861 C   0  0  2  0  0  0  0  0  0  0  0  0
  149.1740  141.3040  153.1654 O   0  0  0  0  0  0  0  0  0  0  0  0
  150.7362  142.7041  157.0943 N   0  0  0  0  0  0  0  0  0  0  0  0
  151.0605  141.9827  154.7322 H   0  0  0  0  0  0  0  0  0  0  0  0
  151.0067  139.0056  153.3751 H   0  0  0  0  0  0  0  0  0  0  0  0
  148.8245  138.9368  155.4949 H   0  0  0  0  0  0  0  0  0  0  0  0
  148.3597  141.2196  155.0321 H   0  0  0  0  0  0  0  0  0  0  0  0
  150.0959  145.7169  159.6646 H   0  0  0  0  0  0  0  0  0  0  0  0
  149.4229  145.0146  158.2058 H   0  0  0  0  0  0  0  0  0  0  0  0
  149.2498  139.8780  157.4406 H   0  0  0  0  0  0  0  0  0  0  0  0
  151.4915  137.6860  156.0214 H   0  0  0  0  0  0  0  0  0  0  0  0
  150.1688  136.9533  155.1279 H   0  0  0  0  0  0  0  0  0  0  0  0
  151.5045  136.6744  153.3732 H   0  0  0  0  0  0  0  0  0  0  0  0
  148.8244  138.8775  152.6721 H   0  0  0  0  0  0  0  0  0  0  0  0
  149.1832  140.5728  152.5663 H   0  0  0  0  0  0  0  0  0  0  0  0
  1  2  1  0  0  0  0
  1 22  1  0  0  0  0
  1 23  1  0  0  0  0
  2  3  2  0  0  0  0
  2  4  1  0  0  0  0
  4 17  2  0  0  0  0
  4  5  1  0  0  0  0
  5  6  2  0  0  0  0
  6  7  1  0  0  0  0
  6 24  1  0  0  0  0
  7  8  1  0  0  0  0
  7 17  1  0  0  0  0
  8 18  1  0  0  0  0
  8 15  1  0  0  0  0
  8  9  1  0  0  0  0
  9 10  1  0  0  0  0
 10 19  1  0  0  0  0
 10 11  1  0  0  0  0
 10 13  1  0  0  0  0
 11 12  1  0  0  0  0
 11 25  1  0  0  0  0
 11 26  1  0  0  0  0
 12 27  1  0  0  0  0
 13 20  1  0  0  0  0
 13 14  1  0  0  0  0
 13 15  1  0  0  0  0
 14 28  1  0  0  0  0
 15 21  1  0  0  0  0
 15 16  1  0  0  0  0
 16 29  1  0  0  0  0
M  END
> <s_m_source_file>
AV-unprocessed.smi

> <i_m_source_file_index>
160

> <i_lp_mmshare_version>
43012

> <i_f3d_flags>
0

> <s_epik_input>
W05IMl1DKD1PKWMxbltjSF1uKG4xKVtDQEBIXTJPW0NASF0oW0NIMl1bT0hdKVtDQEBIXShbT0hdKVtDQEhdMltPSF0=

> <s_epik_cmdline>
J2VwaWtfcHl0aG9uJywgJy1waCcsICc3LjAnLCAnLXRuJywgJzgnLCAnLW1hJywgJzIwMCcsICctbWV0YWxfYmluZGluZycsICctaW1hZScsICc8aW5maWxlLm1hZT4nLCAnLW9tYWUnLCAnPG91dGZpbGUubWFlPic=

> <r_lp_tautomer_probability>
1

> <r_epik_Ionization_Penalty>
1.06932e-05

> <r_epik_Ionization_Penalty_Charging>
0

> <r_epik_Ionization_Penalty_Neutral>
1.06932e-05

> <r_epik_State_Penalty>
-0

> <r_epik_Charging_Adjusted_Penalty>
0

> <i_epik_Tot_Q>
0

> <i_epik_Tot_abs_Q>
0

> <r_epik_Metal_State_Penalty>
0.0142097

> <b_epik_Metal_Only>
0

> <s_epik_Chemistry_Notes>
This compound contains an acetal/aminal-like group ( X-CH(R)-Y where X, Y are N, S, or O) that may be acid/base labile, releasing an aldehyde.

> <s_lp_Force_Field>
OPLS_2005

> <r_lp_Energy>
39.0504

> <b_lp_Chiralities_Consistent>
1

> <s_lp_Variant>
AV-unprocessed.smi:160-16

> <Gold.Version>
5.8.1

> <Gold.Id.Protein>
6NUR|6NUR_protein|mol2

> <Gold.PLP.Fitness>
42.1625

> <Gold.PLP.PLP>
-28.1807

> <Gold.PLP.part.hbond>
-10.0133

> <Gold.PLP.part.metal>
0.0000

> <Gold.PLP.part.buried>
-2.9375

> <Gold.PLP.part.nonpolar>
-16.0648

> <Gold.PLP.part.repulsive>
0.6825

> <Gold.PLP.ligand.clash>
0.0000

> <Gold.PLP.ligand.torsion>
1.8630

> <Gold.PLP.Chemscore.Hbond>
5.8948

> <Gold.PLP.Chemscore.CHOScore>
0.0000

> <Gold.PLP.Chemscore.Metal>
0.0000

> <Gold.Chemscore.Hbonds>
donor molecule, donor type, donor heavy atom, donor atom, acceptor molecule, acceptor atom, score
      L1  H     1    23       P1  8029  0.94
      L1  H    12    27       P1  7949  1.00
      L1  H    14    28       P1  7957  0.96
      L1  H    16    29       P1  7957  0.93
      P1  H  8011  8017       L1    16  0.98
      P1  H 10752 10764       L1    12  1.00

> <Gold.PLP.Chemscore.Internal.Correction>
0.0236

> <Gold.Rescore>
     Score         DG    S(hbond)    S(metal)    S(lipo)     H(rot)  DE(clash)    DE(int)     intcor
      9.24     -12.77       4.27        0.00      29.21       4.06       1.80       1.72       ----

> <Gold.Chemscore.Fitness>
9.2443

> <Gold.Chemscore.DG>
-12.7680

> <Gold.Chemscore.ZeroCoef>
-5.4800

> <Gold.Chemscore.Hbond>
4.2708

> <Gold.Chemscore.Metal>
0.0000

> <Gold.Chemscore.Lipo>
29.2064

> <Gold.Chemscore.Internal_Hbond>
0.0000

> <Gold.Chemscore.DEClash>
1.8032

> <Gold.Chemscore.DEInternal>
1.7205

> <Gold.Chemscore.Rot>
4.0600

> <Gold.Chemscore.Internal.Correction>
   9.000000E+99

> <Gold.Chemscore.Hbonds>
donor molecule, donor type, donor heavy atom, donor atom, acceptor molecule, acceptor atom, score
      L1  H     1    23       P1  8029  0.34
      L1  H    12    27       P1  7949  0.82
      L1  H    14    28       P1  7957  0.89
      L1  H    16    29       P1  7957  0.86
      P1  H  8011  8017       L1    16  0.31
      P1  H 10752 10764       L1    12  0.37

> <Gold.Chemscore.Hbond.Weighted>
-14.2644

> <Gold.Chemscore.Metal.Weighted>
-0.0000

> <Gold.Chemscore.Lipo.Weighted>
-3.4172

> <Gold.Chemscore.Internal_Hbond.Weighted>
0.0000

> <Gold.Chemscore.DEClash.Weighted>
1.8032

> <Gold.Chemscore.DEInternal.Weighted>
1.7205

> <Gold.Chemscore.Rot.Weighted>
10.3936

> <Gold.Chemscore.Internal.Correction.Weighted>
   9.000000E+99

> <Gold.Protein.RotatedTorsions>
[ 6907 6896 6895 6894 ] final   20.39 input  -60.11 | X-H torsion
[ 7974 7965 7964 7962 ] final  -85.85 input  175.53 | X-H torsion
[ 8008 7997 7996 7995 ] final   93.00 input   59.86 | X-H torsion
[ 10167 10162 10161 10158 ] final -121.31 input  -65.29 | X-H torsion
[ 10718 10713 10712 10709 ] final  -99.57 input   66.30 | X-H torsion
[ 10763 10752 10751 10750 ] final  -71.28 input  -60.55 | X-H torsion
[ 11005 11000 10999 10996 ] final   37.64 input  -57.11 | X-H torsion

> <Gold.Protein.ActiveResidues>
 VAL166  LYS551  ARG553  GLY616  TRP617  ASP618  TYR619  PRO620  LYS621  CYS622 
 ASP623  PHE694  ASN695  SER759  ASP760  ASP761  ALA762  ILE779  LEU786  VAL792 
 PHE793  MET794  SER795  GLU796  ALA797  LYS798  CYS799  TRP800  GLU811  SER814 

> <Gold.Protein.RotatedAtoms>
  151.8956  135.0399  160.0501 H   0  0  0  0  0  0  0  0  0  0  0  0  # atno 6907 bound_to 6896
  152.2400  133.5123  159.5273 H   0  0  0  0  0  0  0  0  0  0  0  0  # atno 6908 bound_to 6896
  150.7050  134.1018  159.4011 H   0  0  0  0  0  0  0  0  0  0  0  0  # atno 6909 bound_to 6896
  145.4878  140.9554  143.1829 H   0  0  0  0  0  0  0  0  0  0  0  0  # atno 7974 bound_to 7965
  156.0417  140.3318  155.7251 H   0  0  0  0  0  0  0  0  0  0  0  0  # atno 8008 bound_to 7997
  155.5734  140.0630  157.2818 H   0  0  0  0  0  0  0  0  0  0  0  0  # atno 8009 bound_to 7997
  154.4396  140.1857  156.0891 H   0  0  0  0  0  0  0  0  0  0  0  0  # atno 8010 bound_to 7997
  140.0264  143.5292  152.2197 H   0  0  0  0  0  0  0  0  0  0  0  0  # atno 10167 bound_to 10162
  156.0138  130.5288  150.6689 H   0  0  0  0  0  0  0  0  0  0  0  0  # atno 10718 bound_to 10713
  154.4295  135.5967  153.6060 H   0  0  0  0  0  0  0  0  0  0  0  0  # atno 10763 bound_to 10752
  152.9798  135.5972  154.3856 H   0  0  0  0  0  0  0  0  0  0  0  0  # atno 10764 bound_to 10752
  154.3692  135.2841  155.2254 H   0  0  0  0  0  0  0  0  0  0  0  0  # atno 10765 bound_to 10752
  140.2206  134.3646  155.8007 H   0  0  0  0  0  0  0  0  0  0  0  0  # atno 11005 bound_to 11000
  144.7851  139.6443  143.7137 LP  0  0  0  0  0  0  0  0  0  0  0  0  # atno 17320 bound_to 7965
  146.2303  139.5800  142.9560 LP  0  0  0  0  0  0  0  0  0  0  0  0  # atno 17321 bound_to 7965
  139.6105  144.7607  151.2962 LP  0  0  0  0  0  0  0  0  0  0  0  0  # atno 17342 bound_to 10162
  140.7321  143.6833  150.7982 LP  0  0  0  0  0  0  0  0  0  0  0  0  # atno 17343 bound_to 10162
  157.4416  131.0862  151.0938 LP  0  0  0  0  0  0  0  0  0  0  0  0  # atno 17370 bound_to 10713
  157.1480  130.6172  149.5574 LP  0  0  0  0  0  0  0  0  0  0  0  0  # atno 17371 bound_to 10713
  141.2223  133.7191  156.8569 LP  0  0  0  0  0  0  0  0  0  0  0  0  # atno 17394 bound_to 11000
  140.1854  134.9003  157.2998 LP  0  0  0  0  0  0  0  0  0  0  0  0  # atno 17395 bound_to 11000

$$$$
