#       Name:                AV-unprocessed.smi:1563
#       Creating user name   scv26
#       Creation time:       Fri Mar 27 06:48:51 2020


#       File generated by GOLD software.
#

@<TRIPOS>MOLECULE
AV-unprocessed.smi:1563
    48    49     1
SMALL
NO_CHARGES


@<TRIPOS>ATOM
      1 ****        -3.6690   4.6595  -1.9235 C.3            1 S1                 0.0000
      2 ****        -2.7310   3.4603  -2.0078 C.2            1 S1                 0.0000
      3 ****        -1.7046   3.5255  -2.6833 O.2            1 S1                 0.0000
      4 ****        -3.0981   2.3713  -1.3155 N.am           1 S1                 0.0000
      5 ****        -2.3555   1.1156  -1.2616 C.3            1 S1                 0.0000
      6 ****        -3.3230  -0.0451  -0.9455 C.3            1 S1                 0.0000
      7 ****        -2.5748  -1.3657  -0.6837 C.3            1 S1                 0.0000
      8 ****        -1.4512  -1.1634   0.3468 C.3            1 S1                 0.0000
      9 ****        -0.5475  -0.1090  -0.1445 N.am           1 S1                 0.0000
     10 ****         0.7181  -0.2817  -0.6041 C.2            1 S1                 0.0000
     11 ****         1.4291   0.6487  -0.9860 O.2            1 S1                 0.0000
     12 ****         1.1350  -1.5594  -0.6262 N.am           1 S1                 0.0000
     13 ****         2.4629  -2.0276  -1.0145 C.3            1 S1                 0.0000
     14 ****         3.1591  -2.7876   0.1293 C.3            1 S1                 0.0000
     15 ****         3.3495  -1.9579   1.3887 C.ar           1 S1                 0.0000
     16 ****         4.5352  -1.2187   1.5864 C.ar           1 S1                 0.0000
     17 ****         4.6609  -0.4528   2.7616 C.ar           1 S1                 0.0000
     18 ****         3.6015  -0.4548   3.6893 C.ar           1 S1                 0.0000
     19 ****         2.4580  -1.2252   3.3987 C.ar           1 S1                 0.0000
     20 ****         2.3280  -1.9643   2.2760 N.ar           1 S1                 0.0000
     21 ****        -1.2304   1.1900  -0.2044 C.3            1 S1                 0.0000
     22 ****        -3.8365   4.9419  -0.8837 H              1 S1                 0.0000
     23 ****        -4.6316   4.4217  -2.3772 H              1 S1                 0.0000
     24 ****        -3.2477   5.5188  -2.4464 H              1 S1                 0.0000
     25 ****        -3.9581   2.4141  -0.7884 H              1 S1                 0.0000
     26 ****        -1.9068   0.9240  -2.2385 H              1 S1                 0.0000
     27 ****        -3.9089   0.2041  -0.0596 H              1 S1                 0.0000
     28 ****        -4.0369  -0.1759  -1.7595 H              1 S1                 0.0000
     29 ****        -3.2732  -2.1265  -0.3346 H              1 S1                 0.0000
     30 ****        -2.1505  -1.7379  -1.6172 H              1 S1                 0.0000
     31 ****        -1.8759  -0.8521   1.3021 H              1 S1                 0.0000
     32 ****        -0.9567  -2.1129   0.5520 H              1 S1                 0.0000
     33 ****         0.4865  -2.2638  -0.3063 H              1 S1                 0.0000
     34 ****         2.3512  -2.6858  -1.8763 H              1 S1                 0.0000
     35 ****         3.0982  -1.2027  -1.3404 H              1 S1                 0.0000
     36 ****         2.5858  -3.6818   0.3783 H              1 S1                 0.0000
     37 ****         4.1331  -3.1424  -0.2101 H              1 S1                 0.0000
     38 ****         5.3287  -1.2337   0.8537 H              1 S1                 0.0000
     39 ****         5.5532   0.1266   2.9473 H              1 S1                 0.0000
     40 ****         3.6627   0.1210   4.6008 H              1 S1                 0.0000
     41 ****         1.6258  -1.2492   4.0866 H              1 S1                 0.0000
     42 ****        -0.5491   2.0097  -0.4378 H              1 S1                 0.0000
     43 ****        -1.6454   1.4241   0.7773 H              1 S1                 0.0000
     44 ****        -1.4843   4.3661  -3.1782 LP             1 S1                 0.0000
     45 ****        -1.0907   2.7380  -2.7373 LP             1 S1                 0.0000
     46 ****         1.0799   1.5856  -0.9662 LP             1 S1                 0.0000
     47 ****         2.3555   0.4673  -1.3158 LP             1 S1                 0.0000
     48 ****         1.5013  -2.5004   2.1055 LP             1 S1                 0.0000
@<TRIPOS>BOND
    1    1    2 1     
    2    1   22 1     
    3    1   23 1     
    4    1   24 1     
    5    2    3 2     
    6    2    4 am    
    7    4    5 1     
    8    4   25 1     
    9    5   21 1     
   10    5    6 1     
   11    5   26 1     
   12    6    7 1     
   13    6   27 1     
   14    6   28 1     
   15    7    8 1     
   16    7   29 1     
   17    7   30 1     
   18    8    9 1     
   19    8   31 1     
   20    8   32 1     
   21    9   10 am    
   22    9   21 1     
   23   10   11 2     
   24   10   12 am    
   25   12   13 1     
   26   12   33 1     
   27   13   14 1     
   28   13   34 1     
   29   13   35 1     
   30   14   15 1     
   31   14   36 1     
   32   14   37 1     
   33   15   20 ar    
   34   15   16 ar    
   35   16   17 ar    
   36   16   38 1     
   37   17   18 ar    
   38   17   39 1     
   39   18   19 ar    
   40   18   40 1     
   41   19   20 ar    
   42   19   41 1     
   43   21   42 1     
   44   21   43 1     
   45    3   44 1     
   46    3   45 1     
   47   11   46 1     
   48   11   47 1     
   49   20   48 1     
@<TRIPOS>SUBSTRUCTURE
      1 S1             1
@<TRIPOS>SET
LONE_PAIRS      STATIC     ATOMS    <user>   **** ""
5 44 45 46 47 48
DONOR_HYDROGENS      STATIC     ATOMS    <user>   **** ""
2 25 33
ATOM$BLUE        STATIC     ATOMS    COLORGROUP SYSTEM
5 44 45 46 47 48
ATOM$RED        STATIC     ATOMS    COLORGROUP SYSTEM
2 25 33
