#       Name:                AV-unprocessed.smi:105
#       Creating user name   scv26
#       Creation time:       Thu Mar 26 18:00:53 2020


#       File generated by GOLD software.
#

@<TRIPOS>MOLECULE
AV-unprocessed.smi:105
    47    50     1
SMALL
NO_CHARGES


@<TRIPOS>ATOM
      1 ****        -5.2283   5.2154   0.1758 C.ar           1 S1                 0.0000
      2 ****        -4.9540   4.5211  -1.0185 C.ar           1 S1                 0.0000
      3 ****        -4.4296   3.2146  -0.9694 C.ar           1 S1                 0.0000
      4 ****        -4.1799   2.5985   0.2746 C.ar           1 S1                 0.0000
      5 ****        -3.6066   1.1977   0.3267 C.3            1 S1                 0.0000
      6 ****        -2.1605   1.1747   0.1574 N.pl3          1 S1                 0.0000
      7 ****        -1.4925   0.0022   0.2051 C.ar           1 S1                 0.0000
      8 ****        -2.1518  -1.1726   0.3859 N.ar           1 S1                 0.0000
      9 ****        -1.4704  -2.3220   0.4322 C.ar           1 S1                 0.0000
     10 ****        -0.1541  -2.5180   0.3226 N.ar           1 S1                 0.0000
     11 ****         0.5087  -1.3393   0.1419 C.ar           1 S1                 0.0000
     12 ****        -0.0807  -0.0457   0.0702 C.ar           1 S1                 0.0000
     13 ****         0.9014   0.9171  -0.1228 N.2            1 S1                 0.0000
     14 ****         2.0116   0.2311  -0.1611 C.2            1 S1                 0.0000
     15 ****         1.8685  -1.1315  -0.0113 N.pl3          1 S1                 0.0000
     16 ****         2.9276  -2.1254  -0.0084 C.3            1 S1                 0.0000
     17 ****         3.5521  -2.2932  -1.4078 C.3            1 S1                 0.0000
     18 ****         4.6721  -3.3363  -1.3152 C.3            1 S1                 0.0000
     19 ****         5.6865  -2.8997  -0.2536 C.3            1 S1                 0.0000
     20 ****         4.9640  -2.6360   1.0781 C.3            1 S1                 0.0000
     21 ****         3.9151  -1.6909   0.8811 O.3            1 S1                 0.0000
     22 ****        -4.4544   3.2967   1.4690 C.ar           1 S1                 0.0000
     23 ****        -4.9785   4.6033   1.4193 C.ar           1 S1                 0.0000
     24 ****        -5.6296   6.2176   0.1381 H              1 S1                 0.0000
     25 ****        -5.1451   4.9913  -1.9719 H              1 S1                 0.0000
     26 ****        -4.2188   2.6869  -1.8882 H              1 S1                 0.0000
     27 ****        -3.8693   0.7394   1.2814 H              1 S1                 0.0000
     28 ****        -4.0739   0.5977  -0.4554 H              1 S1                 0.0000
     29 ****        -1.7102   2.0692   0.0263 H              1 S1                 0.0000
     30 ****        -2.0649  -3.2118   0.5784 H              1 S1                 0.0000
     31 ****         2.9738   0.7031  -0.2987 H              1 S1                 0.0000
     32 ****         2.5087  -3.0655   0.3556 H              1 S1                 0.0000
     33 ****         2.7810  -2.6125  -2.1099 H              1 S1                 0.0000
     34 ****         3.9412  -1.3334  -1.7504 H              1 S1                 0.0000
     35 ****         4.2555  -4.3105  -1.0561 H              1 S1                 0.0000
     36 ****         5.1621  -3.4508  -2.2825 H              1 S1                 0.0000
     37 ****         6.4553  -3.6621  -0.1243 H              1 S1                 0.0000
     38 ****         6.1945  -1.9918  -0.5812 H              1 S1                 0.0000
     39 ****         4.5603  -3.5613   1.4924 H              1 S1                 0.0000
     40 ****         5.6641  -2.2382   1.8127 H              1 S1                 0.0000
     41 ****        -4.2622   2.8333   2.4257 H              1 S1                 0.0000
     42 ****        -5.1879   5.1364   2.3351 H              1 S1                 0.0000
     43 ****        -3.1470  -1.1772   0.4844 LP             1 S1                 0.0000
     44 ****         0.2888  -3.4134   0.3673 LP             1 S1                 0.0000
     45 ****         0.7852   1.9064  -0.2118 LP             1 S1                 0.0000
     46 ****         3.4852  -1.5073   1.7652 LP             1 S1                 0.0000
     47 ****         4.3138  -0.8467   0.5227 LP             1 S1                 0.0000
@<TRIPOS>BOND
    1    1   23 ar    
    2    1    2 ar    
    3    1   24 1     
    4    2    3 ar    
    5    2   25 1     
    6    3    4 ar    
    7    3   26 1     
    8    4    5 1     
    9    4   22 ar    
   10    5    6 1     
   11    5   27 1     
   12    5   28 1     
   13    6    7 1     
   14    6   29 1     
   15    7   12 ar    
   16    7    8 ar    
   17    8    9 ar    
   18    9   10 ar    
   19    9   30 1     
   20   10   11 ar    
   21   11   15 1     
   22   11   12 ar    
   23   12   13 1     
   24   13   14 2     
   25   14   15 1     
   26   14   31 1     
   27   15   16 1     
   28   16   21 1     
   29   16   17 1     
   30   16   32 1     
   31   17   18 1     
   32   17   33 1     
   33   17   34 1     
   34   18   19 1     
   35   18   35 1     
   36   18   36 1     
   37   19   20 1     
   38   19   37 1     
   39   19   38 1     
   40   20   21 1     
   41   20   39 1     
   42   20   40 1     
   43   22   23 ar    
   44   22   41 1     
   45   23   42 1     
   46    8   43 1     
   47   10   44 1     
   48   13   45 1     
   49   21   46 1     
   50   21   47 1     
@<TRIPOS>SUBSTRUCTURE
      1 S1             1
@<TRIPOS>SET
LONE_PAIRS      STATIC     ATOMS    <user>   **** ""
5 43 44 45 46 47
DONOR_HYDROGENS      STATIC     ATOMS    <user>   **** ""
1 29
ATOM$BLUE        STATIC     ATOMS    COLORGROUP SYSTEM
5 43 44 45 46 47
ATOM$RED        STATIC     ATOMS    COLORGROUP SYSTEM
1 29
