AV-unprocessed.smi:623|AV-procd|sdf|3096|dock9
  -GOLD-   22720 0 13D 1   1.00000     0.00000
 Structure written by MMmdl.
 44 46  0  0  0  0  0  0  0  0  2 V2000
  144.6018  134.9950  162.0696 C   0  0  0  0  0  0  0  0  0  0  0  0
  145.8515  135.6313  161.3983 C   0  0  0  0  0  0  0  0  0  0  0  0
  145.2896  136.7400  160.4643 C   0  0  0  0  0  0  0  0  0  0  0  0
  146.9245  136.1224  162.3909 C   0  0  1  0  0  0  0  0  0  0  0  0
  147.3790  134.8273  163.1014 C   0  0  0  0  0  0  0  0  0  0  0  0
  147.3068  133.7807  161.9696 C   0  0  0  0  0  0  0  0  0  0  0  0
  146.8445  134.6238  160.7528 C   0  0  1  0  0  0  0  0  0  0  0  0
  146.2774  133.7547  159.6122 C   0  0  0  0  0  0  0  0  0  0  0  0
  148.0851  135.4886  160.3717 C   0  0  1  0  0  0  0  0  0  0  0  0
  147.9910  136.0433  159.0269 N   0  0  0  0  0  0  0  0  0  0  0  0
  148.8757  135.8913  158.0298 C   0  0  0  0  0  0  0  0  0  0  0  0
  149.8996  135.2180  158.1404 O   0  0  0  0  0  0  0  0  0  0  0  0
  148.5843  136.6209  156.7061 C   0  0  0  0  0  0  0  0  0  0  0  0
  149.6635  137.5257  156.2656 N   0  0  0  0  0  0  0  0  0  0  0  0
  150.0879  137.4227  154.9290 C   0  0  0  0  0  0  0  0  0  0  0  0
  151.1003  138.1667  154.4448 C   0  0  0  0  0  0  0  0  0  0  0  0
  151.7621  139.1012  155.3467 C   0  0  0  0  0  0  0  0  0  0  0  0
  152.6910  139.7860  154.9233 O   0  0  0  0  0  0  0  0  0  0  0  0
  151.3119  139.1679  156.6337 N   0  5  0  0  0  0  0  0  0  0  0  0
  150.2842  138.4012  157.1134 C   0  0  0  0  0  0  0  0  0  0  0  0
  149.9081  138.4617  158.2841 O   0  0  0  0  0  0  0  0  0  0  0  0
  148.0942  136.5650  161.4820 C   0  0  0  0  0  0  0  0  0  0  0  0
  144.0471  135.7438  162.6356 H   0  0  0  0  0  0  0  0  0  0  0  0
  144.8104  134.1820  162.7610 H   0  0  0  0  0  0  0  0  0  0  0  0
  143.9215  134.5946  161.3172 H   0  0  0  0  0  0  0  0  0  0  0  0
  146.0357  137.3598  159.9754 H   0  0  0  0  0  0  0  0  0  0  0  0
  144.6553  137.4274  161.0245 H   0  0  0  0  0  0  0  0  0  0  0  0
  144.6739  136.3087  159.6746 H   0  0  0  0  0  0  0  0  0  0  0  0
  146.5942  136.9010  163.0791 H   0  0  0  0  0  0  0  0  0  0  0  0
  148.3837  134.9144  163.5165 H   0  0  0  0  0  0  0  0  0  0  0  0
  146.7142  134.5666  163.9253 H   0  0  0  0  0  0  0  0  0  0  0  0
  148.2667  133.2905  161.8022 H   0  0  0  0  0  0  0  0  0  0  0  0
  146.5958  132.9902  162.2107 H   0  0  0  0  0  0  0  0  0  0  0  0
  147.0471  133.1009  159.2013 H   0  0  0  0  0  0  0  0  0  0  0  0
  145.8876  134.3596  158.7932 H   0  0  0  0  0  0  0  0  0  0  0  0
  145.4625  133.1223  159.9639 H   0  0  0  0  0  0  0  0  0  0  0  0
  148.9964  134.8889  160.4124 H   0  0  0  0  0  0  0  0  0  0  0  0
  147.1755  136.6077  158.8343 H   0  0  0  0  0  0  0  0  0  0  0  0
  148.3953  135.8703  155.9375 H   0  0  0  0  0  0  0  0  0  0  0  0
  147.6439  137.1647  156.8080 H   0  0  0  0  0  0  0  0  0  0  0  0
  149.5523  136.6992  154.3321 H   0  0  0  0  0  0  0  0  0  0  0  0
  151.4184  138.0701  153.4173 H   0  0  0  0  0  0  0  0  0  0  0  0
  147.9341  137.5688  161.0881 H   0  0  0  0  0  0  0  0  0  0  0  0
  149.0453  136.5882  162.0152 H   0  0  0  0  0  0  0  0  0  0  0  0
  1  2  1  0  0  0  0
  1 23  1  0  0  0  0
  1 24  1  0  0  0  0
  1 25  1  0  0  0  0
  2  7  1  0  0  0  0
  2  3  1  0  0  0  0
  2  4  1  0  0  0  0
  3 26  1  0  0  0  0
  3 27  1  0  0  0  0
  3 28  1  0  0  0  0
  4 22  1  0  0  0  0
  4  5  1  0  0  0  0
  4 29  1  0  0  0  0
  5  6  1  0  0  0  0
  5 30  1  0  0  0  0
  5 31  1  0  0  0  0
  6  7  1  0  0  0  0
  6 32  1  0  0  0  0
  6 33  1  0  0  0  0
  7  8  1  0  0  0  0
  7  9  1  0  0  0  0
  8 34  1  0  0  0  0
  8 35  1  0  0  0  0
  8 36  1  0  0  0  0
  9 10  1  0  0  0  0
  9 22  1  0  0  0  0
  9 37  1  0  0  0  0
 10 11  1  0  0  0  0
 10 38  1  0  0  0  0
 11 12  2  0  0  0  0
 11 13  1  0  0  0  0
 13 14  1  0  0  0  0
 13 39  1  0  0  0  0
 13 40  1  0  0  0  0
 14 20  1  0  0  0  0
 14 15  1  0  0  0  0
 15 16  2  0  0  0  0
 15 41  1  0  0  0  0
 16 17  1  0  0  0  0
 16 42  1  0  0  0  0
 17 18  2  0  0  0  0
 17 19  1  0  0  0  0
 19 20  1  0  0  0  0
 20 21  2  0  0  0  0
 22 43  1  0  0  0  0
 22 44  1  0  0  0  0
M  CHG  1  19  -1
M  END
> <s_m_source_file>
AV-unprocessed.smi

> <i_m_source_file_index>
623

> <i_lp_mmshare_version>
43012

> <i_f3d_flags>
0

> <s_epik_input>
W0NIM11bQ0BdMTJDKFtDSDNdKShbQ0gzXSlbQ0BIXShbQ0gyXVtDSDJdMSlbQ0gyXVtDQEBIXTJbTkhdQyg9TylbQ0gyXW4zW2NIXVtjSF1jKD1PKVtuSF1jMz1P

> <s_epik_cmdline>
J2VwaWtfcHl0aG9uJywgJy1waCcsICc3LjAnLCAnLXRuJywgJzgnLCAnLW1hJywgJzIwMCcsICctbWV0YWxfYmluZGluZycsICctaW1hZScsICc8aW5maWxlLm1hZT4nLCAnLW9tYWUnLCAnPG91dGZpbGUubWFlPic=

> <r_lp_tautomer_probability>
0.999537

> <r_epik_Ionization_Penalty>
3.12624

> <r_epik_Ionization_Penalty_Charging>
3.01273e-08

> <r_epik_Ionization_Penalty_Neutral>
3.12624

> <r_epik_State_Penalty>
3.12534

> <r_epik_Charging_Adjusted_Penalty>
3.12534

> <i_epik_Tot_Q>
-1

> <i_epik_Tot_abs_Q>
1

> <r_epik_Metal_State_Penalty>
0.46406

> <b_epik_Metal_Only>
1

> <s_lp_Force_Field>
OPLS_2005

> <r_lp_Energy>
63.0449

> <b_lp_Chiralities_Consistent>
1

> <s_lp_Variant>
AV-unprocessed.smi:623-6

> <Gold.Version>
5.8.1

> <Gold.Id.Protein>
6NUR|6NUR_protein|mol2

> <Gold.PLP.Fitness>
40.5633

> <Gold.PLP.PLP>
-30.7465

> <Gold.PLP.part.hbond>
-2.8942

> <Gold.PLP.part.metal>
0.0000

> <Gold.PLP.part.buried>
-3.0437

> <Gold.PLP.part.nonpolar>
-25.8691

> <Gold.PLP.part.repulsive>
0.1225

> <Gold.PLP.ligand.clash>
0.0000

> <Gold.PLP.ligand.torsion>
0.1697

> <Gold.PLP.Chemscore.Hbond>
2.4177

> <Gold.PLP.Chemscore.CHOScore>
0.9632

> <Gold.PLP.Chemscore.Metal>
0.0000

> <Gold.Chemscore.Hbonds>
donor molecule, donor type, donor heavy atom, donor atom, acceptor molecule, acceptor atom, score
      P1  H  6896  6907       L1    12  0.98
      P1  H  7989  7998       L1    18  0.51
      P1  H  7997  8010       L1    18  0.96
      L1  C    15    41       P1  7948  0.93

> <Gold.PLP.Chemscore.Internal.Correction>
0.0134

> <Gold.Rescore>
     Score         DG    S(hbond)    S(metal)    S(lipo)     H(rot)  DE(clash)    DE(int)     intcor
     15.45     -16.85       2.05        0.00      74.41       1.63       0.00       1.40       ----

> <Gold.Chemscore.Fitness>
15.4548

> <Gold.Chemscore.DG>
-16.8500

> <Gold.Chemscore.ZeroCoef>
-5.4800

> <Gold.Chemscore.Hbond>
2.0485

> <Gold.Chemscore.Metal>
0.0000

> <Gold.Chemscore.Lipo>
74.4125

> <Gold.Chemscore.Internal_Hbond>
0.0000

> <Gold.Chemscore.DEClash>
0.0000

> <Gold.Chemscore.DEInternal>
1.3952

> <Gold.Chemscore.Rot>
1.6322

> <Gold.Chemscore.Internal.Correction>
   9.000000E+99

> <Gold.Chemscore.Hbonds>
donor molecule, donor type, donor heavy atom, donor atom, acceptor molecule, acceptor atom, score
      P1  H  6896  6907       L1    12  0.93
      P1  H  7989  7998       L1    18  0.12
      P1  H  7997  8010       L1    18  0.91

> <Gold.Chemscore.Hbond.Weighted>
-6.8421

> <Gold.Chemscore.Metal.Weighted>
-0.0000

> <Gold.Chemscore.Lipo.Weighted>
-8.7063

> <Gold.Chemscore.Internal_Hbond.Weighted>
0.0000

> <Gold.Chemscore.DEClash.Weighted>
0.0000

> <Gold.Chemscore.DEInternal.Weighted>
1.3952

> <Gold.Chemscore.Rot.Weighted>
4.1783

> <Gold.Chemscore.Internal.Correction.Weighted>
   9.000000E+99

> <Gold.Protein.RotatedTorsions>
[ 6907 6896 6895 6894 ] final  -79.79 input  -60.11 | X-H torsion
[ 7974 7965 7964 7962 ] final   28.15 input  175.53 | X-H torsion
[ 8008 7997 7996 7995 ] final  102.61 input   59.86 | X-H torsion
[ 10167 10162 10161 10158 ] final -127.11 input  -65.29 | X-H torsion
[ 10718 10713 10712 10709 ] final   70.82 input   66.30 | X-H torsion
[ 10763 10752 10751 10750 ] final  107.46 input  -60.55 | X-H torsion
[ 11005 11000 10999 10996 ] final -131.57 input  -57.11 | X-H torsion

> <Gold.Protein.ActiveResidues>
 VAL166  LYS551  ARG553  GLY616  TRP617  ASP618  TYR619  PRO620  LYS621  CYS622 
 ASP623  PHE694  ASN695  SER759  ASP760  ASP761  ALA762  ILE779  LEU786  VAL792 
 PHE793  MET794  SER795  GLU796  ALA797  LYS798  CYS799  TRP800  GLU811  SER814 

> <Gold.Protein.RotatedAtoms>
  150.6942  134.4068  159.5143 H   0  0  0  0  0  0  0  0  0  0  0  0  # atno 6907 bound_to 6896
  152.1833  134.8733  160.0533 H   0  0  0  0  0  0  0  0  0  0  0  0  # atno 6908 bound_to 6896
  151.9715  133.3693  159.4110 H   0  0  0  0  0  0  0  0  0  0  0  0  # atno 6909 bound_to 6896
  146.1745  139.7094  142.8944 H   0  0  0  0  0  0  0  0  0  0  0  0  # atno 7974 bound_to 7965
  156.1408  140.3178  155.8493 H   0  0  0  0  0  0  0  0  0  0  0  0  # atno 8008 bound_to 7997
  155.4157  140.0509  157.3046 H   0  0  0  0  0  0  0  0  0  0  0  0  # atno 8009 bound_to 7997
  154.4975  140.2116  155.9429 H   0  0  0  0  0  0  0  0  0  0  0  0  # atno 8010 bound_to 7997
  139.9644  143.5915  152.2434 H   0  0  0  0  0  0  0  0  0  0  0  0  # atno 10167 bound_to 10162
  157.6420  130.9497  150.0704 H   0  0  0  0  0  0  0  0  0  0  0  0  # atno 10718 bound_to 10713
  153.4070  135.3843  155.2025 H   0  0  0  0  0  0  0  0  0  0  0  0  # atno 10763 bound_to 10752
  154.8734  135.3785  154.4547 H   0  0  0  0  0  0  0  0  0  0  0  0  # atno 10764 bound_to 10752
  153.5051  135.7088  153.5873 H   0  0  0  0  0  0  0  0  0  0  0  0  # atno 10765 bound_to 10752
  140.9247  134.1398  157.4285 H   0  0  0  0  0  0  0  0  0  0  0  0  # atno 11005 bound_to 11000
  145.4250  141.0410  143.2942 LP  0  0  0  0  0  0  0  0  0  0  0  0  # atno 17320 bound_to 7965
  144.8214  139.5785  143.6985 LP  0  0  0  0  0  0  0  0  0  0  0  0  # atno 17321 bound_to 7965
  139.6529  144.7661  151.2112 LP  0  0  0  0  0  0  0  0  0  0  0  0  # atno 17342 bound_to 10162
  140.7543  143.6132  150.8585 LP  0  0  0  0  0  0  0  0  0  0  0  0  # atno 17343 bound_to 10162
  156.1710  130.3646  149.9166 LP  0  0  0  0  0  0  0  0  0  0  0  0  # atno 17370 bound_to 10713
  156.7141  130.8981  151.3612 LP  0  0  0  0  0  0  0  0  0  0  0  0  # atno 17371 bound_to 10713
  139.8783  134.9984  156.5898 LP  0  0  0  0  0  0  0  0  0  0  0  0  # atno 17394 bound_to 11000
  140.7941  133.8558  155.8671 LP  0  0  0  0  0  0  0  0  0  0  0  0  # atno 17395 bound_to 11000

$$$$
