AV-unprocessed.smi:1492|AV-procd|sdf|6039|dock3
  -GOLD-   22720 6143D 1   1.00000     0.00000
 Structure written by MMmdl.
 53 54  0  0  0  0  0  0  0  0  2 V2000
  144.2882  135.5757  150.4751 C   0  0  0  0  0  0  0  0  0  0  0  0
  145.7175  135.4953  151.0413 C   0  0  0  0  0  0  0  0  0  0  0  0
  145.8457  135.7114  152.5810 C   0  0  2  0  0  0  0  0  0  0  0  0
  144.5448  135.1724  153.2322 C   0  0  0  0  0  0  0  0  0  0  0  0
  145.9793  137.2381  152.8752 C   0  0  0  0  0  0  0  0  0  0  0  0
  147.3649  137.6930  152.9741 N   0  0  0  0  0  0  0  0  0  0  0  0
  147.8529  138.5428  153.8906 C   0  0  0  0  0  0  0  0  0  0  0  0
  147.1681  139.0577  154.7738 O   0  0  0  0  0  0  0  0  0  0  0  0
  149.3418  138.8732  153.7806 C   0  0  0  0  0  0  0  0  0  0  0  0
  149.8930  139.7875  154.8733 C   0  0  0  0  0  0  0  0  0  0  0  0
  150.7927  139.3668  155.8099 C   0  0  0  0  0  0  0  0  0  0  0  0
  151.3295  137.9469  155.8562 C   0  0  0  0  0  0  0  0  0  0  0  0
  151.2805  140.2308  156.8003 N   0  0  0  0  0  0  0  0  0  0  0  0
  150.8614  141.4531  156.8204 C   0  0  0  0  0  0  0  0  0  0  0  0
  151.3120  142.4838  157.8340 C   0  0  0  0  0  0  0  0  0  0  0  0
  149.9440  141.9458  155.8937 N   0  0  0  0  0  0  0  0  0  0  0  0
  149.4279  141.1879  154.9006 C   0  0  0  0  0  0  0  0  0  0  0  0
  148.6392  141.6749  154.0916 O   0  0  0  0  0  0  0  0  0  0  0  0
  147.0392  134.9593  153.1158 N   0  3  0  0  0  0  0  0  0  0  0  0
  147.2875  135.0872  154.5800 C   0  0  0  0  0  0  0  0  0  0  0  0
  148.6406  134.4607  154.9521 C   0  0  0  0  0  0  0  0  0  0  0  0
  148.6513  133.0935  154.5670 O   0  0  0  0  0  0  0  0  0  0  0  0
  148.4973  132.9423  153.1628 C   0  0  0  0  0  0  0  0  0  0  0  0
  147.1452  133.5264  152.7181 C   0  0  0  0  0  0  0  0  0  0  0  0
  149.6557  142.9113  155.9565 H   0  0  0  0  0  0  0  0  0  0  0  0
  144.2978  135.4136  149.3971 H   0  0  0  0  0  0  0  0  0  0  0  0
  143.8374  136.5522  150.6495 H   0  0  0  0  0  0  0  0  0  0  0  0
  143.6341  134.8199  150.9095 H   0  0  0  0  0  0  0  0  0  0  0  0
  146.1594  134.5424  150.7514 H   0  0  0  0  0  0  0  0  0  0  0  0
  146.3176  136.2396  150.5164 H   0  0  0  0  0  0  0  0  0  0  0  0
  143.6554  135.5171  152.7037 H   0  0  0  0  0  0  0  0  0  0  0  0
  144.4345  135.5063  154.2641 H   0  0  0  0  0  0  0  0  0  0  0  0
  144.5128  134.0826  153.2343 H   0  0  0  0  0  0  0  0  0  0  0  0
  145.4488  137.8290  152.1280 H   0  0  0  0  0  0  0  0  0  0  0  0
  145.5176  137.4851  153.8304 H   0  0  0  0  0  0  0  0  0  0  0  0
  148.0096  137.3304  152.2857 H   0  0  0  0  0  0  0  0  0  0  0  0
  149.9037  137.9386  153.7478 H   0  0  0  0  0  0  0  0  0  0  0  0
  149.5224  139.3327  152.8086 H   0  0  0  0  0  0  0  0  0  0  0  0
  150.5269  137.2417  156.0726 H   0  0  0  0  0  0  0  0  0  0  0  0
  152.0890  137.8357  156.6310 H   0  0  0  0  0  0  0  0  0  0  0  0
  151.7841  137.6746  154.9037 H   0  0  0  0  0  0  0  0  0  0  0  0
  152.3912  142.6243  157.7713 H   0  0  0  0  0  0  0  0  0  0  0  0
  151.0681  142.1504  158.8430 H   0  0  0  0  0  0  0  0  0  0  0  0
  150.8321  143.4493  157.6683 H   0  0  0  0  0  0  0  0  0  0  0  0
  147.3026  136.1283  154.8955 H   0  0  0  0  0  0  0  0  0  0  0  0
  146.4981  134.5903  155.1443 H   0  0  0  0  0  0  0  0  0  0  0  0
  149.4634  134.9963  154.4755 H   0  0  0  0  0  0  0  0  0  0  0  0
  148.8003  134.5250  156.0286 H   0  0  0  0  0  0  0  0  0  0  0  0
  149.3222  133.4290  152.6397 H   0  0  0  0  0  0  0  0  0  0  0  0
  148.5469  131.8817  152.9160 H   0  0  0  0  0  0  0  0  0  0  0  0
  146.3352  132.9489  153.1643 H   0  0  0  0  0  0  0  0  0  0  0  0
  147.0735  133.4006  151.6394 H   0  0  0  0  0  0  0  0  0  0  0  0
  147.8298  135.4076  152.6755 H   0  0  0  0  0  0  0  0  0  0  0  0
  1  2  1  0  0  0  0
  1 26  1  0  0  0  0
  1 27  1  0  0  0  0
  1 28  1  0  0  0  0
  2  3  1  0  0  0  0
  2 29  1  0  0  0  0
  2 30  1  0  0  0  0
  3  4  1  0  0  0  0
  3  5  1  0  0  0  0
  3 19  1  0  0  0  0
  4 31  1  0  0  0  0
  4 32  1  0  0  0  0
  4 33  1  0  0  0  0
  5  6  1  0  0  0  0
  5 34  1  0  0  0  0
  5 35  1  0  0  0  0
  6  7  1  0  0  0  0
  6 36  1  0  0  0  0
  7  8  2  0  0  0  0
  7  9  1  0  0  0  0
  9 10  1  0  0  0  0
  9 37  1  0  0  0  0
  9 38  1  0  0  0  0
 10 17  1  0  0  0  0
 10 11  2  0  0  0  0
 11 12  1  0  0  0  0
 11 13  1  0  0  0  0
 12 39  1  0  0  0  0
 12 40  1  0  0  0  0
 12 41  1  0  0  0  0
 13 14  2  0  0  0  0
 14 15  1  0  0  0  0
 14 16  1  0  0  0  0
 15 42  1  0  0  0  0
 15 43  1  0  0  0  0
 15 44  1  0  0  0  0
 16 25  1  0  0  0  0
 16 17  1  0  0  0  0
 17 18  2  0  0  0  0
 19 24  1  0  0  0  0
 19 20  1  0  0  0  0
 19 53  1  0  0  0  0
 20 21  1  0  0  0  0
 20 45  1  0  0  0  0
 20 46  1  0  0  0  0
 21 22  1  0  0  0  0
 21 47  1  0  0  0  0
 21 48  1  0  0  0  0
 22 23  1  0  0  0  0
 23 24  1  0  0  0  0
 23 49  1  0  0  0  0
 23 50  1  0  0  0  0
 24 51  1  0  0  0  0
 24 52  1  0  0  0  0
M  CHG  1  19   1
M  END
> <s_m_source_file>
AV-unprocessed.smi

> <i_m_source_file_index>
1492

> <i_lp_mmshare_version>
43012

> <i_f3d_flags>
0

> <s_epik_input>
W0NIMl0xW0NIMl1PW0NIMl1bQ0gyXU4xW0NAQF0oW0NIM10pKFtDSDJdW0NIM10pW0NIMl1bTkhdQyg9TylbQ0gyXWMyYyhbQ0gzXSluYyhbQ0gzXSlbbkhdYzI9Tw==

> <s_epik_cmdline>
J2VwaWtfcHl0aG9uJywgJy1waCcsICc3LjAnLCAnLXRuJywgJzgnLCAnLW1hJywgJzIwMCcsICctbWV0YWxfYmluZGluZycsICctaW1hZScsICc8aW5maWxlLm1hZT4nLCAnLW9tYWUnLCAnPG91dGZpbGUubWFlPic=

> <r_lp_tautomer_probability>
0.839158

> <r_epik_Ionization_Penalty>
0.506959

> <r_epik_Ionization_Penalty_Charging>
0.506936

> <r_epik_Ionization_Penalty_Neutral>
2.27768e-05

> <r_epik_State_Penalty>
0.6046

> <r_epik_Charging_Adjusted_Penalty>
1.11154

> <i_epik_Tot_Q>
1

> <i_epik_Tot_abs_Q>
1

> <r_epik_Metal_State_Penalty>
0.783136

> <b_epik_Metal_Only>
0

> <s_lp_Force_Field>
OPLS_2005

> <r_lp_Energy>
29.7621

> <b_lp_Chiralities_Consistent>
1

> <s_lp_Variant>
AV-unprocessed.smi:1492-4

> <Gold.Version>
5.8.1

> <Gold.Id.Protein>
6NUR|6NUR_protein|mol2

> <Gold.PLP.Fitness>
46.2099

> <Gold.PLP.PLP>
-35.4739

> <Gold.PLP.part.hbond>
-3.7487

> <Gold.PLP.part.metal>
0.0000

> <Gold.PLP.part.buried>
-1.1619

> <Gold.PLP.part.nonpolar>
-31.5780

> <Gold.PLP.part.repulsive>
0.5576

> <Gold.PLP.ligand.clash>
0.0000

> <Gold.PLP.ligand.torsion>
1.3826

> <Gold.PLP.Chemscore.Hbond>
4.4579

> <Gold.PLP.Chemscore.CHOScore>
0.0000

> <Gold.PLP.Chemscore.Metal>
0.0000

> <Gold.Chemscore.Hbonds>
donor molecule, donor type, donor heavy atom, donor atom, acceptor molecule, acceptor atom, score
      L1  H     6    36       P1  7948  0.91
      L1  H    16    25       P1  8028  1.00
      L1  H    19    53       P1  7948  2.00
      P1  H  8011  8017       L1    18  0.29

> <Gold.PLP.Chemscore.Internal.Correction>
0.1274

> <Gold.Rescore>
     Score         DG    S(hbond)    S(metal)    S(lipo)     H(rot)  DE(clash)    DE(int)     intcor
     17.56     -19.01       3.47        0.00      64.44       2.19       0.10       1.34       ----

> <Gold.Chemscore.Fitness>
17.5639

> <Gold.Chemscore.DG>
-19.0087

> <Gold.Chemscore.ZeroCoef>
-5.4800

> <Gold.Chemscore.Hbond>
3.4736

> <Gold.Chemscore.Metal>
0.0000

> <Gold.Chemscore.Lipo>
64.4428

> <Gold.Chemscore.Internal_Hbond>
0.0000

> <Gold.Chemscore.DEClash>
0.0998

> <Gold.Chemscore.DEInternal>
1.3450

> <Gold.Chemscore.Rot>
2.1926

> <Gold.Chemscore.Internal.Correction>
   9.000000E+99

> <Gold.Chemscore.Hbonds>
donor molecule, donor type, donor heavy atom, donor atom, acceptor molecule, acceptor atom, score
      L1  H     6    36       P1  7948  0.82
      L1  H    16    25       P1  8028  0.97
      L1  H    19    53       P1  7948  0.98
      P1  H  8011  8017       L1    18  0.20

> <Gold.Chemscore.Hbond.Weighted>
-11.6018

> <Gold.Chemscore.Metal.Weighted>
-0.0000

> <Gold.Chemscore.Lipo.Weighted>
-7.5398

> <Gold.Chemscore.Internal_Hbond.Weighted>
0.0000

> <Gold.Chemscore.DEClash.Weighted>
0.0998

> <Gold.Chemscore.DEInternal.Weighted>
1.3450

> <Gold.Chemscore.Rot.Weighted>
5.6129

> <Gold.Chemscore.Internal.Correction.Weighted>
   9.000000E+99

> <Gold.Protein.RotatedTorsions>
[ 6907 6896 6895 6894 ] final  -35.89 input  -60.11 | X-H torsion
[ 7974 7965 7964 7962 ] final   26.43 input  175.53 | X-H torsion
[ 8008 7997 7996 7995 ] final   33.08 input   59.86 | X-H torsion
[ 10167 10162 10161 10158 ] final  -35.07 input  -65.29 | X-H torsion
[ 10718 10713 10712 10709 ] final   11.73 input   66.30 | X-H torsion
[ 10763 10752 10751 10750 ] final   85.87 input  -60.55 | X-H torsion
[ 11005 11000 10999 10996 ] final -129.07 input  -57.11 | X-H torsion

> <Gold.Protein.ActiveResidues>
 VAL166  LYS551  ARG553  GLY616  TRP617  ASP618  TYR619  PRO620  LYS621  CYS622 
 ASP623  PHE694  ASN695  SER759  ASP760  ASP761  ALA762  ILE779  LEU786  VAL792 
 PHE793  MET794  SER795  GLU796  ALA797  LYS798  CYS799  TRP800  GLU811  SER814 

> <Gold.Protein.RotatedAtoms>
  151.0341  134.9560  159.8126 H   0  0  0  0  0  0  0  0  0  0  0  0  # atno 6907 bound_to 6896
  152.5351  134.2742  159.8993 H   0  0  0  0  0  0  0  0  0  0  0  0  # atno 6908 bound_to 6896
  151.2753  133.4193  159.2657 H   0  0  0  0  0  0  0  0  0  0  0  0  # atno 6909 bound_to 6896
  146.1838  139.7329  142.8881 H   0  0  0  0  0  0  0  0  0  0  0  0  # atno 7974 bound_to 7965
  155.1328  140.3259  155.4470 H   0  0  0  0  0  0  0  0  0  0  0  0  # atno 8008 bound_to 7997
  156.2629  140.2007  156.6396 H   0  0  0  0  0  0  0  0  0  0  0  0  # atno 8009 bound_to 7997
  154.6600  140.0548  157.0038 H   0  0  0  0  0  0  0  0  0  0  0  0  # atno 8010 bound_to 7997
  140.7173  143.3503  151.2169 H   0  0  0  0  0  0  0  0  0  0  0  0  # atno 10167 bound_to 10162
  156.9998  130.6075  149.5695 H   0  0  0  0  0  0  0  0  0  0  0  0  # atno 10718 bound_to 10713
  153.1516  135.4601  154.9644 H   0  0  0  0  0  0  0  0  0  0  0  0  # atno 10763 bound_to 10752
  154.7829  135.3194  154.7953 H   0  0  0  0  0  0  0  0  0  0  0  0  # atno 10764 bound_to 10752
  153.8457  135.6926  153.4852 H   0  0  0  0  0  0  0  0  0  0  0  0  # atno 10765 bound_to 10752
  140.9463  134.1126  157.4104 H   0  0  0  0  0  0  0  0  0  0  0  0  # atno 11005 bound_to 11000
  145.4000  141.0384  143.3076 LP  0  0  0  0  0  0  0  0  0  0  0  0  # atno 17320 bound_to 7965
  144.8360  139.5549  143.6922 LP  0  0  0  0  0  0  0  0  0  0  0  0  # atno 17321 bound_to 7965
  139.7032  143.9498  152.2915 LP  0  0  0  0  0  0  0  0  0  0  0  0  # atno 17342 bound_to 10162
  139.9198  144.6806  150.8474 LP  0  0  0  0  0  0  0  0  0  0  0  0  # atno 17343 bound_to 10162
  156.0175  130.5270  150.8179 LP  0  0  0  0  0  0  0  0  0  0  0  0  # atno 17370 bound_to 10713
  157.5398  131.0940  150.9842 LP  0  0  0  0  0  0  0  0  0  0  0  0  # atno 17371 bound_to 10713
  139.8834  135.0052  156.6299 LP  0  0  0  0  0  0  0  0  0  0  0  0  # atno 17394 bound_to 11000
  140.7665  133.8774  155.8458 LP  0  0  0  0  0  0  0  0  0  0  0  0  # atno 17395 bound_to 11000

$$$$
