#       Name:                AV-unprocessed.smi:694
#       Creating user name   scv26
#       Creation time:       Fri Mar 27 00:36:00 2020


#       File generated by GOLD software.
#

@<TRIPOS>MOLECULE
AV-unprocessed.smi:694
    47    48     1
SMALL
NO_CHARGES


@<TRIPOS>ATOM
      1 ****        -6.1800   0.3315   1.6253 C.3            1 S1                 0.0000
      2 ****        -5.5222  -0.9362   1.3286 N.pl3          1 S1                 0.0000
      3 ****        -6.3094  -2.1477   1.1403 C.3            1 S1                 0.0000
      4 ****        -4.1161  -0.9866   1.2130 C.ar           1 S1                 0.0000
      5 ****        -3.4024  -2.1756   0.9247 C.ar           1 S1                 0.0000
      6 ****        -1.9962  -2.1432   0.8248 C.ar           1 S1                 0.0000
      7 ****        -1.3059  -0.9266   1.0049 C.ar           1 S1                 0.0000
      8 ****         0.1122  -0.9489   0.9049 N.am           1 S1                 0.0000
      9 ****         0.9602   0.0830   0.7516 C.2            1 S1                 0.0000
     10 ****         0.6309   1.2642   0.6471 O.2            1 S1                 0.0000
     11 ****         2.2323  -0.3380   0.7029 N.am           1 S1                 0.0000
     12 ****         3.4006   0.5181   0.5166 C.3            1 S1                 0.0000
     13 ****         3.8917   0.5082  -0.9447 C.3            1 S1                 0.0000
     14 ****         2.8866   1.0728  -1.9600 C.3            1 S1                 0.0000
     15 ****         3.7163   1.5810  -3.1487 C.3            1 S1                 0.0000
     16 ****         5.1831   1.5460  -2.7001 C.3            1 S1                 0.0000
     17 ****         5.1384   1.3664  -1.1808 C.3            1 S1                 0.0000
     18 ****         6.3134   0.7478  -0.6991 O.3            1 S1                 0.0000
     19 ****        -2.0628   0.2320   1.3015 C.ar           1 S1                 0.0000
     20 ****        -3.4081   0.1557   1.3890 N.pl3          1 S1                 1.0000
     21 ****        -5.8508   0.7164   2.5911 H              1 S1                 0.0000
     22 ****        -7.2637   0.2181   1.6633 H              1 S1                 0.0000
     23 ****        -5.9497   1.0723   0.8590 H              1 S1                 0.0000
     24 ****        -6.1581  -2.5515   0.1388 H              1 S1                 0.0000
     25 ****        -7.3748  -1.9516   1.2625 H              1 S1                 0.0000
     26 ****        -6.0253  -2.9066   1.8698 H              1 S1                 0.0000
     27 ****        -3.9109  -3.1168   0.7779 H              1 S1                 0.0000
     28 ****        -1.4539  -3.0514   0.6056 H              1 S1                 0.0000
     29 ****         0.5318  -1.8672   0.9076 H              1 S1                 0.0000
     30 ****         2.4096  -1.3278   0.7929 H              1 S1                 0.0000
     31 ****         3.1969   1.5383   0.8461 H              1 S1                 0.0000
     32 ****         4.1903   0.1433   1.1684 H              1 S1                 0.0000
     33 ****         4.1214  -0.5189  -1.2358 H              1 S1                 0.0000
     34 ****         2.1471   0.3302  -2.2610 H              1 S1                 0.0000
     35 ****         2.3448   1.9117  -1.5215 H              1 S1                 0.0000
     36 ****         3.5707   0.9555  -4.0300 H              1 S1                 0.0000
     37 ****         3.4129   2.5941  -3.4149 H              1 S1                 0.0000
     38 ****         5.6748   0.6889  -3.1635 H              1 S1                 0.0000
     39 ****         5.7335   2.4393  -2.9972 H              1 S1                 0.0000
     40 ****         5.0184   2.3390  -0.7008 H              1 S1                 0.0000
     41 ****         7.0478   1.3127  -0.8856 H              1 S1                 0.0000
     42 ****        -1.6557   1.2151   1.4831 H              1 S1                 0.0000
     43 ****        -3.9214   1.0111   1.6026 H              1 S1                 0.0000
     44 ****        -0.3360   1.5180   0.6736 LP             1 S1                 0.0000
     45 ****         1.3303   1.9703   0.5357 LP             1 S1                 0.0000
     46 ****         6.4416  -0.1333  -1.1542 LP             1 S1                 0.0000
     47 ****         6.2394   0.6056   0.2880 LP             1 S1                 0.0000
@<TRIPOS>BOND
    1    1    2 1     
    2    1   21 1     
    3    1   22 1     
    4    1   23 1     
    5    2    3 1     
    6    2    4 1     
    7    3   24 1     
    8    3   25 1     
    9    3   26 1     
   10    4   20 ar    
   11    4    5 ar    
   12    5    6 ar    
   13    5   27 1     
   14    6    7 ar    
   15    6   28 1     
   16    7    8 1     
   17    7   19 ar    
   18    8    9 am    
   19    8   29 1     
   20    9   10 2     
   21    9   11 am    
   22   11   12 1     
   23   11   30 1     
   24   12   13 1     
   25   12   31 1     
   26   12   32 1     
   27   13   17 1     
   28   13   14 1     
   29   13   33 1     
   30   14   15 1     
   31   14   34 1     
   32   14   35 1     
   33   15   16 1     
   34   15   36 1     
   35   15   37 1     
   36   16   17 1     
   37   16   38 1     
   38   16   39 1     
   39   17   18 1     
   40   17   40 1     
   41   18   41 1     
   42   19   20 ar    
   43   19   42 1     
   44   20   43 1     
   45   10   44 1     
   46   10   45 1     
   47   18   46 1     
   48   18   47 1     
@<TRIPOS>SUBSTRUCTURE
      1 S1             1
@<TRIPOS>SET
LONE_PAIRS      STATIC     ATOMS    <user>   **** ""
4 44 45 46 47
DONOR_HYDROGENS      STATIC     ATOMS    <user>   **** ""
4 29 30 41 43
ATOM$BLUE        STATIC     ATOMS    COLORGROUP SYSTEM
4 44 45 46 47
ATOM$RED        STATIC     ATOMS    COLORGROUP SYSTEM
4 29 30 41 43
