AV-unprocessed.smi:951|AV-procd|sdf|4254|dock1
  -GOLD-   22720 2163D 1   1.00000     0.00000
 Structure written by MMmdl.
 52 54  0  0  0  0  0  0  0  0  2 V2000
  151.8139  140.2613  159.1708 O   0  0  0  0  0  0  0  0  0  0  0  0
  151.9286  141.4876  159.1539 C   0  0  0  0  0  0  0  0  0  0  0  0
  151.1478  142.2917  158.4150 N   0  0  0  0  0  0  0  0  0  0  0  0
  150.0628  141.8507  157.5419 C   0  0  0  0  0  0  0  0  0  0  0  0
  150.5422  141.5406  156.1100 C   0  0  0  0  0  0  0  0  0  0  0  0
  149.4177  141.2401  155.1329 C   0  0  0  0  0  0  0  0  0  0  0  0
  149.3230  140.0037  154.4587 C   0  0  0  0  0  0  0  0  0  0  0  0
  148.2374  139.7752  153.5875 C   0  0  0  0  0  0  0  0  0  0  0  0
  147.2706  140.7863  153.4088 C   0  0  0  0  0  0  0  0  0  0  0  0
  147.4136  142.0022  154.1070 C   0  0  0  0  0  0  0  0  0  0  0  0
  148.4675  142.1830  154.9327 N   0  3  0  0  0  0  0  0  0  0  0  0
  152.9716  142.1853  160.0477 C   0  0  1  0  0  0  0  0  0  0  0  0
  152.2500  143.0741  161.0741 C   0  0  0  0  0  0  0  0  0  0  0  0
  153.1656  143.0908  162.2812 C   0  0  0  0  0  0  0  0  0  0  0  0
  153.8871  141.7453  162.2383 C   0  0  0  0  0  0  0  0  0  0  0  0
  153.8189  141.2785  160.8495 N   0  0  0  0  0  0  0  0  0  0  0  0
  154.5175  140.2203  160.3607 C   0  0  0  0  0  0  0  0  0  0  0  0
  154.5228  139.9502  159.1593 O   0  0  0  0  0  0  0  0  0  0  0  0
  155.3407  139.3352  161.3300 C   0  0  0  0  0  0  0  0  0  0  0  0
  156.1805  138.2785  160.5744 C   0  0  0  0  0  0  0  0  0  0  0  0
  155.3444  137.0903  160.0682 C   0  0  0  0  0  0  0  0  0  0  0  0
  154.5876  136.4204  161.2234 C   0  0  0  0  0  0  0  0  0  0  0  0
  153.6882  137.4275  161.9550 C   0  0  0  0  0  0  0  0  0  0  0  0
  154.4824  138.6612  162.4322 C   0  0  0  0  0  0  0  0  0  0  0  0
  151.3189  143.2859  158.4608 H   0  0  0  0  0  0  0  0  0  0  0  0
  149.6208  140.9549  157.9788 H   0  0  0  0  0  0  0  0  0  0  0  0
  149.2652  142.5950  157.5132 H   0  0  0  0  0  0  0  0  0  0  0  0
  151.1226  142.3826  155.7295 H   0  0  0  0  0  0  0  0  0  0  0  0
  151.2250  140.6906  156.1308 H   0  0  0  0  0  0  0  0  0  0  0  0
  150.0672  139.2356  154.6128 H   0  0  0  0  0  0  0  0  0  0  0  0
  148.1462  138.8347  153.0641 H   0  0  0  0  0  0  0  0  0  0  0  0
  146.4308  140.6301  152.7475 H   0  0  0  0  0  0  0  0  0  0  0  0
  146.7211  142.8281  154.0338 H   0  0  0  0  0  0  0  0  0  0  0  0
  153.6372  142.7976  159.4361 H   0  0  0  0  0  0  0  0  0  0  0  0
  152.0498  144.0756  160.6917 H   0  0  0  0  0  0  0  0  0  0  0  0
  151.2931  142.6406  161.3719 H   0  0  0  0  0  0  0  0  0  0  0  0
  153.8945  143.8942  162.1661 H   0  0  0  0  0  0  0  0  0  0  0  0
  152.6336  143.2573  163.2183 H   0  0  0  0  0  0  0  0  0  0  0  0
  154.9124  141.8439  162.5964 H   0  0  0  0  0  0  0  0  0  0  0  0
  153.3677  141.0308  162.8784 H   0  0  0  0  0  0  0  0  0  0  0  0
  156.0323  139.9794  161.8700 H   0  0  0  0  0  0  0  0  0  0  0  0
  156.7041  138.7367  159.7345 H   0  0  0  0  0  0  0  0  0  0  0  0
  156.9595  137.9048  161.2400 H   0  0  0  0  0  0  0  0  0  0  0  0
  154.6382  137.4236  159.3071 H   0  0  0  0  0  0  0  0  0  0  0  0
  155.9957  136.3627  159.5831 H   0  0  0  0  0  0  0  0  0  0  0  0
  153.9872  135.5926  160.8452 H   0  0  0  0  0  0  0  0  0  0  0  0
  155.3014  135.9892  161.9264 H   0  0  0  0  0  0  0  0  0  0  0  0
  152.8710  137.7278  161.3001 H   0  0  0  0  0  0  0  0  0  0  0  0
  153.2181  136.9431  162.8112 H   0  0  0  0  0  0  0  0  0  0  0  0
  155.1436  138.3518  163.2426 H   0  0  0  0  0  0  0  0  0  0  0  0
  153.7984  139.3874  162.8735 H   0  0  0  0  0  0  0  0  0  0  0  0
  148.5474  143.0683  155.4330 H   0  0  0  0  0  0  0  0  0  0  0  0
  1  2  2  0  0  0  0
  2  3  1  0  0  0  0
  2 12  1  0  0  0  0
  3  4  1  0  0  0  0
  3 25  1  0  0  0  0
  4  5  1  0  0  0  0
  4 26  1  0  0  0  0
  4 27  1  0  0  0  0
  5  6  1  0  0  0  0
  5 28  1  0  0  0  0
  5 29  1  0  0  0  0
  6 11  1  0  0  0  0
  6  7  2  0  0  0  0
  7  8  1  0  0  0  0
  7 30  1  0  0  0  0
  8  9  2  0  0  0  0
  8 31  1  0  0  0  0
  9 10  1  0  0  0  0
  9 32  1  0  0  0  0
 10 11  2  0  0  0  0
 10 33  1  0  0  0  0
 11 52  1  0  0  0  0
 12 16  1  0  0  0  0
 12 13  1  0  0  0  0
 12 34  1  0  0  0  0
 13 14  1  0  0  0  0
 13 35  1  0  0  0  0
 13 36  1  0  0  0  0
 14 15  1  0  0  0  0
 14 37  1  0  0  0  0
 14 38  1  0  0  0  0
 15 16  1  0  0  0  0
 15 39  1  0  0  0  0
 15 40  1  0  0  0  0
 16 17  1  0  0  0  0
 17 18  2  0  0  0  0
 17 19  1  0  0  0  0
 19 24  1  0  0  0  0
 19 20  1  0  0  0  0
 19 41  1  0  0  0  0
 20 21  1  0  0  0  0
 20 42  1  0  0  0  0
 20 43  1  0  0  0  0
 21 22  1  0  0  0  0
 21 44  1  0  0  0  0
 21 45  1  0  0  0  0
 22 23  1  0  0  0  0
 22 46  1  0  0  0  0
 22 47  1  0  0  0  0
 23 24  1  0  0  0  0
 23 48  1  0  0  0  0
 23 49  1  0  0  0  0
 24 50  1  0  0  0  0
 24 51  1  0  0  0  0
M  CHG  1  11   1
M  END
> <s_m_source_file>
AV-unprocessed.smi

> <i_m_source_file_index>
951

> <i_lp_mmshare_version>
43012

> <i_f3d_flags>
0

> <s_epik_input>
bjFbY0hdW2NIXVtjSF1bY0hdYzFbQ0gyXVtDSDJdW05IXUMoPU8pW0NAQEhdMltDSDJdW0NIMl1bQ0gyXU4yQyg9TylbQ0hdM1tDSDJdW0NIMl1bQ0gyXVtDSDJdW0NIMl0z

> <s_epik_cmdline>
J2VwaWtfcHl0aG9uJywgJy1waCcsICc3LjAnLCAnLXRuJywgJzgnLCAnLW1hJywgJzIwMCcsICctbWV0YWxfYmluZGluZycsICctaW1hZScsICc8aW5maWxlLm1hZT4nLCAnLW9tYWUnLCAnPG91dGZpbGUubWFlPic=

> <r_epik_Ionization_Penalty>
1.85306

> <r_epik_Ionization_Penalty_Charging>
1.85306

> <r_epik_Ionization_Penalty_Neutral>
5.78903e-08

> <r_epik_State_Penalty>
1.97071

> <r_epik_Charging_Adjusted_Penalty>
3.82377

> <i_epik_Tot_Q>
1

> <i_epik_Tot_abs_Q>
1

> <r_epik_Metal_State_Penalty>
1.99634

> <b_epik_Metal_Only>
0

> <s_lp_Force_Field>
OPLS_2005

> <r_lp_Energy>
29.0494

> <b_lp_Chiralities_Consistent>
1

> <s_lp_Variant>
AV-unprocessed.smi:951-4

> <Gold.Version>
5.8.1

> <Gold.Id.Protein>
6NUR|6NUR_protein|mol2

> <Gold.PLP.Fitness>
57.7152

> <Gold.PLP.PLP>
-49.1336

> <Gold.PLP.part.hbond>
-2.0000

> <Gold.PLP.part.metal>
0.0000

> <Gold.PLP.part.buried>
-3.1404

> <Gold.PLP.part.nonpolar>
-44.2364

> <Gold.PLP.part.repulsive>
0.2372

> <Gold.PLP.ligand.clash>
0.0000

> <Gold.PLP.ligand.torsion>
0.2570

> <Gold.PLP.Chemscore.Hbond>
3.0000

> <Gold.PLP.Chemscore.CHOScore>
0.0000

> <Gold.PLP.Chemscore.Metal>
0.0000

> <Gold.Chemscore.Hbonds>
donor molecule, donor type, donor heavy atom, donor atom, acceptor molecule, acceptor atom, score
      L1  H    11    52       P1  8028  2.00
      P1  H  7997  8010       L1    18  1.00

> <Gold.PLP.Chemscore.Internal.Correction>
0.0955

> <Gold.Rescore>
     Score         DG    S(hbond)    S(metal)    S(lipo)     H(rot)  DE(clash)    DE(int)     intcor
     18.31     -22.16       1.99        0.00     121.92       1.65       0.11       3.74       ----

> <Gold.Chemscore.Fitness>
18.3101

> <Gold.Chemscore.DG>
-22.1588

> <Gold.Chemscore.ZeroCoef>
-5.4800

> <Gold.Chemscore.Hbond>
1.9911

> <Gold.Chemscore.Metal>
0.0000

> <Gold.Chemscore.Lipo>
121.9212

> <Gold.Chemscore.Internal_Hbond>
0.0000

> <Gold.Chemscore.DEClash>
0.1080

> <Gold.Chemscore.DEInternal>
3.7407

> <Gold.Chemscore.Rot>
1.6548

> <Gold.Chemscore.Internal.Correction>
   9.000000E+99

> <Gold.Chemscore.Hbonds>
donor molecule, donor type, donor heavy atom, donor atom, acceptor molecule, acceptor atom, score
      L1  H    11    52       P1  8028  0.99
      P1  H  7997  8010       L1    18  0.95

> <Gold.Chemscore.Hbond.Weighted>
-6.6502

> <Gold.Chemscore.Metal.Weighted>
-0.0000

> <Gold.Chemscore.Lipo.Weighted>
-14.2648

> <Gold.Chemscore.Internal_Hbond.Weighted>
0.0000

> <Gold.Chemscore.DEClash.Weighted>
0.1080

> <Gold.Chemscore.DEInternal.Weighted>
3.7407

> <Gold.Chemscore.Rot.Weighted>
4.2362

> <Gold.Chemscore.Internal.Correction.Weighted>
   9.000000E+99

> <Gold.Protein.RotatedTorsions>
[ 6907 6896 6895 6894 ] final   -2.24 input  -60.11 | X-H torsion
[ 7974 7965 7964 7962 ] final  -31.88 input  175.53 | X-H torsion
[ 8008 7997 7996 7995 ] final   11.05 input   59.86 | X-H torsion
[ 10167 10162 10161 10158 ] final  135.63 input  -65.29 | X-H torsion
[ 10718 10713 10712 10709 ] final   41.94 input   66.30 | X-H torsion
[ 10763 10752 10751 10750 ] final   15.78 input  -60.55 | X-H torsion
[ 11005 11000 10999 10996 ] final  124.06 input  -57.11 | X-H torsion

> <Gold.Protein.ActiveResidues>
 VAL166  LYS551  ARG553  GLY616  TRP617  ASP618  TYR619  PRO620  LYS621  CYS622 
 ASP623  PHE694  ASN695  SER759  ASP760  ASP761  ALA762  ILE779  LEU786  VAL792 
 PHE793  MET794  SER795  GLU796  ALA797  LYS798  CYS799  TRP800  GLU811  SER814 

> <Gold.Protein.RotatedAtoms>
  151.5332  135.1068  159.9907 H   0  0  0  0  0  0  0  0  0  0  0  0  # atno 6907 bound_to 6896
  152.4569  133.7737  159.6823 H   0  0  0  0  0  0  0  0  0  0  0  0  # atno 6908 bound_to 6896
  150.8516  133.7713  159.3048 H   0  0  0  0  0  0  0  0  0  0  0  0  # atno 6909 bound_to 6896
  146.1033  140.5723  142.8811 H   0  0  0  0  0  0  0  0  0  0  0  0  # atno 7974 bound_to 7965
  154.8016  140.2853  155.5917 H   0  0  0  0  0  0  0  0  0  0  0  0  # atno 8008 bound_to 7997
  156.2978  140.2585  156.2815 H   0  0  0  0  0  0  0  0  0  0  0  0  # atno 8009 bound_to 7997
  154.9551  140.0378  157.2152 H   0  0  0  0  0  0  0  0  0  0  0  0  # atno 8010 bound_to 7997
  139.5210  144.6507  151.5311 H   0  0  0  0  0  0  0  0  0  0  0  0  # atno 10167 bound_to 10162
  157.3992  130.7850  149.7334 H   0  0  0  0  0  0  0  0  0  0  0  0  # atno 10718 bound_to 10713
  153.1493  135.6775  153.8906 H   0  0  0  0  0  0  0  0  0  0  0  0  # atno 10763 bound_to 10752
  153.8338  135.3114  155.3422 H   0  0  0  0  0  0  0  0  0  0  0  0  # atno 10764 bound_to 10752
  154.7850  135.4867  154.0011 H   0  0  0  0  0  0  0  0  0  0  0  0  # atno 10765 bound_to 10752
  139.9341  134.9640  156.8353 H   0  0  0  0  0  0  0  0  0  0  0  0  # atno 11005 bound_to 11000
  144.7450  140.5044  143.6842 LP  0  0  0  0  0  0  0  0  0  0  0  0  # atno 17320 bound_to 7965
  145.5811  139.1489  143.3235 LP  0  0  0  0  0  0  0  0  0  0  0  0  # atno 17321 bound_to 7965
  140.6310  143.9075  150.6606 LP  0  0  0  0  0  0  0  0  0  0  0  0  # atno 17342 bound_to 10162
  140.2379  143.3686  152.1511 LP  0  0  0  0  0  0  0  0  0  0  0  0  # atno 17343 bound_to 10162
  155.9819  130.4015  150.3448 LP  0  0  0  0  0  0  0  0  0  0  0  0  # atno 17370 bound_to 10713
  157.1573  131.0336  151.2857 LP  0  0  0  0  0  0  0  0  0  0  0  0  # atno 17371 bound_to 10713
  140.6122  134.0072  155.7582 LP  0  0  0  0  0  0  0  0  0  0  0  0  # atno 17394 bound_to 11000
  141.0946  133.9863  157.3181 LP  0  0  0  0  0  0  0  0  0  0  0  0  # atno 17395 bound_to 11000

$$$$
