AV-unprocessed.smi:1433|AV-procd|sdf|5846|dock6
  -GOLD-   22720 5513D 1   1.00000     0.00000
 Structure written by MMmdl.
 45 46  0  0  0  0  0  0  0  0  2 V2000
  152.6170  141.8206  161.6655 C   0  0  0  0  0  0  0  0  0  0  0  0
  153.3547  142.1087  160.3454 C   0  0  1  0  0  0  0  0  0  0  0  0
  153.0361  141.0955  159.2271 C   0  0  0  0  0  0  0  0  0  0  0  0
  151.6759  141.3108  158.6621 N   0  3  2  0  0  0  0  0  0  0  0  0
  151.2388  140.3471  157.5999 C   0  0  2  0  0  0  0  0  0  0  0  0
  149.9790  140.8918  156.8916 C   0  0  0  0  0  0  0  0  0  0  0  0
  150.9912  138.9000  158.1126 C   0  0  0  0  0  0  0  0  0  0  0  0
  149.5772  138.5935  158.3096 N   0  0  0  0  0  0  0  0  0  0  0  0
  149.1011  137.4549  158.8372 C   0  0  0  0  0  0  0  0  0  0  0  0
  149.8195  136.5233  159.1997 O   0  0  0  0  0  0  0  0  0  0  0  0
  147.5829  137.3517  158.9847 C   0  0  0  0  0  0  0  0  0  0  0  0
  147.2277  136.6950  160.2292 N   0  0  0  0  0  0  0  0  0  0  0  0
  146.8817  135.3752  160.4329 C   0  0  0  0  0  0  0  0  0  0  0  0
  146.6402  135.2198  161.7678 C   0  0  0  0  0  0  0  0  0  0  0  0
  146.8696  136.5169  162.3062 C   0  0  0  0  0  0  0  0  0  0  0  0
  147.2223  137.3978  161.3835 N   0  0  0  0  0  0  0  0  0  0  0  0
  151.5395  142.7258  158.2278 C   0  0  0  0  0  0  0  0  0  0  0  0
  151.8304  143.6916  159.3890 C   0  0  2  0  0  0  0  0  0  0  0  0
  151.7709  145.1575  158.9450 C   0  0  0  0  0  0  0  0  0  0  0  0
  153.1392  143.4420  159.8889 O   0  0  0  0  0  0  0  0  0  0  0  0
  152.9119  140.8518  162.0695 H   0  0  0  0  0  0  0  0  0  0  0  0
  151.5345  141.8018  161.5415 H   0  0  0  0  0  0  0  0  0  0  0  0
  152.8550  142.5752  162.4156 H   0  0  0  0  0  0  0  0  0  0  0  0
  154.4210  142.0357  160.5623 H   0  0  0  0  0  0  0  0  0  0  0  0
  153.7725  141.1871  158.4269 H   0  0  0  0  0  0  0  0  0  0  0  0
  153.1359  140.0946  159.6462 H   0  0  0  0  0  0  0  0  0  0  0  0
  152.0441  140.2906  156.8658 H   0  0  0  0  0  0  0  0  0  0  0  0
  149.6746  140.2546  156.0614 H   0  0  0  0  0  0  0  0  0  0  0  0
  150.1339  141.8846  156.4716 H   0  0  0  0  0  0  0  0  0  0  0  0
  149.1378  140.9558  157.5827 H   0  0  0  0  0  0  0  0  0  0  0  0
  151.3886  138.1584  157.4182 H   0  0  0  0  0  0  0  0  0  0  0  0
  151.5002  138.7457  159.0647 H   0  0  0  0  0  0  0  0  0  0  0  0
  148.9123  139.3074  158.0472 H   0  0  0  0  0  0  0  0  0  0  0  0
  147.1218  138.3405  158.9498 H   0  0  0  0  0  0  0  0  0  0  0  0
  147.1716  136.7775  158.1535 H   0  0  0  0  0  0  0  0  0  0  0  0
  146.8384  134.6655  159.6197 H   0  0  0  0  0  0  0  0  0  0  0  0
  146.3455  134.3171  162.2819 H   0  0  0  0  0  0  0  0  0  0  0  0
  146.7917  136.8420  163.3333 H   0  0  0  0  0  0  0  0  0  0  0  0
  152.2267  142.9177  157.4017 H   0  0  0  0  0  0  0  0  0  0  0  0
  150.5364  142.9198  157.8513 H   0  0  0  0  0  0  0  0  0  0  0  0
  151.0947  143.5486  160.1805 H   0  0  0  0  0  0  0  0  0  0  0  0
  150.7845  145.4113  158.5564 H   0  0  0  0  0  0  0  0  0  0  0  0
  152.5021  145.3639  158.1627 H   0  0  0  0  0  0  0  0  0  0  0  0
  151.9804  145.8265  159.7801 H   0  0  0  0  0  0  0  0  0  0  0  0
  151.0391  141.1781  159.4349 H   0  0  0  0  0  0  0  0  0  0  0  0
  1  2  1  0  0  0  0
  1 21  1  0  0  0  0
  1 22  1  0  0  0  0
  1 23  1  0  0  0  0
  2 20  1  0  0  0  0
  2  3  1  0  0  0  0
  2 24  1  0  0  0  0
  3  4  1  0  0  0  0
  3 25  1  0  0  0  0
  3 26  1  0  0  0  0
  4  5  1  0  0  0  0
  4 17  1  0  0  0  0
  4 45  1  0  0  0  0
  5  6  1  0  0  0  0
  5  7  1  0  0  0  0
  5 27  1  0  0  0  0
  6 28  1  0  0  0  0
  6 29  1  0  0  0  0
  6 30  1  0  0  0  0
  7  8  1  0  0  0  0
  7 31  1  0  0  0  0
  7 32  1  0  0  0  0
  8  9  1  0  0  0  0
  8 33  1  0  0  0  0
  9 10  2  0  0  0  0
  9 11  1  0  0  0  0
 11 12  1  0  0  0  0
 11 34  1  0  0  0  0
 11 35  1  0  0  0  0
 12 16  1  0  0  0  0
 12 13  1  0  0  0  0
 13 14  2  0  0  0  0
 13 36  1  0  0  0  0
 14 15  1  0  0  0  0
 14 37  1  0  0  0  0
 15 16  2  0  0  0  0
 15 38  1  0  0  0  0
 17 18  1  0  0  0  0
 17 39  1  0  0  0  0
 17 40  1  0  0  0  0
 18 19  1  0  0  0  0
 18 20  1  0  0  0  0
 18 41  1  0  0  0  0
 19 42  1  0  0  0  0
 19 43  1  0  0  0  0
 19 44  1  0  0  0  0
M  CHG  1   4   1
M  END
> <s_m_source_file>
AV-unprocessed.smi

> <i_m_source_file_index>
1433

> <i_lp_mmshare_version>
43012

> <i_f3d_flags>
0

> <s_epik_input>
W0NIM11bQ0BASF0xW0NIMl1OKFtDSDJdW0NASF0oTzEpW0NIM10pW0NASF0oW0NIM10pW0NIMl1bTkhdQyg9TylbQ0gyXW4yW2NIXVtjSF1bY0hdbjI=

> <s_epik_cmdline>
J2VwaWtfcHl0aG9uJywgJy1waCcsICc3LjAnLCAnLXRuJywgJzgnLCAnLW1hJywgJzIwMCcsICctbWV0YWxfYmluZGluZycsICctaW1hZScsICc8aW5maWxlLm1hZT4nLCAnLW9tYWUnLCAnPG91dGZpbGUubWFlPic=

> <r_lp_tautomer_probability>
1

> <r_epik_Ionization_Penalty>
0.748405

> <r_epik_Ionization_Penalty_Charging>
0.748396

> <r_epik_Ionization_Penalty_Neutral>
8.54426e-06

> <r_epik_State_Penalty>
0.775162

> <r_epik_Charging_Adjusted_Penalty>
1.52356

> <i_epik_Tot_Q>
1

> <i_epik_Tot_abs_Q>
1

> <r_epik_Metal_State_Penalty>
0.775167

> <b_epik_Metal_Only>
0

> <s_lp_Force_Field>
OPLS_2005

> <r_lp_Energy>
23.467

> <b_lp_Chiralities_Consistent>
1

> <s_lp_Variant>
AV-unprocessed.smi:1433-12

> <Gold.Version>
5.8.1

> <Gold.Id.Protein>
6NUR|6NUR_protein|mol2

> <Gold.PLP.Fitness>
47.2206

> <Gold.PLP.PLP>
-42.5344

> <Gold.PLP.part.hbond>
-3.0000

> <Gold.PLP.part.metal>
0.0000

> <Gold.PLP.part.buried>
-5.5915

> <Gold.PLP.part.nonpolar>
-34.2573

> <Gold.PLP.part.repulsive>
0.2766

> <Gold.PLP.ligand.clash>
0.7145

> <Gold.PLP.ligand.torsion>
1.3787

> <Gold.PLP.Chemscore.Hbond>
2.6978

> <Gold.PLP.Chemscore.CHOScore>
0.0000

> <Gold.PLP.Chemscore.Metal>
0.0000

> <Gold.Chemscore.Hbonds>
donor molecule, donor type, donor heavy atom, donor atom, acceptor molecule, acceptor atom, score
      P1  H  6896  6907       L1    10  1.00
      P1  H  6931  6943       L1    16  0.70
      P1  H  6934  6947       L1    16  0.99

> <Gold.PLP.Chemscore.Internal.Correction>
0.0645

> <Gold.Rescore>
     Score         DG    S(hbond)    S(metal)    S(lipo)     H(rot)  DE(clash)    DE(int)     intcor
     20.58     -21.82       2.48        0.00     109.66       1.87       0.06       1.17       ----

> <Gold.Chemscore.Fitness>
20.5846

> <Gold.Chemscore.DG>
-21.8175

> <Gold.Chemscore.ZeroCoef>
-5.4800

> <Gold.Chemscore.Hbond>
2.4801

> <Gold.Chemscore.Metal>
0.0000

> <Gold.Chemscore.Lipo>
109.6576

> <Gold.Chemscore.Internal_Hbond>
0.0000

> <Gold.Chemscore.DEClash>
0.0583

> <Gold.Chemscore.DEInternal>
1.1746

> <Gold.Chemscore.Rot>
1.8657

> <Gold.Chemscore.Internal.Correction>
   9.000000E+99

> <Gold.Chemscore.Hbonds>
donor molecule, donor type, donor heavy atom, donor atom, acceptor molecule, acceptor atom, score
      P1  H  6896  6907       L1    10  0.94
      P1  H  6931  6943       L1    16  0.46
      P1  H  6934  6947       L1    16  0.52

> <Gold.Chemscore.Hbond.Weighted>
-8.2837

> <Gold.Chemscore.Metal.Weighted>
-0.0000

> <Gold.Chemscore.Lipo.Weighted>
-12.8299

> <Gold.Chemscore.Internal_Hbond.Weighted>
0.0000

> <Gold.Chemscore.DEClash.Weighted>
0.0583

> <Gold.Chemscore.DEInternal.Weighted>
1.1746

> <Gold.Chemscore.Rot.Weighted>
4.7761

> <Gold.Chemscore.Internal.Correction.Weighted>
   9.000000E+99

> <Gold.Protein.RotatedTorsions>
[ 6907 6896 6895 6894 ] final  -33.14 input  -60.11 | X-H torsion
[ 7974 7965 7964 7962 ] final  -85.01 input  175.53 | X-H torsion
[ 8008 7997 7996 7995 ] final  -21.89 input   59.86 | X-H torsion
[ 10167 10162 10161 10158 ] final  -84.29 input  -65.29 | X-H torsion
[ 10718 10713 10712 10709 ] final  -61.08 input   66.30 | X-H torsion
[ 10763 10752 10751 10750 ] final  -24.50 input  -60.55 | X-H torsion
[ 11005 11000 10999 10996 ] final   68.31 input  -57.11 | X-H torsion

> <Gold.Protein.ActiveResidues>
 VAL166  LYS551  ARG553  GLY616  TRP617  ASP618  TYR619  PRO620  LYS621  CYS622 
 ASP623  PHE694  ASN695  SER759  ASP760  ASP761  ALA762  ILE779  LEU786  VAL792 
 PHE793  MET794  SER795  GLU796  ALA797  LYS798  CYS799  TRP800  GLU811  SER814 

> <Gold.Protein.RotatedAtoms>
  151.0695  134.9789  159.8301 H   0  0  0  0  0  0  0  0  0  0  0  0  # atno 6907 bound_to 6896
  152.5406  134.2316  159.8837 H   0  0  0  0  0  0  0  0  0  0  0  0  # atno 6908 bound_to 6896
  151.2340  133.4391  159.2638 H   0  0  0  0  0  0  0  0  0  0  0  0  # atno 6909 bound_to 6896
  145.4990  140.9548  143.1770 H   0  0  0  0  0  0  0  0  0  0  0  0  # atno 7974 bound_to 7965
  154.4677  140.2022  156.0074 H   0  0  0  0  0  0  0  0  0  0  0  0  # atno 8008 bound_to 7997
  156.0957  140.3251  155.7845 H   0  0  0  0  0  0  0  0  0  0  0  0  # atno 8009 bound_to 7997
  155.4882  140.0544  157.2948 H   0  0  0  0  0  0  0  0  0  0  0  0  # atno 8010 bound_to 7997
  140.4146  143.2608  151.8972 H   0  0  0  0  0  0  0  0  0  0  0  0  # atno 10167 bound_to 10162
  156.0946  130.4195  150.0944 H   0  0  0  0  0  0  0  0  0  0  0  0  # atno 10718 bound_to 10713
  153.6848  135.6965  153.5107 H   0  0  0  0  0  0  0  0  0  0  0  0  # atno 10763 bound_to 10752
  153.2458  135.4291  155.0745 H   0  0  0  0  0  0  0  0  0  0  0  0  # atno 10764 bound_to 10752
  154.8390  135.3519  154.6390 H   0  0  0  0  0  0  0  0  0  0  0  0  # atno 10765 bound_to 10752
  139.9719  134.6886  156.0430 H   0  0  0  0  0  0  0  0  0  0  0  0  # atno 11005 bound_to 11000
  144.7791  139.6566  143.7162 LP  0  0  0  0  0  0  0  0  0  0  0  0  # atno 17320 bound_to 7965
  146.2237  139.5684  142.9601 LP  0  0  0  0  0  0  0  0  0  0  0  0  # atno 17321 bound_to 7965
  139.4782  144.5501  151.8399 LP  0  0  0  0  0  0  0  0  0  0  0  0  # atno 17342 bound_to 10162
  140.4600  144.1735  150.5905 LP  0  0  0  0  0  0  0  0  0  0  0  0  # atno 17343 bound_to 10162
  156.8946  130.9600  151.3584 LP  0  0  0  0  0  0  0  0  0  0  0  0  # atno 17370 bound_to 10713
  157.6104  130.8578  149.8942 LP  0  0  0  0  0  0  0  0  0  0  0  0  # atno 17371 bound_to 10713
  141.1398  133.6567  156.3698 LP  0  0  0  0  0  0  0  0  0  0  0  0  # atno 17394 bound_to 11000
  140.5275  134.6244  157.5339 LP  0  0  0  0  0  0  0  0  0  0  0  0  # atno 17395 bound_to 11000

$$$$
