AV-unprocessed.smi:671|AV-procd|sdf|3281|dock3
  -GOLD-   22720 0243D 1   1.00000     0.00000
 Structure written by MMmdl.
 50 51  0  0  0  0  0  0  0  0  2 V2000
  147.3363  141.7951  153.9343 C   0  0  0  0  0  0  0  0  0  0  0  0
  148.5709  141.4311  154.6892 C   0  0  0  0  0  0  0  0  0  0  0  0
  149.2012  142.2491  155.5735 N   0  3  0  0  0  0  0  0  0  0  0  0
  150.2771  141.6356  156.0859 N   0  0  0  0  0  0  0  0  0  0  0  0
  151.0959  142.3557  157.0616 C   0  0  0  0  0  0  0  0  0  0  0  0
  150.4040  140.3845  155.5577 C   0  0  0  0  0  0  0  0  0  0  0  0
  151.4961  139.4274  155.9108 C   0  0  0  0  0  0  0  0  0  0  0  0
  149.3237  140.2514  154.6741 C   0  0  0  0  0  0  0  0  0  0  0  0
  149.0022  139.0470  153.8340 C   0  0  0  0  0  0  0  0  0  0  0  0
  147.6134  138.4486  154.1504 C   0  0  2  0  0  0  0  0  0  0  0  0
  147.3547  138.3272  155.6603 C   0  0  0  0  0  0  0  0  0  0  0  0
  147.4707  137.1250  153.5389 N   0  0  0  0  0  0  0  0  0  0  0  0
  146.3830  136.3323  153.5188 C   0  0  0  0  0  0  0  0  0  0  0  0
  145.3330  136.6595  154.0677 O   0  0  0  0  0  0  0  0  0  0  0  0
  146.5548  135.1645  152.8765 N   0  0  0  0  0  0  0  0  0  0  0  0
  145.5415  134.1294  152.6960 C   0  0  2  0  0  0  0  0  0  0  0  0
  146.1567  132.8798  152.0371 C   0  0  0  0  0  0  0  0  0  0  0  0
  145.5359  132.7819  150.6427 C   0  0  0  0  0  0  0  0  0  0  0  0
  144.1700  133.4427  150.7937 C   0  0  0  0  0  0  0  0  0  0  0  0
  144.4264  134.6148  151.7450 C   0  0  1  0  0  0  0  0  0  0  0  0
  143.1666  135.1072  152.4699 C   0  0  0  0  0  0  0  0  0  0  0  0
  146.5123  141.1413  154.2207 H   0  0  0  0  0  0  0  0  0  0  0  0
  147.5077  141.6896  152.8632 H   0  0  0  0  0  0  0  0  0  0  0  0
  147.0478  142.8267  154.1379 H   0  0  0  0  0  0  0  0  0  0  0  0
  151.7298  141.6527  157.6023 H   0  0  0  0  0  0  0  0  0  0  0  0
  150.4486  142.8723  157.7713 H   0  0  0  0  0  0  0  0  0  0  0  0
  151.7201  143.0801  156.5377 H   0  0  0  0  0  0  0  0  0  0  0  0
  151.3940  138.4917  155.3629 H   0  0  0  0  0  0  0  0  0  0  0  0
  151.4666  139.2023  156.9770 H   0  0  0  0  0  0  0  0  0  0  0  0
  152.4669  139.8623  155.6729 H   0  0  0  0  0  0  0  0  0  0  0  0
  149.0491  139.3337  152.7831 H   0  0  0  0  0  0  0  0  0  0  0  0
  149.7679  138.2794  153.9459 H   0  0  0  0  0  0  0  0  0  0  0  0
  146.8398  139.1011  153.7425 H   0  0  0  0  0  0  0  0  0  0  0  0
  147.3767  139.3014  156.1482 H   0  0  0  0  0  0  0  0  0  0  0  0
  148.1013  137.6955  156.1429 H   0  0  0  0  0  0  0  0  0  0  0  0
  146.3744  137.8907  155.8557 H   0  0  0  0  0  0  0  0  0  0  0  0
  148.3150  136.7314  153.1480 H   0  0  0  0  0  0  0  0  0  0  0  0
  147.4589  134.9847  152.4661 H   0  0  0  0  0  0  0  0  0  0  0  0
  145.1170  133.8301  153.6563 H   0  0  0  0  0  0  0  0  0  0  0  0
  147.2465  132.9028  151.9965 H   0  0  0  0  0  0  0  0  0  0  0  0
  145.8806  131.9977  152.6166 H   0  0  0  0  0  0  0  0  0  0  0  0
  146.1378  133.3451  149.9287 H   0  0  0  0  0  0  0  0  0  0  0  0
  145.4686  131.7541  150.2848 H   0  0  0  0  0  0  0  0  0  0  0  0
  143.7517  133.7619  149.8386 H   0  0  0  0  0  0  0  0  0  0  0  0
  143.4714  132.7359  151.2443 H   0  0  0  0  0  0  0  0  0  0  0  0
  144.8120  135.4367  151.1384 H   0  0  0  0  0  0  0  0  0  0  0  0
  142.7194  134.3158  153.0720 H   0  0  0  0  0  0  0  0  0  0  0  0
  142.4156  135.4507  151.7581 H   0  0  0  0  0  0  0  0  0  0  0  0
  143.4005  135.9394  153.1343 H   0  0  0  0  0  0  0  0  0  0  0  0
  148.9530  143.1900  155.8522 H   0  0  0  0  0  0  0  0  0  0  0  0
  1  2  1  0  0  0  0
  1 22  1  0  0  0  0
  1 23  1  0  0  0  0
  1 24  1  0  0  0  0
  2  8  1  0  0  0  0
  2  3  2  0  0  0  0
  3  4  1  0  0  0  0
  3 50  1  0  0  0  0
  4  5  1  0  0  0  0
  4  6  1  0  0  0  0
  5 25  1  0  0  0  0
  5 26  1  0  0  0  0
  5 27  1  0  0  0  0
  6  7  1  0  0  0  0
  6  8  2  0  0  0  0
  7 28  1  0  0  0  0
  7 29  1  0  0  0  0
  7 30  1  0  0  0  0
  8  9  1  0  0  0  0
  9 10  1  0  0  0  0
  9 31  1  0  0  0  0
  9 32  1  0  0  0  0
 10 11  1  0  0  0  0
 10 12  1  0  0  0  0
 10 33  1  0  0  0  0
 11 34  1  0  0  0  0
 11 35  1  0  0  0  0
 11 36  1  0  0  0  0
 12 13  1  0  0  0  0
 12 37  1  0  0  0  0
 13 14  2  0  0  0  0
 13 15  1  0  0  0  0
 15 16  1  0  0  0  0
 15 38  1  0  0  0  0
 16 20  1  0  0  0  0
 16 17  1  0  0  0  0
 16 39  1  0  0  0  0
 17 18  1  0  0  0  0
 17 40  1  0  0  0  0
 17 41  1  0  0  0  0
 18 19  1  0  0  0  0
 18 42  1  0  0  0  0
 18 43  1  0  0  0  0
 19 20  1  0  0  0  0
 19 44  1  0  0  0  0
 19 45  1  0  0  0  0
 20 21  1  0  0  0  0
 20 46  1  0  0  0  0
 21 47  1  0  0  0  0
 21 48  1  0  0  0  0
 21 49  1  0  0  0  0
M  CHG  1   3   1
M  END
> <s_m_source_file>
AV-unprocessed.smi

> <i_m_source_file_index>
671

> <i_lp_mmshare_version>
43012

> <i_f3d_flags>
0

> <s_epik_input>
W0NIM11jMW5uKFtDSDNdKWMoW0NIM10pYzFbQ0gyXVtDQEhdKFtDSDNdKVtOSF1DKD1PKVtOSF1bQ0BASF0yW0NIMl1bQ0gyXVtDSDJdW0NASF0yW0NIM10=

> <s_epik_cmdline>
J2VwaWtfcHl0aG9uJywgJy1waCcsICc3LjAnLCAnLXRuJywgJzgnLCAnLW1hJywgJzIwMCcsICctbWV0YWxfYmluZGluZycsICctaW1hZScsICc8aW5maWxlLm1hZT4nLCAnLW9tYWUnLCAnPG91dGZpbGUubWFlPic=

> <r_lp_tautomer_probability>
1

> <r_epik_Ionization_Penalty>
2.28705

> <r_epik_Ionization_Penalty_Charging>
2.28698

> <r_epik_Ionization_Penalty_Neutral>
6.23157e-05

> <r_epik_State_Penalty>
2.43671

> <r_epik_Charging_Adjusted_Penalty>
4.72369

> <i_epik_Tot_Q>
1

> <i_epik_Tot_abs_Q>
1

> <r_epik_Metal_State_Penalty>
2.44911

> <b_epik_Metal_Only>
0

> <s_lp_Force_Field>
OPLS_2005

> <r_lp_Energy>
34.9772

> <b_lp_Chiralities_Consistent>
1

> <s_lp_Variant>
AV-unprocessed.smi:671-9

> <Gold.Version>
5.8.1

> <Gold.Id.Protein>
6NUR|6NUR_protein|mol2

> <Gold.PLP.Fitness>
46.7291

> <Gold.PLP.PLP>
-35.8723

> <Gold.PLP.part.hbond>
-2.5014

> <Gold.PLP.part.metal>
0.0000

> <Gold.PLP.part.buried>
-3.1824

> <Gold.PLP.part.nonpolar>
-30.6195

> <Gold.PLP.part.repulsive>
0.2241

> <Gold.PLP.ligand.clash>
0.0000

> <Gold.PLP.ligand.torsion>
0.1540

> <Gold.PLP.Chemscore.Hbond>
3.7033

> <Gold.PLP.Chemscore.CHOScore>
0.0000

> <Gold.PLP.Chemscore.Metal>
0.0000

> <Gold.Chemscore.Hbonds>
donor molecule, donor type, donor heavy atom, donor atom, acceptor molecule, acceptor atom, score
      L1  H     3    50       P1  8028  2.00
      L1  H    12    37       P1  7948  0.86
      L1  H    15    38       P1  7948  0.67

> <Gold.PLP.Chemscore.Internal.Correction>
0.0547

> <Gold.Rescore>
     Score         DG    S(hbond)    S(metal)    S(lipo)     H(rot)  DE(clash)    DE(int)     intcor
     19.13     -19.67       2.49        0.00      82.99       1.51       0.22       0.31       ----

> <Gold.Chemscore.Fitness>
19.1321

> <Gold.Chemscore.DG>
-19.6658

> <Gold.Chemscore.ZeroCoef>
-5.4800

> <Gold.Chemscore.Hbond>
2.4943

> <Gold.Chemscore.Metal>
0.0000

> <Gold.Chemscore.Lipo>
82.9872

> <Gold.Chemscore.Internal_Hbond>
0.0000

> <Gold.Chemscore.DEClash>
0.2213

> <Gold.Chemscore.DEInternal>
0.3125

> <Gold.Chemscore.Rot>
1.5057

> <Gold.Chemscore.Internal.Correction>
   9.000000E+99

> <Gold.Chemscore.Hbonds>
donor molecule, donor type, donor heavy atom, donor atom, acceptor molecule, acceptor atom, score
      L1  H     3    50       P1  8028  0.92
      L1  H    12    37       P1  7948  0.79
      L1  H    15    38       P1  7948  0.62

> <Gold.Chemscore.Hbond.Weighted>
-8.3310

> <Gold.Chemscore.Metal.Weighted>
-0.0000

> <Gold.Chemscore.Lipo.Weighted>
-9.7095

> <Gold.Chemscore.Internal_Hbond.Weighted>
0.0000

> <Gold.Chemscore.DEClash.Weighted>
0.2213

> <Gold.Chemscore.DEInternal.Weighted>
0.3125

> <Gold.Chemscore.Rot.Weighted>
3.8547

> <Gold.Chemscore.Internal.Correction.Weighted>
   9.000000E+99

> <Gold.Protein.RotatedTorsions>
[ 6907 6896 6895 6894 ] final  -13.38 input  -60.11 | X-H torsion
[ 7974 7965 7964 7962 ] final  -61.09 input  175.53 | X-H torsion
[ 8008 7997 7996 7995 ] final  -66.29 input   59.86 | X-H torsion
[ 10167 10162 10161 10158 ] final  -53.48 input  -65.29 | X-H torsion
[ 10718 10713 10712 10709 ] final  -64.77 input   66.30 | X-H torsion
[ 10763 10752 10751 10750 ] final  121.77 input  -60.55 | X-H torsion
[ 11005 11000 10999 10996 ] final    5.71 input  -57.11 | X-H torsion

> <Gold.Protein.ActiveResidues>
 VAL166  LYS551  ARG553  GLY616  TRP617  ASP618  TYR619  PRO620  LYS621  CYS622 
 ASP623  PHE694  ASN695  SER759  ASP760  ASP761  ALA762  ILE779  LEU786  VAL792 
 PHE793  MET794  SER795  GLU796  ALA797  LYS798  CYS799  TRP800  GLU811  SER814 

> <Gold.Protein.RotatedAtoms>
  151.3558  135.0894  159.9417 H   0  0  0  0  0  0  0  0  0  0  0  0  # atno 6907 bound_to 6896
  152.5175  133.9307  159.7590 H   0  0  0  0  0  0  0  0  0  0  0  0  # atno 6908 bound_to 6896
  150.9692  133.6308  159.2770 H   0  0  0  0  0  0  0  0  0  0  0  0  # atno 6909 bound_to 6896
  145.8077  140.8617  143.0198 H   0  0  0  0  0  0  0  0  0  0  0  0  # atno 7974 bound_to 7965
  154.4725  140.0916  156.7180 H   0  0  0  0  0  0  0  0  0  0  0  0  # atno 8008 bound_to 7997
  155.4685  140.3463  155.4304 H   0  0  0  0  0  0  0  0  0  0  0  0  # atno 8009 bound_to 7997
  156.1063  140.1435  156.9389 H   0  0  0  0  0  0  0  0  0  0  0  0  # atno 8010 bound_to 7997
  140.6483  143.2549  151.4798 H   0  0  0  0  0  0  0  0  0  0  0  0  # atno 10167 bound_to 10162
  156.0709  130.4238  150.1468 H   0  0  0  0  0  0  0  0  0  0  0  0  # atno 10718 bound_to 10713
  153.6193  135.3416  155.3005 H   0  0  0  0  0  0  0  0  0  0  0  0  # atno 10763 bound_to 10752
  154.8603  135.4269  154.2225 H   0  0  0  0  0  0  0  0  0  0  0  0  # atno 10764 bound_to 10752
  153.3094  135.7030  153.7202 H   0  0  0  0  0  0  0  0  0  0  0  0  # atno 10765 bound_to 10752
  140.5677  134.0132  155.7996 H   0  0  0  0  0  0  0  0  0  0  0  0  # atno 11005 bound_to 11000
  144.6761  140.0350  143.7482 LP  0  0  0  0  0  0  0  0  0  0  0  0  # atno 17320 bound_to 7965
  145.9810  139.2941  143.1041 LP  0  0  0  0  0  0  0  0  0  0  0  0  # atno 17321 bound_to 7965
  139.5695  144.1962  152.1815 LP  0  0  0  0  0  0  0  0  0  0  0  0  # atno 17342 bound_to 10162
  140.1254  144.5336  150.6836 LP  0  0  0  0  0  0  0  0  0  0  0  0  # atno 17343 bound_to 10162
  156.9519  130.9777  151.3496 LP  0  0  0  0  0  0  0  0  0  0  0  0  # atno 17370 bound_to 10713
  157.5779  130.8356  149.8481 LP  0  0  0  0  0  0  0  0  0  0  0  0  # atno 17371 bound_to 10713
  141.1076  133.9669  157.2969 LP  0  0  0  0  0  0  0  0  0  0  0  0  # atno 17394 bound_to 11000
  139.9377  135.0195  156.8609 LP  0  0  0  0  0  0  0  0  0  0  0  0  # atno 17395 bound_to 11000

$$$$
