AV-unprocessed.smi:489|AV-procd|sdf|2702|dock1
  -GOLD-   2262023133D 1   1.00000     0.00000
 Structure written by MMmdl.
 42 43  0  0  0  0  0  0  0  0  1 V2000
  146.9718  138.4852  154.1188 C   0  0  0  0  0  0  0  0  0  0  0  0
  148.3612  137.9907  154.4186 C   0  0  0  0  0  0  0  0  0  0  0  0
  148.4756  136.7469  154.7511 N   0  0  0  0  0  0  0  0  0  0  0  0
  149.7056  136.1902  155.0439 N   0  0  0  0  0  0  0  0  0  0  0  0
  149.6508  134.7612  155.3853 C   0  0  0  0  0  0  0  0  0  0  0  0
  148.3235  134.1082  154.9726 C   0  0  0  0  0  0  0  0  0  0  0  0
  147.7025  133.4302  155.7950 O   0  0  0  0  0  0  0  0  0  0  0  0
  147.9431  134.3440  153.6959 N   0  0  0  0  0  0  0  0  0  0  0  0
  146.8347  133.9704  153.0139 C   0  0  0  0  0  0  0  0  0  0  0  0
  145.9661  133.2895  153.5570 O   0  0  0  0  0  0  0  0  0  0  0  0
  146.7403  134.3663  151.7304 N   0  0  0  0  0  0  0  0  0  0  0  0
  145.7817  133.8545  150.7552 C   0  0  0  0  0  0  0  0  0  0  0  0
  144.3300  133.9365  151.2740 C   0  0  0  0  0  0  0  0  0  0  0  0
  143.7170  132.5545  151.0434 C   0  0  0  0  0  0  0  0  0  0  0  0
  144.9021  131.5984  151.1310 C   0  0  0  0  0  0  0  0  0  0  0  0
  146.0485  132.3650  150.4704 C   0  0  0  0  0  0  0  0  0  0  0  0
  150.8874  136.8721  155.0380 C   0  0  0  0  0  0  0  0  0  0  0  0
  151.9601  136.3402  155.3287 O   0  0  0  0  0  0  0  0  0  0  0  0
  150.7516  138.2787  154.6529 C   0  0  0  0  0  0  0  0  0  0  0  0
  151.9683  139.0238  154.6137 C   0  0  0  0  0  0  0  0  0  0  0  0
  152.9630  139.6143  154.5674 N   0  0  0  0  0  0  0  0  0  0  0  0
  149.5509  138.8336  154.3518 C   0  0  0  0  0  0  0  0  0  0  0  0
  149.3562  140.2885  153.9474 C   0  0  0  0  0  0  0  0  0  0  0  0
  146.6710  139.2490  154.8361 H   0  0  0  0  0  0  0  0  0  0  0  0
  146.2350  137.6819  154.1647 H   0  0  0  0  0  0  0  0  0  0  0  0
  146.9214  138.9196  153.1204 H   0  0  0  0  0  0  0  0  0  0  0  0
  150.4904  134.2391  154.9218 H   0  0  0  0  0  0  0  0  0  0  0  0
  149.7753  134.6192  156.4602 H   0  0  0  0  0  0  0  0  0  0  0  0
  148.5948  134.8966  153.1581 H   0  0  0  0  0  0  0  0  0  0  0  0
  147.3851  135.0737  151.4072 H   0  0  0  0  0  0  0  0  0  0  0  0
  145.8844  134.4164  149.8250 H   0  0  0  0  0  0  0  0  0  0  0  0
  144.3144  134.1556  152.3429 H   0  0  0  0  0  0  0  0  0  0  0  0
  143.7607  134.7227  150.7773 H   0  0  0  0  0  0  0  0  0  0  0  0
  142.9311  132.3190  151.7616 H   0  0  0  0  0  0  0  0  0  0  0  0
  143.2812  132.5075  150.0444 H   0  0  0  0  0  0  0  0  0  0  0  0
  145.1426  131.4057  152.1776 H   0  0  0  0  0  0  0  0  0  0  0  0
  144.7058  130.6395  150.6509 H   0  0  0  0  0  0  0  0  0  0  0  0
  146.0174  132.1953  149.3931 H   0  0  0  0  0  0  0  0  0  0  0  0
  147.0243  132.0239  150.8193 H   0  0  0  0  0  0  0  0  0  0  0  0
  150.2842  140.8574  153.9923 H   0  0  0  0  0  0  0  0  0  0  0  0
  148.6419  140.7802  154.6084 H   0  0  0  0  0  0  0  0  0  0  0  0
  148.9802  140.3518  152.9259 H   0  0  0  0  0  0  0  0  0  0  0  0
  1  2  1  0  0  0  0
  1 24  1  0  0  0  0
  1 25  1  0  0  0  0
  1 26  1  0  0  0  0
  2 22  1  0  0  0  0
  2  3  2  0  0  0  0
  3  4  1  0  0  0  0
  4  5  1  0  0  0  0
  4 17  1  0  0  0  0
  5  6  1  0  0  0  0
  5 27  1  0  0  0  0
  5 28  1  0  0  0  0
  6  7  2  0  0  0  0
  6  8  1  0  0  0  0
  8  9  1  0  0  0  0
  8 29  1  0  0  0  0
  9 10  2  0  0  0  0
  9 11  1  0  0  0  0
 11 12  1  0  0  0  0
 11 30  1  0  0  0  0
 12 16  1  0  0  0  0
 12 13  1  0  0  0  0
 12 31  1  0  0  0  0
 13 14  1  0  0  0  0
 13 32  1  0  0  0  0
 13 33  1  0  0  0  0
 14 15  1  0  0  0  0
 14 34  1  0  0  0  0
 14 35  1  0  0  0  0
 15 16  1  0  0  0  0
 15 36  1  0  0  0  0
 15 37  1  0  0  0  0
 16 38  1  0  0  0  0
 16 39  1  0  0  0  0
 17 18  2  0  0  0  0
 17 19  1  0  0  0  0
 19 20  1  0  0  0  0
 19 22  2  0  0  0  0
 20 21  3  0  0  0  0
 22 23  1  0  0  0  0
 23 40  1  0  0  0  0
 23 41  1  0  0  0  0
 23 42  1  0  0  0  0
M  END
> <s_m_source_file>
AV-unprocessed.smi

> <i_m_source_file_index>
489

> <i_lp_mmshare_version>
43012

> <i_f3d_flags>
0

> <s_epik_input>
TiNDYyhjMVtDSDNdKWMoPU8pbihuYzFbQ0gzXSlbQ0gyXUMoPU8pW05IXUMoPU8pW05IXVtDSF0yW0NIMl1bQ0gyXVtDSDJdW0NIMl0y

> <s_epik_cmdline>
J2VwaWtfcHl0aG9uJywgJy1waCcsICc3LjAnLCAnLXRuJywgJzgnLCAnLW1hJywgJzIwMCcsICctbWV0YWxfYmluZGluZycsICctaW1hZScsICc8aW5maWxlLm1hZT4nLCAnLW9tYWUnLCAnPG91dGZpbGUubWFlPic=

> <r_lp_tautomer_probability>
1

> <r_epik_Ionization_Penalty>
3.28905e-05

> <r_epik_Ionization_Penalty_Charging>
1.69167e-11

> <r_epik_Ionization_Penalty_Neutral>
3.28905e-05

> <r_epik_State_Penalty>
-0

> <r_epik_Charging_Adjusted_Penalty>
1.69167e-11

> <i_epik_Tot_Q>
0

> <i_epik_Tot_abs_Q>
0

> <r_epik_Metal_State_Penalty>
-0

> <b_epik_Metal_Only>
0

> <s_lp_Force_Field>
OPLS_2005

> <r_lp_Energy>
37.6869

> <b_lp_Chiralities_Consistent>
1

> <s_lp_Variant>
AV-unprocessed.smi:489-1

> <Gold.Version>
5.8.1

> <Gold.Id.Protein>
6NUR|6NUR_protein|mol2

> <Gold.PLP.Fitness>
47.9758

> <Gold.PLP.PLP>
-36.6778

> <Gold.PLP.part.hbond>
-4.8602

> <Gold.PLP.part.metal>
0.0000

> <Gold.PLP.part.buried>
-6.4695

> <Gold.PLP.part.nonpolar>
-27.1150

> <Gold.PLP.part.repulsive>
0.3377

> <Gold.PLP.ligand.clash>
0.0000

> <Gold.PLP.ligand.torsion>
0.3752

> <Gold.PLP.Chemscore.Hbond>
4.0078

> <Gold.PLP.Chemscore.CHOScore>
0.0000

> <Gold.PLP.Chemscore.Metal>
0.0000

> <Gold.Chemscore.Hbonds>
donor molecule, donor type, donor heavy atom, donor atom, acceptor molecule, acceptor atom, score
      L1  H     8    29       P1  7948  1.00
      L1  H    11    30       P1  7948  0.94
      P1  H  7997  8008       L1    21  0.93
      P1  H 10752 10765       L1    18  0.76

> <Gold.PLP.Chemscore.Internal.Correction>
0.0249

> <Gold.Rescore>
     Score         DG    S(hbond)    S(metal)    S(lipo)     H(rot)  DE(clash)    DE(int)     intcor
     18.23     -21.29       3.73        0.00      63.83       1.61       0.00       3.06       ----

> <Gold.Chemscore.Fitness>
18.2333

> <Gold.Chemscore.DG>
-21.2902

> <Gold.Chemscore.ZeroCoef>
-5.4800

> <Gold.Chemscore.Hbond>
3.7334

> <Gold.Chemscore.Metal>
0.0000

> <Gold.Chemscore.Lipo>
63.8273

> <Gold.Chemscore.Internal_Hbond>
0.0000

> <Gold.Chemscore.DEClash>
0.0000

> <Gold.Chemscore.DEInternal>
3.0568

> <Gold.Chemscore.Rot>
1.6122

> <Gold.Chemscore.Internal.Correction>
   9.000000E+99

> <Gold.Chemscore.Hbonds>
donor molecule, donor type, donor heavy atom, donor atom, acceptor molecule, acceptor atom, score
      L1  H     8    29       P1  7948  0.53
      L1  H    11    30       P1  7948  0.59
      P1  H  7997  8008       L1    21  0.89
      P1  H 10752 10765       L1    18  0.76

> <Gold.Chemscore.Hbond.Weighted>
-12.4696

> <Gold.Chemscore.Metal.Weighted>
-0.0000

> <Gold.Chemscore.Lipo.Weighted>
-7.4678

> <Gold.Chemscore.Internal_Hbond.Weighted>
0.0000

> <Gold.Chemscore.DEClash.Weighted>
0.0000

> <Gold.Chemscore.DEInternal.Weighted>
3.0568

> <Gold.Chemscore.Rot.Weighted>
4.1272

> <Gold.Chemscore.Internal.Correction.Weighted>
   9.000000E+99

> <Gold.Protein.RotatedTorsions>
[ 6907 6896 6895 6894 ] final   -6.94 input  -60.11 | X-H torsion
[ 7974 7965 7964 7962 ] final -147.60 input  175.53 | X-H torsion
[ 8008 7997 7996 7995 ] final  -10.02 input   59.86 | X-H torsion
[ 10167 10162 10161 10158 ] final  -25.02 input  -65.29 | X-H torsion
[ 10718 10713 10712 10709 ] final   77.41 input   66.30 | X-H torsion
[ 10763 10752 10751 10750 ] final  177.43 input  -60.55 | X-H torsion
[ 11005 11000 10999 10996 ] final  103.29 input  -57.11 | X-H torsion

> <Gold.Protein.ActiveResidues>
 VAL166  LYS551  ARG553  GLY616  TRP617  ASP618  TYR619  PRO620  LYS621  CYS622 
 ASP623  PHE694  ASN695  SER759  ASP760  ASP761  ALA762  ILE779  LEU786  VAL792 
 PHE793  MET794  SER795  GLU796  ALA797  LYS798  CYS799  TRP800  GLU811  SER814 

> <Gold.Protein.RotatedAtoms>
  151.4576  135.1035  159.9715 H   0  0  0  0  0  0  0  0  0  0  0  0  # atno 6907 bound_to 6896
  152.4865  133.8382  159.7149 H   0  0  0  0  0  0  0  0  0  0  0  0  # atno 6908 bound_to 6896
  150.8979  133.7097  159.2914 H   0  0  0  0  0  0  0  0  0  0  0  0  # atno 6909 bound_to 6896
  144.8083  140.5305  143.5660 H   0  0  0  0  0  0  0  0  0  0  0  0  # atno 7974 bound_to 7965
  154.5593  140.2340  155.8360 H   0  0  0  0  0  0  0  0  0  0  0  0  # atno 8008 bound_to 7997
  156.2016  140.3051  155.9497 H   0  0  0  0  0  0  0  0  0  0  0  0  # atno 8009 bound_to 7997
  155.2919  140.0427  157.3014 H   0  0  0  0  0  0  0  0  0  0  0  0  # atno 8010 bound_to 7997
  140.7287  143.4302  151.0814 H   0  0  0  0  0  0  0  0  0  0  0  0  # atno 10167 bound_to 10162
  157.6709  130.9820  150.1638 H   0  0  0  0  0  0  0  0  0  0  0  0  # atno 10718 bound_to 10713
  154.4944  135.2780  155.1471 H   0  0  0  0  0  0  0  0  0  0  0  0  # atno 10763 bound_to 10752
  154.3130  135.6225  153.5477 H   0  0  0  0  0  0  0  0  0  0  0  0  # atno 10764 bound_to 10752
  152.9892  135.5724  154.5372 H   0  0  0  0  0  0  0  0  0  0  0  0  # atno 10765 bound_to 10752
  139.8783  134.9257  156.5187 H   0  0  0  0  0  0  0  0  0  0  0  0  # atno 11005 bound_to 11000
  145.5385  139.1475  143.3460 LP  0  0  0  0  0  0  0  0  0  0  0  0  # atno 17320 bound_to 7965
  146.2378  140.5525  142.8947 LP  0  0  0  0  0  0  0  0  0  0  0  0  # atno 17321 bound_to 7965
  139.7958  143.8154  152.3157 LP  0  0  0  0  0  0  0  0  0  0  0  0  # atno 17342 bound_to 10162
  139.8153  144.7318  150.9643 LP  0  0  0  0  0  0  0  0  0  0  0  0  # atno 17343 bound_to 10162
  156.2408  130.3691  149.8339 LP  0  0  0  0  0  0  0  0  0  0  0  0  # atno 17370 bound_to 10713
  156.6140  130.8598  151.3460 LP  0  0  0  0  0  0  0  0  0  0  0  0  # atno 17371 bound_to 10713
  140.8467  133.8164  155.9128 LP  0  0  0  0  0  0  0  0  0  0  0  0  # atno 17394 bound_to 11000
  140.9185  134.2172  157.4941 LP  0  0  0  0  0  0  0  0  0  0  0  0  # atno 17395 bound_to 11000

$$$$
