#       Name:                AV-unprocessed.smi:837
#       Creating user name   scv26
#       Creation time:       Fri Mar 27 01:35:22 2020


#       File generated by GOLD software.
#

@<TRIPOS>MOLECULE
AV-unprocessed.smi:837
    56    58     1
SMALL
NO_CHARGES


@<TRIPOS>ATOM
      1 ****        -3.7390   1.5040   0.4362 C.3            1 S1                 0.0000
      2 ****        -2.6784   1.9215  -0.6051 C.3            1 S1                 0.0000
      3 ****        -2.9597   3.3556  -1.1043 C.3            1 S1                 0.0000
      4 ****        -1.9675   3.7908  -2.1941 C.3            1 S1                 0.0000
      5 ****        -0.5167   3.6737  -1.7067 C.3            1 S1                 0.0000
      6 ****        -0.2152   2.2467  -1.2219 C.3            1 S1                 0.0000
      7 ****        -1.2011   1.7880  -0.1204 C.3            1 S1                 0.0000
      8 ****        -0.9604   2.5020   1.1229 N.am           1 S1                 0.0000
      9 ****        -0.5387   1.7026   2.1112 C.2            1 S1                 0.0000
     10 ****        -0.2543   2.0731   3.2490 O.2            1 S1                 0.0000
     11 ****        -0.4833   0.4430   1.6415 N.am           1 S1                 0.0000
     12 ****        -0.0329  -0.7179   2.4190 C.3            1 S1                 0.0000
     13 ****         1.4598  -1.0135   2.2223 C.2            1 S1                 0.0000
     14 ****         2.2674  -0.0963   2.0690 O.2            1 S1                 0.0000
     15 ****         1.8119  -2.3073   2.2365 N.am           1 S1                 0.0000
     16 ****         3.1664  -2.8133   2.0345 C.3            1 S1                 0.0000
     17 ****         3.6522  -2.6726   0.5771 C.3            1 S1                 0.0000
     18 ****         2.6554  -3.1853  -0.4485 C.ar           1 S1                 0.0000
     19 ****         1.8893  -2.2909  -1.2248 C.ar           1 S1                 0.0000
     20 ****         0.9687  -2.8147  -2.1522 C.ar           1 S1                 0.0000
     21 ****         0.8538  -4.2145  -2.2650 C.ar           1 S1                 0.0000
     22 ****         1.5837  -5.0807  -1.5292 N.ar           1 S1                 0.0000
     23 ****         2.4645  -4.5697  -0.6421 C.ar           1 S1                 0.0000
     24 ****        -0.8494   0.3839   0.3537 C.2            1 S1                 0.0000
     25 ****        -0.9025  -0.6188  -0.3589 O.2            1 S1                 0.0000
     26 ****        -3.6929   2.1260   1.3304 H              1 S1                 0.0000
     27 ****        -3.6192   0.4655   0.7453 H              1 S1                 0.0000
     28 ****        -4.7442   1.5988   0.0251 H              1 S1                 0.0000
     29 ****        -2.8021   1.2570  -1.4622 H              1 S1                 0.0000
     30 ****        -3.9747   3.4196  -1.4979 H              1 S1                 0.0000
     31 ****        -2.9122   4.0556  -0.2691 H              1 S1                 0.0000
     32 ****        -2.1055   3.1726  -3.0819 H              1 S1                 0.0000
     33 ****        -2.1755   4.8173  -2.4972 H              1 S1                 0.0000
     34 ****         0.1676   3.9440  -2.5113 H              1 S1                 0.0000
     35 ****        -0.3403   4.3859  -0.8998 H              1 S1                 0.0000
     36 ****        -0.2737   1.5668  -2.0735 H              1 S1                 0.0000
     37 ****         0.8142   2.1927  -0.8633 H              1 S1                 0.0000
     38 ****        -1.0877   3.4996   1.2133 H              1 S1                 0.0000
     39 ****        -0.2169  -0.5602   3.4828 H              1 S1                 0.0000
     40 ****        -0.6227  -1.5942   2.1425 H              1 S1                 0.0000
     41 ****         1.0849  -2.9948   2.3719 H              1 S1                 0.0000
     42 ****         3.8597  -2.3208   2.7177 H              1 S1                 0.0000
     43 ****         3.1590  -3.8678   2.3111 H              1 S1                 0.0000
     44 ****         3.8729  -1.6262   0.3622 H              1 S1                 0.0000
     45 ****         4.5938  -3.2080   0.4511 H              1 S1                 0.0000
     46 ****         1.9958  -1.2222  -1.1068 H              1 S1                 0.0000
     47 ****         0.3614  -2.1588  -2.7580 H              1 S1                 0.0000
     48 ****         0.1555  -4.6502  -2.9643 H              1 S1                 0.0000
     49 ****         3.0296  -5.2872  -0.0654 H              1 S1                 0.0000
     50 ****        -0.3312   3.0396   3.4939 LP             1 S1                 0.0000
     51 ****         0.0538   1.4079   3.9290 LP             1 S1                 0.0000
     52 ****         1.9525   0.8528   2.0718 LP             1 S1                 0.0000
     53 ****         3.2379  -0.3008   1.9416 LP             1 S1                 0.0000
     54 ****         1.4753  -6.0689  -1.6379 LP             1 S1                 0.0000
     55 ****        -1.1909  -0.5394  -1.3132 LP             1 S1                 0.0000
     56 ****        -0.6573  -1.5126   0.0165 LP             1 S1                 0.0000
@<TRIPOS>BOND
    1    1    2 1     
    2    1   26 1     
    3    1   27 1     
    4    1   28 1     
    5    2    7 1     
    6    2    3 1     
    7    2   29 1     
    8    3    4 1     
    9    3   30 1     
   10    3   31 1     
   11    4    5 1     
   12    4   32 1     
   13    4   33 1     
   14    5    6 1     
   15    5   34 1     
   16    5   35 1     
   17    6    7 1     
   18    6   36 1     
   19    6   37 1     
   20    7   24 1     
   21    7    8 1     
   22    8    9 am    
   23    8   38 1     
   24    9   10 2     
   25    9   11 am    
   26   11   12 1     
   27   11   24 am    
   28   12   13 1     
   29   12   39 1     
   30   12   40 1     
   31   13   14 2     
   32   13   15 am    
   33   15   16 1     
   34   15   41 1     
   35   16   17 1     
   36   16   42 1     
   37   16   43 1     
   38   17   18 1     
   39   17   44 1     
   40   17   45 1     
   41   18   23 ar    
   42   18   19 ar    
   43   19   20 ar    
   44   19   46 1     
   45   20   21 ar    
   46   20   47 1     
   47   21   22 ar    
   48   21   48 1     
   49   22   23 ar    
   50   23   49 1     
   51   24   25 2     
   52   10   50 1     
   53   10   51 1     
   54   14   52 1     
   55   14   53 1     
   56   22   54 1     
   57   25   55 1     
   58   25   56 1     
@<TRIPOS>SUBSTRUCTURE
      1 S1             1
@<TRIPOS>SET
LONE_PAIRS      STATIC     ATOMS    <user>   **** ""
7 50 51 52 53 54 55 56
DONOR_HYDROGENS      STATIC     ATOMS    <user>   **** ""
2 38 41
ATOM$BLUE        STATIC     ATOMS    COLORGROUP SYSTEM
7 50 51 52 53 54 55 56
ATOM$RED        STATIC     ATOMS    COLORGROUP SYSTEM
2 38 41
