AV-unprocessed.smi:2889|AV-procd|sdf|11110|dock9
  -GOLD-   2272015573D 1   1.00000     0.00000
 Structure written by MMmdl.
 36 37  0  0  0  0  0  0  0  0  1 V2000
  148.1340  141.6493  154.4834 C   0  0  0  0  0  0  0  0  0  0  0  0
  147.9275  140.4890  155.8614 S   0  0  0  0  0  0  0  0  0  0  0  0
  149.6583  140.0244  156.1894 C   0  0  2  0  0  0  0  0  0  0  0  0
  150.3222  139.4624  154.9183 C   0  0  0  0  0  0  0  0  0  0  0  0
  151.7861  139.0703  155.1662 C   0  0  0  0  0  0  0  0  0  0  0  0
  151.8968  138.0540  156.3106 C   0  0  0  0  0  0  0  0  0  0  0  0
  151.2596  138.5916  157.6027 C   0  0  0  0  0  0  0  0  0  0  0  0
  149.8052  139.0589  157.3917 C   0  0  2  0  0  0  0  0  0  0  0  0
  148.9112  137.9026  157.2592 N   0  0  0  0  0  0  0  0  0  0  0  0
  148.8918  136.7240  158.5174 S   0  0  0  0  0  0  0  0  0  0  0  0
  148.9310  135.3954  157.8866 O   0  0  0  0  0  0  0  0  0  0  0  0
  149.9236  137.1033  159.4944 O   0  0  0  0  0  0  0  0  0  0  0  0
  147.2282  136.9697  159.2681 C   0  0  0  0  0  0  0  0  0  0  0  0
  147.2268  136.4372  160.6725 C   0  0  0  0  0  0  0  0  0  0  0  0
  146.7529  135.1809  161.1425 C   0  0  0  0  0  0  0  0  0  0  0  0
  146.9972  135.2297  162.4845 C   0  0  0  0  0  0  0  0  0  0  0  0
  147.5678  136.4140  162.8207 O   0  0  0  0  0  0  0  0  0  0  0  0
  147.7092  137.1787  161.6571 N   0  0  0  0  0  0  0  0  0  0  0  0
  147.1588  141.9805  154.1273 H   0  0  0  0  0  0  0  0  0  0  0  0
  148.6588  141.1711  153.6565 H   0  0  0  0  0  0  0  0  0  0  0  0
  148.6978  142.5280  154.7945 H   0  0  0  0  0  0  0  0  0  0  0  0
  150.1819  140.9481  156.4394 H   0  0  0  0  0  0  0  0  0  0  0  0
  149.7679  138.5917  154.5656 H   0  0  0  0  0  0  0  0  0  0  0  0
  150.2739  140.2014  154.1176 H   0  0  0  0  0  0  0  0  0  0  0  0
  152.2169  138.6519  154.2563 H   0  0  0  0  0  0  0  0  0  0  0  0
  152.3708  139.9596  155.4049 H   0  0  0  0  0  0  0  0  0  0  0  0
  151.4072  137.1236  156.0205 H   0  0  0  0  0  0  0  0  0  0  0  0
  152.9438  137.8072  156.4885 H   0  0  0  0  0  0  0  0  0  0  0  0
  151.3104  137.8382  158.3897 H   0  0  0  0  0  0  0  0  0  0  0  0
  151.8511  139.4364  157.9574 H   0  0  0  0  0  0  0  0  0  0  0  0
  149.5079  139.6010  158.2896 H   0  0  0  0  0  0  0  0  0  0  0  0
  147.9647  138.2044  157.0277 H   0  0  0  0  0  0  0  0  0  0  0  0
  146.9954  138.0347  159.2452 H   0  0  0  0  0  0  0  0  0  0  0  0
  146.4921  136.4545  158.6514 H   0  0  0  0  0  0  0  0  0  0  0  0
  146.3090  134.3712  160.5827 H   0  0  0  0  0  0  0  0  0  0  0  0
  146.8290  134.5365  163.2954 H   0  0  0  0  0  0  0  0  0  0  0  0
  1  2  1  0  0  0  0
  1 19  1  0  0  0  0
  1 20  1  0  0  0  0
  1 21  1  0  0  0  0
  2  3  1  0  0  0  0
  3  8  1  0  0  0  0
  3  4  1  0  0  0  0
  3 22  1  0  0  0  0
  4  5  1  0  0  0  0
  4 23  1  0  0  0  0
  4 24  1  0  0  0  0
  5  6  1  0  0  0  0
  5 25  1  0  0  0  0
  5 26  1  0  0  0  0
  6  7  1  0  0  0  0
  6 27  1  0  0  0  0
  6 28  1  0  0  0  0
  7  8  1  0  0  0  0
  7 29  1  0  0  0  0
  7 30  1  0  0  0  0
  8  9  1  0  0  0  0
  8 31  1  0  0  0  0
  9 10  1  0  0  0  0
  9 32  1  0  0  0  0
 10 11  2  0  0  0  0
 10 12  2  0  0  0  0
 10 13  1  0  0  0  0
 13 14  1  0  0  0  0
 13 33  1  0  0  0  0
 13 34  1  0  0  0  0
 14 18  2  0  0  0  0
 14 15  1  0  0  0  0
 15 16  2  0  0  0  0
 15 35  1  0  0  0  0
 16 17  1  0  0  0  0
 16 36  1  0  0  0  0
 17 18  1  0  0  0  0
M  END
> <s_m_source_file>
AV-unprocessed.smi

> <i_m_source_file_index>
2889

> <i_lp_mmshare_version>
43012

> <i_f3d_flags>
0

> <s_epik_input>
W0NIM11TW0NAQEhdMVtDSDJdW0NIMl1bQ0gyXVtDSDJdW0NASF0xW05IXVMoPU8pKD1PKVtDSDJdYzJbY0hdW2NIXW9uMg==

> <s_epik_cmdline>
J2VwaWtfcHl0aG9uJywgJy1waCcsICc3LjAnLCAnLXRuJywgJzgnLCAnLW1hJywgJzIwMCcsICctbWV0YWxfYmluZGluZycsICctaW1hZScsICc8aW5maWxlLm1hZT4nLCAnLW9tYWUnLCAnPG91dGZpbGUubWFlPic=

> <r_lp_tautomer_probability>
1

> <r_epik_Ionization_Penalty>
0.000229547

> <r_epik_Ionization_Penalty_Charging>
0

> <r_epik_Ionization_Penalty_Neutral>
0.000229547

> <r_epik_State_Penalty>
-0

> <r_epik_Charging_Adjusted_Penalty>
0

> <i_epik_Tot_Q>
0

> <i_epik_Tot_abs_Q>
0

> <r_epik_Metal_State_Penalty>
0.145979

> <b_epik_Metal_Only>
0

> <s_lp_Force_Field>
OPLS_2005

> <r_lp_Energy>
4.93405

> <b_lp_Chiralities_Consistent>
1

> <s_lp_Variant>
AV-unprocessed.smi:2889-3

> <Gold.Version>
5.8.1

> <Gold.Id.Protein>
6NUR|6NUR_protein|mol2

> <Gold.PLP.Fitness>
36.4930

> <Gold.PLP.PLP>
-29.8924

> <Gold.PLP.part.hbond>
-4.0000

> <Gold.PLP.part.metal>
0.0000

> <Gold.PLP.part.buried>
-4.1124

> <Gold.PLP.part.nonpolar>
-21.4417

> <Gold.PLP.part.repulsive>
0.0000

> <Gold.PLP.ligand.clash>
0.0000

> <Gold.PLP.ligand.torsion>
0.9027

> <Gold.PLP.Chemscore.Hbond>
2.7440

> <Gold.PLP.Chemscore.CHOScore>
0.0000

> <Gold.PLP.Chemscore.Metal>
0.0000

> <Gold.Chemscore.Hbonds>
donor molecule, donor type, donor heavy atom, donor atom, acceptor molecule, acceptor atom, score
      P1  H  6931  6943       L1    18  1.00
      P1  H  6934  6947       L1    18  0.67

> <Gold.PLP.Chemscore.Internal.Correction>
0.1740

> <Gold.Rescore>
     Score         DG    S(hbond)    S(metal)    S(lipo)     H(rot)  DE(clash)    DE(int)     intcor
     13.18     -15.53       2.12        0.00      64.83       1.81       0.05       2.29       ----

> <Gold.Chemscore.Fitness>
13.1764

> <Gold.Chemscore.DG>
-15.5256

> <Gold.Chemscore.ZeroCoef>
-5.4800

> <Gold.Chemscore.Hbond>
2.1209

> <Gold.Chemscore.Metal>
0.0000

> <Gold.Chemscore.Lipo>
64.8261

> <Gold.Chemscore.Internal_Hbond>
0.0000

> <Gold.Chemscore.DEClash>
0.0544

> <Gold.Chemscore.DEInternal>
2.2948

> <Gold.Chemscore.Rot>
1.8058

> <Gold.Chemscore.Internal.Correction>
   9.000000E+99

> <Gold.Chemscore.Hbonds>
donor molecule, donor type, donor heavy atom, donor atom, acceptor molecule, acceptor atom, score
      P1  H  6931  6943       L1    18  0.58
      P1  H  6934  6947       L1    18  0.14

> <Gold.Chemscore.Hbond.Weighted>
-7.0837

> <Gold.Chemscore.Metal.Weighted>
-0.0000

> <Gold.Chemscore.Lipo.Weighted>
-7.5847

> <Gold.Chemscore.Internal_Hbond.Weighted>
0.0000

> <Gold.Chemscore.DEClash.Weighted>
0.0544

> <Gold.Chemscore.DEInternal.Weighted>
2.2948

> <Gold.Chemscore.Rot.Weighted>
4.6228

> <Gold.Chemscore.Internal.Correction.Weighted>
   9.000000E+99

> <Gold.Protein.RotatedTorsions>
[ 6907 6896 6895 6894 ] final  164.01 input  -60.11 | X-H torsion
[ 7974 7965 7964 7962 ] final -169.34 input  175.53 | X-H torsion
[ 8008 7997 7996 7995 ] final -164.36 input   59.86 | X-H torsion
[ 10167 10162 10161 10158 ] final   33.72 input  -65.29 | X-H torsion
[ 10718 10713 10712 10709 ] final   66.81 input   66.30 | X-H torsion
[ 10763 10752 10751 10750 ] final -171.41 input  -60.55 | X-H torsion
[ 11005 11000 10999 10996 ] final -108.56 input  -57.11 | X-H torsion

> <Gold.Protein.ActiveResidues>
 VAL166  LYS551  ARG553  GLY616  TRP617  ASP618  TYR619  PRO620  LYS621  CYS622 
 ASP623  PHE694  ASN695  SER759  ASP760  ASP761  ALA762  ILE779  LEU786  VAL792 
 PHE793  MET794  SER795  GLU796  ALA797  LYS798  CYS799  TRP800  GLU811  SER814 

> <Gold.Protein.RotatedAtoms>
  151.9165  133.3574  159.3881 H   0  0  0  0  0  0  0  0  0  0  0  0  # atno 6907 bound_to 6896
  150.7046  134.4679  159.5421 H   0  0  0  0  0  0  0  0  0  0  0  0  # atno 6908 bound_to 6896
  152.2295  134.8336  160.0526 H   0  0  0  0  0  0  0  0  0  0  0  0  # atno 6909 bound_to 6896
  144.7187  140.2235  143.6313 H   0  0  0  0  0  0  0  0  0  0  0  0  # atno 7974 bound_to 7965
  155.8345  140.0939  157.1772 H   0  0  0  0  0  0  0  0  0  0  0  0  # atno 8008 bound_to 7997
  154.3980  140.1412  156.3715 H   0  0  0  0  0  0  0  0  0  0  0  0  # atno 8009 bound_to 7997
  155.8131  140.3449  155.5471 H   0  0  0  0  0  0  0  0  0  0  0  0  # atno 8010 bound_to 7997
  140.4381  144.1227  150.6169 H   0  0  0  0  0  0  0  0  0  0  0  0  # atno 10167 bound_to 10162
  157.6192  130.9288  150.0159 H   0  0  0  0  0  0  0  0  0  0  0  0  # atno 10718 bound_to 10713
  154.6308  135.2886  155.0219 H   0  0  0  0  0  0  0  0  0  0  0  0  # atno 10763 bound_to 10752
  154.1380  135.6523  153.4940 H   0  0  0  0  0  0  0  0  0  0  0  0  # atno 10764 bound_to 10752
  153.0279  135.5326  154.7134 H   0  0  0  0  0  0  0  0  0  0  0  0  # atno 10765 bound_to 10752
  141.0895  133.9080  157.2109 H   0  0  0  0  0  0  0  0  0  0  0  0  # atno 11005 bound_to 11000
  145.8478  139.2161  143.1790 LP  0  0  0  0  0  0  0  0  0  0  0  0  # atno 17320 bound_to 7965
  146.0288  140.8278  142.9886 LP  0  0  0  0  0  0  0  0  0  0  0  0  # atno 17321 bound_to 7965
  140.4350  143.2551  151.9547 LP  0  0  0  0  0  0  0  0  0  0  0  0  # atno 17342 bound_to 10162
  139.4788  144.5708  151.8090 LP  0  0  0  0  0  0  0  0  0  0  0  0  # atno 17343 bound_to 10162
  156.1329  130.3643  149.9703 LP  0  0  0  0  0  0  0  0  0  0  0  0  # atno 17370 bound_to 10713
  156.7760  130.9204  151.3645 LP  0  0  0  0  0  0  0  0  0  0  0  0  # atno 17371 bound_to 10713
  139.9718  135.0126  156.9531 LP  0  0  0  0  0  0  0  0  0  0  0  0  # atno 17394 bound_to 11000
  140.5286  134.0836  155.7310 LP  0  0  0  0  0  0  0  0  0  0  0  0  # atno 17395 bound_to 11000

$$$$
