AV-unprocessed.smi:2205|AV-procd|sdf|8941|dock8
  -GOLD-   2272012163D 1   1.00000     0.00000
 Structure written by MMmdl.
 36 37  0  0  0  0  0  0  0  0  1 V2000
  146.0772  142.9834  153.9333 C   0  0  0  0  0  0  0  0  0  0  0  0
  146.1949  141.6056  154.2397 O   0  0  0  0  0  0  0  0  0  0  0  0
  147.3037  141.3271  155.0791 C   0  0  0  0  0  0  0  0  0  0  0  0
  148.5623  141.1353  154.2176 C   0  0  0  0  0  0  0  0  0  0  0  0
  149.7398  140.8140  155.0374 N   0  0  0  0  0  0  0  0  0  0  0  0
  150.1564  141.7876  155.9667 C   0  0  0  0  0  0  0  0  0  0  0  0
  151.2195  141.6057  156.7807 C   0  0  0  0  0  0  0  0  0  0  0  0
  151.6869  142.5237  157.7340 N   0  0  0  0  0  0  0  0  0  0  0  0
  152.3318  142.3046  158.8973 C   0  0  0  0  0  0  0  0  0  0  0  0
  152.6272  141.1987  159.3503 O   0  0  0  0  0  0  0  0  0  0  0  0
  152.6991  143.5716  159.6850 C   0  0  0  0  0  0  0  0  0  0  0  0
  151.8261  143.8278  160.9248 C   0  0  0  0  0  0  0  0  0  0  0  0
  151.1378  144.9877  160.1985 C   0  0  0  0  0  0  0  0  0  0  0  0
  152.1730  144.8813  159.0742 C   0  0  0  0  0  0  0  0  0  0  0  0
  151.9252  140.3480  156.6602 C   0  0  0  0  0  0  0  0  0  0  0  0
  151.5309  139.4072  155.7809 C   0  0  0  0  0  0  0  0  0  0  0  0
  150.3743  139.6114  154.9061 C   0  0  0  0  0  0  0  0  0  0  0  0
  149.9991  138.7527  154.1074 O   0  0  0  0  0  0  0  0  0  0  0  0
  145.2038  143.1441  153.3016 H   0  0  0  0  0  0  0  0  0  0  0  0
  146.9539  143.3423  153.3927 H   0  0  0  0  0  0  0  0  0  0  0  0
  145.9538  143.5806  154.8375 H   0  0  0  0  0  0  0  0  0  0  0  0
  147.4510  142.1324  155.8006 H   0  0  0  0  0  0  0  0  0  0  0  0
  147.1079  140.4166  155.6470 H   0  0  0  0  0  0  0  0  0  0  0  0
  148.3873  140.3442  153.4868 H   0  0  0  0  0  0  0  0  0  0  0  0
  148.7400  142.0312  153.6209 H   0  0  0  0  0  0  0  0  0  0  0  0
  149.5358  142.6692  155.9615 H   0  0  0  0  0  0  0  0  0  0  0  0
  151.5082  143.4910  157.5073 H   0  0  0  0  0  0  0  0  0  0  0  0
  153.7647  143.6252  159.9139 H   0  0  0  0  0  0  0  0  0  0  0  0
  151.1467  143.0168  161.1913 H   0  0  0  0  0  0  0  0  0  0  0  0
  152.4089  144.1513  161.7880 H   0  0  0  0  0  0  0  0  0  0  0  0
  150.1286  144.7385  159.8684 H   0  0  0  0  0  0  0  0  0  0  0  0
  151.1635  145.9329  160.7416 H   0  0  0  0  0  0  0  0  0  0  0  0
  152.9131  145.6818  159.0998 H   0  0  0  0  0  0  0  0  0  0  0  0
  151.7304  144.7877  158.0812 H   0  0  0  0  0  0  0  0  0  0  0  0
  152.7843  140.1542  157.2861 H   0  0  0  0  0  0  0  0  0  0  0  0
  152.0796  138.4789  155.7177 H   0  0  0  0  0  0  0  0  0  0  0  0
  1  2  1  0  0  0  0
  1 19  1  0  0  0  0
  1 20  1  0  0  0  0
  1 21  1  0  0  0  0
  2  3  1  0  0  0  0
  3  4  1  0  0  0  0
  3 22  1  0  0  0  0
  3 23  1  0  0  0  0
  4  5  1  0  0  0  0
  4 24  1  0  0  0  0
  4 25  1  0  0  0  0
  5 17  1  0  0  0  0
  5  6  1  0  0  0  0
  6  7  2  0  0  0  0
  6 26  1  0  0  0  0
  7  8  1  0  0  0  0
  7 15  1  0  0  0  0
  8  9  1  0  0  0  0
  8 27  1  0  0  0  0
  9 10  2  0  0  0  0
  9 11  1  0  0  0  0
 11 14  1  0  0  0  0
 11 12  1  0  0  0  0
 11 28  1  0  0  0  0
 12 13  1  0  0  0  0
 12 29  1  0  0  0  0
 12 30  1  0  0  0  0
 13 14  1  0  0  0  0
 13 31  1  0  0  0  0
 13 32  1  0  0  0  0
 14 33  1  0  0  0  0
 14 34  1  0  0  0  0
 15 16  2  0  0  0  0
 15 35  1  0  0  0  0
 16 17  1  0  0  0  0
 16 36  1  0  0  0  0
 17 18  2  0  0  0  0
M  END
> <s_m_source_file>
AV-unprocessed.smi

> <i_m_source_file_index>
2205

> <i_lp_mmshare_version>
43012

> <i_f3d_flags>
0

> <s_epik_input>
W0NIM11PW0NIMl1bQ0gyXW4xW2NIXWMoW2NIXVtjSF1jMT1PKVtOSF1DKD1PKVtDSF0yW0NIMl1bQ0gyXVtDSDJdMg==

> <s_epik_cmdline>
J2VwaWtfcHl0aG9uJywgJy1waCcsICc3LjAnLCAnLXRuJywgJzgnLCAnLW1hJywgJzIwMCcsICctbWV0YWxfYmluZGluZycsICctaW1hZScsICc8aW5maWxlLm1hZT4nLCAnLW9tYWUnLCAnPG91dGZpbGUubWFlPic=

> <r_lp_tautomer_probability>
1

> <r_epik_Ionization_Penalty>
2.40107e-06

> <r_epik_Ionization_Penalty_Charging>
2.27812e-06

> <r_epik_Ionization_Penalty_Neutral>
1.2295e-07

> <r_epik_State_Penalty>
-0

> <r_epik_Charging_Adjusted_Penalty>
2.27812e-06

> <i_epik_Tot_Q>
0

> <i_epik_Tot_abs_Q>
0

> <r_epik_Metal_State_Penalty>
-0

> <b_epik_Metal_Only>
0

> <s_lp_Force_Field>
OPLS_2005

> <r_lp_Energy>
28.3384

> <b_lp_Chiralities_Consistent>
1

> <s_lp_Variant>
AV-unprocessed.smi:2205-1

> <Gold.Version>
5.8.1

> <Gold.Id.Protein>
6NUR|6NUR_protein|mol2

> <Gold.PLP.Fitness>
44.8612

> <Gold.PLP.PLP>
-42.5605

> <Gold.PLP.part.hbond>
0.0000

> <Gold.PLP.part.metal>
0.0000

> <Gold.PLP.part.buried>
-3.9179

> <Gold.PLP.part.nonpolar>
-38.5099

> <Gold.PLP.part.repulsive>
0.4510

> <Gold.PLP.ligand.clash>
0.0000

> <Gold.PLP.ligand.torsion>
0.5319

> <Gold.PLP.Chemscore.Hbond>
0.0000

> <Gold.PLP.Chemscore.CHOScore>
1.0000

> <Gold.PLP.Chemscore.Metal>
0.0000

> <Gold.Chemscore.Hbonds>
donor molecule, donor type, donor heavy atom, donor atom, acceptor molecule, acceptor atom, score
      L1  C     6    26       P1  8028  1.00

> <Gold.PLP.Chemscore.Internal.Correction>
0.3646

> <Gold.Rescore>
     Score         DG    S(hbond)    S(metal)    S(lipo)     H(rot)  DE(clash)    DE(int)     intcor
     10.83     -12.82       0.00        0.00      96.86       1.56       0.22       1.76       ----

> <Gold.Chemscore.Fitness>
10.8335

> <Gold.Chemscore.DG>
-12.8201

> <Gold.Chemscore.ZeroCoef>
-5.4800

> <Gold.Chemscore.Hbond>
0.0000

> <Gold.Chemscore.Metal>
0.0000

> <Gold.Chemscore.Lipo>
96.8559

> <Gold.Chemscore.Internal_Hbond>
0.0000

> <Gold.Chemscore.DEClash>
0.2228

> <Gold.Chemscore.DEInternal>
1.7638

> <Gold.Chemscore.Rot>
1.5594

> <Gold.Chemscore.Internal.Correction>
   9.000000E+99

> <Gold.Chemscore.Hbond.Weighted>
-0.0000

> <Gold.Chemscore.Metal.Weighted>
-0.0000

> <Gold.Chemscore.Lipo.Weighted>
-11.3321

> <Gold.Chemscore.Internal_Hbond.Weighted>
0.0000

> <Gold.Chemscore.DEClash.Weighted>
0.2228

> <Gold.Chemscore.DEInternal.Weighted>
1.7638

> <Gold.Chemscore.Rot.Weighted>
3.9920

> <Gold.Chemscore.Internal.Correction.Weighted>
   9.000000E+99

> <Gold.Protein.RotatedTorsions>
[ 6907 6896 6895 6894 ] final   -0.25 input  -60.11 | X-H torsion
[ 7974 7965 7964 7962 ] final  -91.65 input  175.53 | X-H torsion
[ 8008 7997 7996 7995 ] final   15.17 input   59.86 | X-H torsion
[ 10167 10162 10161 10158 ] final   -0.38 input  -65.29 | X-H torsion
[ 10718 10713 10712 10709 ] final  145.91 input   66.30 | X-H torsion
[ 10763 10752 10751 10750 ] final  -72.75 input  -60.55 | X-H torsion
[ 11005 11000 10999 10996 ] final  124.21 input  -57.11 | X-H torsion

> <Gold.Protein.ActiveResidues>
 VAL166  LYS551  ARG553  GLY616  TRP617  ASP618  TYR619  PRO620  LYS621  CYS622 
 ASP623  PHE694  ASN695  SER759  ASP760  ASP761  ALA762  ILE779  LEU786  VAL792 
 PHE793  MET794  SER795  GLU796  ALA797  LYS798  CYS799  TRP800  GLU811  SER814 

> <Gold.Protein.RotatedAtoms>
  151.5652  135.1064  159.9981 H   0  0  0  0  0  0  0  0  0  0  0  0  # atno 6907 bound_to 6896
  152.4427  133.7474  159.6686 H   0  0  0  0  0  0  0  0  0  0  0  0  # atno 6908 bound_to 6896
  150.8336  133.7982  159.3112 H   0  0  0  0  0  0  0  0  0  0  0  0  # atno 6909 bound_to 6896
  145.4103  140.9544  143.2237 H   0  0  0  0  0  0  0  0  0  0  0  0  # atno 7974 bound_to 7965
  154.8589  140.2941  155.5551 H   0  0  0  0  0  0  0  0  0  0  0  0  # atno 8008 bound_to 7997
  156.3019  140.2482  156.3492 H   0  0  0  0  0  0  0  0  0  0  0  0  # atno 8009 bound_to 7997
  154.8940  140.0393  157.1844 H   0  0  0  0  0  0  0  0  0  0  0  0  # atno 8010 bound_to 7997
  140.6765  143.6901  150.8035 H   0  0  0  0  0  0  0  0  0  0  0  0  # atno 10167 bound_to 10162
  157.3396  131.0933  151.1094 H   0  0  0  0  0  0  0  0  0  0  0  0  # atno 10718 bound_to 10713
  154.4500  135.5920  153.6185 H   0  0  0  0  0  0  0  0  0  0  0  0  # atno 10763 bound_to 10752
  152.9812  135.6018  154.3617 H   0  0  0  0  0  0  0  0  0  0  0  0  # atno 10764 bound_to 10752
  154.3477  135.2841  155.2368 H   0  0  0  0  0  0  0  0  0  0  0  0  # atno 10765 bound_to 10752
  139.9348  134.9640  156.8376 H   0  0  0  0  0  0  0  0  0  0  0  0  # atno 11005 bound_to 11000
  144.8313  139.5623  143.6942 LP  0  0  0  0  0  0  0  0  0  0  0  0  # atno 17320 bound_to 7965
  146.2708  139.6630  142.9297 LP  0  0  0  0  0  0  0  0  0  0  0  0  # atno 17321 bound_to 7965
  140.0595  143.5169  152.2635 LP  0  0  0  0  0  0  0  0  0  0  0  0  # atno 17342 bound_to 10162
  139.6060  144.7596  151.3060 LP  0  0  0  0  0  0  0  0  0  0  0  0  # atno 17343 bound_to 10162
  157.2311  130.6525  149.5850 LP  0  0  0  0  0  0  0  0  0  0  0  0  # atno 17370 bound_to 10713
  155.9706  130.4598  150.6051 LP  0  0  0  0  0  0  0  0  0  0  0  0  # atno 17371 bound_to 10713
  140.6104  134.0087  155.7574 LP  0  0  0  0  0  0  0  0  0  0  0  0  # atno 17394 bound_to 11000
  141.0956  133.9848  157.3165 LP  0  0  0  0  0  0  0  0  0  0  0  0  # atno 17395 bound_to 11000

$$$$
