AV-unprocessed.smi:617|AV-procd|sdf|3073|dock1
  -GOLD-   2262023593D 1   1.00000     0.00000
 Structure written by MMmdl.
 30 31  0  0  0  0  0  0  0  0  1 V2000
  146.8891  139.1749  153.3878 C   0  0  0  0  0  0  0  0  0  0  0  0
  148.0057  139.8629  154.0955 C   0  0  0  0  0  0  0  0  0  0  0  0
  148.1110  141.0818  154.7040 C   0  0  0  0  0  0  0  0  0  0  0  0
  149.4539  141.0982  155.1671 C   0  0  0  0  0  0  0  0  0  0  0  0
  149.9576  142.2307  155.8685 N   0  0  0  0  0  0  0  0  0  0  0  0
  150.9582  142.3414  156.7680 C   0  0  0  0  0  0  0  0  0  0  0  0
  151.6108  141.3588  157.1159 O   0  0  0  0  0  0  0  0  0  0  0  0
  151.1865  143.5737  157.2517 N   0  0  0  0  0  0  0  0  0  0  0  0
  152.1954  143.9220  158.2480 C   0  0  0  0  0  0  0  0  0  0  0  0
  152.2242  142.8759  159.3797 C   0  0  0  0  0  0  0  0  0  0  0  0
  152.1707  143.6642  160.6899 C   0  0  0  0  0  0  0  0  0  0  0  0
  151.4081  144.9366  160.3350 C   0  0  0  0  0  0  0  0  0  0  0  0
  151.8853  145.2733  158.9224 C   0  0  0  0  0  0  0  0  0  0  0  0
  150.1058  139.9828  154.8709 N   0  0  0  0  0  0  0  0  0  0  0  0
  149.1826  139.1869  154.1831 O   0  0  0  0  0  0  0  0  0  0  0  0
  146.0574  139.8583  153.2150 H   0  0  0  0  0  0  0  0  0  0  0  0
  146.5199  138.3339  153.9749 H   0  0  0  0  0  0  0  0  0  0  0  0
  147.2193  138.7943  152.4209 H   0  0  0  0  0  0  0  0  0  0  0  0
  147.3481  141.8406  154.7980 H   0  0  0  0  0  0  0  0  0  0  0  0
  149.4930  143.0996  155.6484 H   0  0  0  0  0  0  0  0  0  0  0  0
  150.6067  144.3270  156.9096 H   0  0  0  0  0  0  0  0  0  0  0  0
  153.1760  143.9687  157.7704 H   0  0  0  0  0  0  0  0  0  0  0  0
  151.3515  142.2227  159.3236 H   0  0  0  0  0  0  0  0  0  0  0  0
  153.1060  142.2366  159.3267 H   0  0  0  0  0  0  0  0  0  0  0  0
  151.7013  143.1034  161.4988 H   0  0  0  0  0  0  0  0  0  0  0  0
  153.1825  143.9212  161.0060 H   0  0  0  0  0  0  0  0  0  0  0  0
  150.3366  144.7322  160.3223 H   0  0  0  0  0  0  0  0  0  0  0  0
  151.5865  145.7460  161.0433 H   0  0  0  0  0  0  0  0  0  0  0  0
  152.8034  145.8591  158.9846 H   0  0  0  0  0  0  0  0  0  0  0  0
  151.1586  145.8778  158.3780 H   0  0  0  0  0  0  0  0  0  0  0  0
  1  2  1  0  0  0  0
  1 16  1  0  0  0  0
  1 17  1  0  0  0  0
  1 18  1  0  0  0  0
  2 15  1  0  0  0  0
  2  3  2  0  0  0  0
  3  4  1  0  0  0  0
  3 19  1  0  0  0  0
  4  5  1  0  0  0  0
  4 14  2  0  0  0  0
  5  6  1  0  0  0  0
  5 20  1  0  0  0  0
  6  7  2  0  0  0  0
  6  8  1  0  0  0  0
  8  9  1  0  0  0  0
  8 21  1  0  0  0  0
  9 13  1  0  0  0  0
  9 10  1  0  0  0  0
  9 22  1  0  0  0  0
 10 11  1  0  0  0  0
 10 23  1  0  0  0  0
 10 24  1  0  0  0  0
 11 12  1  0  0  0  0
 11 25  1  0  0  0  0
 11 26  1  0  0  0  0
 12 13  1  0  0  0  0
 12 27  1  0  0  0  0
 12 28  1  0  0  0  0
 13 29  1  0  0  0  0
 13 30  1  0  0  0  0
 14 15  1  0  0  0  0
M  END
> <s_m_source_file>
AV-unprocessed.smi

> <i_m_source_file_index>
617

> <i_lp_mmshare_version>
43012

> <i_f3d_flags>
0

> <s_epik_input>
W0NIM11jMVtjSF1jKG5vMSlbTkhdQyg9TylbTkhdW0NIXTJbQ0gyXVtDSDJdW0NIMl1bQ0gyXTI=

> <s_epik_cmdline>
J2VwaWtfcHl0aG9uJywgJy1waCcsICc3LjAnLCAnLXRuJywgJzgnLCAnLW1hJywgJzIwMCcsICctbWV0YWxfYmluZGluZycsICctaW1hZScsICc8aW5maWxlLm1hZT4nLCAnLW9tYWUnLCAnPG91dGZpbGUubWFlPic=

> <r_lp_tautomer_probability>
1

> <r_epik_Ionization_Penalty>
2.37631e-05

> <r_epik_Ionization_Penalty_Charging>
0

> <r_epik_Ionization_Penalty_Neutral>
2.37631e-05

> <r_epik_State_Penalty>
-0

> <r_epik_Charging_Adjusted_Penalty>
0

> <i_epik_Tot_Q>
0

> <i_epik_Tot_abs_Q>
0

> <r_epik_Metal_State_Penalty>
-0

> <b_epik_Metal_Only>
0

> <s_lp_Force_Field>
OPLS_2005

> <r_lp_Energy>
18.7169

> <b_lp_Chiralities_Consistent>
1

> <s_lp_Variant>
AV-unprocessed.smi:617-1

> <Gold.Version>
5.8.1

> <Gold.Id.Protein>
6NUR|6NUR_protein|mol2

> <Gold.PLP.Fitness>
42.1080

> <Gold.PLP.PLP>
-34.8552

> <Gold.PLP.part.hbond>
-3.0000

> <Gold.PLP.part.metal>
0.0000

> <Gold.PLP.part.buried>
-3.8768

> <Gold.PLP.part.nonpolar>
-29.9588

> <Gold.PLP.part.repulsive>
1.6760

> <Gold.PLP.ligand.clash>
0.0000

> <Gold.PLP.ligand.torsion>
0.3888

> <Gold.PLP.Chemscore.Hbond>
2.6760

> <Gold.PLP.Chemscore.CHOScore>
0.0000

> <Gold.PLP.Chemscore.Metal>
0.0000

> <Gold.Chemscore.Hbonds>
donor molecule, donor type, donor heavy atom, donor atom, acceptor molecule, acceptor atom, score
      L1  H     5    20       P1  8028  1.00
      L1  H     8    21       P1  8028  0.65
      P1  H  7989  7998       L1    14  0.44

> <Gold.PLP.Chemscore.Internal.Correction>
0.0025

> <Gold.Rescore>
     Score         DG    S(hbond)    S(metal)    S(lipo)     H(rot)  DE(clash)    DE(int)     intcor
     18.26     -20.46       2.79        0.00      70.12       1.00       0.09       2.11       ----

> <Gold.Chemscore.Fitness>
18.2603

> <Gold.Chemscore.DG>
-20.4576

> <Gold.Chemscore.ZeroCoef>
-5.4800

> <Gold.Chemscore.Hbond>
2.7945

> <Gold.Chemscore.Metal>
0.0000

> <Gold.Chemscore.Lipo>
70.1187

> <Gold.Chemscore.Internal_Hbond>
0.0000

> <Gold.Chemscore.DEClash>
0.0861

> <Gold.Chemscore.DEInternal>
2.1112

> <Gold.Chemscore.Rot>
1.0000

> <Gold.Chemscore.Internal.Correction>
   9.000000E+99

> <Gold.Chemscore.Hbonds>
donor molecule, donor type, donor heavy atom, donor atom, acceptor molecule, acceptor atom, score
      L1  H     5    20       P1  8028  1.00
      L1  H     8    21       P1  8028  0.59
      P1  H  7989  7998       L1    14  0.07

> <Gold.Chemscore.Hbond.Weighted>
-9.3337

> <Gold.Chemscore.Metal.Weighted>
-0.0000

> <Gold.Chemscore.Lipo.Weighted>
-8.2039

> <Gold.Chemscore.Internal_Hbond.Weighted>
0.0000

> <Gold.Chemscore.DEClash.Weighted>
0.0861

> <Gold.Chemscore.DEInternal.Weighted>
2.1112

> <Gold.Chemscore.Rot.Weighted>
2.5600

> <Gold.Chemscore.Internal.Correction.Weighted>
   9.000000E+99

> <Gold.Protein.RotatedTorsions>
[ 6907 6896 6895 6894 ] final    1.80 input  -60.11 | X-H torsion
[ 7974 7965 7964 7962 ] final  -46.07 input  175.53 | X-H torsion
[ 8008 7997 7996 7995 ] final   71.45 input   59.86 | X-H torsion
[ 10167 10162 10161 10158 ] final  164.95 input  -65.29 | X-H torsion
[ 10718 10713 10712 10709 ] final  131.53 input   66.30 | X-H torsion
[ 10763 10752 10751 10750 ] final -156.77 input  -60.55 | X-H torsion
[ 11005 11000 10999 10996 ] final  -39.77 input  -57.11 | X-H torsion

> <Gold.Protein.ActiveResidues>
 VAL166  LYS551  ARG553  GLY616  TRP617  ASP618  TYR619  PRO620  LYS621  CYS622 
 ASP623  PHE694  ASN695  SER759  ASP760  ASP761  ALA762  ILE779  LEU786  VAL792 
 PHE793  MET794  SER795  GLU796  ALA797  LYS798  CYS799  TRP800  GLU811  SER814 

> <Gold.Protein.RotatedAtoms>
  151.5985  135.1049  160.0054 H   0  0  0  0  0  0  0  0  0  0  0  0  # atno 6907 bound_to 6896
  152.4270  133.7208  159.6543 H   0  0  0  0  0  0  0  0  0  0  0  0  # atno 6908 bound_to 6896
  150.8160  133.8265  159.3183 H   0  0  0  0  0  0  0  0  0  0  0  0  # atno 6909 bound_to 6896
  145.9757  140.7337  142.9388 H   0  0  0  0  0  0  0  0  0  0  0  0  # atno 7974 bound_to 7965
  155.7540  140.3488  155.5165 H   0  0  0  0  0  0  0  0  0  0  0  0  # atno 8008 bound_to 7997
  155.8977  140.1028  157.1394 H   0  0  0  0  0  0  0  0  0  0  0  0  # atno 8009 bound_to 7997
  154.4040  140.1292  156.4383 H   0  0  0  0  0  0  0  0  0  0  0  0  # atno 8010 bound_to 7997
  139.4897  144.4182  151.9218 H   0  0  0  0  0  0  0  0  0  0  0  0  # atno 10167 bound_to 10162
  157.4959  131.1092  150.9494 H   0  0  0  0  0  0  0  0  0  0  0  0  # atno 10718 bound_to 10713
  154.7687  135.3139  154.8233 H   0  0  0  0  0  0  0  0  0  0  0  0  # atno 10763 bound_to 10752
  153.8974  135.6819  153.4761 H   0  0  0  0  0  0  0  0  0  0  0  0  # atno 10764 bound_to 10752
  153.1297  135.4785  154.9263 H   0  0  0  0  0  0  0  0  0  0  0  0  # atno 10765 bound_to 10752
  141.0126  133.6900  156.2231 H   0  0  0  0  0  0  0  0  0  0  0  0  # atno 11005 bound_to 11000
  144.6848  140.2823  143.7290 LP  0  0  0  0  0  0  0  0  0  0  0  0  # atno 17320 bound_to 7965
  145.7842  139.1902  143.2140 LP  0  0  0  0  0  0  0  0  0  0  0  0  # atno 17321 bound_to 7965
  140.3625  144.2955  150.5931 LP  0  0  0  0  0  0  0  0  0  0  0  0  # atno 17342 bound_to 10162
  140.5390  143.2227  151.8116 LP  0  0  0  0  0  0  0  0  0  0  0  0  # atno 17343 bound_to 10162
  157.0180  130.5663  149.5328 LP  0  0  0  0  0  0  0  0  0  0  0  0  # atno 17370 bound_to 10713
  156.0200  130.5295  150.8248 LP  0  0  0  0  0  0  0  0  0  0  0  0  # atno 17371 bound_to 10713
  140.6708  134.4869  157.5587 LP  0  0  0  0  0  0  0  0  0  0  0  0  # atno 17394 bound_to 11000
  139.9098  134.8369  156.1569 LP  0  0  0  0  0  0  0  0  0  0  0  0  # atno 17395 bound_to 11000

$$$$
