#       Name:                AV-unprocessed.smi:149
#       Creating user name   scv26
#       Creation time:       Thu Mar 26 18:44:48 2020


#       File generated by GOLD software.
#

@<TRIPOS>MOLECULE
AV-unprocessed.smi:149
    69    73     1
SMALL
NO_CHARGES


@<TRIPOS>ATOM
      1 ****        -3.4143  -0.2911   2.0251 C.3            1 S1                 0.0000
      2 ****        -3.4740  -0.6425   0.5245 C.3            1 S1                 0.0000
      3 ****        -2.0758  -1.0092  -0.0012 C.3            1 S1                 0.0000
      4 ****        -1.5615   0.1874  -0.6561 N.pl3          1 S1                 0.0000
      5 ****        -0.2283   0.4396  -0.7185 C.ar           1 S1                 0.0000
      6 ****         0.1893   1.7312  -0.7932 N.ar           1 S1                 0.0000
      7 ****         1.4919   2.0201  -0.8620 C.ar           1 S1                 0.0000
      8 ****         2.5315   1.1850  -0.8722 N.ar           1 S1                 0.0000
      9 ****         2.1239  -0.1144  -0.8044 C.ar           1 S1                 0.0000
     10 ****         0.7765  -0.5727  -0.7327 C.ar           1 S1                 0.0000
     11 ****         0.7578  -1.9631  -0.7090 N.2            1 S1                 0.0000
     12 ****         2.0159  -2.3044  -0.7599 C.2            1 S1                 0.0000
     13 ****         2.9069  -1.2564  -0.7875 N.pl3          1 S1                 0.0000
     14 ****         4.3346  -1.3508  -0.8865 C.3            1 S1                 0.0000
     15 ****         5.0954  -2.5064  -0.2278 C.3            1 S1                 0.0000
     16 ****         6.2579  -1.5541   0.1316 C.3            1 S1                 0.0000
     17 ****         6.7669  -1.6926   1.5746 C.3            1 S1                 0.0000
     18 ****         7.5368  -0.5732   1.9635 O.3            1 S1                 0.0000
     19 ****         7.4932  -1.6036  -0.7951 C.3            1 S1                 0.0000
     20 ****         7.1636  -1.5716  -2.1690 O.3            1 S1                 0.0000
     21 ****         5.2490  -0.4076  -0.0993 C.3            1 S1                 0.0000
     22 ****        -2.5417   1.2604  -0.5831 C.3            1 S1                 0.0000
     23 ****        -3.8768   0.5337  -0.3885 C.3            1 S1                 0.0000
     24 ****        -4.9919   1.3776   0.1266 N.4            1 S1                 1.0000
     25 ****        -5.1712   2.6542  -0.6117 C.3            1 S1                 0.0000
     26 ****        -6.3169   3.4784   0.0011 C.3            1 S1                 0.0000
     27 ****        -7.5145   2.7133   0.0001 O.3            1 S1                 0.0000
     28 ****        -7.3869   1.5321   0.7797 C.3            1 S1                 0.0000
     29 ****        -6.2817   0.6430   0.1872 C.3            1 S1                 0.0000
     30 ****        -2.7462   0.5490   2.2164 H              1 S1                 0.0000
     31 ****        -3.0487  -1.1383   2.6059 H              1 S1                 0.0000
     32 ****        -4.3962  -0.0323   2.4206 H              1 S1                 0.0000
     33 ****        -4.1535  -1.4852   0.3931 H              1 S1                 0.0000
     34 ****        -1.4229  -1.3507   0.8033 H              1 S1                 0.0000
     35 ****        -2.1437  -1.8072  -0.7412 H              1 S1                 0.0000
     36 ****         1.7367   3.0706  -0.9156 H              1 S1                 0.0000
     37 ****         2.3290  -3.3384  -0.7742 H              1 S1                 0.0000
     38 ****         4.5599  -1.2998  -1.9523 H              1 S1                 0.0000
     39 ****         4.5792  -2.8946   0.6517 H              1 S1                 0.0000
     40 ****         5.3587  -3.3159  -0.9093 H              1 S1                 0.0000
     41 ****         5.9340  -1.7789   2.2731 H              1 S1                 0.0000
     42 ****         7.3662  -2.5953   1.6973 H              1 S1                 0.0000
     43 ****         7.7961  -0.6852   2.8653 H              1 S1                 0.0000
     44 ****         8.1602  -0.7629  -0.6025 H              1 S1                 0.0000
     45 ****         8.0737  -2.5093  -0.6166 H              1 S1                 0.0000
     46 ****         7.9645  -1.5900  -2.6701 H              1 S1                 0.0000
     47 ****         5.6350   0.4308  -0.6797 H              1 S1                 0.0000
     48 ****         4.7862  -0.0590   0.8256 H              1 S1                 0.0000
     49 ****        -2.3168   1.9105   0.2638 H              1 S1                 0.0000
     50 ****        -2.5355   1.8599  -1.4943 H              1 S1                 0.0000
     51 ****        -4.1762   0.1302  -1.3581 H              1 S1                 0.0000
     52 ****        -4.2589   3.2492  -0.5789 H              1 S1                 0.0000
     53 ****        -5.3808   2.4438  -1.6618 H              1 S1                 0.0000
     54 ****        -6.0719   3.7906   1.0176 H              1 S1                 0.0000
     55 ****        -6.4786   4.3868  -0.5795 H              1 S1                 0.0000
     56 ****        -7.1705   1.7859   1.8188 H              1 S1                 0.0000
     57 ****        -8.3390   1.0011   0.7731 H              1 S1                 0.0000
     58 ****        -6.5657   0.3197  -0.8156 H              1 S1                 0.0000
     59 ****        -6.1826  -0.2568   0.7936 H              1 S1                 0.0000
     60 ****        -4.7496   1.6276   1.0747 H              1 S1                 0.0000
     61 ****        -0.4837   2.4708  -0.7967 LP             1 S1                 0.0000
     62 ****         3.4873   1.4746  -0.9231 LP             1 S1                 0.0000
     63 ****        -0.0395  -2.5649  -0.6633 LP             1 S1                 0.0000
     64 ****         6.9914   0.2598   1.8705 LP             1 S1                 0.0000
     65 ****         8.3497  -0.5057   1.3849 LP             1 S1                 0.0000
     66 ****         6.6562  -0.7348  -2.3747 LP             1 S1                 0.0000
     67 ****         6.6029  -2.3667  -2.4000 LP             1 S1                 0.0000
     68 ****        -7.7344   2.4576  -0.9413 LP             1 S1                 0.0000
     69 ****        -8.2549   3.2707   0.3757 LP             1 S1                 0.0000
@<TRIPOS>BOND
    1    1    2 1     
    2    1   30 1     
    3    1   31 1     
    4    1   32 1     
    5    2   23 1     
    6    2    3 1     
    7    2   33 1     
    8    3    4 1     
    9    3   34 1     
   10    3   35 1     
   11    4    5 1     
   12    4   22 1     
   13    5   10 ar    
   14    5    6 ar    
   15    6    7 ar    
   16    7    8 ar    
   17    7   36 1     
   18    8    9 ar    
   19    9   13 1     
   20    9   10 ar    
   21   10   11 1     
   22   11   12 2     
   23   12   13 1     
   24   12   37 1     
   25   13   14 1     
   26   14   21 1     
   27   14   15 1     
   28   14   38 1     
   29   15   16 1     
   30   15   39 1     
   31   15   40 1     
   32   16   17 1     
   33   16   19 1     
   34   16   21 1     
   35   17   18 1     
   36   17   41 1     
   37   17   42 1     
   38   18   43 1     
   39   19   20 1     
   40   19   44 1     
   41   19   45 1     
   42   20   46 1     
   43   21   47 1     
   44   21   48 1     
   45   22   23 1     
   46   22   49 1     
   47   22   50 1     
   48   23   24 1     
   49   23   51 1     
   50   24   29 1     
   51   24   25 1     
   52   24   60 1     
   53   25   26 1     
   54   25   52 1     
   55   25   53 1     
   56   26   27 1     
   57   26   54 1     
   58   26   55 1     
   59   27   28 1     
   60   28   29 1     
   61   28   56 1     
   62   28   57 1     
   63   29   58 1     
   64   29   59 1     
   65    6   61 1     
   66    8   62 1     
   67   11   63 1     
   68   18   64 1     
   69   18   65 1     
   70   20   66 1     
   71   20   67 1     
   72   27   68 1     
   73   27   69 1     
@<TRIPOS>SUBSTRUCTURE
      1 S1             1
@<TRIPOS>SET
LONE_PAIRS      STATIC     ATOMS    <user>   **** ""
9 61 62 63 64 65 66 67 68 69
DONOR_HYDROGENS      STATIC     ATOMS    <user>   **** ""
3 43 46 60
ATOM$BLUE        STATIC     ATOMS    COLORGROUP SYSTEM
9 61 62 63 64 65 66 67 68 69
ATOM$RED        STATIC     ATOMS    COLORGROUP SYSTEM
3 43 46 60
