AV-unprocessed.smi:2525|AV-procd|sdf|9932|dock5
  -GOLD-   2272013573D 1   1.00000     0.00000
 Structure written by MMmdl.
 44 45  0  0  0  0  0  0  0  0  1 V2000
  147.6757  141.9561  154.1585 C   0  0  0  0  0  0  0  0  0  0  0  0
  149.1220  141.6868  154.6149 C   0  0  0  0  0  0  0  0  0  0  0  0
  149.3653  140.4033  155.4593 C   0  0  0  0  0  0  0  0  0  0  0  0
  148.5825  140.5113  156.7860 C   0  0  0  0  0  0  0  0  0  0  0  0
  148.8551  141.7920  157.5919 C   0  0  0  0  0  0  0  0  0  0  0  0
  149.2573  139.0294  154.7401 C   0  0  1  0  0  0  0  0  0  0  0  0
  148.3952  139.0024  153.5651 N   0  0  0  0  0  0  0  0  0  0  0  0
  147.1836  138.4288  153.5176 C   0  0  0  0  0  0  0  0  0  0  0  0
  146.6523  137.8825  154.4838 O   0  0  0  0  0  0  0  0  0  0  0  0
  146.4515  138.4915  152.1759 C   0  0  0  0  0  0  0  0  0  0  0  0
  145.5357  137.3744  152.0207 N   0  0  0  0  0  0  0  0  0  0  0  0
  145.7073  136.2167  151.2899 C   0  0  0  0  0  0  0  0  0  0  0  0
  144.5390  135.5385  151.4897 C   0  0  0  0  0  0  0  0  0  0  0  0
  143.7180  136.2982  152.3212 N   0  0  0  0  0  0  0  0  0  0  0  0
  144.3277  137.3981  152.6344 N   0  0  0  0  0  0  0  0  0  0  0  0
  150.7396  139.1230  154.3671 C   0  0  2  0  0  0  0  0  0  0  0  0
  151.5653  137.8486  154.2401 C   0  0  0  0  0  0  0  0  0  0  0  0
  150.8721  140.0394  155.5972 C   0  0  2  0  0  0  0  0  0  0  0  0
  151.1426  139.3111  156.7906 O   0  0  0  0  0  0  0  0  0  0  0  0
  151.3749  140.1463  157.9118 C   0  0  0  0  0  0  0  0  0  0  0  0
  147.6476  142.8021  153.4716 H   0  0  0  0  0  0  0  0  0  0  0  0
  147.0255  142.2086  154.9955 H   0  0  0  0  0  0  0  0  0  0  0  0
  147.2390  141.1045  153.6406 H   0  0  0  0  0  0  0  0  0  0  0  0
  149.7430  141.6671  153.7198 H   0  0  0  0  0  0  0  0  0  0  0  0
  149.4726  142.5609  155.1643 H   0  0  0  0  0  0  0  0  0  0  0  0
  147.5117  140.4081  156.6146 H   0  0  0  0  0  0  0  0  0  0  0  0
  148.8268  139.6628  157.4257 H   0  0  0  0  0  0  0  0  0  0  0  0
  148.3260  141.7641  158.5445 H   0  0  0  0  0  0  0  0  0  0  0  0
  148.5218  142.6842  157.0629 H   0  0  0  0  0  0  0  0  0  0  0  0
  149.9169  141.9074  157.8097 H   0  0  0  0  0  0  0  0  0  0  0  0
  149.0819  138.2060  155.4373 H   0  0  0  0  0  0  0  0  0  0  0  0
  148.7526  139.4328  152.7244 H   0  0  0  0  0  0  0  0  0  0  0  0
  145.8851  139.4207  152.1008 H   0  0  0  0  0  0  0  0  0  0  0  0
  147.1761  138.4898  151.3597 H   0  0  0  0  0  0  0  0  0  0  0  0
  146.5969  135.9933  150.7195 H   0  0  0  0  0  0  0  0  0  0  0  0
  144.2228  134.5789  151.1079 H   0  0  0  0  0  0  0  0  0  0  0  0
  150.8607  139.7281  153.4667 H   0  0  0  0  0  0  0  0  0  0  0  0
  151.4713  137.2180  155.1246 H   0  0  0  0  0  0  0  0  0  0  0  0
  152.6227  138.0746  154.1026 H   0  0  0  0  0  0  0  0  0  0  0  0
  151.2417  137.2577  153.3829 H   0  0  0  0  0  0  0  0  0  0  0  0
  151.5330  140.8960  155.4518 H   0  0  0  0  0  0  0  0  0  0  0  0
  151.6144  139.5333  158.7805 H   0  0  0  0  0  0  0  0  0  0  0  0
  150.4872  140.7334  158.1500 H   0  0  0  0  0  0  0  0  0  0  0  0
  152.2078  140.8283  157.7407 H   0  0  0  0  0  0  0  0  0  0  0  0
  1  2  1  0  0  0  0
  1 21  1  0  0  0  0
  1 22  1  0  0  0  0
  1 23  1  0  0  0  0
  2  3  1  0  0  0  0
  2 24  1  0  0  0  0
  2 25  1  0  0  0  0
  3 18  1  0  0  0  0
  3  4  1  0  0  0  0
  3  6  1  0  0  0  0
  4  5  1  0  0  0  0
  4 26  1  0  0  0  0
  4 27  1  0  0  0  0
  5 28  1  0  0  0  0
  5 29  1  0  0  0  0
  5 30  1  0  0  0  0
  6  7  1  0  0  0  0
  6 16  1  0  0  0  0
  6 31  1  0  0  0  0
  7  8  1  0  0  0  0
  7 32  1  0  0  0  0
  8  9  2  0  0  0  0
  8 10  1  0  0  0  0
 10 11  1  0  0  0  0
 10 33  1  0  0  0  0
 10 34  1  0  0  0  0
 11 15  1  0  0  0  0
 11 12  1  0  0  0  0
 12 13  2  0  0  0  0
 12 35  1  0  0  0  0
 13 14  1  0  0  0  0
 13 36  1  0  0  0  0
 14 15  2  0  0  0  0
 16 17  1  0  0  0  0
 16 18  1  0  0  0  0
 16 37  1  0  0  0  0
 17 38  1  0  0  0  0
 17 39  1  0  0  0  0
 17 40  1  0  0  0  0
 18 19  1  0  0  0  0
 18 41  1  0  0  0  0
 19 20  1  0  0  0  0
 20 42  1  0  0  0  0
 20 43  1  0  0  0  0
 20 44  1  0  0  0  0
M  END
> <s_m_source_file>
AV-unprocessed.smi

> <i_m_source_file_index>
2525

> <i_lp_mmshare_version>
43012

> <i_f3d_flags>
0

> <s_epik_input>
W0NIM11PW0NAQEhdMVtDQEhdKFtDSDNdKVtDQEBIXShDMShbQ0gyXVtDSDNdKVtDSDJdW0NIM10pW05IXUMoPU8pW0NIMl1uMltjSF1bY0hdbm4y

> <s_epik_cmdline>
J2VwaWtfcHl0aG9uJywgJy1waCcsICc3LjAnLCAnLXRuJywgJzgnLCAnLW1hJywgJzIwMCcsICctbWV0YWxfYmluZGluZycsICctaW1hZScsICc8aW5maWxlLm1hZT4nLCAnLW9tYWUnLCAnPG91dGZpbGUubWFlPic=

> <r_lp_tautomer_probability>
1

> <r_epik_Ionization_Penalty>
1.18045e-06

> <r_epik_Ionization_Penalty_Charging>
0

> <r_epik_Ionization_Penalty_Neutral>
1.18045e-06

> <r_epik_State_Penalty>
-0

> <r_epik_Charging_Adjusted_Penalty>
0

> <i_epik_Tot_Q>
0

> <i_epik_Tot_abs_Q>
0

> <r_epik_Metal_State_Penalty>
-0

> <b_epik_Metal_Only>
0

> <s_lp_Force_Field>
OPLS_2005

> <r_lp_Energy>
28.9829

> <b_lp_Chiralities_Consistent>
1

> <s_lp_Variant>
AV-unprocessed.smi:2525-7

> <Gold.Version>
5.8.1

> <Gold.Id.Protein>
6NUR|6NUR_protein|mol2

> <Gold.PLP.Fitness>
37.7203

> <Gold.PLP.PLP>
-34.0072

> <Gold.PLP.part.hbond>
-1.2936

> <Gold.PLP.part.metal>
0.0000

> <Gold.PLP.part.buried>
-1.3981

> <Gold.PLP.part.nonpolar>
-32.1807

> <Gold.PLP.part.repulsive>
0.7402

> <Gold.PLP.ligand.clash>
0.0000

> <Gold.PLP.ligand.torsion>
1.2111

> <Gold.PLP.Chemscore.Hbond>
1.0000

> <Gold.PLP.Chemscore.CHOScore>
0.8136

> <Gold.PLP.Chemscore.Metal>
0.0000

> <Gold.Chemscore.Hbonds>
donor molecule, donor type, donor heavy atom, donor atom, acceptor molecule, acceptor atom, score
      L1  H     7    32       P1  7957  1.00
      L1  C    12    35       P1  7948  0.73

> <Gold.PLP.Chemscore.Internal.Correction>
0.6945

> <Gold.Rescore>
     Score         DG    S(hbond)    S(metal)    S(lipo)     H(rot)  DE(clash)    DE(int)     intcor
     10.96     -13.36       1.00        0.00      82.17       1.98       0.08       2.32       ----

> <Gold.Chemscore.Fitness>
10.9636

> <Gold.Chemscore.DG>
-13.3600

> <Gold.Chemscore.ZeroCoef>
-5.4800

> <Gold.Chemscore.Hbond>
0.9997

> <Gold.Chemscore.Metal>
0.0000

> <Gold.Chemscore.Lipo>
82.1713

> <Gold.Chemscore.Internal_Hbond>
0.0000

> <Gold.Chemscore.DEClash>
0.0780

> <Gold.Chemscore.DEInternal>
2.3184

> <Gold.Chemscore.Rot>
1.9817

> <Gold.Chemscore.Internal.Correction>
   9.000000E+99

> <Gold.Chemscore.Hbonds>
donor molecule, donor type, donor heavy atom, donor atom, acceptor molecule, acceptor atom, score
      L1  H     7    32       P1  7957  1.00

> <Gold.Chemscore.Hbond.Weighted>
-3.3391

> <Gold.Chemscore.Metal.Weighted>
-0.0000

> <Gold.Chemscore.Lipo.Weighted>
-9.6140

> <Gold.Chemscore.Internal_Hbond.Weighted>
0.0000

> <Gold.Chemscore.DEClash.Weighted>
0.0780

> <Gold.Chemscore.DEInternal.Weighted>
2.3184

> <Gold.Chemscore.Rot.Weighted>
5.0731

> <Gold.Chemscore.Internal.Correction.Weighted>
   9.000000E+99

> <Gold.Protein.RotatedTorsions>
[ 6907 6896 6895 6894 ] final -169.14 input  -60.11 | X-H torsion
[ 7974 7965 7964 7962 ] final    4.74 input  175.53 | X-H torsion
[ 8008 7997 7996 7995 ] final  154.83 input   59.86 | X-H torsion
[ 10167 10162 10161 10158 ] final  141.89 input  -65.29 | X-H torsion
[ 10718 10713 10712 10709 ] final    4.24 input   66.30 | X-H torsion
[ 10763 10752 10751 10750 ] final  -24.53 input  -60.55 | X-H torsion
[ 11005 11000 10999 10996 ] final   93.17 input  -57.11 | X-H torsion

> <Gold.Protein.ActiveResidues>
 VAL166  LYS551  ARG553  GLY616  TRP617  ASP618  TYR619  PRO620  LYS621  CYS622 
 ASP623  PHE694  ASN695  SER759  ASP760  ASP761  ALA762  ILE779  LEU786  VAL792 
 PHE793  MET794  SER795  GLU796  ALA797  LYS798  CYS799  TRP800  GLU811  SER814 

> <Gold.Protein.RotatedAtoms>
  151.4869  133.3533  159.2846 H   0  0  0  0  0  0  0  0  0  0  0  0  # atno 6907 bound_to 6896
  150.8860  134.8260  159.7270 H   0  0  0  0  0  0  0  0  0  0  0  0  # atno 6908 bound_to 6896
  152.4793  134.4773  159.9706 H   0  0  0  0  0  0  0  0  0  0  0  0  # atno 6909 bound_to 6896
  146.2443  140.0489  142.8376 H   0  0  0  0  0  0  0  0  0  0  0  0  # atno 7974 bound_to 7965
  156.2510  140.1956  156.6708 H   0  0  0  0  0  0  0  0  0  0  0  0  # atno 8008 bound_to 7997
  154.6394  140.0585  156.9854 H   0  0  0  0  0  0  0  0  0  0  0  0  # atno 8009 bound_to 7997
  155.1586  140.3258  155.4419 H   0  0  0  0  0  0  0  0  0  0  0  0  # atno 8010 bound_to 7997
  139.5008  144.6142  151.6202 H   0  0  0  0  0  0  0  0  0  0  0  0  # atno 10167 bound_to 10162
  156.8896  130.5683  149.5650 H   0  0  0  0  0  0  0  0  0  0  0  0  # atno 10718 bound_to 10713
  153.6853  135.6964  153.5106 H   0  0  0  0  0  0  0  0  0  0  0  0  # atno 10763 bound_to 10752
  153.2454  135.4292  155.0741 H   0  0  0  0  0  0  0  0  0  0  0  0  # atno 10764 bound_to 10752
  154.8388  135.3518  154.6396 H   0  0  0  0  0  0  0  0  0  0  0  0  # atno 10765 bound_to 10752
  139.8813  134.8775  156.3679 H   0  0  0  0  0  0  0  0  0  0  0  0  # atno 11005 bound_to 11000
  145.1002  140.9341  143.4717 LP  0  0  0  0  0  0  0  0  0  0  0  0  # atno 17320 bound_to 7965
  145.0680  139.3053  143.5846 LP  0  0  0  0  0  0  0  0  0  0  0  0  # atno 17321 bound_to 7965
  140.5825  143.9920  150.6277 LP  0  0  0  0  0  0  0  0  0  0  0  0  # atno 17342 bound_to 10162
  140.3074  143.3220  152.0912 LP  0  0  0  0  0  0  0  0  0  0  0  0  # atno 17343 bound_to 10162
  156.0635  130.5683  150.9242 LP  0  0  0  0  0  0  0  0  0  0  0  0  # atno 17370 bound_to 10713
  157.6091  131.0937  150.8826 LP  0  0  0  0  0  0  0  0  0  0  0  0  # atno 17371 bound_to 10713
  140.9484  133.7467  156.0239 LP  0  0  0  0  0  0  0  0  0  0  0  0  # atno 17394 bound_to 11000
  140.8135  134.3372  157.5404 LP  0  0  0  0  0  0  0  0  0  0  0  0  # atno 17395 bound_to 11000

$$$$
