AV-unprocessed.smi:333|AV-procd|sdf|2360|dock9
  -GOLD-   2262022273D 1   1.00000     0.00000
 Structure written by MMmdl.
 25 25  0  0  0  0  0  0  0  0  2 V2000
  149.0841  141.8178  155.0438 N   0  0  0  0  0  0  0  0  0  0  0  0
  150.1370  140.9907  155.0602 C   0  0  0  0  0  0  0  0  0  0  0  0
  150.3559  140.2908  154.0711 O   0  0  0  0  0  0  0  0  0  0  0  0
  150.9194  141.0345  156.3170 C   0  0  0  0  0  0  0  0  0  0  0  0
  150.8301  142.0487  157.2145 C   0  0  0  0  0  0  0  0  0  0  0  0
  151.6053  142.0787  158.4462 C   0  0  0  0  0  0  0  0  0  0  0  0
  151.4653  143.2545  159.4056 C   0  0  0  0  0  0  0  0  0  0  0  0
  150.4630  144.3124  158.9157 C   0  0  0  0  0  0  0  0  0  0  0  0
  150.9617  144.9932  157.7840 O   0  0  0  0  0  0  0  0  0  0  0  0
  152.4664  140.9914  158.6289 C   0  0  0  0  0  0  0  0  0  0  0  0
  153.3685  140.8886  159.8709 C   0  0  0  0  0  0  0  0  0  0  0  0
  154.2161  141.9172  159.9191 F   0  0  0  0  0  0  0  0  0  0  0  0
  152.6421  140.8866  160.9887 F   0  0  0  0  0  0  0  0  0  0  0  0
  154.1004  139.7709  159.8721 F   0  0  0  0  0  0  0  0  0  0  0  0
  152.5688  139.9604  157.7447 N   0  5  0  0  0  0  0  0  0  0  0  0
  151.8452  139.9111  156.5922 C   0  0  0  0  0  0  0  0  0  0  0  0
  151.9734  138.9565  155.8245 O   0  0  0  0  0  0  0  0  0  0  0  0
  148.4890  141.8550  154.2295 H   0  0  0  0  0  0  0  0  0  0  0  0
  148.8895  142.3972  155.8469 H   0  0  0  0  0  0  0  0  0  0  0  0
  150.1704  142.8857  157.0422 H   0  0  0  0  0  0  0  0  0  0  0  0
  151.1976  142.9313  160.4094 H   0  0  0  0  0  0  0  0  0  0  0  0
  152.4484  143.7161  159.5023 H   0  0  0  0  0  0  0  0  0  0  0  0
  149.5195  143.8371  158.6469 H   0  0  0  0  0  0  0  0  0  0  0  0
  150.2432  145.0356  159.7015 H   0  0  0  0  0  0  0  0  0  0  0  0
  150.3750  144.8424  157.0591 H   0  0  0  0  0  0  0  0  0  0  0  0
  1  2  1  0  0  0  0
  1 18  1  0  0  0  0
  1 19  1  0  0  0  0
  2  3  2  0  0  0  0
  2  4  1  0  0  0  0
  4 16  1  0  0  0  0
  4  5  2  0  0  0  0
  5  6  1  0  0  0  0
  5 20  1  0  0  0  0
  6  7  1  0  0  0  0
  6 10  2  0  0  0  0
  7  8  1  0  0  0  0
  7 21  1  0  0  0  0
  7 22  1  0  0  0  0
  8  9  1  0  0  0  0
  8 23  1  0  0  0  0
  8 24  1  0  0  0  0
  9 25  1  0  0  0  0
 10 11  1  0  0  0  0
 10 15  1  0  0  0  0
 11 12  1  0  0  0  0
 11 13  1  0  0  0  0
 11 14  1  0  0  0  0
 15 16  1  0  0  0  0
 16 17  2  0  0  0  0
M  CHG  1  15  -1
M  END
> <s_m_source_file>
AV-unprocessed.smi

> <i_m_source_file_index>
333

> <i_lp_mmshare_version>
43012

> <i_f3d_flags>
0

> <s_epik_input>
W05IMl1DKD1PKWMxW2NIXWMoW0NIMl1bQ0gyXVtPSF0pYyhDKEYpKEYpRilbbkhdYzE9Tw==

> <s_epik_cmdline>
J2VwaWtfcHl0aG9uJywgJy1waCcsICc3LjAnLCAnLXRuJywgJzgnLCAnLW1hJywgJzIwMCcsICctbWV0YWxfYmluZGluZycsICctaW1hZScsICc8aW5maWxlLm1hZT4nLCAnLW9tYWUnLCAnPG91dGZpbGUubWFlPic=

> <r_epik_Ionization_Penalty>
0.0673264

> <r_epik_Ionization_Penalty_Charging>
0.00196754

> <r_epik_Ionization_Penalty_Neutral>
0.0653589

> <r_epik_State_Penalty>
0.0569931

> <r_epik_Charging_Adjusted_Penalty>
0.0589607

> <i_epik_Tot_Q>
-1

> <i_epik_Tot_abs_Q>
1

> <r_epik_Metal_State_Penalty>
0.0511714

> <b_epik_Metal_Only>
0

> <s_lp_Force_Field>
OPLS_2005

> <r_lp_Energy>
33.2875

> <b_lp_Chiralities_Consistent>
1

> <s_lp_Variant>
AV-unprocessed.smi:333-1

> <Gold.Version>
5.8.1

> <Gold.Id.Protein>
6NUR|6NUR_protein|mol2

> <Gold.PLP.Fitness>
39.8257

> <Gold.PLP.PLP>
-28.1532

> <Gold.PLP.part.hbond>
-4.8472

> <Gold.PLP.part.metal>
0.0000

> <Gold.PLP.part.buried>
-3.7239

> <Gold.PLP.part.nonpolar>
-20.2300

> <Gold.PLP.part.repulsive>
0.4060

> <Gold.PLP.ligand.clash>
4.3329

> <Gold.PLP.ligand.torsion>
0.1562

> <Gold.PLP.Chemscore.Hbond>
3.9920

> <Gold.PLP.Chemscore.CHOScore>
0.0000

> <Gold.PLP.Chemscore.Metal>
0.0000

> <Gold.Chemscore.Hbonds>
donor molecule, donor type, donor heavy atom, donor atom, acceptor molecule, acceptor atom, score
      L1  H     1    19       P1  8028  0.11
      L1  H     9    25       P1  8028  1.00
      P1  H  7989  7998       L1     3  0.89
      P1  H  7997  8008       L1    15  1.56

> <Gold.PLP.Chemscore.Internal.Correction>
4.3417

> <Gold.Rescore>
     Score         DG    S(hbond)    S(metal)    S(lipo)     H(rot)  DE(clash)    DE(int)     intcor
      9.78     -12.73       2.00        0.00      50.92       2.11       0.34       2.61       ----

> <Gold.Chemscore.Fitness>
9.7810

> <Gold.Chemscore.DG>
-12.7288

> <Gold.Chemscore.ZeroCoef>
-5.4800

> <Gold.Chemscore.Hbond>
2.0025

> <Gold.Chemscore.Metal>
0.0000

> <Gold.Chemscore.Lipo>
50.9234

> <Gold.Chemscore.Internal_Hbond>
0.0000

> <Gold.Chemscore.DEClash>
0.3407

> <Gold.Chemscore.DEInternal>
2.6071

> <Gold.Chemscore.Rot>
2.1084

> <Gold.Chemscore.Internal.Correction>
   9.000000E+99

> <Gold.Chemscore.Hbonds>
donor molecule, donor type, donor heavy atom, donor atom, acceptor molecule, acceptor atom, score
      L1  H     1    19       P1  8028  0.11
      L1  H     9    25       P1  8028  0.43
      P1  H  7989  7998       L1     3  0.37
      P1  H  7997  8008       L1    15  0.10

> <Gold.Chemscore.Hbond.Weighted>
-6.6883

> <Gold.Chemscore.Metal.Weighted>
-0.0000

> <Gold.Chemscore.Lipo.Weighted>
-5.9580

> <Gold.Chemscore.Internal_Hbond.Weighted>
0.0000

> <Gold.Chemscore.DEClash.Weighted>
0.3407

> <Gold.Chemscore.DEInternal.Weighted>
2.6071

> <Gold.Chemscore.Rot.Weighted>
5.3976

> <Gold.Chemscore.Internal.Correction.Weighted>
   9.000000E+99

> <Gold.Protein.RotatedTorsions>
[ 6907 6896 6895 6894 ] final    9.76 input  -60.11 | X-H torsion
[ 7974 7965 7964 7962 ] final  129.95 input  175.53 | X-H torsion
[ 8008 7997 7996 7995 ] final  -81.35 input   59.86 | X-H torsion
[ 10167 10162 10161 10158 ] final  -13.78 input  -65.29 | X-H torsion
[ 10718 10713 10712 10709 ] final  -71.57 input   66.30 | X-H torsion
[ 10763 10752 10751 10750 ] final  -70.48 input  -60.55 | X-H torsion
[ 11005 11000 10999 10996 ] final -111.44 input  -57.11 | X-H torsion

> <Gold.Protein.ActiveResidues>
 VAL166  LYS551  ARG553  GLY616  TRP617  ASP618  TYR619  PRO620  LYS621  CYS622 
 ASP623  PHE694  ASN695  SER759  ASP760  ASP761  ALA762  ILE779  LEU786  VAL792 
 PHE793  MET794  SER795  GLU796  ALA797  LYS798  CYS799  TRP800  GLU811  SER814 

> <Gold.Protein.RotatedAtoms>
  151.7273  135.0882  160.0293 H   0  0  0  0  0  0  0  0  0  0  0  0  # atno 6907 bound_to 6896
  152.3564  133.6238  159.5991 H   0  0  0  0  0  0  0  0  0  0  0  0  # atno 6908 bound_to 6896
  150.7574  133.9410  159.3497 H   0  0  0  0  0  0  0  0  0  0  0  0  # atno 6909 bound_to 6896
  145.0231  139.4114  143.5187 H   0  0  0  0  0  0  0  0  0  0  0  0  # atno 7974 bound_to 7965
  154.5974  140.0649  156.9322 H   0  0  0  0  0  0  0  0  0  0  0  0  # atno 8008 bound_to 7997
  155.2190  140.3328  155.4300 H   0  0  0  0  0  0  0  0  0  0  0  0  # atno 8009 bound_to 7997
  156.2296  140.1835  156.7260 H   0  0  0  0  0  0  0  0  0  0  0  0  # atno 8010 bound_to 7997
  140.7189  143.5390  150.9431 H   0  0  0  0  0  0  0  0  0  0  0  0  # atno 10167 bound_to 10162
  156.0357  130.4354  150.2463 H   0  0  0  0  0  0  0  0  0  0  0  0  # atno 10718 bound_to 10713
  154.4182  135.5993  153.5994 H   0  0  0  0  0  0  0  0  0  0  0  0  # atno 10763 bound_to 10752
  152.9793  135.5946  154.3987 H   0  0  0  0  0  0  0  0  0  0  0  0  # atno 10764 bound_to 10752
  154.3809  135.2841  155.2190 H   0  0  0  0  0  0  0  0  0  0  0  0  # atno 10765 bound_to 10752
  141.0734  133.9341  157.2439 H   0  0  0  0  0  0  0  0  0  0  0  0  # atno 11005 bound_to 11000
  146.3488  139.9740  142.8703 LP  0  0  0  0  0  0  0  0  0  0  0  0  # atno 17320 bound_to 7965
  145.1869  140.9793  143.4233 LP  0  0  0  0  0  0  0  0  0  0  0  0  # atno 17321 bound_to 7965
  139.9112  143.6718  152.3115 LP  0  0  0  0  0  0  0  0  0  0  0  0  # atno 17342 bound_to 10162
  139.7102  144.7621  151.1126 LP  0  0  0  0  0  0  0  0  0  0  0  0  # atno 17343 bound_to 10162
  157.0562  131.0077  151.3237 LP  0  0  0  0  0  0  0  0  0  0  0  0  # atno 17370 bound_to 10713
  157.5104  130.7935  149.7699 LP  0  0  0  0  0  0  0  0  0  0  0  0  # atno 17371 bound_to 10713
  139.9547  135.0168  156.9094 LP  0  0  0  0  0  0  0  0  0  0  0  0  # atno 17394 bound_to 11000
  140.5625  134.0521  155.7403 LP  0  0  0  0  0  0  0  0  0  0  0  0  # atno 17395 bound_to 11000

$$$$
