AV-unprocessed.smi:229|AV-procd|sdf|1748|dock5
  -GOLD-   2262020263D 1   1.00000     0.00000
 Structure written by MMmdl.
 58 62  0  0  0  0  0  0  0  0  1 V2000
  152.1713  142.6938  159.8624 C   0  0  0  0  0  0  0  0  0  0  0  0
  152.8890  141.5430  159.1462 C   0  0  0  0  0  0  0  0  0  0  0  0
  151.9376  140.6750  158.3094 C   0  0  1  0  0  0  0  0  0  0  0  0
  150.9581  141.5283  157.4863 C   0  0  0  0  0  0  0  0  0  0  0  0
  150.1570  140.6702  156.6202 N   0  0  0  0  0  0  0  0  0  0  0  0
  149.0522  141.2010  156.0389 C   0  0  0  0  0  0  0  0  0  0  0  0
  148.9267  141.1987  154.6844 N   0  0  0  0  0  0  0  0  0  0  0  0
  147.8357  141.7098  154.1062 C   0  0  0  0  0  0  0  0  0  0  0  0
  146.7697  142.2679  154.6830 N   0  0  0  0  0  0  0  0  0  0  0  0
  146.8931  142.2814  156.0408 C   0  0  0  0  0  0  0  0  0  0  0  0
  147.9892  141.7728  156.7935 C   0  0  0  0  0  0  0  0  0  0  0  0
  147.7618  141.9702  158.1509 N   0  0  0  0  0  0  0  0  0  0  0  0
  146.5947  142.5526  158.1980 C   0  0  0  0  0  0  0  0  0  0  0  0
  146.0021  142.7763  156.9764 N   0  0  0  0  0  0  0  0  0  0  0  0
  144.7124  143.4012  156.7401 C   0  0  0  0  0  0  0  0  0  0  0  0
  144.8377  144.9086  156.4452 C   0  0  2  0  0  0  0  0  0  0  0  0
  145.2896  145.6071  157.5906 O   0  0  0  0  0  0  0  0  0  0  0  0
  143.5279  145.5283  155.9161 C   0  0  2  0  0  0  0  0  0  0  0  0
  142.8580  144.7858  154.7468 C   0  0  0  0  0  0  0  0  0  0  0  0
  142.8027  145.8279  153.6443 C   0  0  0  0  0  0  0  0  0  0  0  0
  142.8308  147.1375  154.4214 C   0  0  0  0  0  0  0  0  0  0  0  0
  143.7416  146.8661  155.4734 O   0  0  0  0  0  0  0  0  0  0  0  0
  150.9706  139.8410  155.7390 C   0  0  0  0  0  0  0  0  0  0  0  0
  151.9864  139.0103  156.5508 C   0  0  1  0  0  0  0  0  0  0  0  0
  151.3775  137.8195  157.2852 C   0  0  0  0  0  0  0  0  0  0  0  0
  152.5774  136.8992  157.4471 C   0  0  0  0  0  0  0  0  0  0  0  0
  153.2660  137.0223  156.2124 O   0  0  0  0  0  0  0  0  0  0  0  0
  153.0213  138.3115  155.6538 C   0  0  0  0  0  0  0  0  0  0  0  0
  152.7232  139.8735  157.4254 O   0  0  0  0  0  0  0  0  0  0  0  0
  152.8782  143.2963  160.4329 H   0  0  0  0  0  0  0  0  0  0  0  0
  151.4182  142.3200  160.5565 H   0  0  0  0  0  0  0  0  0  0  0  0
  151.6730  143.3514  159.1498 H   0  0  0  0  0  0  0  0  0  0  0  0
  153.6599  141.9612  158.4977 H   0  0  0  0  0  0  0  0  0  0  0  0
  153.4071  140.9230  159.8788 H   0  0  0  0  0  0  0  0  0  0  0  0
  151.3712  140.0401  158.9901 H   0  0  0  0  0  0  0  0  0  0  0  0
  150.3107  142.0946  158.1576 H   0  0  0  0  0  0  0  0  0  0  0  0
  151.5056  142.2484  156.8762 H   0  0  0  0  0  0  0  0  0  0  0  0
  147.8133  141.6645  153.0274 H   0  0  0  0  0  0  0  0  0  0  0  0
  146.1303  142.8367  159.1312 H   0  0  0  0  0  0  0  0  0  0  0  0
  144.2354  142.8923  155.9016 H   0  0  0  0  0  0  0  0  0  0  0  0
  144.0763  143.2294  157.6094 H   0  0  0  0  0  0  0  0  0  0  0  0
  145.6027  145.0454  155.6798 H   0  0  0  0  0  0  0  0  0  0  0  0
  146.1711  145.9074  157.4303 H   0  0  0  0  0  0  0  0  0  0  0  0
  142.8130  145.5808  156.7388 H   0  0  0  0  0  0  0  0  0  0  0  0
  143.3915  143.8887  154.4319 H   0  0  0  0  0  0  0  0  0  0  0  0
  141.8492  144.4832  155.0299 H   0  0  0  0  0  0  0  0  0  0  0  0
  143.6923  145.7518  153.0178 H   0  0  0  0  0  0  0  0  0  0  0  0
  141.9254  145.7294  153.0045 H   0  0  0  0  0  0  0  0  0  0  0  0
  143.1566  147.9823  153.8145 H   0  0  0  0  0  0  0  0  0  0  0  0
  141.8485  147.3671  154.8374 H   0  0  0  0  0  0  0  0  0  0  0  0
  150.3575  139.1812  155.1254 H   0  0  0  0  0  0  0  0  0  0  0  0
  151.5021  140.4988  155.0495 H   0  0  0  0  0  0  0  0  0  0  0  0
  150.8948  138.0578  158.2312 H   0  0  0  0  0  0  0  0  0  0  0  0
  150.6324  137.3320  156.6547 H   0  0  0  0  0  0  0  0  0  0  0  0
  153.2222  137.2445  158.2566 H   0  0  0  0  0  0  0  0  0  0  0  0
  152.2949  135.8659  157.6483 H   0  0  0  0  0  0  0  0  0  0  0  0
  152.6354  138.1657  154.6442 H   0  0  0  0  0  0  0  0  0  0  0  0
  153.9471  138.8822  155.5707 H   0  0  0  0  0  0  0  0  0  0  0  0
  1  2  1  0  0  0  0
  1 30  1  0  0  0  0
  1 31  1  0  0  0  0
  1 32  1  0  0  0  0
  2  3  1  0  0  0  0
  2 33  1  0  0  0  0
  2 34  1  0  0  0  0
  3 29  1  0  0  0  0
  3  4  1  0  0  0  0
  3 35  1  0  0  0  0
  4  5  1  0  0  0  0
  4 36  1  0  0  0  0
  4 37  1  0  0  0  0
  5  6  1  0  0  0  0
  5 23  1  0  0  0  0
  6 11  1  0  0  0  0
  6  7  2  0  0  0  0
  7  8  1  0  0  0  0
  8  9  2  0  0  0  0
  8 38  1  0  0  0  0
  9 10  1  0  0  0  0
 10 14  1  0  0  0  0
 10 11  2  0  0  0  0
 11 12  1  0  0  0  0
 12 13  2  0  0  0  0
 13 14  1  0  0  0  0
 13 39  1  0  0  0  0
 14 15  1  0  0  0  0
 15 16  1  0  0  0  0
 15 40  1  0  0  0  0
 15 41  1  0  0  0  0
 16 17  1  0  0  0  0
 16 18  1  0  0  0  0
 16 42  1  0  0  0  0
 17 43  1  0  0  0  0
 18 22  1  0  0  0  0
 18 19  1  0  0  0  0
 18 44  1  0  0  0  0
 19 20  1  0  0  0  0
 19 45  1  0  0  0  0
 19 46  1  0  0  0  0
 20 21  1  0  0  0  0
 20 47  1  0  0  0  0
 20 48  1  0  0  0  0
 21 22  1  0  0  0  0
 21 49  1  0  0  0  0
 21 50  1  0  0  0  0
 23 24  1  0  0  0  0
 23 51  1  0  0  0  0
 23 52  1  0  0  0  0
 24 28  1  0  0  0  0
 24 25  1  0  0  0  0
 24 29  1  0  0  0  0
 25 26  1  0  0  0  0
 25 53  1  0  0  0  0
 25 54  1  0  0  0  0
 26 27  1  0  0  0  0
 26 55  1  0  0  0  0
 26 56  1  0  0  0  0
 27 28  1  0  0  0  0
 28 57  1  0  0  0  0
 28 58  1  0  0  0  0
M  END
> <s_m_source_file>
AV-unprocessed.smi

> <i_m_source_file_index>
229

> <i_lp_mmshare_version>
43012

> <i_f3d_flags>
0

> <s_epik_input>
W0NIMl0xT1tDSDJdW0NIMl1bQ0BdMTJbQ0gyXU4oW0NIMl1bQ0BIXShPMilbQ0gyXVtDSDNdKWMobltjSF1uMyljKGMzNCluW2NIXW40W0NIMl1bQ0BIXShbT0hdKVtDQEBIXTVbQ0gyXVtDSDJdW0NIMl1PNQ==

> <s_epik_cmdline>
J2VwaWtfcHl0aG9uJywgJy1waCcsICc3LjAnLCAnLXRuJywgJzgnLCAnLW1hJywgJzIwMCcsICctbWV0YWxfYmluZGluZycsICctaW1hZScsICc8aW5maWxlLm1hZT4nLCAnLW9tYWUnLCAnPG91dGZpbGUubWFlPic=

> <r_lp_tautomer_probability>
1

> <r_epik_Ionization_Penalty>
0.00318402

> <r_epik_Ionization_Penalty_Charging>
0

> <r_epik_Ionization_Penalty_Neutral>
0.00318402

> <r_epik_State_Penalty>
0.00215642

> <r_epik_Charging_Adjusted_Penalty>
0.00215642

> <i_epik_Tot_Q>
0

> <i_epik_Tot_abs_Q>
0

> <r_epik_Metal_State_Penalty>
-0

> <b_epik_Metal_Only>
0

> <s_lp_Force_Field>
OPLS_2005

> <r_lp_Energy>
56.2374

> <b_lp_Chiralities_Consistent>
1

> <s_lp_Variant>
AV-unprocessed.smi:229-2

> <Gold.Version>
5.8.1

> <Gold.Id.Protein>
6NUR|6NUR_protein|mol2

> <Gold.PLP.Fitness>
47.2668

> <Gold.PLP.PLP>
-40.9706

> <Gold.PLP.part.hbond>
-3.0390

> <Gold.PLP.part.metal>
0.0000

> <Gold.PLP.part.buried>
-6.9142

> <Gold.PLP.part.nonpolar>
-32.3135

> <Gold.PLP.part.repulsive>
0.4900

> <Gold.PLP.ligand.clash>
0.0000

> <Gold.PLP.ligand.torsion>
0.7466

> <Gold.PLP.Chemscore.Hbond>
2.4960

> <Gold.PLP.Chemscore.CHOScore>
0.0000

> <Gold.PLP.Chemscore.Metal>
0.0000

> <Gold.Chemscore.Hbonds>
donor molecule, donor type, donor heavy atom, donor atom, acceptor molecule, acceptor atom, score
      L1  H    17    43       P1  8029  1.00
      P1  H  7997  8010       L1    29  1.00
      P1  H 10752 10765       L1    27  0.61

> <Gold.PLP.Chemscore.Internal.Correction>
0.3014

> <Gold.Rescore>
     Score         DG    S(hbond)    S(metal)    S(lipo)     H(rot)  DE(clash)    DE(int)     intcor
     18.29     -19.11       2.71        0.00      93.02       2.46       0.01       0.82       ----

> <Gold.Chemscore.Fitness>
18.2887

> <Gold.Chemscore.DG>
-19.1134

> <Gold.Chemscore.ZeroCoef>
-5.4800

> <Gold.Chemscore.Hbond>
2.7082

> <Gold.Chemscore.Metal>
0.0000

> <Gold.Chemscore.Lipo>
93.0193

> <Gold.Chemscore.Internal_Hbond>
0.0000

> <Gold.Chemscore.DEClash>
0.0083

> <Gold.Chemscore.DEInternal>
0.8164

> <Gold.Chemscore.Rot>
2.4591

> <Gold.Chemscore.Internal.Correction>
   9.000000E+99

> <Gold.Chemscore.Hbonds>
donor molecule, donor type, donor heavy atom, donor atom, acceptor molecule, acceptor atom, score
      L1  H    17    43       P1  8029  0.45
      P1  H  7997  8010       L1    29  0.70
      P1  H 10752 10765       L1    27  0.53

> <Gold.Chemscore.Hbond.Weighted>
-9.0455

> <Gold.Chemscore.Metal.Weighted>
-0.0000

> <Gold.Chemscore.Lipo.Weighted>
-10.8833

> <Gold.Chemscore.Internal_Hbond.Weighted>
0.0000

> <Gold.Chemscore.DEClash.Weighted>
0.0083

> <Gold.Chemscore.DEInternal.Weighted>
0.8164

> <Gold.Chemscore.Rot.Weighted>
6.2953

> <Gold.Chemscore.Internal.Correction.Weighted>
   9.000000E+99

> <Gold.Protein.RotatedTorsions>
[ 6907 6896 6895 6894 ] final   42.21 input  -60.11 | X-H torsion
[ 7974 7965 7964 7962 ] final   91.78 input  175.53 | X-H torsion
[ 8008 7997 7996 7995 ] final   52.08 input   59.86 | X-H torsion
[ 10167 10162 10161 10158 ] final   70.06 input  -65.29 | X-H torsion
[ 10718 10713 10712 10709 ] final    9.10 input   66.30 | X-H torsion
[ 10763 10752 10751 10750 ] final -142.43 input  -60.55 | X-H torsion
[ 11005 11000 10999 10996 ] final   83.81 input  -57.11 | X-H torsion

> <Gold.Protein.ActiveResidues>
 VAL166  LYS551  ARG553  GLY616  TRP617  ASP618  TYR619  PRO620  LYS621  CYS622 
 ASP623  PHE694  ASN695  SER759  ASP760  ASP761  ALA762  ILE779  LEU786  VAL792 
 PHE793  MET794  SER795  GLU796  ALA797  LYS798  CYS799  TRP800  GLU811  SER814 

> <Gold.Protein.RotatedAtoms>
  152.2050  134.8553  160.0503 H   0  0  0  0  0  0  0  0  0  0  0  0  # atno 6907 bound_to 6896
  151.9393  133.3628  159.3967 H   0  0  0  0  0  0  0  0  0  0  0  0  # atno 6908 bound_to 6896
  150.6963  134.4380  159.5323 H   0  0  0  0  0  0  0  0  0  0  0  0  # atno 6909 bound_to 6896
  145.5011  139.2276  143.2777 H   0  0  0  0  0  0  0  0  0  0  0  0  # atno 7974 bound_to 7965
  155.4459  140.3456  155.4295 H   0  0  0  0  0  0  0  0  0  0  0  0  # atno 8008 bound_to 7997
  156.1250  140.1498  156.9179 H   0  0  0  0  0  0  0  0  0  0  0  0  # atno 8009 bound_to 7997
  154.4851  140.0857  156.7448 H   0  0  0  0  0  0  0  0  0  0  0  0  # atno 8010 bound_to 7997
  140.0610  144.5232  150.7294 H   0  0  0  0  0  0  0  0  0  0  0  0  # atno 10167 bound_to 10162
  156.9613  130.5934  149.5662 H   0  0  0  0  0  0  0  0  0  0  0  0  # atno 10718 bound_to 10713
  154.8509  135.3496  154.6027 H   0  0  0  0  0  0  0  0  0  0  0  0  # atno 10763 bound_to 10752
  153.6635  135.6988  153.5174 H   0  0  0  0  0  0  0  0  0  0  0  0  # atno 10764 bound_to 10752
  153.2798  135.4267  155.1025 H   0  0  0  0  0  0  0  0  0  0  0  0  # atno 10765 bound_to 10752
  139.9019  134.8171  156.2360 H   0  0  0  0  0  0  0  0  0  0  0  0  # atno 11005 bound_to 11000
  146.2225  140.5812  142.9011 LP  0  0  0  0  0  0  0  0  0  0  0  0  # atno 17320 bound_to 7965
  144.7779  140.5779  143.6625 LP  0  0  0  0  0  0  0  0  0  0  0  0  # atno 17321 bound_to 7965
  140.7172  143.2555  151.4397 LP  0  0  0  0  0  0  0  0  0  0  0  0  # atno 17342 bound_to 10162
  139.5894  144.1533  152.2069 LP  0  0  0  0  0  0  0  0  0  0  0  0  # atno 17343 bound_to 10162
  156.0321  130.5411  150.8561 LP  0  0  0  0  0  0  0  0  0  0  0  0  # atno 17370 bound_to 10713
  157.5656  131.0946  150.9495 LP  0  0  0  0  0  0  0  0  0  0  0  0  # atno 17371 bound_to 10713
  141.0315  133.6986  156.1439 LP  0  0  0  0  0  0  0  0  0  0  0  0  # atno 17394 bound_to 11000
  140.7089  134.4483  157.5582 LP  0  0  0  0  0  0  0  0  0  0  0  0  # atno 17395 bound_to 11000

$$$$
