AV-unprocessed.smi:2060|AV-procd|sdf|8354|dock6
  -GOLD-   2272011 23D 1   1.00000     0.00000
 Structure written by MMmdl.
 45 46  0  0  0  0  0  0  0  0  1 V2000
  146.3647  142.5486  154.1689 C   0  0  0  0  0  0  0  0  0  0  0  0
  147.6510  141.7034  154.2131 C   0  0  0  0  0  0  0  0  0  0  0  0
  147.8477  140.8383  155.4988 C   0  0  1  0  0  0  0  0  0  0  0  0
  147.6417  141.7946  156.7045 C   0  0  0  0  0  0  0  0  0  0  0  0
  146.7297  139.7450  155.5304 C   0  0  0  0  0  0  0  0  0  0  0  0
  147.0118  138.6298  156.4346 N   0  0  0  0  0  0  0  0  0  0  0  0
  146.8414  138.6354  157.7649 C   0  0  0  0  0  0  0  0  0  0  0  0
  146.4182  139.6060  158.3925 O   0  0  0  0  0  0  0  0  0  0  0  0
  147.1876  137.4532  158.3011 N   0  0  0  0  0  0  0  0  0  0  0  0
  147.1261  137.0489  159.6598 C   0  0  0  0  0  0  0  0  0  0  0  0
  147.7151  135.8783  160.2209 C   0  0  0  0  0  0  0  0  0  0  0  0
  147.3735  135.9661  161.5409 C   0  0  0  0  0  0  0  0  0  0  0  0
  147.6505  135.0979  162.7201 C   0  0  0  0  0  0  0  0  0  0  0  0
  146.6399  137.0891  161.7670 O   0  0  0  0  0  0  0  0  0  0  0  0
  146.4868  137.7765  160.5573 N   0  0  0  0  0  0  0  0  0  0  0  0
  149.2131  140.2412  155.5384 N   0  0  0  0  0  0  0  0  0  0  0  0
  150.3051  141.1926  155.7781 C   0  0  0  0  0  0  0  0  0  0  0  0
  151.6600  140.4850  155.9499 C   0  0  0  0  0  0  0  0  0  0  0  0
  151.9339  139.6893  154.8031 O   0  0  0  0  0  0  0  0  0  0  0  0
  150.9260  138.7140  154.5656 C   0  0  0  0  0  0  0  0  0  0  0  0
  149.5652  139.4074  154.3827 C   0  0  0  0  0  0  0  0  0  0  0  0
  146.3159  143.1193  153.2416 H   0  0  0  0  0  0  0  0  0  0  0  0
  146.3185  143.2625  154.9912 H   0  0  0  0  0  0  0  0  0  0  0  0
  145.4704  141.9278  154.2130 H   0  0  0  0  0  0  0  0  0  0  0  0
  147.6471  141.0625  153.3308 H   0  0  0  0  0  0  0  0  0  0  0  0
  148.5071  142.3616  154.0651 H   0  0  0  0  0  0  0  0  0  0  0  0
  146.7638  142.4289  156.5798 H   0  0  0  0  0  0  0  0  0  0  0  0
  148.4966  142.4564  156.8456 H   0  0  0  0  0  0  0  0  0  0  0  0
  147.4963  141.2492  157.6372 H   0  0  0  0  0  0  0  0  0  0  0  0
  145.7893  140.1743  155.8742 H   0  0  0  0  0  0  0  0  0  0  0  0
  146.5284  139.3607  154.5303 H   0  0  0  0  0  0  0  0  0  0  0  0
  147.3647  137.7854  156.0082 H   0  0  0  0  0  0  0  0  0  0  0  0
  147.5311  136.7538  157.6596 H   0  0  0  0  0  0  0  0  0  0  0  0
  148.2953  135.0983  159.7519 H   0  0  0  0  0  0  0  0  0  0  0  0
  148.0790  134.1448  162.4099 H   0  0  0  0  0  0  0  0  0  0  0  0
  146.7345  134.8922  163.2742 H   0  0  0  0  0  0  0  0  0  0  0  0
  148.3550  135.5813  163.3970 H   0  0  0  0  0  0  0  0  0  0  0  0
  150.3841  141.8942  154.9479 H   0  0  0  0  0  0  0  0  0  0  0  0
  150.1211  141.7822  156.6741 H   0  0  0  0  0  0  0  0  0  0  0  0
  152.4571  141.2185  156.0719 H   0  0  0  0  0  0  0  0  0  0  0  0
  151.6590  139.8610  156.8449 H   0  0  0  0  0  0  0  0  0  0  0  0
  151.1842  138.1458  153.6720 H   0  0  0  0  0  0  0  0  0  0  0  0
  150.8901  138.0065  155.3954 H   0  0  0  0  0  0  0  0  0  0  0  0
  148.8187  138.6321  154.2188 H   0  0  0  0  0  0  0  0  0  0  0  0
  149.6007  140.0107  153.4759 H   0  0  0  0  0  0  0  0  0  0  0  0
  1  2  1  0  0  0  0
  1 22  1  0  0  0  0
  1 23  1  0  0  0  0
  1 24  1  0  0  0  0
  2  3  1  0  0  0  0
  2 25  1  0  0  0  0
  2 26  1  0  0  0  0
  3  4  1  0  0  0  0
  3  5  1  0  0  0  0
  3 16  1  0  0  0  0
  4 27  1  0  0  0  0
  4 28  1  0  0  0  0
  4 29  1  0  0  0  0
  5  6  1  0  0  0  0
  5 30  1  0  0  0  0
  5 31  1  0  0  0  0
  6  7  1  0  0  0  0
  6 32  1  0  0  0  0
  7  8  2  0  0  0  0
  7  9  1  0  0  0  0
  9 10  1  0  0  0  0
  9 33  1  0  0  0  0
 10 15  2  0  0  0  0
 10 11  1  0  0  0  0
 11 12  2  0  0  0  0
 11 34  1  0  0  0  0
 12 13  1  0  0  0  0
 12 14  1  0  0  0  0
 13 35  1  0  0  0  0
 13 36  1  0  0  0  0
 13 37  1  0  0  0  0
 14 15  1  0  0  0  0
 16 21  1  0  0  0  0
 16 17  1  0  0  0  0
 17 18  1  0  0  0  0
 17 38  1  0  0  0  0
 17 39  1  0  0  0  0
 18 19  1  0  0  0  0
 18 40  1  0  0  0  0
 18 41  1  0  0  0  0
 19 20  1  0  0  0  0
 20 21  1  0  0  0  0
 20 42  1  0  0  0  0
 20 43  1  0  0  0  0
 21 44  1  0  0  0  0
 21 45  1  0  0  0  0
M  END
> <s_m_source_file>
AV-unprocessed.smi

> <i_m_source_file_index>
2060

> <i_lp_mmshare_version>
43012

> <i_f3d_flags>
0

> <s_epik_input>
W0NIMl0xW0NIMl1PW0NIMl1bQ0gyXU4xW0NAQF0oW0NIM10pKFtDSDJdW0NIM10pW0NIMl1bTkhdQyg9TylbTkhdYzJbY0hdYyhbQ0gzXSlvbjI=

> <s_epik_cmdline>
J2VwaWtfcHl0aG9uJywgJy1waCcsICc3LjAnLCAnLXRuJywgJzgnLCAnLW1hJywgJzIwMCcsICctbWV0YWxfYmluZGluZycsICctaW1hZScsICc8aW5maWxlLm1hZT4nLCAnLW9tYWUnLCAnPG91dGZpbGUubWFlPic=

> <r_epik_Ionization_Penalty>
0.289127

> <r_epik_Ionization_Penalty_Charging>
0

> <r_epik_Ionization_Penalty_Neutral>
0.289127

> <r_epik_State_Penalty>
0.282056

> <r_epik_Charging_Adjusted_Penalty>
0.282056

> <i_epik_Tot_Q>
0

> <i_epik_Tot_abs_Q>
0

> <r_epik_Metal_State_Penalty>
0.284526

> <b_epik_Metal_Only>
0

> <s_lp_Force_Field>
OPLS_2005

> <r_lp_Energy>
41.8264

> <b_lp_Chiralities_Consistent>
1

> <s_lp_Variant>
AV-unprocessed.smi:2060-1

> <Gold.Version>
5.8.1

> <Gold.Id.Protein>
6NUR|6NUR_protein|mol2

> <Gold.PLP.Fitness>
38.7871

> <Gold.PLP.PLP>
-34.4673

> <Gold.PLP.part.hbond>
-3.7298

> <Gold.PLP.part.metal>
0.0000

> <Gold.PLP.part.buried>
-6.0034

> <Gold.PLP.part.nonpolar>
-26.8524

> <Gold.PLP.part.repulsive>
0.1779

> <Gold.PLP.ligand.clash>
0.0000

> <Gold.PLP.ligand.torsion>
0.6159

> <Gold.PLP.Chemscore.Hbond>
1.8100

> <Gold.PLP.Chemscore.CHOScore>
0.0000

> <Gold.PLP.Chemscore.Metal>
0.0000

> <Gold.Chemscore.Hbonds>
donor molecule, donor type, donor heavy atom, donor atom, acceptor molecule, acceptor atom, score
      P1  H  6934  6947       L1    15  0.79
      P1  H  7989  7998       L1    19  0.94

> <Gold.PLP.Chemscore.Internal.Correction>
0.1214

> <Gold.Rescore>
     Score         DG    S(hbond)    S(metal)    S(lipo)     H(rot)  DE(clash)    DE(int)     intcor
      8.69     -10.74       0.33        0.00      73.04       1.71       0.04       2.01       ----

> <Gold.Chemscore.Fitness>
8.6878

> <Gold.Chemscore.DG>
-10.7431

> <Gold.Chemscore.ZeroCoef>
-5.4800

> <Gold.Chemscore.Hbond>
0.3310

> <Gold.Chemscore.Metal>
0.0000

> <Gold.Chemscore.Lipo>
73.0425

> <Gold.Chemscore.Internal_Hbond>
0.0000

> <Gold.Chemscore.DEClash>
0.0431

> <Gold.Chemscore.DEInternal>
2.0122

> <Gold.Chemscore.Rot>
1.7143

> <Gold.Chemscore.Internal.Correction>
   9.000000E+99

> <Gold.Chemscore.Hbonds>
donor molecule, donor type, donor heavy atom, donor atom, acceptor molecule, acceptor atom, score
      P1  H  6934  6947       L1    15  0.16
      P1  H  7989  7998       L1    19  0.11

> <Gold.Chemscore.Hbond.Weighted>
-1.1056

> <Gold.Chemscore.Metal.Weighted>
-0.0000

> <Gold.Chemscore.Lipo.Weighted>
-8.5460

> <Gold.Chemscore.Internal_Hbond.Weighted>
0.0000

> <Gold.Chemscore.DEClash.Weighted>
0.0431

> <Gold.Chemscore.DEInternal.Weighted>
2.0122

> <Gold.Chemscore.Rot.Weighted>
4.3885

> <Gold.Chemscore.Internal.Correction.Weighted>
   9.000000E+99

> <Gold.Protein.RotatedTorsions>
[ 6907 6896 6895 6894 ] final  -42.36 input  -60.11 | X-H torsion
[ 7974 7965 7964 7962 ] final  -88.15 input  175.53 | X-H torsion
[ 8008 7997 7996 7995 ] final -150.84 input   59.86 | X-H torsion
[ 10167 10162 10161 10158 ] final  -39.62 input  -65.29 | X-H torsion
[ 10718 10713 10712 10709 ] final  -76.98 input   66.30 | X-H torsion
[ 10763 10752 10751 10750 ] final   43.76 input  -60.55 | X-H torsion
[ 11005 11000 10999 10996 ] final  -68.49 input  -57.11 | X-H torsion

> <Gold.Protein.ActiveResidues>
 VAL166  LYS551  ARG553  GLY616  TRP617  ASP618  TYR619  PRO620  LYS621  CYS622 
 ASP623  PHE694  ASN695  SER759  ASP760  ASP761  ALA762  ILE779  LEU786  VAL792 
 PHE793  MET794  SER795  GLU796  ALA797  LYS798  CYS799  TRP800  GLU811  SER814 

> <Gold.Protein.RotatedAtoms>
  150.9561  134.8955  159.7701 H   0  0  0  0  0  0  0  0  0  0  0  0  # atno 6907 bound_to 6896
  152.5138  134.3738  159.9337 H   0  0  0  0  0  0  0  0  0  0  0  0  # atno 6908 bound_to 6896
  151.3752  133.3800  159.2739 H   0  0  0  0  0  0  0  0  0  0  0  0  # atno 6909 bound_to 6896
  145.4570  140.9561  143.1990 H   0  0  0  0  0  0  0  0  0  0  0  0  # atno 7974 bound_to 7965
  155.6300  140.0690  157.2652 H   0  0  0  0  0  0  0  0  0  0  0  0  # atno 8008 bound_to 7997
  154.4208  140.1769  156.1511 H   0  0  0  0  0  0  0  0  0  0  0  0  # atno 8009 bound_to 7997
  155.9941  140.3342  155.6784 H   0  0  0  0  0  0  0  0  0  0  0  0  # atno 8010 bound_to 7997
  140.7058  143.3203  151.2809 H   0  0  0  0  0  0  0  0  0  0  0  0  # atno 10167 bound_to 10162
  156.0158  130.4479  150.3276 H   0  0  0  0  0  0  0  0  0  0  0  0  # atno 10718 bound_to 10713
  152.9854  135.6091  154.3164 H   0  0  0  0  0  0  0  0  0  0  0  0  # atno 10763 bound_to 10752
  154.2876  135.2775  155.2671 H   0  0  0  0  0  0  0  0  0  0  0  0  # atno 10764 bound_to 10752
  154.4981  135.5874  153.6566 H   0  0  0  0  0  0  0  0  0  0  0  0  # atno 10765 bound_to 10752
  141.1533  133.6742  156.6453 H   0  0  0  0  0  0  0  0  0  0  0  0  # atno 11005 bound_to 11000
  144.8026  139.6112  143.7065 LP  0  0  0  0  0  0  0  0  0  0  0  0  # atno 17320 bound_to 7965
  146.2472  139.6123  142.9451 LP  0  0  0  0  0  0  0  0  0  0  0  0  # atno 17321 bound_to 7965
  139.6654  144.0114  152.2720 LP  0  0  0  0  0  0  0  0  0  0  0  0  # atno 17342 bound_to 10162
  139.9695  144.6503  150.8003 LP  0  0  0  0  0  0  0  0  0  0  0  0  # atno 17343 bound_to 10162
  157.1374  131.0288  151.2942 LP  0  0  0  0  0  0  0  0  0  0  0  0  # atno 17370 bound_to 10713
  157.4500  130.7593  149.7143 LP  0  0  0  0  0  0  0  0  0  0  0  0  # atno 17371 bound_to 10713
  140.3361  134.7888  157.4363 LP  0  0  0  0  0  0  0  0  0  0  0  0  # atno 17394 bound_to 11000
  140.0976  134.5516  155.8383 LP  0  0  0  0  0  0  0  0  0  0  0  0  # atno 17395 bound_to 11000

$$$$
