AV-unprocessed.smi:94|AV-procd|sdf|852|dock1
  -GOLD-   2262017293D 1   1.00000     0.00000
 Structure written by MMmdl.
 53 55  0  0  0  0  0  0  0  0  1 V2000
  155.4522  139.6449  160.7464 C   0  0  0  0  0  0  0  0  0  0  0  0
  154.4339  139.4027  159.7867 O   0  0  0  0  0  0  0  0  0  0  0  0
  153.6570  140.4639  159.3672 C   0  0  0  0  0  0  0  0  0  0  0  0
  153.9069  141.8068  159.7493 C   0  0  0  0  0  0  0  0  0  0  0  0
  153.0736  142.8485  159.3035 C   0  0  0  0  0  0  0  0  0  0  0  0
  151.9739  142.5668  158.4732 C   0  0  0  0  0  0  0  0  0  0  0  0
  151.0714  143.6865  157.9976 C   0  0  0  0  0  0  0  0  0  0  0  0
  151.7189  141.2384  158.0843 C   0  0  0  0  0  0  0  0  0  0  0  0
  152.5568  140.1835  158.5168 C   0  0  0  0  0  0  0  0  0  0  0  0
  152.2609  138.7423  158.0979 C   0  0  1  0  0  0  0  0  0  0  0  0
  152.0050  137.8569  159.3293 C   0  0  0  0  0  0  0  0  0  0  0  0
  151.1375  138.6472  157.1655 N   0  0  0  0  0  0  0  0  0  0  0  0
  151.0753  139.2242  155.9558 C   0  0  0  0  0  0  0  0  0  0  0  0
  151.9799  139.9201  155.4923 O   0  0  0  0  0  0  0  0  0  0  0  0
  149.7862  138.9813  155.1569 C   0  0  0  0  0  0  0  0  0  0  0  0
  149.0129  137.8248  155.6592 N   0  0  0  0  0  0  0  0  0  0  0  0
  147.7373  138.0461  156.2350 C   0  0  0  0  0  0  0  0  0  0  0  0
  147.2707  139.1812  156.3388 O   0  0  0  0  0  0  0  0  0  0  0  0
  147.0319  136.8496  156.6806 C   0  0  0  0  0  0  0  0  0  0  0  0
  145.8231  136.9660  157.2560 F   0  0  0  0  0  0  0  0  0  0  0  0
  147.5736  135.6238  156.5254 C   0  0  0  0  0  0  0  0  0  0  0  0
  148.8112  135.4208  155.9407 N   0  0  0  0  0  0  0  0  0  0  0  0
  149.4039  134.0378  155.7649 C   0  0  2  0  0  0  0  0  0  0  0  0
  148.5163  133.1792  154.8416 C   0  0  0  0  0  0  0  0  0  0  0  0
  148.2800  131.9292  155.6661 C   0  0  0  0  0  0  0  0  0  0  0  0
  148.3748  132.4647  157.0864 C   0  0  0  0  0  0  0  0  0  0  0  0
  149.4573  133.3816  156.9998 O   0  0  0  0  0  0  0  0  0  0  0  0
  149.5662  136.5316  155.5059 C   0  0  0  0  0  0  0  0  0  0  0  0
  150.6788  136.3735  154.9979 O   0  0  0  0  0  0  0  0  0  0  0  0
  155.9701  138.7107  160.9625 H   0  0  0  0  0  0  0  0  0  0  0  0
  155.0365  140.0155  161.6843 H   0  0  0  0  0  0  0  0  0  0  0  0
  156.1930  140.3528  160.3723 H   0  0  0  0  0  0  0  0  0  0  0  0
  154.7345  142.0680  160.3907 H   0  0  0  0  0  0  0  0  0  0  0  0
  153.2801  143.8648  159.6058 H   0  0  0  0  0  0  0  0  0  0  0  0
  150.0463  143.3346  157.8777 H   0  0  0  0  0  0  0  0  0  0  0  0
  151.4194  144.0666  157.0371 H   0  0  0  0  0  0  0  0  0  0  0  0
  151.0633  144.5108  158.7114 H   0  0  0  0  0  0  0  0  0  0  0  0
  150.8660  141.0356  157.4534 H   0  0  0  0  0  0  0  0  0  0  0  0
  153.1414  138.3619  157.5777 H   0  0  0  0  0  0  0  0  0  0  0  0
  152.8580  137.8756  160.0084 H   0  0  0  0  0  0  0  0  0  0  0  0
  151.8377  136.8172  159.0462 H   0  0  0  0  0  0  0  0  0  0  0  0
  151.1301  138.1952  159.8856 H   0  0  0  0  0  0  0  0  0  0  0  0
  150.3459  138.0981  157.4671 H   0  0  0  0  0  0  0  0  0  0  0  0
  149.1718  139.8836  155.1713 H   0  0  0  0  0  0  0  0  0  0  0  0
  150.0567  138.8623  154.1070 H   0  0  0  0  0  0  0  0  0  0  0  0
  147.0000  134.7813  156.8799 H   0  0  0  0  0  0  0  0  0  0  0  0
  150.4163  134.1994  155.3906 H   0  0  0  0  0  0  0  0  0  0  0  0
  147.5712  133.6873  154.6428 H   0  0  0  0  0  0  0  0  0  0  0  0
  149.0171  132.9789  153.8940 H   0  0  0  0  0  0  0  0  0  0  0  0
  147.3241  131.4503  155.4526 H   0  0  0  0  0  0  0  0  0  0  0  0
  149.0752  131.2046  155.4861 H   0  0  0  0  0  0  0  0  0  0  0  0
  147.4590  132.9866  157.3675 H   0  0  0  0  0  0  0  0  0  0  0  0
  148.5674  131.6828  157.8212 H   0  0  0  0  0  0  0  0  0  0  0  0
  1  2  1  0  0  0  0
  1 30  1  0  0  0  0
  1 31  1  0  0  0  0
  1 32  1  0  0  0  0
  2  3  1  0  0  0  0
  3  9  1  0  0  0  0
  3  4  2  0  0  0  0
  4  5  1  0  0  0  0
  4 33  1  0  0  0  0
  5  6  2  0  0  0  0
  5 34  1  0  0  0  0
  6  7  1  0  0  0  0
  6  8  1  0  0  0  0
  7 35  1  0  0  0  0
  7 36  1  0  0  0  0
  7 37  1  0  0  0  0
  8  9  2  0  0  0  0
  8 38  1  0  0  0  0
  9 10  1  0  0  0  0
 10 11  1  0  0  0  0
 10 12  1  0  0  0  0
 10 39  1  0  0  0  0
 11 40  1  0  0  0  0
 11 41  1  0  0  0  0
 11 42  1  0  0  0  0
 12 13  1  0  0  0  0
 12 43  1  0  0  0  0
 13 14  2  0  0  0  0
 13 15  1  0  0  0  0
 15 16  1  0  0  0  0
 15 44  1  0  0  0  0
 15 45  1  0  0  0  0
 16 28  1  0  0  0  0
 16 17  1  0  0  0  0
 17 18  2  0  0  0  0
 17 19  1  0  0  0  0
 19 20  1  0  0  0  0
 19 21  2  0  0  0  0
 21 22  1  0  0  0  0
 21 46  1  0  0  0  0
 22 23  1  0  0  0  0
 22 28  1  0  0  0  0
 23 27  1  0  0  0  0
 23 24  1  0  0  0  0
 23 47  1  0  0  0  0
 24 25  1  0  0  0  0
 24 48  1  0  0  0  0
 24 49  1  0  0  0  0
 25 26  1  0  0  0  0
 25 50  1  0  0  0  0
 25 51  1  0  0  0  0
 26 27  1  0  0  0  0
 26 52  1  0  0  0  0
 26 53  1  0  0  0  0
 28 29  2  0  0  0  0
M  END
> <s_m_source_file>
AV-unprocessed.smi

> <i_m_source_file_index>
94

> <i_lp_mmshare_version>
43012

> <i_f3d_flags>
0

> <s_epik_input>
W0NIM11PYzFbY0hdW2NIXWMoW0NIM10pW2NIXWMxW0NASF0oW0NIM10pW05IXUMoPU8pW0NIMl1uMmMoPU8pYyhGKVtjSF1uKGMyPU8pW0NAQEhdM1tDSDJdW0NIMl1bQ0gyXU8z

> <s_epik_cmdline>
J2VwaWtfcHl0aG9uJywgJy1waCcsICc3LjAnLCAnLXRuJywgJzgnLCAnLW1hJywgJzIwMCcsICctbWV0YWxfYmluZGluZycsICctaW1hZScsICc8aW5maWxlLm1hZT4nLCAnLW9tYWUnLCAnPG91dGZpbGUubWFlPic=

> <r_lp_tautomer_probability>
1

> <r_epik_Ionization_Penalty>
3.37009e-08

> <r_epik_Ionization_Penalty_Charging>
3.59856e-09

> <r_epik_Ionization_Penalty_Neutral>
3.01024e-08

> <r_epik_State_Penalty>
-0

> <r_epik_Charging_Adjusted_Penalty>
3.59856e-09

> <i_epik_Tot_Q>
0

> <i_epik_Tot_abs_Q>
0

> <r_epik_Metal_State_Penalty>
-0

> <b_epik_Metal_Only>
0

> <s_epik_Chemistry_Notes>
This compound contains an acetal/aminal-like group ( X-CH(R)-Y where X, Y are N, S, or O) that may be acid/base labile, releasing an aldehyde.

> <s_lp_Force_Field>
OPLS_2005

> <r_lp_Energy>
32.1562

> <b_lp_Chiralities_Consistent>
1

> <s_lp_Variant>
AV-unprocessed.smi:94-2

> <Gold.Version>
5.8.1

> <Gold.Id.Protein>
6NUR|6NUR_protein|mol2

> <Gold.PLP.Fitness>
50.3863

> <Gold.PLP.PLP>
-44.7401

> <Gold.PLP.part.hbond>
-2.4173

> <Gold.PLP.part.metal>
0.0000

> <Gold.PLP.part.buried>
-4.5070

> <Gold.PLP.part.nonpolar>
-39.0706

> <Gold.PLP.part.repulsive>
0.2662

> <Gold.PLP.ligand.clash>
0.0000

> <Gold.PLP.ligand.torsion>
0.3736

> <Gold.PLP.Chemscore.Hbond>
2.0000

> <Gold.PLP.Chemscore.CHOScore>
0.0000

> <Gold.PLP.Chemscore.Metal>
0.0000

> <Gold.Chemscore.Hbonds>
donor molecule, donor type, donor heavy atom, donor atom, acceptor molecule, acceptor atom, score
      P1  H  7989  7998       L1    14  0.44

> <Gold.PLP.Chemscore.Internal.Correction>
0.3935

> <Gold.Rescore>
     Score         DG    S(hbond)    S(metal)    S(lipo)     H(rot)  DE(clash)    DE(int)     intcor
     18.58     -19.78       2.53        0.00     101.28       2.34       0.33       0.88       ----

> <Gold.Chemscore.Fitness>
18.5778

> <Gold.Chemscore.DG>
-19.7829

> <Gold.Chemscore.ZeroCoef>
-5.4800

> <Gold.Chemscore.Hbond>
2.5259

> <Gold.Chemscore.Metal>
0.0000

> <Gold.Chemscore.Lipo>
101.2752

> <Gold.Chemscore.Internal_Hbond>
0.0000

> <Gold.Chemscore.DEClash>
0.3258

> <Gold.Chemscore.DEInternal>
0.8793

> <Gold.Chemscore.Rot>
2.3370

> <Gold.Chemscore.Internal.Correction>
   9.000000E+99

> <Gold.Chemscore.Hbonds>
donor molecule, donor type, donor heavy atom, donor atom, acceptor molecule, acceptor atom, score
      P1  H  7989  7998       L1    14  0.41
      P1  H  7997  8010       L1    14  0.02
      P1  H 10752 10763       L1    29  0.04

> <Gold.Chemscore.Hbond.Weighted>
-8.4364

> <Gold.Chemscore.Metal.Weighted>
-0.0000

> <Gold.Chemscore.Lipo.Weighted>
-11.8492

> <Gold.Chemscore.Internal_Hbond.Weighted>
0.0000

> <Gold.Chemscore.DEClash.Weighted>
0.3258

> <Gold.Chemscore.DEInternal.Weighted>
0.8793

> <Gold.Chemscore.Rot.Weighted>
5.9827

> <Gold.Chemscore.Internal.Correction.Weighted>
   9.000000E+99

> <Gold.Protein.RotatedTorsions>
[ 6907 6896 6895 6894 ] final   90.30 input  -60.11 | X-H torsion
[ 7974 7965 7964 7962 ] final  -37.85 input  175.53 | X-H torsion
[ 8008 7997 7996 7995 ] final   99.37 input   59.86 | X-H torsion
[ 10167 10162 10161 10158 ] final  144.00 input  -65.29 | X-H torsion
[ 10718 10713 10712 10709 ] final  123.63 input   66.30 | X-H torsion
[ 10763 10752 10751 10750 ] final   43.15 input  -60.55 | X-H torsion
[ 11005 11000 10999 10996 ] final    9.03 input  -57.11 | X-H torsion

> <Gold.Protein.ActiveResidues>
 VAL166  LYS551  ARG553  GLY616  TRP617  ASP618  TYR619  PRO620  LYS621  CYS622 
 ASP623  PHE694  ASN695  SER759  ASP760  ASP761  ALA762  ILE779  LEU786  VAL792 
 PHE793  MET794  SER795  GLU796  ALA797  LYS798  CYS799  TRP800  GLU811  SER814 

> <Gold.Protein.RotatedAtoms>
  152.5443  134.1832  159.8643 H   0  0  0  0  0  0  0  0  0  0  0  0  # atno 6907 bound_to 6896
  151.1833  133.4704  159.2602 H   0  0  0  0  0  0  0  0  0  0  0  0  # atno 6908 bound_to 6896
  151.1156  135.0063  159.8570 H   0  0  0  0  0  0  0  0  0  0  0  0  # atno 6909 bound_to 6896
  146.0539  140.6443  142.9029 H   0  0  0  0  0  0  0  0  0  0  0  0  # atno 7974 bound_to 7965
  156.1098  140.3230  155.8057 H   0  0  0  0  0  0  0  0  0  0  0  0  # atno 8008 bound_to 7997
  155.4693  140.0545  157.2999 H   0  0  0  0  0  0  0  0  0  0  0  0  # atno 8009 bound_to 7997
  154.4752  140.2029  155.9910 H   0  0  0  0  0  0  0  0  0  0  0  0  # atno 8010 bound_to 7997
  139.4956  144.6002  151.6498 H   0  0  0  0  0  0  0  0  0  0  0  0  # atno 10167 bound_to 10162
  157.5650  131.1087  150.8471 H   0  0  0  0  0  0  0  0  0  0  0  0  # atno 10718 bound_to 10713
  152.9867  135.6110  154.3065 H   0  0  0  0  0  0  0  0  0  0  0  0  # atno 10763 bound_to 10752
  154.2782  135.2777  155.2710 H   0  0  0  0  0  0  0  0  0  0  0  0  # atno 10764 bound_to 10752
  154.5061  135.5853  153.6625 H   0  0  0  0  0  0  0  0  0  0  0  0  # atno 10765 bound_to 10752
  140.5303  134.0473  155.7871 H   0  0  0  0  0  0  0  0  0  0  0  0  # atno 11005 bound_to 11000
  144.7137  140.4133  143.7061 LP  0  0  0  0  0  0  0  0  0  0  0  0  # atno 17320 bound_to 7965
  145.6677  139.1593  143.2772 LP  0  0  0  0  0  0  0  0  0  0  0  0  # atno 17321 bound_to 7965
  140.5649  144.0206  150.6188 LP  0  0  0  0  0  0  0  0  0  0  0  0  # atno 17342 bound_to 10162
  140.3304  143.3081  152.0693 LP  0  0  0  0  0  0  0  0  0  0  0  0  # atno 17343 bound_to 10162
  156.8958  130.5229  149.5284 LP  0  0  0  0  0  0  0  0  0  0  0  0  # atno 17370 bound_to 10713
  156.0699  130.5734  150.9362 LP  0  0  0  0  0  0  0  0  0  0  0  0  # atno 17371 bound_to 10713
  141.1285  133.9342  157.2585 LP  0  0  0  0  0  0  0  0  0  0  0  0  # atno 17394 bound_to 11000
  139.9558  135.0166  156.9123 LP  0  0  0  0  0  0  0  0  0  0  0  0  # atno 17395 bound_to 11000

$$$$
