AV-unprocessed.smi:2821|AV-procd|sdf|10858|dock7
  -GOLD-   2272015303D 1   1.00000     0.00000
 Structure written by MMmdl.
 36 37  0  0  0  0  0  0  0  0  1 V2000
  154.8180  140.1841  161.1221 C   0  0  0  0  0  0  0  0  0  0  0  0
  154.0628  141.4524  160.7173 C   0  0  0  0  0  0  0  0  0  0  0  0
  153.2019  141.1444  159.6251 O   0  0  0  0  0  0  0  0  0  0  0  0
  152.4997  142.1747  159.0349 C   0  0  0  0  0  0  0  0  0  0  0  0
  152.6526  143.4901  159.5227 C   0  0  0  0  0  0  0  0  0  0  0  0
  151.9901  144.5355  158.9803 N   0  0  0  0  0  0  0  0  0  0  0  0
  151.1689  144.2597  157.9430 C   0  0  0  0  0  0  0  0  0  0  0  0
  151.0050  142.9483  157.4441 C   0  0  0  0  0  0  0  0  0  0  0  0
  150.1328  142.7260  156.3686 N   0  0  0  0  0  0  0  0  0  0  0  0
  149.8183  141.3819  155.8909 C   0  0  2  0  0  0  0  0  0  0  0  0
  151.0994  140.5764  155.6152 C   0  0  0  0  0  0  0  0  0  0  0  0
  148.9130  141.4351  154.6441 C   0  0  1  0  0  0  0  0  0  0  0  0
  148.5097  140.0762  154.0657 C   0  0  0  0  0  0  0  0  0  0  0  0
  147.2382  140.4320  153.3292 C   0  0  0  0  0  0  0  0  0  0  0  0
  146.6054  141.4469  154.2771 C   0  0  0  0  0  0  0  0  0  0  0  0
  147.6908  142.1230  154.9061 O   0  0  0  0  0  0  0  0  0  0  0  0
  151.6719  141.9052  157.9940 N   0  0  0  0  0  0  0  0  0  0  0  0
  155.4884  140.3807  161.9589 H   0  0  0  0  0  0  0  0  0  0  0  0
  155.4186  139.8055  160.2947 H   0  0  0  0  0  0  0  0  0  0  0  0
  154.1276  139.3964  161.4243 H   0  0  0  0  0  0  0  0  0  0  0  0
  153.4829  141.8209  161.5653 H   0  0  0  0  0  0  0  0  0  0  0  0
  154.7775  142.2271  160.4345 H   0  0  0  0  0  0  0  0  0  0  0  0
  153.3101  143.7044  160.3524 H   0  0  0  0  0  0  0  0  0  0  0  0
  150.6384  145.0951  157.5094 H   0  0  0  0  0  0  0  0  0  0  0  0
  149.8010  143.5127  155.8288 H   0  0  0  0  0  0  0  0  0  0  0  0
  149.2554  140.8622  156.6671 H   0  0  0  0  0  0  0  0  0  0  0  0
  150.8612  139.5664  155.2813 H   0  0  0  0  0  0  0  0  0  0  0  0
  151.7165  140.4849  156.5090 H   0  0  0  0  0  0  0  0  0  0  0  0
  151.7054  141.0478  154.8407 H   0  0  0  0  0  0  0  0  0  0  0  0
  149.4241  141.9914  153.8564 H   0  0  0  0  0  0  0  0  0  0  0  0
  149.2745  139.6473  153.4175 H   0  0  0  0  0  0  0  0  0  0  0  0
  148.2887  139.3553  154.8538 H   0  0  0  0  0  0  0  0  0  0  0  0
  147.4772  140.9051  152.3758 H   0  0  0  0  0  0  0  0  0  0  0  0
  146.5971  139.5720  153.1347 H   0  0  0  0  0  0  0  0  0  0  0  0
  145.9445  142.1444  153.7618 H   0  0  0  0  0  0  0  0  0  0  0  0
  146.0253  140.9363  155.0469 H   0  0  0  0  0  0  0  0  0  0  0  0
  1  2  1  0  0  0  0
  1 18  1  0  0  0  0
  1 19  1  0  0  0  0
  1 20  1  0  0  0  0
  2  3  1  0  0  0  0
  2 21  1  0  0  0  0
  2 22  1  0  0  0  0
  3  4  1  0  0  0  0
  4 17  1  0  0  0  0
  4  5  2  0  0  0  0
  5  6  1  0  0  0  0
  5 23  1  0  0  0  0
  6  7  2  0  0  0  0
  7  8  1  0  0  0  0
  7 24  1  0  0  0  0
  8  9  1  0  0  0  0
  8 17  2  0  0  0  0
  9 10  1  0  0  0  0
  9 25  1  0  0  0  0
 10 11  1  0  0  0  0
 10 12  1  0  0  0  0
 10 26  1  0  0  0  0
 11 27  1  0  0  0  0
 11 28  1  0  0  0  0
 11 29  1  0  0  0  0
 12 16  1  0  0  0  0
 12 13  1  0  0  0  0
 12 30  1  0  0  0  0
 13 14  1  0  0  0  0
 13 31  1  0  0  0  0
 13 32  1  0  0  0  0
 14 15  1  0  0  0  0
 14 33  1  0  0  0  0
 14 34  1  0  0  0  0
 15 16  1  0  0  0  0
 15 35  1  0  0  0  0
 15 36  1  0  0  0  0
M  END
> <s_m_source_file>
AV-unprocessed.smi

> <i_m_source_file_index>
2821

> <i_lp_mmshare_version>
43012

> <i_f3d_flags>
0

> <s_epik_input>
W0NIM11bQ0gyXU9jMVtjSF1uW2NIXWMobjEpW05IXVtDQEhdKFtDSDNdKVtDQEBIXTJbQ0gyXVtDSDJdW0NIMl1PMg==

> <s_epik_cmdline>
J2VwaWtfcHl0aG9uJywgJy1waCcsICc3LjAnLCAnLXRuJywgJzgnLCAnLW1hJywgJzIwMCcsICctbWV0YWxfYmluZGluZycsICctaW1hZScsICc8aW5maWxlLm1hZT4nLCAnLW9tYWUnLCAnPG91dGZpbGUubWFlPic=

> <r_lp_tautomer_probability>
1

> <r_epik_Ionization_Penalty>
4.69533e-05

> <r_epik_Ionization_Penalty_Charging>
0

> <r_epik_Ionization_Penalty_Neutral>
4.69533e-05

> <r_epik_State_Penalty>
-0

> <r_epik_Charging_Adjusted_Penalty>
0

> <i_epik_Tot_Q>
0

> <i_epik_Tot_abs_Q>
0

> <r_epik_Metal_State_Penalty>
-0

> <b_epik_Metal_Only>
0

> <s_lp_Force_Field>
OPLS_2005

> <r_lp_Energy>
29.921

> <b_lp_Chiralities_Consistent>
1

> <s_lp_Variant>
AV-unprocessed.smi:2821-3

> <Gold.Version>
5.8.1

> <Gold.Id.Protein>
6NUR|6NUR_protein|mol2

> <Gold.PLP.Fitness>
41.2253

> <Gold.PLP.PLP>
-36.2641

> <Gold.PLP.part.hbond>
-0.9383

> <Gold.PLP.part.metal>
0.0000

> <Gold.PLP.part.buried>
-4.1326

> <Gold.PLP.part.nonpolar>
-33.6985

> <Gold.PLP.part.repulsive>
1.6759

> <Gold.PLP.ligand.clash>
0.0000

> <Gold.PLP.ligand.torsion>
0.0611

> <Gold.PLP.Chemscore.Hbond>
0.8320

> <Gold.PLP.Chemscore.CHOScore>
0.8453

> <Gold.PLP.Chemscore.Metal>
0.0000

> <Gold.Chemscore.Hbonds>
donor molecule, donor type, donor heavy atom, donor atom, acceptor molecule, acceptor atom, score
      L1  H     9    25       P1  8028  0.98
      L1  C     7    24       P1  8028  0.74
      L1  C     7    24       P1  8029  0.03

> <Gold.PLP.Chemscore.Internal.Correction>
0.0515

> <Gold.Rescore>
     Score         DG    S(hbond)    S(metal)    S(lipo)     H(rot)  DE(clash)    DE(int)     intcor
     13.03     -14.48       0.92        0.00      84.60       1.55       0.13       1.32       ----

> <Gold.Chemscore.Fitness>
13.0308

> <Gold.Chemscore.DG>
-14.4836

> <Gold.Chemscore.ZeroCoef>
-5.4800

> <Gold.Chemscore.Hbond>
0.9214

> <Gold.Chemscore.Metal>
0.0000

> <Gold.Chemscore.Lipo>
84.5962

> <Gold.Chemscore.Internal_Hbond>
0.0000

> <Gold.Chemscore.DEClash>
0.1305

> <Gold.Chemscore.DEInternal>
1.3224

> <Gold.Chemscore.Rot>
1.5514

> <Gold.Chemscore.Internal.Correction>
   9.000000E+99

> <Gold.Chemscore.Hbonds>
donor molecule, donor type, donor heavy atom, donor atom, acceptor molecule, acceptor atom, score
      L1  H     9    25       P1  8028  0.88

> <Gold.Chemscore.Hbond.Weighted>
-3.0773

> <Gold.Chemscore.Metal.Weighted>
-0.0000

> <Gold.Chemscore.Lipo.Weighted>
-9.8978

> <Gold.Chemscore.Internal_Hbond.Weighted>
0.0000

> <Gold.Chemscore.DEClash.Weighted>
0.1305

> <Gold.Chemscore.DEInternal.Weighted>
1.3224

> <Gold.Chemscore.Rot.Weighted>
3.9715

> <Gold.Chemscore.Internal.Correction.Weighted>
   9.000000E+99

> <Gold.Protein.RotatedTorsions>
[ 6907 6896 6895 6894 ] final   85.84 input  -60.11 | X-H torsion
[ 7974 7965 7964 7962 ] final  155.37 input  175.53 | X-H torsion
[ 8008 7997 7996 7995 ] final   -0.52 input   59.86 | X-H torsion
[ 10167 10162 10161 10158 ] final  -29.98 input  -65.29 | X-H torsion
[ 10718 10713 10712 10709 ] final  110.08 input   66.30 | X-H torsion
[ 10763 10752 10751 10750 ] final   -7.15 input  -60.55 | X-H torsion
[ 11005 11000 10999 10996 ] final   92.18 input  -57.11 | X-H torsion

> <Gold.Protein.ActiveResidues>
 VAL166  LYS551  ARG553  GLY616  TRP617  ASP618  TYR619  PRO620  LYS621  CYS622 
 ASP623  PHE694  ASN695  SER759  ASP760  ASP761  ALA762  ILE779  LEU786  VAL792 
 PHE793  MET794  SER795  GLU796  ALA797  LYS798  CYS799  TRP800  GLU811  SER814 

> <Gold.Protein.RotatedAtoms>
  152.5383  134.2524  159.8903 H   0  0  0  0  0  0  0  0  0  0  0  0  # atno 6907 bound_to 6896
  151.2487  133.4355  159.2618 H   0  0  0  0  0  0  0  0  0  0  0  0  # atno 6908 bound_to 6896
  151.0559  134.9719  159.8292 H   0  0  0  0  0  0  0  0  0  0  0  0  # atno 6909 bound_to 6896
  144.8029  139.7059  143.6174 H   0  0  0  0  0  0  0  0  0  0  0  0  # atno 7974 bound_to 7965
  154.6571  140.2582  155.7149 H   0  0  0  0  0  0  0  0  0  0  0  0  # atno 8008 bound_to 7997
  156.2602  140.2856  156.0950 H   0  0  0  0  0  0  0  0  0  0  0  0  # atno 8009 bound_to 7997
  155.1364  140.0379  157.2778 H   0  0  0  0  0  0  0  0  0  0  0  0  # atno 8010 bound_to 7997
  140.7254  143.3885  151.1472 H   0  0  0  0  0  0  0  0  0  0  0  0  # atno 10167 bound_to 10162
  157.6511  131.0926  150.6549 H   0  0  0  0  0  0  0  0  0  0  0  0  # atno 10718 bound_to 10713
  153.4222  135.7010  153.6286 H   0  0  0  0  0  0  0  0  0  0  0  0  # atno 10763 bound_to 10752
  153.4736  135.3709  155.2404 H   0  0  0  0  0  0  0  0  0  0  0  0  # atno 10764 bound_to 10752
  154.8722  135.4049  154.3593 H   0  0  0  0  0  0  0  0  0  0  0  0  # atno 10765 bound_to 10752
  139.8827  134.8718  156.3535 H   0  0  0  0  0  0  0  0  0  0  0  0  # atno 11005 bound_to 11000
  146.2314  139.5821  142.9552 LP  0  0  0  0  0  0  0  0  0  0  0  0  # atno 17320 bound_to 7965
  145.5509  141.0413  143.2279 LP  0  0  0  0  0  0  0  0  0  0  0  0  # atno 17321 bound_to 7965
  139.7486  143.8813  152.3070 LP  0  0  0  0  0  0  0  0  0  0  0  0  # atno 17342 bound_to 10162
  139.8659  144.7093  150.9045 LP  0  0  0  0  0  0  0  0  0  0  0  0  # atno 17343 bound_to 10162
  156.6860  130.4581  149.5613 LP  0  0  0  0  0  0  0  0  0  0  0  0  # atno 17370 bound_to 10713
  156.1895  130.6551  151.1045 LP  0  0  0  0  0  0  0  0  0  0  0  0  # atno 17371 bound_to 10713
  140.9578  133.7408  156.0359 LP  0  0  0  0  0  0  0  0  0  0  0  0  # atno 17394 bound_to 11000
  140.8027  134.3490  157.5435 LP  0  0  0  0  0  0  0  0  0  0  0  0  # atno 17395 bound_to 11000

$$$$
