AV-unprocessed.smi:252|AV-procd|sdf|1941|dock8
  -GOLD-   2262021 73D 1   1.00000     0.00000
 Structure written by MMmdl.
 56 59  0  0  0  0  0  0  0  0  1 V2000
  147.4903  135.6287  163.0724 C   0  0  0  0  0  0  0  0  0  0  0  0
  146.8970  136.0139  161.7081 C   0  0  0  0  0  0  0  0  0  0  0  0
  147.9260  136.0361  160.5730 C   0  0  0  0  0  0  0  0  0  0  0  0
  148.8719  136.8249  160.5883 O   0  0  0  0  0  0  0  0  0  0  0  0
  147.7223  135.1526  159.5838 N   0  0  0  0  0  0  0  0  0  0  0  0
  148.5686  134.9979  158.4053 C   0  0  1  0  0  0  0  0  0  0  0  0
  147.8846  134.0633  157.3903 C   0  0  0  0  0  0  0  0  0  0  0  0
  148.7190  133.9635  156.1035 C   0  0  0  0  0  0  0  0  0  0  0  0
  149.0022  135.3590  155.5246 C   0  0  0  0  0  0  0  0  0  0  0  0
  149.6246  136.2155  156.5300 N   0  0  0  0  0  0  0  0  0  0  0  0
  150.0848  137.3806  156.0284 C   0  0  0  0  0  0  0  0  0  0  0  0
  150.0307  137.6132  154.6902 N   0  0  0  0  0  0  0  0  0  0  0  0
  150.4895  138.7681  154.1971 C   0  0  0  0  0  0  0  0  0  0  0  0
  151.0278  139.8011  154.8501 N   0  0  0  0  0  0  0  0  0  0  0  0
  151.0811  139.5641  156.1925 C   0  0  0  0  0  0  0  0  0  0  0  0
  150.6369  138.3890  156.8593 C   0  0  0  0  0  0  0  0  0  0  0  0
  150.8535  138.5028  158.2267 N   0  0  0  0  0  0  0  0  0  0  0  0
  151.3981  139.6818  158.3618 C   0  0  0  0  0  0  0  0  0  0  0  0
  151.5699  140.3862  157.1913 N   0  0  0  0  0  0  0  0  0  0  0  0
  152.1494  141.7118  157.0472 C   0  0  0  0  0  0  0  0  0  0  0  0
  151.5539  142.7924  158.0041 C   0  0  1  0  0  0  0  0  0  0  0  0
  150.1707  143.0068  157.7568 O   0  0  0  0  0  0  0  0  0  0  0  0
  151.7064  142.4431  159.4932 C   0  0  0  0  0  0  0  0  0  0  0  0
  152.3736  143.6675  160.1226 C   0  0  0  0  0  0  0  0  0  0  0  0
  152.1612  144.7120  159.1890 O   0  0  0  0  0  0  0  0  0  0  0  0
  152.2960  144.1431  157.8975 C   0  0  2  0  0  0  0  0  0  0  0  0
  151.8211  145.1122  156.8026 C   0  0  0  0  0  0  0  0  0  0  0  0
  148.8579  136.3699  157.7635 C   0  0  0  0  0  0  0  0  0  0  0  0
  146.7162  135.6198  163.8398 H   0  0  0  0  0  0  0  0  0  0  0  0
  148.2575  136.3372  163.3870 H   0  0  0  0  0  0  0  0  0  0  0  0
  147.9383  134.6347  163.0459 H   0  0  0  0  0  0  0  0  0  0  0  0
  146.1043  135.3126  161.4451 H   0  0  0  0  0  0  0  0  0  0  0  0
  146.4341  136.9990  161.7784 H   0  0  0  0  0  0  0  0  0  0  0  0
  146.9188  134.5447  159.6501 H   0  0  0  0  0  0  0  0  0  0  0  0
  149.5146  134.5407  158.7028 H   0  0  0  0  0  0  0  0  0  0  0  0
  147.7452  133.0714  157.8217 H   0  0  0  0  0  0  0  0  0  0  0  0
  146.8904  134.4417  157.1476 H   0  0  0  0  0  0  0  0  0  0  0  0
  149.6625  133.4603  156.3189 H   0  0  0  0  0  0  0  0  0  0  0  0
  148.2010  133.3504  155.3658 H   0  0  0  0  0  0  0  0  0  0  0  0
  149.6551  135.2739  154.6546 H   0  0  0  0  0  0  0  0  0  0  0  0
  148.0713  135.8148  155.1835 H   0  0  0  0  0  0  0  0  0  0  0  0
  150.4146  138.8809  153.1256 H   0  0  0  0  0  0  0  0  0  0  0  0
  151.6936  140.0718  159.3247 H   0  0  0  0  0  0  0  0  0  0  0  0
  153.2261  141.6123  157.1836 H   0  0  0  0  0  0  0  0  0  0  0  0
  152.0254  142.0096  156.0054 H   0  0  0  0  0  0  0  0  0  0  0  0
  150.0866  143.5387  156.9803 H   0  0  0  0  0  0  0  0  0  0  0  0
  150.7398  142.2509  159.9619 H   0  0  0  0  0  0  0  0  0  0  0  0
  152.3185  141.5588  159.6711 H   0  0  0  0  0  0  0  0  0  0  0  0
  151.9617  143.9160  161.1008 H   0  0  0  0  0  0  0  0  0  0  0  0
  153.4462  143.5035  160.2362 H   0  0  0  0  0  0  0  0  0  0  0  0
  153.3625  143.9590  157.7525 H   0  0  0  0  0  0  0  0  0  0  0  0
  151.8860  144.6509  155.8169 H   0  0  0  0  0  0  0  0  0  0  0  0
  152.4396  146.0097  156.7899 H   0  0  0  0  0  0  0  0  0  0  0  0
  150.7902  145.4298  156.9591 H   0  0  0  0  0  0  0  0  0  0  0  0
  147.9201  136.8831  157.5453 H   0  0  0  0  0  0  0  0  0  0  0  0
  149.4122  137.0003  158.4606 H   0  0  0  0  0  0  0  0  0  0  0  0
  1  2  1  0  0  0  0
  1 29  1  0  0  0  0
  1 30  1  0  0  0  0
  1 31  1  0  0  0  0
  2  3  1  0  0  0  0
  2 32  1  0  0  0  0
  2 33  1  0  0  0  0
  3  4  2  0  0  0  0
  3  5  1  0  0  0  0
  5  6  1  0  0  0  0
  5 34  1  0  0  0  0
  6 28  1  0  0  0  0
  6  7  1  0  0  0  0
  6 35  1  0  0  0  0
  7  8  1  0  0  0  0
  7 36  1  0  0  0  0
  7 37  1  0  0  0  0
  8  9  1  0  0  0  0
  8 38  1  0  0  0  0
  8 39  1  0  0  0  0
  9 10  1  0  0  0  0
  9 40  1  0  0  0  0
  9 41  1  0  0  0  0
 10 11  1  0  0  0  0
 10 28  1  0  0  0  0
 11 16  1  0  0  0  0
 11 12  2  0  0  0  0
 12 13  1  0  0  0  0
 13 14  2  0  0  0  0
 13 42  1  0  0  0  0
 14 15  1  0  0  0  0
 15 19  1  0  0  0  0
 15 16  2  0  0  0  0
 16 17  1  0  0  0  0
 17 18  2  0  0  0  0
 18 19  1  0  0  0  0
 18 43  1  0  0  0  0
 19 20  1  0  0  0  0
 20 21  1  0  0  0  0
 20 44  1  0  0  0  0
 20 45  1  0  0  0  0
 21 26  1  0  0  0  0
 21 22  1  0  0  0  0
 21 23  1  0  0  0  0
 22 46  1  0  0  0  0
 23 24  1  0  0  0  0
 23 47  1  0  0  0  0
 23 48  1  0  0  0  0
 24 25  1  0  0  0  0
 24 49  1  0  0  0  0
 24 50  1  0  0  0  0
 25 26  1  0  0  0  0
 26 27  1  0  0  0  0
 26 51  1  0  0  0  0
 27 52  1  0  0  0  0
 27 53  1  0  0  0  0
 27 54  1  0  0  0  0
 28 55  1  0  0  0  0
 28 56  1  0  0  0  0
M  END
> <s_m_source_file>
AV-unprocessed.smi

> <i_m_source_file_index>
252

> <i_lp_mmshare_version>
43012

> <i_f3d_flags>
0

> <s_epik_input>
W0NIM11bQ0gyXUMoPU8pW05IXVtDQEBIXTFbQ0gyXVtDSDJdW0NIMl1OKFtDSDJdMSljKG5bY0hdbjIpYyhjMjMpbltjSF1uM1tDSDJdW0NAQF00KFtPSF0pW0NIMl1bQ0gyXU9bQ0BIXTRbQ0gzXQ==

> <s_epik_cmdline>
J2VwaWtfcHl0aG9uJywgJy1waCcsICc3LjAnLCAnLXRuJywgJzgnLCAnLW1hJywgJzIwMCcsICctbWV0YWxfYmluZGluZycsICctaW1hZScsICc8aW5maWxlLm1hZT4nLCAnLW9tYWUnLCAnPG91dGZpbGUubWFlPic=

> <r_lp_tautomer_probability>
1

> <r_epik_Ionization_Penalty>
0.00182575

> <r_epik_Ionization_Penalty_Charging>
0

> <r_epik_Ionization_Penalty_Neutral>
0.00182575

> <r_epik_State_Penalty>
0.00104524

> <r_epik_Charging_Adjusted_Penalty>
0.00104524

> <i_epik_Tot_Q>
0

> <i_epik_Tot_abs_Q>
0

> <r_epik_Metal_State_Penalty>
-0

> <b_epik_Metal_Only>
0

> <s_lp_Force_Field>
OPLS_2005

> <r_lp_Energy>
42.5457

> <b_lp_Chiralities_Consistent>
1

> <s_lp_Variant>
AV-unprocessed.smi:252-6

> <Gold.Version>
5.8.1

> <Gold.Id.Protein>
6NUR|6NUR_protein|mol2

> <Gold.PLP.Fitness>
43.8949

> <Gold.PLP.PLP>
-33.3383

> <Gold.PLP.part.hbond>
-3.0000

> <Gold.PLP.part.metal>
0.0000

> <Gold.PLP.part.buried>
-7.4672

> <Gold.PLP.part.nonpolar>
-23.9268

> <Gold.PLP.part.repulsive>
0.3580

> <Gold.PLP.ligand.clash>
0.0000

> <Gold.PLP.ligand.torsion>
0.4880

> <Gold.PLP.Chemscore.Hbond>
2.7743

> <Gold.PLP.Chemscore.CHOScore>
1.0000

> <Gold.PLP.Chemscore.Metal>
0.0000

> <Gold.Chemscore.Hbonds>
donor molecule, donor type, donor heavy atom, donor atom, acceptor molecule, acceptor atom, score
      L1  H    22    46       P1  8028  0.75
      P1  H  6931  6943       L1     4  0.83
      P1  H  7989  7998       L1    14  1.00
      L1  C    13    42       P1  7957  1.00

> <Gold.PLP.Chemscore.Internal.Correction>
0.2097

> <Gold.Rescore>
     Score         DG    S(hbond)    S(metal)    S(lipo)     H(rot)  DE(clash)    DE(int)     intcor
     12.35     -19.59       2.77        0.00     100.68       2.70       4.87       2.37       ----

> <Gold.Chemscore.Fitness>
12.3505

> <Gold.Chemscore.DG>
-19.5928

> <Gold.Chemscore.ZeroCoef>
-5.4800

> <Gold.Chemscore.Hbond>
2.7711

> <Gold.Chemscore.Metal>
0.0000

> <Gold.Chemscore.Lipo>
100.6817

> <Gold.Chemscore.Internal_Hbond>
0.0000

> <Gold.Chemscore.DEClash>
4.8689

> <Gold.Chemscore.DEInternal>
2.3733

> <Gold.Chemscore.Rot>
2.7041

> <Gold.Chemscore.Internal.Correction>
   9.000000E+99

> <Gold.Chemscore.Hbonds>
donor molecule, donor type, donor heavy atom, donor atom, acceptor molecule, acceptor atom, score
      L1  H    22    46       P1  8028  0.70
      P1  H  6931  6943       L1     4  0.80
      P1  H  7989  7998       L1    14  0.40

> <Gold.Chemscore.Hbond.Weighted>
-9.2555

> <Gold.Chemscore.Metal.Weighted>
-0.0000

> <Gold.Chemscore.Lipo.Weighted>
-11.7798

> <Gold.Chemscore.Internal_Hbond.Weighted>
0.0000

> <Gold.Chemscore.DEClash.Weighted>
4.8689

> <Gold.Chemscore.DEInternal.Weighted>
2.3733

> <Gold.Chemscore.Rot.Weighted>
6.9225

> <Gold.Chemscore.Internal.Correction.Weighted>
   9.000000E+99

> <Gold.Protein.RotatedTorsions>
[ 6907 6896 6895 6894 ] final  -72.35 input  -60.11 | X-H torsion
[ 7974 7965 7964 7962 ] final  -47.26 input  175.53 | X-H torsion
[ 8008 7997 7996 7995 ] final  -33.49 input   59.86 | X-H torsion
[ 10167 10162 10161 10158 ] final  148.71 input  -65.29 | X-H torsion
[ 10718 10713 10712 10709 ] final  -95.76 input   66.30 | X-H torsion
[ 10763 10752 10751 10750 ] final   54.85 input  -60.55 | X-H torsion
[ 11005 11000 10999 10996 ] final  -58.48 input  -57.11 | X-H torsion

> <Gold.Protein.ActiveResidues>
 VAL166  LYS551  ARG553  GLY616  TRP617  ASP618  TYR619  PRO620  LYS621  CYS622 
 ASP623  PHE694  ASN695  SER759  ASP760  ASP761  ALA762  ILE779  LEU786  VAL792 
 PHE793  MET794  SER795  GLU796  ALA797  LYS798  CYS799  TRP800  GLU811  SER814 

> <Gold.Protein.RotatedAtoms>
  150.7173  134.5175  159.5637 H   0  0  0  0  0  0  0  0  0  0  0  0  # atno 6907 bound_to 6896
  152.2738  134.7901  160.0418 H   0  0  0  0  0  0  0  0  0  0  0  0  # atno 6908 bound_to 6896
  151.8572  133.3415  159.3729 H   0  0  0  0  0  0  0  0  0  0  0  0  # atno 6909 bound_to 6896
  145.9635  140.7455  142.9446 H   0  0  0  0  0  0  0  0  0  0  0  0  # atno 7974 bound_to 7965
  154.4147  140.1709  156.1897 H   0  0  0  0  0  0  0  0  0  0  0  0  # atno 8008 bound_to 7997
  155.9613  140.3393  155.6470 H   0  0  0  0  0  0  0  0  0  0  0  0  # atno 8009 bound_to 7997
  155.6744  140.0715  157.2498 H   0  0  0  0  0  0  0  0  0  0  0  0  # atno 8010 bound_to 7997
  139.4871  144.5658  151.7147 H   0  0  0  0  0  0  0  0  0  0  0  0  # atno 10167 bound_to 10162
  156.0049  130.5123  150.6125 H   0  0  0  0  0  0  0  0  0  0  0  0  # atno 10718 bound_to 10713
  152.9809  135.5731  154.4971 H   0  0  0  0  0  0  0  0  0  0  0  0  # atno 10763 bound_to 10752
  154.4497  135.2778  155.1792 H   0  0  0  0  0  0  0  0  0  0  0  0  # atno 10764 bound_to 10752
  154.3425  135.6226  153.5657 H   0  0  0  0  0  0  0  0  0  0  0  0  # atno 10765 bound_to 10752
  141.1209  133.6612  156.4926 H   0  0  0  0  0  0  0  0  0  0  0  0  # atno 11005 bound_to 11000
  144.6820  140.2630  143.7316 LP  0  0  0  0  0  0  0  0  0  0  0  0  # atno 17320 bound_to 7965
  145.8007  139.1963  143.2050 LP  0  0  0  0  0  0  0  0  0  0  0  0  # atno 17321 bound_to 7965
  140.5236  144.0841  150.6030 LP  0  0  0  0  0  0  0  0  0  0  0  0  # atno 17342 bound_to 10162
  140.3807  143.2804  152.0174 LP  0  0  0  0  0  0  0  0  0  0  0  0  # atno 17343 bound_to 10162
  157.3955  131.0802  151.1356 LP  0  0  0  0  0  0  0  0  0  0  0  0  # atno 17370 bound_to 10713
  157.2034  130.6405  149.5747 LP  0  0  0  0  0  0  0  0  0  0  0  0  # atno 17371 bound_to 10713
  140.4511  134.6928  157.5040 LP  0  0  0  0  0  0  0  0  0  0  0  0  # atno 17394 bound_to 11000
  140.0165  134.6611  155.9302 LP  0  0  0  0  0  0  0  0  0  0  0  0  # atno 17395 bound_to 11000

$$$$
