AV-unprocessed.smi:2124|AV-procd|sdf|8656|dock3
  -GOLD-   2272011403D 1   1.00000     0.00000
 Structure written by MMmdl.
 47 49  0  0  0  0  0  0  0  0  1 V2000
  143.8526  140.5801  156.4064 C   0  0  0  0  0  0  0  0  0  0  0  0
  145.2482  140.6846  155.8288 C   0  0  0  0  0  0  0  0  0  0  0  0
  145.6205  140.1070  154.7346 N   0  0  0  0  0  0  0  0  0  0  0  0
  146.9391  140.2843  154.2937 C   0  0  0  0  0  0  0  0  0  0  0  0
  147.2893  139.5941  152.9866 C   0  0  0  0  0  0  0  0  0  0  0  0
  147.8327  141.0429  154.9940 C   0  0  0  0  0  0  0  0  0  0  0  0
  149.2643  141.2914  154.5161 C   0  0  0  0  0  0  0  0  0  0  0  0
  150.3473  140.7653  155.4581 C   0  0  0  0  0  0  0  0  0  0  0  0
  151.1295  139.8940  155.0800 O   0  0  0  0  0  0  0  0  0  0  0  0
  150.4027  141.3439  156.6669 N   0  0  0  0  0  0  0  0  0  0  0  0
  151.4972  141.2208  157.6228 C   0  0  2  0  0  0  0  0  0  0  0  0
  151.5634  139.7795  158.1512 C   0  0  0  0  0  0  0  0  0  0  0  0
  151.2974  142.2554  158.7558 C   0  0  1  0  0  0  0  0  0  0  0  0
  152.5473  142.5128  159.6263 C   0  0  0  0  0  0  0  0  0  0  0  0
  152.6542  144.0498  159.6319 C   0  0  1  0  0  0  0  0  0  0  0  0
  153.1547  144.5267  158.2557 C   0  0  0  0  0  0  0  0  0  0  0  0
  151.9283  144.3024  157.3528 C   0  0  0  0  0  0  0  0  0  0  0  0
  150.8982  143.6914  158.3246 C   0  0  2  0  0  0  0  0  0  0  0  0
  151.1909  144.4759  159.5987 C   0  0  0  0  0  0  0  0  0  0  0  0
  147.3978  141.6923  156.2462 C   0  0  0  0  0  0  0  0  0  0  0  0
  148.1147  142.4040  156.9478 O   0  0  0  0  0  0  0  0  0  0  0  0
  146.1098  141.4711  156.5912 N   0  0  0  0  0  0  0  0  0  0  0  0
  145.7628  141.8981  157.4379 H   0  0  0  0  0  0  0  0  0  0  0  0
  143.1219  140.9563  155.6902 H   0  0  0  0  0  0  0  0  0  0  0  0
  143.7535  141.1542  157.3286 H   0  0  0  0  0  0  0  0  0  0  0  0
  143.6141  139.5390  156.6249 H   0  0  0  0  0  0  0  0  0  0  0  0
  147.5800  140.3244  152.2316 H   0  0  0  0  0  0  0  0  0  0  0  0
  146.4399  139.0332  152.5952 H   0  0  0  0  0  0  0  0  0  0  0  0
  148.1125  138.8942  153.1298 H   0  0  0  0  0  0  0  0  0  0  0  0
  149.4264  140.8612  153.5271 H   0  0  0  0  0  0  0  0  0  0  0  0
  149.4095  142.3636  154.3811 H   0  0  0  0  0  0  0  0  0  0  0  0
  149.6914  142.0260  156.8875 H   0  0  0  0  0  0  0  0  0  0  0  0
  152.4422  141.4359  157.1214 H   0  0  0  0  0  0  0  0  0  0  0  0
  152.3857  139.6540  158.8557 H   0  0  0  0  0  0  0  0  0  0  0  0
  151.7196  139.0707  157.3374 H   0  0  0  0  0  0  0  0  0  0  0  0
  150.6416  139.5006  158.6628 H   0  0  0  0  0  0  0  0  0  0  0  0
  150.5019  141.8854  159.4055 H   0  0  0  0  0  0  0  0  0  0  0  0
  152.3945  142.1278  160.6353 H   0  0  0  0  0  0  0  0  0  0  0  0
  153.4496  142.0467  159.2289 H   0  0  0  0  0  0  0  0  0  0  0  0
  153.2322  144.4445  160.4677 H   0  0  0  0  0  0  0  0  0  0  0  0
  153.4223  145.5835  158.2824 H   0  0  0  0  0  0  0  0  0  0  0  0
  154.0281  143.9683  157.9167 H   0  0  0  0  0  0  0  0  0  0  0  0
  151.5646  145.2543  156.9634 H   0  0  0  0  0  0  0  0  0  0  0  0
  152.1460  143.6664  156.4957 H   0  0  0  0  0  0  0  0  0  0  0  0
  149.8689  143.7743  157.9740 H   0  0  0  0  0  0  0  0  0  0  0  0
  150.6194  144.1323  160.4627 H   0  0  0  0  0  0  0  0  0  0  0  0
  151.0553  145.5531  159.4862 H   0  0  0  0  0  0  0  0  0  0  0  0
  1  2  1  0  0  0  0
  1 24  1  0  0  0  0
  1 25  1  0  0  0  0
  1 26  1  0  0  0  0
  2 22  1  0  0  0  0
  2  3  2  0  0  0  0
  3  4  1  0  0  0  0
  4  5  1  0  0  0  0
  4  6  2  0  0  0  0
  5 27  1  0  0  0  0
  5 28  1  0  0  0  0
  5 29  1  0  0  0  0
  6  7  1  0  0  0  0
  6 20  1  0  0  0  0
  7  8  1  0  0  0  0
  7 30  1  0  0  0  0
  7 31  1  0  0  0  0
  8  9  2  0  0  0  0
  8 10  1  0  0  0  0
 10 11  1  0  0  0  0
 10 32  1  0  0  0  0
 11 12  1  0  0  0  0
 11 13  1  0  0  0  0
 11 33  1  0  0  0  0
 12 34  1  0  0  0  0
 12 35  1  0  0  0  0
 12 36  1  0  0  0  0
 13 18  1  0  0  0  0
 13 14  1  0  0  0  0
 13 37  1  0  0  0  0
 14 15  1  0  0  0  0
 14 38  1  0  0  0  0
 14 39  1  0  0  0  0
 15 19  1  0  0  0  0
 15 16  1  0  0  0  0
 15 40  1  0  0  0  0
 16 17  1  0  0  0  0
 16 41  1  0  0  0  0
 16 42  1  0  0  0  0
 17 18  1  0  0  0  0
 17 43  1  0  0  0  0
 17 44  1  0  0  0  0
 18 19  1  0  0  0  0
 18 45  1  0  0  0  0
 19 46  1  0  0  0  0
 19 47  1  0  0  0  0
 20 21  2  0  0  0  0
 20 22  1  0  0  0  0
 22 23  1  0  0  0  0
M  END
> <s_m_source_file>
AV-unprocessed.smi

> <i_m_source_file_index>
2124

> <i_lp_mmshare_version>
43012

> <i_f3d_flags>
0

> <s_epik_input>
W0NIM11jMW5jKFtDSDNdKWMoYyg9TylbbkhdMSlbQ0gyXUMoPU8pW05IXVtDQEhdKFtDSDNdKVtDQEhdKFtDSDJdW0NASF0yMylbQ0BIXShbQ0gyXTMpW0NIMl1bQ0gyXTI=

> <s_epik_cmdline>
J2VwaWtfcHl0aG9uJywgJy1waCcsICc3LjAnLCAnLXRuJywgJzgnLCAnLW1hJywgJzIwMCcsICctbWV0YWxfYmluZGluZycsICctaW1hZScsICc8aW5maWxlLm1hZT4nLCAnLW9tYWUnLCAnPG91dGZpbGUubWFlPic=

> <r_lp_tautomer_probability>
0.839158

> <r_epik_Ionization_Penalty>
0.000383628

> <r_epik_Ionization_Penalty_Charging>
0.00035045

> <r_epik_Ionization_Penalty_Neutral>
3.31781e-05

> <r_epik_State_Penalty>
0.09125

> <r_epik_Charging_Adjusted_Penalty>
0.0916005

> <i_epik_Tot_Q>
0

> <i_epik_Tot_abs_Q>
0

> <r_epik_Metal_State_Penalty>
0.255229

> <b_epik_Metal_Only>
0

> <s_lp_Force_Field>
OPLS_2005

> <r_lp_Energy>
50.9321

> <b_lp_Chiralities_Consistent>
1

> <s_lp_Variant>
AV-unprocessed.smi:2124-7

> <Gold.Version>
5.8.1

> <Gold.Id.Protein>
6NUR|6NUR_protein|mol2

> <Gold.PLP.Fitness>
42.3363

> <Gold.PLP.PLP>
-39.9315

> <Gold.PLP.part.hbond>
-1.0000

> <Gold.PLP.part.metal>
0.0000

> <Gold.PLP.part.buried>
-5.4352

> <Gold.PLP.part.nonpolar>
-34.6290

> <Gold.PLP.part.repulsive>
1.4924

> <Gold.PLP.ligand.clash>
0.0000

> <Gold.PLP.ligand.torsion>
0.3125

> <Gold.PLP.Chemscore.Hbond>
1.0000

> <Gold.PLP.Chemscore.CHOScore>
0.0000

> <Gold.PLP.Chemscore.Metal>
0.0000

> <Gold.Chemscore.Hbonds>
donor molecule, donor type, donor heavy atom, donor atom, acceptor molecule, acceptor atom, score
      P1  H  7989  7998       L1     9  0.70

> <Gold.PLP.Chemscore.Internal.Correction>
0.0297

> <Gold.Rescore>
     Score         DG    S(hbond)    S(metal)    S(lipo)     H(rot)  DE(clash)    DE(int)     intcor
     16.24     -18.22       0.96        0.00     117.68       1.65       0.22       1.75       ----

> <Gold.Chemscore.Fitness>
16.2403

> <Gold.Chemscore.DG>
-18.2203

> <Gold.Chemscore.ZeroCoef>
-5.4800

> <Gold.Chemscore.Hbond>
0.9596

> <Gold.Chemscore.Metal>
0.0000

> <Gold.Chemscore.Lipo>
117.6753

> <Gold.Chemscore.Internal_Hbond>
0.0000

> <Gold.Chemscore.DEClash>
0.2250

> <Gold.Chemscore.DEInternal>
1.7550

> <Gold.Chemscore.Rot>
1.6534

> <Gold.Chemscore.Internal.Correction>
   9.000000E+99

> <Gold.Chemscore.Hbonds>
donor molecule, donor type, donor heavy atom, donor atom, acceptor molecule, acceptor atom, score
      P1  H  7989  7998       L1     9  0.07

> <Gold.Chemscore.Hbond.Weighted>
-3.2049

> <Gold.Chemscore.Metal.Weighted>
-0.0000

> <Gold.Chemscore.Lipo.Weighted>
-13.7680

> <Gold.Chemscore.Internal_Hbond.Weighted>
0.0000

> <Gold.Chemscore.DEClash.Weighted>
0.2250

> <Gold.Chemscore.DEInternal.Weighted>
1.7550

> <Gold.Chemscore.Rot.Weighted>
4.2326

> <Gold.Chemscore.Internal.Correction.Weighted>
   9.000000E+99

> <Gold.Protein.RotatedTorsions>
[ 6907 6896 6895 6894 ] final   64.55 input  -60.11 | X-H torsion
[ 7974 7965 7964 7962 ] final  -63.47 input  175.53 | X-H torsion
[ 8008 7997 7996 7995 ] final  -78.59 input   59.86 | X-H torsion
[ 10167 10162 10161 10158 ] final -115.94 input  -65.29 | X-H torsion
[ 10718 10713 10712 10709 ] final -161.85 input   66.30 | X-H torsion
[ 10763 10752 10751 10750 ] final  -84.48 input  -60.55 | X-H torsion
[ 11005 11000 10999 10996 ] final   63.41 input  -57.11 | X-H torsion

> <Gold.Protein.ActiveResidues>
 VAL166  LYS551  ARG553  GLY616  TRP617  ASP618  TYR619  PRO620  LYS621  CYS622 
 ASP623  PHE694  ASN695  SER759  ASP760  ASP761  ALA762  ILE779  LEU786  VAL792 
 PHE793  MET794  SER795  GLU796  ALA797  LYS798  CYS799  TRP800  GLU811  SER814 

> <Gold.Protein.RotatedAtoms>
  152.4340  134.5722  159.9924 H   0  0  0  0  0  0  0  0  0  0  0  0  # atno 6907 bound_to 6896
  151.5837  133.3369  159.3021 H   0  0  0  0  0  0  0  0  0  0  0  0  # atno 6908 bound_to 6896
  150.8236  134.7492  159.6858 H   0  0  0  0  0  0  0  0  0  0  0  0  # atno 6909 bound_to 6896
  145.7786  140.8774  143.0342 H   0  0  0  0  0  0  0  0  0  0  0  0  # atno 7974 bound_to 7965
  154.5704  140.0692  156.8955 H   0  0  0  0  0  0  0  0  0  0  0  0  # atno 8008 bound_to 7997
  155.2646  140.3361  155.4252 H   0  0  0  0  0  0  0  0  0  0  0  0  # atno 8009 bound_to 7997
  156.2113  140.1760  156.7673 H   0  0  0  0  0  0  0  0  0  0  0  0  # atno 8010 bound_to 7997
  140.0846  143.4756  152.1906 H   0  0  0  0  0  0  0  0  0  0  0  0  # atno 10167 bound_to 10162
  156.6020  130.8814  151.2916 H   0  0  0  0  0  0  0  0  0  0  0  0  # atno 10718 bound_to 10713
  154.6000  135.5519  153.7364 H   0  0  0  0  0  0  0  0  0  0  0  0  # atno 10763 bound_to 10752
  153.0150  135.6364  154.1728 H   0  0  0  0  0  0  0  0  0  0  0  0  # atno 10764 bound_to 10752
  154.1668  135.2894  155.3072 H   0  0  0  0  0  0  0  0  0  0  0  0  # atno 10765 bound_to 10752
  140.0027  134.6418  155.9905 H   0  0  0  0  0  0  0  0  0  0  0  0  # atno 11005 bound_to 11000
  144.6800  139.9957  143.7484 LP  0  0  0  0  0  0  0  0  0  0  0  0  # atno 17320 bound_to 7965
  146.0097  139.3159  143.0878 LP  0  0  0  0  0  0  0  0  0  0  0  0  # atno 17321 bound_to 7965
  139.5760  144.7487  151.3765 LP  0  0  0  0  0  0  0  0  0  0  0  0  # atno 17342 bound_to 10162
  140.7060  143.7512  150.7483 LP  0  0  0  0  0  0  0  0  0  0  0  0  # atno 17343 bound_to 10162
  157.7277  130.9646  150.1710 LP  0  0  0  0  0  0  0  0  0  0  0  0  # atno 17370 bound_to 10713
  156.2461  130.3696  149.8284 LP  0  0  0  0  0  0  0  0  0  0  0  0  # atno 17371 bound_to 10713
  141.1654  133.6537  156.4460 LP  0  0  0  0  0  0  0  0  0  0  0  0  # atno 17394 bound_to 11000
  140.4699  134.6763  157.5124 LP  0  0  0  0  0  0  0  0  0  0  0  0  # atno 17395 bound_to 11000

$$$$
