#       Name:                AV-unprocessed.smi:1028
#       Creating user name   scv26
#       Creation time:       Fri Mar 27 02:45:00 2020


#       File generated by GOLD software.
#

@<TRIPOS>MOLECULE
AV-unprocessed.smi:1028
    46    47     1
SMALL
NO_CHARGES


@<TRIPOS>ATOM
      1 ****        -0.7952   4.8914   1.7789 C.3            1 S1                 0.0000
      2 ****        -2.2003   4.2999   1.5509 C.3            1 S1                 0.0000
      3 ****        -2.8056   3.8544   2.8964 C.3            1 S1                 0.0000
      4 ****        -3.0974   5.4139   0.9703 C.3            1 S1                 0.0000
      5 ****        -2.1146   3.1170   0.6065 C.2            1 S1                 0.0000
      6 ****        -2.7121   2.9671  -0.6244 C.2            1 S1                 0.0000
      7 ****        -2.3232   1.4404  -1.3684 S.3            1 S1                 0.0000
      8 ****        -1.3602   1.0348   0.0436 C.2            1 S1                 0.0000
      9 ****        -0.5896  -0.2356   0.1728 C.3            1 S1                 0.0000
     10 ****         0.8459  -0.1044  -0.3594 C.3            1 S1                 0.0000
     11 ****         1.5933  -1.3462  -0.1994 N.am           1 S1                 0.0000
     12 ****         1.5208  -2.4019  -1.0246 C.2            1 S1                 0.0000
     13 ****         0.7985  -2.4286  -2.0218 O.2            1 S1                 0.0000
     14 ****         2.3950  -3.6139  -0.6630 C.3            1 S1                 0.0000
     15 ****         3.4495  -3.9133  -1.7544 C.3            1 S1                 0.0000
     16 ****         3.1946  -5.3453  -2.2403 C.3            1 S1                 0.0000
     17 ****         1.7476  -5.6444  -1.8612 C.3            1 S1                 0.0000
     18 ****         1.5588  -4.9029  -0.5391 C.3            1 S1                 0.0000
     19 ****        -1.3436   2.0023   0.9630 N.2            1 S1                 0.0000
     20 ****        -0.8307   5.7566   2.4417 H              1 S1                 0.0000
     21 ****        -0.3443   5.2147   0.8399 H              1 S1                 0.0000
     22 ****        -0.1215   4.1638   2.2328 H              1 S1                 0.0000
     23 ****        -2.1912   3.0958   3.3823 H              1 S1                 0.0000
     24 ****        -3.8020   3.4320   2.7619 H              1 S1                 0.0000
     25 ****        -2.8933   4.6914   3.5899 H              1 S1                 0.0000
     26 ****        -3.1583   6.2668   1.6473 H              1 S1                 0.0000
     27 ****        -4.1160   5.0621   0.8023 H              1 S1                 0.0000
     28 ****        -2.7123   5.7837   0.0192 H              1 S1                 0.0000
     29 ****        -3.3543   3.6612  -1.1458 H              1 S1                 0.0000
     30 ****        -0.5764  -0.5323   1.2223 H              1 S1                 0.0000
     31 ****        -1.1245  -1.0185  -0.3660 H              1 S1                 0.0000
     32 ****         0.8394   0.1984  -1.4079 H              1 S1                 0.0000
     33 ****         1.3730   0.6788   0.1862 H              1 S1                 0.0000
     34 ****         2.2114  -1.4074   0.5966 H              1 S1                 0.0000
     35 ****         2.8921  -3.4204   0.2893 H              1 S1                 0.0000
     36 ****         3.3698  -3.2226  -2.5959 H              1 S1                 0.0000
     37 ****         4.4633  -3.8120  -1.3655 H              1 S1                 0.0000
     38 ****         3.3805  -5.4645  -3.3080 H              1 S1                 0.0000
     39 ****         3.8569  -6.0323  -1.7118 H              1 S1                 0.0000
     40 ****         1.0741  -5.2368  -2.6163 H              1 S1                 0.0000
     41 ****         1.5475  -6.7129  -1.7758 H              1 S1                 0.0000
     42 ****         1.9491  -5.5102   0.2787 H              1 S1                 0.0000
     43 ****         0.5043  -4.7206  -0.3245 H              1 S1                 0.0000
     44 ****         0.2296  -1.6380  -2.2484 LP             1 S1                 0.0000
     45 ****         0.7810  -3.2408  -2.6049 LP             1 S1                 0.0000
     46 ****        -0.8324   1.9382   1.8201 LP             1 S1                 0.0000
@<TRIPOS>BOND
    1    1    2 1     
    2    1   20 1     
    3    1   21 1     
    4    1   22 1     
    5    2    3 1     
    6    2    4 1     
    7    2    5 1     
    8    3   23 1     
    9    3   24 1     
   10    3   25 1     
   11    4   26 1     
   12    4   27 1     
   13    4   28 1     
   14    5   19 1     
   15    5    6 2     
   16    6    7 1     
   17    6   29 1     
   18    7    8 1     
   19    8    9 1     
   20    8   19 2     
   21    9   10 1     
   22    9   30 1     
   23    9   31 1     
   24   10   11 1     
   25   10   32 1     
   26   10   33 1     
   27   11   12 am    
   28   11   34 1     
   29   12   13 2     
   30   12   14 1     
   31   14   18 1     
   32   14   15 1     
   33   14   35 1     
   34   15   16 1     
   35   15   36 1     
   36   15   37 1     
   37   16   17 1     
   38   16   38 1     
   39   16   39 1     
   40   17   18 1     
   41   17   40 1     
   42   17   41 1     
   43   18   42 1     
   44   18   43 1     
   45   13   44 1     
   46   13   45 1     
   47   19   46 1     
@<TRIPOS>SUBSTRUCTURE
      1 S1             1
@<TRIPOS>SET
LONE_PAIRS      STATIC     ATOMS    <user>   **** ""
3 44 45 46
DONOR_HYDROGENS      STATIC     ATOMS    <user>   **** ""
1 34
ATOM$BLUE        STATIC     ATOMS    COLORGROUP SYSTEM
3 44 45 46
ATOM$RED        STATIC     ATOMS    COLORGROUP SYSTEM
1 34
