AV-unprocessed.smi:765|AV-procd|sdf|3650|dock1
  -GOLD-   22720 1 53D 1   1.00000     0.00000
 Structure written by MMmdl.
 39 40  0  0  0  0  0  0  0  0  1 V2000
  147.6716  142.1654  154.0317 C   0  0  0  0  0  0  0  0  0  0  0  0
  148.5081  141.7315  155.2431 C   0  0  1  0  0  0  0  0  0  0  0  0
  147.7209  140.7772  156.1591 C   0  0  0  0  0  0  0  0  0  0  0  0
  148.5584  140.3301  157.3661 C   0  0  0  0  0  0  0  0  0  0  0  0
  149.8926  139.7044  156.9196 C   0  0  0  0  0  0  0  0  0  0  0  0
  150.7160  140.6433  156.0104 C   0  0  2  0  0  0  0  0  0  0  0  0
  151.9028  139.9109  155.5299 C   0  0  0  0  0  0  0  0  0  0  0  0
  152.8348  139.3379  155.1528 N   0  0  0  0  0  0  0  0  0  0  0  0
  151.1130  141.8106  156.8022 N   0  0  0  0  0  0  0  0  0  0  0  0
  151.5652  141.8201  158.0673 C   0  0  0  0  0  0  0  0  0  0  0  0
  151.5749  140.8231  158.7896 O   0  0  0  0  0  0  0  0  0  0  0  0
  152.1221  143.1638  158.5653 C   0  0  1  0  0  0  0  0  0  0  0  0
  151.1514  144.3419  158.3447 C   0  0  0  0  0  0  0  0  0  0  0  0
  152.5269  143.0449  159.9627 N   0  0  0  0  0  0  0  0  0  0  0  0
  153.3527  142.0956  160.5307 C   0  0  0  0  0  0  0  0  0  0  0  0
  153.4004  142.3421  161.8728 C   0  0  0  0  0  0  0  0  0  0  0  0
  152.5531  143.4723  162.0391 C   0  0  0  0  0  0  0  0  0  0  0  0
  152.0277  143.8865  160.8983 N   0  0  0  0  0  0  0  0  0  0  0  0
  149.8372  141.0764  154.8088 C   0  0  0  0  0  0  0  0  0  0  0  0
  147.3980  141.3118  153.4108 H   0  0  0  0  0  0  0  0  0  0  0  0
  148.2221  142.8696  153.4075 H   0  0  0  0  0  0  0  0  0  0  0  0
  146.7508  142.6566  154.3475 H   0  0  0  0  0  0  0  0  0  0  0  0
  148.7368  142.6338  155.8119 H   0  0  0  0  0  0  0  0  0  0  0  0
  146.8082  141.2618  156.5079 H   0  0  0  0  0  0  0  0  0  0  0  0
  147.4062  139.8993  155.5929 H   0  0  0  0  0  0  0  0  0  0  0  0
  148.7450  141.1839  158.0185 H   0  0  0  0  0  0  0  0  0  0  0  0
  147.9939  139.6109  157.9600 H   0  0  0  0  0  0  0  0  0  0  0  0
  150.4777  139.4215  157.7957 H   0  0  0  0  0  0  0  0  0  0  0  0
  149.6849  138.7761  156.3850 H   0  0  0  0  0  0  0  0  0  0  0  0
  151.1339  142.6887  156.3048 H   0  0  0  0  0  0  0  0  0  0  0  0
  153.0222  143.3708  157.9842 H   0  0  0  0  0  0  0  0  0  0  0  0
  150.9133  144.4632  157.2874 H   0  0  0  0  0  0  0  0  0  0  0  0
  151.5930  145.2777  158.6883 H   0  0  0  0  0  0  0  0  0  0  0  0
  150.2119  144.2040  158.8815 H   0  0  0  0  0  0  0  0  0  0  0  0
  153.8297  141.3277  159.9399 H   0  0  0  0  0  0  0  0  0  0  0  0
  153.9521  141.7953  162.6229 H   0  0  0  0  0  0  0  0  0  0  0  0
  152.3021  143.9980  162.9485 H   0  0  0  0  0  0  0  0  0  0  0  0
  149.6189  140.2015  154.1945 H   0  0  0  0  0  0  0  0  0  0  0  0
  150.3895  141.7574  154.1606 H   0  0  0  0  0  0  0  0  0  0  0  0
  1  2  1  0  0  0  0
  1 20  1  0  0  0  0
  1 21  1  0  0  0  0
  1 22  1  0  0  0  0
  2 19  1  0  0  0  0
  2  3  1  0  0  0  0
  2 23  1  0  0  0  0
  3  4  1  0  0  0  0
  3 24  1  0  0  0  0
  3 25  1  0  0  0  0
  4  5  1  0  0  0  0
  4 26  1  0  0  0  0
  4 27  1  0  0  0  0
  5  6  1  0  0  0  0
  5 28  1  0  0  0  0
  5 29  1  0  0  0  0
  6  7  1  0  0  0  0
  6  9  1  0  0  0  0
  6 19  1  0  0  0  0
  7  8  3  0  0  0  0
  9 10  1  0  0  0  0
  9 30  1  0  0  0  0
 10 11  2  0  0  0  0
 10 12  1  0  0  0  0
 12 13  1  0  0  0  0
 12 14  1  0  0  0  0
 12 31  1  0  0  0  0
 13 32  1  0  0  0  0
 13 33  1  0  0  0  0
 13 34  1  0  0  0  0
 14 18  1  0  0  0  0
 14 15  1  0  0  0  0
 15 16  2  0  0  0  0
 15 35  1  0  0  0  0
 16 17  1  0  0  0  0
 16 36  1  0  0  0  0
 17 18  2  0  0  0  0
 17 37  1  0  0  0  0
 19 38  1  0  0  0  0
 19 39  1  0  0  0  0
M  END
> <s_m_source_file>
AV-unprocessed.smi

> <i_m_source_file_index>
765

> <i_lp_mmshare_version>
43012

> <i_f3d_flags>
0

> <s_epik_input>
W0NIM11bQ0BASF0oW0NIMl0xKVtDSDJdW0NIMl1bQ0gyXVtDQEBdMShDI04pW05IXUMoPU8pW0NASF0oW0NIM10pbjJbY0hdW2NIXVtjSF1uMg==

> <s_epik_cmdline>
J2VwaWtfcHl0aG9uJywgJy1waCcsICc3LjAnLCAnLXRuJywgJzgnLCAnLW1hJywgJzIwMCcsICctbWV0YWxfYmluZGluZycsICctaW1hZScsICc8aW5maWxlLm1hZT4nLCAnLW9tYWUnLCAnPG91dGZpbGUubWFlPic=

> <r_lp_tautomer_probability>
1

> <r_epik_Ionization_Penalty>
2.71142e-05

> <r_epik_Ionization_Penalty_Charging>
0

> <r_epik_Ionization_Penalty_Neutral>
2.71142e-05

> <r_epik_State_Penalty>
-0

> <r_epik_Charging_Adjusted_Penalty>
0

> <i_epik_Tot_Q>
0

> <i_epik_Tot_abs_Q>
0

> <r_epik_Metal_State_Penalty>
-0

> <b_epik_Metal_Only>
0

> <s_lp_Force_Field>
OPLS_2005

> <r_lp_Energy>
11.0403

> <b_lp_Chiralities_Consistent>
1

> <s_lp_Variant>
AV-unprocessed.smi:765-8

> <Gold.Version>
5.8.1

> <Gold.Id.Protein>
6NUR|6NUR_protein|mol2

> <Gold.PLP.Fitness>
44.3829

> <Gold.PLP.PLP>
-42.2490

> <Gold.PLP.part.hbond>
-1.2605

> <Gold.PLP.part.metal>
0.0000

> <Gold.PLP.part.buried>
-3.9779

> <Gold.PLP.part.nonpolar>
-37.3265

> <Gold.PLP.part.repulsive>
0.1940

> <Gold.PLP.ligand.clash>
0.0000

> <Gold.PLP.ligand.torsion>
0.4928

> <Gold.PLP.Chemscore.Hbond>
1.0000

> <Gold.PLP.Chemscore.CHOScore>
0.0000

> <Gold.PLP.Chemscore.Metal>
0.0000

> <Gold.Chemscore.Hbonds>
donor molecule, donor type, donor heavy atom, donor atom, acceptor molecule, acceptor atom, score
      P1  H  7997  8009       L1     8  1.00

> <Gold.PLP.Chemscore.Internal.Correction>
0.1195

> <Gold.Rescore>
     Score         DG    S(hbond)    S(metal)    S(lipo)     H(rot)  DE(clash)    DE(int)     intcor
     12.32     -15.70       0.92        0.00      92.07       1.42       0.19       3.19       ----

> <Gold.Chemscore.Fitness>
12.3233

> <Gold.Chemscore.DG>
-15.7020

> <Gold.Chemscore.ZeroCoef>
-5.4800

> <Gold.Chemscore.Hbond>
0.9225

> <Gold.Chemscore.Metal>
0.0000

> <Gold.Chemscore.Lipo>
92.0678

> <Gold.Chemscore.Internal_Hbond>
0.0000

> <Gold.Chemscore.DEClash>
0.1905

> <Gold.Chemscore.DEInternal>
3.1882

> <Gold.Chemscore.Rot>
1.4183

> <Gold.Chemscore.Internal.Correction>
   9.000000E+99

> <Gold.Chemscore.Hbonds>
donor molecule, donor type, donor heavy atom, donor atom, acceptor molecule, acceptor atom, score
      P1  H  7997  8009       L1     8  0.64

> <Gold.Chemscore.Hbond.Weighted>
-3.0810

> <Gold.Chemscore.Metal.Weighted>
-0.0000

> <Gold.Chemscore.Lipo.Weighted>
-10.7719

> <Gold.Chemscore.Internal_Hbond.Weighted>
0.0000

> <Gold.Chemscore.DEClash.Weighted>
0.1905

> <Gold.Chemscore.DEInternal.Weighted>
3.1882

> <Gold.Chemscore.Rot.Weighted>
3.6309

> <Gold.Chemscore.Internal.Correction.Weighted>
   9.000000E+99

> <Gold.Protein.RotatedTorsions>
[ 6907 6896 6895 6894 ] final -125.45 input  -60.11 | X-H torsion
[ 7974 7965 7964 7962 ] final   36.33 input  175.53 | X-H torsion
[ 8008 7997 7996 7995 ] final -141.14 input   59.86 | X-H torsion
[ 10167 10162 10161 10158 ] final  -30.83 input  -65.29 | X-H torsion
[ 10718 10713 10712 10709 ] final  143.78 input   66.30 | X-H torsion
[ 10763 10752 10751 10750 ] final    4.77 input  -60.55 | X-H torsion
[ 11005 11000 10999 10996 ] final  -36.25 input  -57.11 | X-H torsion

> <Gold.Protein.ActiveResidues>
 VAL166  LYS551  ARG553  GLY616  TRP617  ASP618  TYR619  PRO620  LYS621  CYS622 
 ASP623  PHE694  ASN695  SER759  ASP760  ASP761  ALA762  ILE779  LEU786  VAL792 
 PHE793  MET794  SER795  GLU796  ALA797  LYS798  CYS799  TRP800  GLU811  SER814 

> <Gold.Protein.RotatedAtoms>
  150.8869  133.7296  159.2915 H   0  0  0  0  0  0  0  0  0  0  0  0  # atno 6907 bound_to 6896
  151.4859  135.1053  159.9800 H   0  0  0  0  0  0  0  0  0  0  0  0  # atno 6908 bound_to 6896
  152.4795  133.8174  159.7091 H   0  0  0  0  0  0  0  0  0  0  0  0  # atno 6909 bound_to 6896
  146.1219  139.6031  142.9284 H   0  0  0  0  0  0  0  0  0  0  0  0  # atno 7974 bound_to 7965
  155.4729  140.0554  157.2977 H   0  0  0  0  0  0  0  0  0  0  0  0  # atno 8008 bound_to 7997
  154.4691  140.2032  155.9994 H   0  0  0  0  0  0  0  0  0  0  0  0  # atno 8009 bound_to 7997
  156.1025  140.3217  155.7966 H   0  0  0  0  0  0  0  0  0  0  0  0  # atno 8010 bound_to 7997
  140.7244  143.3818  151.1587 H   0  0  0  0  0  0  0  0  0  0  0  0  # atno 10167 bound_to 10162
  157.3650  131.0970  151.0881 H   0  0  0  0  0  0  0  0  0  0  0  0  # atno 10718 bound_to 10713
  153.2673  135.6929  153.7516 H   0  0  0  0  0  0  0  0  0  0  0  0  # atno 10763 bound_to 10752
  153.6553  135.3370  155.3112 H   0  0  0  0  0  0  0  0  0  0  0  0  # atno 10764 bound_to 10752
  154.8452  135.4464  154.1684 H   0  0  0  0  0  0  0  0  0  0  0  0  # atno 10765 bound_to 10752
  140.9860  133.7030  156.1766 H   0  0  0  0  0  0  0  0  0  0  0  0  # atno 11005 bound_to 11000
  145.5448  141.0418  143.2311 LP  0  0  0  0  0  0  0  0  0  0  0  0  # atno 17320 bound_to 7965
  144.7605  139.6968  143.7236 LP  0  0  0  0  0  0  0  0  0  0  0  0  # atno 17321 bound_to 7965
  139.7408  143.8927  152.3049 LP  0  0  0  0  0  0  0  0  0  0  0  0  # atno 17342 bound_to 10162
  139.8748  144.7049  150.8946 LP  0  0  0  0  0  0  0  0  0  0  0  0  # atno 17343 bound_to 10162
  157.2007  130.6393  149.5737 LP  0  0  0  0  0  0  0  0  0  0  0  0  # atno 17370 bound_to 10713
  155.9744  130.4692  150.6386 LP  0  0  0  0  0  0  0  0  0  0  0  0  # atno 17371 bound_to 10713
  140.7113  134.4458  157.5581 LP  0  0  0  0  0  0  0  0  0  0  0  0  # atno 17394 bound_to 11000
  139.8971  134.8645  156.2060 LP  0  0  0  0  0  0  0  0  0  0  0  0  # atno 17395 bound_to 11000

$$$$
