AV-unprocessed.smi:2409|AV-procd|sdf|9525|dock4
  -GOLD-   2272013153D 1   1.00000     0.00000
 Structure written by MMmdl.
 35 36  0  0  0  0  0  0  0  0  1 V2000
  148.7924  138.1063  155.2078 C   0  0  0  0  0  0  0  0  0  0  0  0
  149.3557  139.2278  154.5493 O   0  0  0  0  0  0  0  0  0  0  0  0
  148.4380  140.1333  154.1480 C   0  0  0  0  0  0  0  0  0  0  0  0
  148.2603  141.4535  154.4563 C   0  0  0  0  0  0  0  0  0  0  0  0
  149.0030  142.2966  155.3210 N   0  0  0  0  0  0  0  0  0  0  0  0
  150.0788  141.9719  156.0615 C   0  0  0  0  0  0  0  0  0  0  0  0
  150.6152  140.8661  156.0574 O   0  0  0  0  0  0  0  0  0  0  0  0
  150.5813  142.9887  156.7841 N   0  0  0  0  0  0  0  0  0  0  0  0
  151.7110  142.9642  157.6637 C   0  0  1  0  0  0  0  0  0  0  0  0
  152.2849  144.3050  158.0649 C   0  0  0  0  0  0  0  0  0  0  0  0
  151.5335  143.4810  159.0765 C   0  0  2  0  0  0  0  0  0  0  0  0
  152.2723  142.8431  160.2326 C   0  0  0  0  0  0  0  0  0  0  0  0
  147.0836  141.8406  153.7577 C   0  0  0  0  0  0  0  0  0  0  0  0
  146.3839  143.1694  153.7368 C   0  0  0  0  0  0  0  0  0  0  0  0
  146.6033  140.8356  153.0341 N   0  0  0  0  0  0  0  0  0  0  0  0
  147.4351  139.7908  153.2651 N   0  0  0  0  0  0  0  0  0  0  0  0
  147.1764  138.5174  152.6253 C   0  0  0  0  0  0  0  0  0  0  0  0
  149.5851  137.4164  155.4966 H   0  0  0  0  0  0  0  0  0  0  0  0
  148.1041  137.5727  154.5508 H   0  0  0  0  0  0  0  0  0  0  0  0
  148.2558  138.3977  156.1114 H   0  0  0  0  0  0  0  0  0  0  0  0
  148.7335  143.2693  155.3245 H   0  0  0  0  0  0  0  0  0  0  0  0
  150.1596  143.8946  156.6379 H   0  0  0  0  0  0  0  0  0  0  0  0
  152.4511  142.1794  157.5139 H   0  0  0  0  0  0  0  0  0  0  0  0
  153.3661  144.3740  158.1683 H   0  0  0  0  0  0  0  0  0  0  0  0
  151.7973  145.2031  157.6898 H   0  0  0  0  0  0  0  0  0  0  0  0
  150.5386  143.8374  159.3379 H   0  0  0  0  0  0  0  0  0  0  0  0
  153.2641  142.5108  159.9240 H   0  0  0  0  0  0  0  0  0  0  0  0
  151.7165  141.9804  160.6003 H   0  0  0  0  0  0  0  0  0  0  0  0
  152.3831  143.5593  161.0468 H   0  0  0  0  0  0  0  0  0  0  0  0
  146.8934  143.8998  154.3656 H   0  0  0  0  0  0  0  0  0  0  0  0
  145.3600  143.0782  154.0999 H   0  0  0  0  0  0  0  0  0  0  0  0
  146.3447  143.5750  152.7259 H   0  0  0  0  0  0  0  0  0  0  0  0
  148.0814  137.9094  152.6190 H   0  0  0  0  0  0  0  0  0  0  0  0
  146.8530  138.6753  151.5958 H   0  0  0  0  0  0  0  0  0  0  0  0
  146.3949  137.9869  153.1694 H   0  0  0  0  0  0  0  0  0  0  0  0
  1  2  1  0  0  0  0
  1 18  1  0  0  0  0
  1 19  1  0  0  0  0
  1 20  1  0  0  0  0
  2  3  1  0  0  0  0
  3 16  1  0  0  0  0
  3  4  2  0  0  0  0
  4  5  1  0  0  0  0
  4 13  1  0  0  0  0
  5  6  1  0  0  0  0
  5 21  1  0  0  0  0
  6  7  2  0  0  0  0
  6  8  1  0  0  0  0
  8  9  1  0  0  0  0
  8 22  1  0  0  0  0
  9 11  1  0  0  0  0
  9 10  1  0  0  0  0
  9 23  1  0  0  0  0
 10 11  1  0  0  0  0
 10 24  1  0  0  0  0
 10 25  1  0  0  0  0
 11 12  1  0  0  0  0
 11 26  1  0  0  0  0
 12 27  1  0  0  0  0
 12 28  1  0  0  0  0
 12 29  1  0  0  0  0
 13 14  1  0  0  0  0
 13 15  2  0  0  0  0
 14 30  1  0  0  0  0
 14 31  1  0  0  0  0
 14 32  1  0  0  0  0
 15 16  1  0  0  0  0
 16 17  1  0  0  0  0
 17 33  1  0  0  0  0
 17 34  1  0  0  0  0
 17 35  1  0  0  0  0
M  END
> <s_m_source_file>
AV-unprocessed.smi

> <i_m_source_file_index>
2409

> <i_lp_mmshare_version>
43012

> <i_f3d_flags>
0

> <s_epik_input>
W0NIM11uMW5jKFtDSDNdKWMoYzFPW0NIM10pW05IXUMoPU8pW05IXVtDQEBIXTJbQ0gyXVtDQEhdMltDSDNd

> <s_epik_cmdline>
J2VwaWtfcHl0aG9uJywgJy1waCcsICc3LjAnLCAnLXRuJywgJzgnLCAnLW1hJywgJzIwMCcsICctbWV0YWxfYmluZGluZycsICctaW1hZScsICc8aW5maWxlLm1hZT4nLCAnLW9tYWUnLCAnPG91dGZpbGUubWFlPic=

> <r_lp_tautomer_probability>
1

> <r_epik_Ionization_Penalty>
0.000417804

> <r_epik_Ionization_Penalty_Charging>
0

> <r_epik_Ionization_Penalty_Neutral>
0.000417804

> <r_epik_State_Penalty>
-0

> <r_epik_Charging_Adjusted_Penalty>
0

> <i_epik_Tot_Q>
0

> <i_epik_Tot_abs_Q>
0

> <r_epik_Metal_State_Penalty>
-0

> <b_epik_Metal_Only>
0

> <s_lp_Force_Field>
OPLS_2005

> <r_lp_Energy>
34.5155

> <b_lp_Chiralities_Consistent>
1

> <s_lp_Variant>
AV-unprocessed.smi:2409-4

> <Gold.Version>
5.8.1

> <Gold.Id.Protein>
6NUR|6NUR_protein|mol2

> <Gold.PLP.Fitness>
37.3390

> <Gold.PLP.PLP>
-32.0964

> <Gold.PLP.part.hbond>
-1.7732

> <Gold.PLP.part.metal>
0.0000

> <Gold.PLP.part.buried>
-1.2306

> <Gold.PLP.part.nonpolar>
-31.0163

> <Gold.PLP.part.repulsive>
2.0138

> <Gold.PLP.ligand.clash>
0.0000

> <Gold.PLP.ligand.torsion>
0.1311

> <Gold.PLP.Chemscore.Hbond>
1.8230

> <Gold.PLP.Chemscore.CHOScore>
0.0000

> <Gold.PLP.Chemscore.Metal>
0.0000

> <Gold.Chemscore.Hbonds>
donor molecule, donor type, donor heavy atom, donor atom, acceptor molecule, acceptor atom, score
      L1  H     5    21       P1  8028  0.88
      L1  H     8    22       P1  8028  0.86

> <Gold.PLP.Chemscore.Internal.Correction>
0.0359

> <Gold.Rescore>
     Score         DG    S(hbond)    S(metal)    S(lipo)     H(rot)  DE(clash)    DE(int)     intcor
     12.92     -17.56       1.85        0.00      77.42       1.23       1.63       3.01       ----

> <Gold.Chemscore.Fitness>
12.9246

> <Gold.Chemscore.DG>
-17.5628

> <Gold.Chemscore.ZeroCoef>
-5.4800

> <Gold.Chemscore.Hbond>
1.8475

> <Gold.Chemscore.Metal>
0.0000

> <Gold.Chemscore.Lipo>
77.4247

> <Gold.Chemscore.Internal_Hbond>
0.0000

> <Gold.Chemscore.DEClash>
1.6280

> <Gold.Chemscore.DEInternal>
3.0101

> <Gold.Chemscore.Rot>
1.2292

> <Gold.Chemscore.Internal.Correction>
   9.000000E+99

> <Gold.Chemscore.Hbonds>
donor molecule, donor type, donor heavy atom, donor atom, acceptor molecule, acceptor atom, score
      L1  H     5    21       P1  8028  0.85
      L1  H     8    22       P1  8028  0.85

> <Gold.Chemscore.Hbond.Weighted>
-6.1708

> <Gold.Chemscore.Metal.Weighted>
-0.0000

> <Gold.Chemscore.Lipo.Weighted>
-9.0587

> <Gold.Chemscore.Internal_Hbond.Weighted>
0.0000

> <Gold.Chemscore.DEClash.Weighted>
1.6280

> <Gold.Chemscore.DEInternal.Weighted>
3.0101

> <Gold.Chemscore.Rot.Weighted>
3.1467

> <Gold.Chemscore.Internal.Correction.Weighted>
   9.000000E+99

> <Gold.Protein.RotatedTorsions>
[ 6907 6896 6895 6894 ] final  -98.45 input  -60.11 | X-H torsion
[ 7974 7965 7964 7962 ] final   -7.45 input  175.53 | X-H torsion
[ 8008 7997 7996 7995 ] final  144.13 input   59.86 | X-H torsion
[ 10167 10162 10161 10158 ] final  -35.29 input  -65.29 | X-H torsion
[ 10718 10713 10712 10709 ] final  -41.21 input   66.30 | X-H torsion
[ 10763 10752 10751 10750 ] final -107.53 input  -60.55 | X-H torsion
[ 11005 11000 10999 10996 ] final -101.09 input  -57.11 | X-H torsion

> <Gold.Protein.ActiveResidues>
 VAL166  LYS551  ARG553  GLY616  TRP617  ASP618  TYR619  PRO620  LYS621  CYS622 
 ASP623  PHE694  ASN695  SER759  ASP760  ASP761  ALA762  ILE779  LEU786  VAL792 
 PHE793  MET794  SER795  GLU796  ALA797  LYS798  CYS799  TRP800  GLU811  SER814 

> <Gold.Protein.RotatedAtoms>
  150.7047  134.1193  159.4028 H   0  0  0  0  0  0  0  0  0  0  0  0  # atno 6907 bound_to 6896
  151.9179  135.0308  160.0529 H   0  0  0  0  0  0  0  0  0  0  0  0  # atno 6908 bound_to 6896
  152.2280  133.5001  159.5237 H   0  0  0  0  0  0  0  0  0  0  0  0  # atno 6909 bound_to 6896
  146.2306  140.2321  142.8340 H   0  0  0  0  0  0  0  0  0  0  0  0  # atno 7974 bound_to 7965
  156.2915  140.2244  156.5003 H   0  0  0  0  0  0  0  0  0  0  0  0  # atno 8008 bound_to 7997
  154.7695  140.0467  157.1061 H   0  0  0  0  0  0  0  0  0  0  0  0  # atno 8009 bound_to 7997
  154.9891  140.3088  155.4917 H   0  0  0  0  0  0  0  0  0  0  0  0  # atno 8010 bound_to 7997
  140.7168  143.3488  151.2200 H   0  0  0  0  0  0  0  0  0  0  0  0  # atno 10167 bound_to 10162
  156.2729  130.4208  149.8419 H   0  0  0  0  0  0  0  0  0  0  0  0  # atno 10718 bound_to 10713
  154.8081  135.4671  154.0444 H   0  0  0  0  0  0  0  0  0  0  0  0  # atno 10763 bound_to 10752
  153.1897  135.6853  153.8376 H   0  0  0  0  0  0  0  0  0  0  0  0  # atno 10764 bound_to 10752
  153.7898  135.3245  155.3354 H   0  0  0  0  0  0  0  0  0  0  0  0  # atno 10765 bound_to 10752
  141.1245  133.8450  157.1187 H   0  0  0  0  0  0  0  0  0  0  0  0  # atno 11005 bound_to 11000
  144.9550  140.8217  143.5549 LP  0  0  0  0  0  0  0  0  0  0  0  0  # atno 17320 bound_to 7965
  145.2285  139.2125  143.5055 LP  0  0  0  0  0  0  0  0  0  0  0  0  # atno 17321 bound_to 7965
  139.7013  143.9528  152.2907 LP  0  0  0  0  0  0  0  0  0  0  0  0  # atno 17342 bound_to 10162
  139.9222  144.6793  150.8450 LP  0  0  0  0  0  0  0  0  0  0  0  0  # atno 17343 bound_to 10162
  156.5894  130.8500  151.3404 LP  0  0  0  0  0  0  0  0  0  0  0  0  # atno 17370 bound_to 10713
  157.7289  130.9664  150.1765 LP  0  0  0  0  0  0  0  0  0  0  0  0  # atno 17371 bound_to 10713
  140.0230  134.9937  157.0630 LP  0  0  0  0  0  0  0  0  0  0  0  0  # atno 17394 bound_to 11000
  140.4408  134.1683  155.7174 LP  0  0  0  0  0  0  0  0  0  0  0  0  # atno 17395 bound_to 11000

$$$$
