AV-unprocessed.smi:808|AV-procd|sdf|3804|dock4
  -GOLD-   22720 1243D 1   1.00000     0.00000
 Structure written by MMmdl.
 34 35  0  0  0  0  0  0  0  0  2 V2000
  152.6953  140.1288  157.6807 O   0  0  0  0  0  0  0  0  0  0  0  0
  151.5627  140.5237  157.4044 C   0  0  0  0  0  0  0  0  0  0  0  0
  150.5877  139.5956  156.6735 C   0  0  0  0  0  0  0  0  0  0  0  0
  150.2358  138.4378  157.4783 N   0  0  0  0  0  0  0  0  0  0  0  0
  149.4197  138.3917  158.5931 C   0  0  0  0  0  0  0  0  0  0  0  0
  149.4282  137.0892  158.9911 C   0  0  0  0  0  0  0  0  0  0  0  0
  148.7052  136.5106  160.1657 C   0  0  0  0  0  0  0  0  0  0  0  0
  148.7922  135.2802  160.3710 O   0  0  0  0  0  0  0  0  0  0  0  0
  148.0439  137.2814  160.8961 O   0  5  0  0  0  0  0  0  0  0  0  0
  150.2595  136.3911  158.0774 C   0  0  0  0  0  0  0  0  0  0  0  0
  150.7455  137.2182  157.1618 N   0  0  0  0  0  0  0  0  0  0  0  0
  151.1184  141.7564  157.6985 N   0  0  0  0  0  0  0  0  0  0  0  0
  151.8698  142.7821  158.4133 C   0  0  0  0  0  0  0  0  0  0  0  0
  152.0963  142.3290  159.8681 C   0  0  0  0  0  0  0  0  0  0  0  0
  152.8310  143.4042  160.6847 C   0  0  0  0  0  0  0  0  0  0  0  0
  152.0840  144.7464  160.6381 C   0  0  0  0  0  0  0  0  0  0  0  0
  151.8599  145.2059  159.1888 C   0  0  0  0  0  0  0  0  0  0  0  0
  151.1259  144.1327  158.3686 C   0  0  0  0  0  0  0  0  0  0  0  0
  149.6784  140.1451  156.4276 H   0  0  0  0  0  0  0  0  0  0  0  0
  151.0232  139.2571  155.7321 H   0  0  0  0  0  0  0  0  0  0  0  0
  148.9266  139.2638  158.9966 H   0  0  0  0  0  0  0  0  0  0  0  0
  150.5224  135.3438  158.0486 H   0  0  0  0  0  0  0  0  0  0  0  0
  150.1738  141.9918  157.4298 H   0  0  0  0  0  0  0  0  0  0  0  0
  152.8470  142.9012  157.9410 H   0  0  0  0  0  0  0  0  0  0  0  0
  151.1379  142.1094  160.3411 H   0  0  0  0  0  0  0  0  0  0  0  0
  152.6682  141.4003  159.8857 H   0  0  0  0  0  0  0  0  0  0  0  0
  152.9405  143.0749  161.7184 H   0  0  0  0  0  0  0  0  0  0  0  0
  153.8408  143.5340  160.2932 H   0  0  0  0  0  0  0  0  0  0  0  0
  151.1226  144.6478  161.1437 H   0  0  0  0  0  0  0  0  0  0  0  0
  152.6456  145.5037  161.1858 H   0  0  0  0  0  0  0  0  0  0  0  0
  151.2907  146.1357  159.1769 H   0  0  0  0  0  0  0  0  0  0  0  0
  152.8212  145.4261  158.7230 H   0  0  0  0  0  0  0  0  0  0  0  0
  151.0201  144.4714  157.3374 H   0  0  0  0  0  0  0  0  0  0  0  0
  150.1143  144.0101  158.7584 H   0  0  0  0  0  0  0  0  0  0  0  0
  1  2  2  0  0  0  0
  2  3  1  0  0  0  0
  2 12  1  0  0  0  0
  3  4  1  0  0  0  0
  3 19  1  0  0  0  0
  3 20  1  0  0  0  0
  4 11  1  0  0  0  0
  4  5  1  0  0  0  0
  5  6  2  0  0  0  0
  5 21  1  0  0  0  0
  6  7  1  0  0  0  0
  6 10  1  0  0  0  0
  7  8  2  0  0  0  0
  7  9  1  0  0  0  0
 10 11  2  0  0  0  0
 10 22  1  0  0  0  0
 12 13  1  0  0  0  0
 12 23  1  0  0  0  0
 13 18  1  0  0  0  0
 13 14  1  0  0  0  0
 13 24  1  0  0  0  0
 14 15  1  0  0  0  0
 14 25  1  0  0  0  0
 14 26  1  0  0  0  0
 15 16  1  0  0  0  0
 15 27  1  0  0  0  0
 15 28  1  0  0  0  0
 16 17  1  0  0  0  0
 16 29  1  0  0  0  0
 16 30  1  0  0  0  0
 17 18  1  0  0  0  0
 17 31  1  0  0  0  0
 17 32  1  0  0  0  0
 18 33  1  0  0  0  0
 18 34  1  0  0  0  0
M  CHG  1   9  -1
M  END
> <s_m_source_file>
AV-unprocessed.smi

> <i_m_source_file_index>
808

> <i_lp_mmshare_version>
43012

> <i_f3d_flags>
0

> <s_epik_input>
Tz1DKFtPSF0pYyhbY0hdbjEpW2NIXW4xW0NIMl1DKD1PKVtOSF1bQ0hdMltDSDJdW0NIMl1bQ0gyXVtDSDJdW0NIMl0y

> <s_epik_cmdline>
J2VwaWtfcHl0aG9uJywgJy1waCcsICc3LjAnLCAnLXRuJywgJzgnLCAnLW1hJywgJzIwMCcsICctbWV0YWxfYmluZGluZycsICctaW1hZScsICc8aW5maWxlLm1hZT4nLCAnLW9tYWUnLCAnPG91dGZpbGUubWFlPic=

> <r_epik_Ionization_Penalty>
0.00097052

> <r_epik_Ionization_Penalty_Charging>
0.000938868

> <r_epik_Ionization_Penalty_Neutral>
3.16514e-05

> <r_epik_State_Penalty>
0.000609423

> <r_epik_Charging_Adjusted_Penalty>
0.00154829

> <i_epik_Tot_Q>
-1

> <i_epik_Tot_abs_Q>
1

> <r_epik_Metal_State_Penalty>
-0

> <b_epik_Metal_Only>
0

> <s_lp_Force_Field>
OPLS_2005

> <r_lp_Energy>
12.0504

> <b_lp_Chiralities_Consistent>
1

> <s_lp_Variant>
AV-unprocessed.smi:808-1

> <Gold.Version>
5.8.1

> <Gold.Id.Protein>
6NUR|6NUR_protein|mol2

> <Gold.PLP.Fitness>
48.9697

> <Gold.PLP.PLP>
-31.8518

> <Gold.PLP.part.hbond>
-4.0000

> <Gold.PLP.part.metal>
0.0000

> <Gold.PLP.part.buried>
-3.1616

> <Gold.PLP.part.nonpolar>
-24.8589

> <Gold.PLP.part.repulsive>
0.0476

> <Gold.PLP.ligand.clash>
0.0000

> <Gold.PLP.ligand.torsion>
0.2276

> <Gold.PLP.Chemscore.Hbond>
5.8493

> <Gold.PLP.Chemscore.CHOScore>
0.0000

> <Gold.PLP.Chemscore.Metal>
0.0000

> <Gold.Chemscore.Hbonds>
donor molecule, donor type, donor heavy atom, donor atom, acceptor molecule, acceptor atom, score
      P1  H  6896  6909       L1     8  1.12
      P1  H  6931  6943       L1     9  1.73
      P1  H  6934  6947       L1     9  1.41
      P1  H  7997  8009       L1     1  0.90

> <Gold.PLP.Chemscore.Internal.Correction>
0.0252

> <Gold.Rescore>
     Score         DG    S(hbond)    S(metal)    S(lipo)     H(rot)  DE(clash)    DE(int)     intcor
     19.74     -19.95       2.68        0.00      82.00       1.59       0.02       0.19       ----

> <Gold.Chemscore.Fitness>
19.7391

> <Gold.Chemscore.DG>
-19.9516

> <Gold.Chemscore.ZeroCoef>
-5.4800

> <Gold.Chemscore.Hbond>
2.6793

> <Gold.Chemscore.Metal>
0.0000

> <Gold.Chemscore.Lipo>
82.0013

> <Gold.Chemscore.Internal_Hbond>
0.0000

> <Gold.Chemscore.DEClash>
0.0179

> <Gold.Chemscore.DEInternal>
0.1945

> <Gold.Chemscore.Rot>
1.5904

> <Gold.Chemscore.Internal.Correction>
   9.000000E+99

> <Gold.Chemscore.Hbonds>
donor molecule, donor type, donor heavy atom, donor atom, acceptor molecule, acceptor atom, score
      P1  H  6896  6909       L1     8  0.30
      P1  H  6931  6943       L1     9  0.72
      P1  H  6934  6947       L1     9  0.70
      P1  H  7997  8009       L1     1  0.85

> <Gold.Chemscore.Hbond.Weighted>
-8.9488

> <Gold.Chemscore.Metal.Weighted>
-0.0000

> <Gold.Chemscore.Lipo.Weighted>
-9.5941

> <Gold.Chemscore.Internal_Hbond.Weighted>
0.0000

> <Gold.Chemscore.DEClash.Weighted>
0.0179

> <Gold.Chemscore.DEInternal.Weighted>
0.1945

> <Gold.Chemscore.Rot.Weighted>
4.0714

> <Gold.Chemscore.Internal.Correction.Weighted>
   9.000000E+99

> <Gold.Protein.RotatedTorsions>
[ 6907 6896 6895 6894 ] final   58.71 input  -60.11 | X-H torsion
[ 7974 7965 7964 7962 ] final -170.26 input  175.53 | X-H torsion
[ 8008 7997 7996 7995 ] final -174.08 input   59.86 | X-H torsion
[ 10167 10162 10161 10158 ] final   -5.82 input  -65.29 | X-H torsion
[ 10718 10713 10712 10709 ] final   37.86 input   66.30 | X-H torsion
[ 10763 10752 10751 10750 ] final   65.38 input  -60.55 | X-H torsion
[ 11005 11000 10999 10996 ] final -111.05 input  -57.11 | X-H torsion

> <Gold.Protein.ActiveResidues>
 VAL166  LYS551  ARG553  GLY616  TRP617  ASP618  TYR619  PRO620  LYS621  CYS622 
 ASP623  PHE694  ASN695  SER759  ASP760  ASP761  ALA762  ILE779  LEU786  VAL792 
 PHE793  MET794  SER795  GLU796  ALA797  LYS798  CYS799  TRP800  GLU811  SER814 

> <Gold.Protein.RotatedAtoms>
  152.3849  134.6532  160.0128 H   0  0  0  0  0  0  0  0  0  0  0  0  # atno 6907 bound_to 6896
  151.6784  133.3307  159.3221 H   0  0  0  0  0  0  0  0  0  0  0  0  # atno 6908 bound_to 6896
  150.7778  134.6738  159.6451 H   0  0  0  0  0  0  0  0  0  0  0  0  # atno 6909 bound_to 6896
  144.7173  140.2099  143.6328 H   0  0  0  0  0  0  0  0  0  0  0  0  # atno 7974 bound_to 7965
  155.9656  140.1153  157.0857 H   0  0  0  0  0  0  0  0  0  0  0  0  # atno 8008 bound_to 7997
  154.4143  140.1173  156.5304 H   0  0  0  0  0  0  0  0  0  0  0  0  # atno 8009 bound_to 7997
  155.6664  140.3473  155.4804 H   0  0  0  0  0  0  0  0  0  0  0  0  # atno 8010 bound_to 7997
  140.6976  143.6264  150.8564 H   0  0  0  0  0  0  0  0  0  0  0  0  # atno 10167 bound_to 10162
  157.3520  130.7603  149.6985 H   0  0  0  0  0  0  0  0  0  0  0  0  # atno 10718 bound_to 10713
  153.0094  135.5359  154.6659 H   0  0  0  0  0  0  0  0  0  0  0  0  # atno 10763 bound_to 10752
  154.5856  135.2854  155.0691 H   0  0  0  0  0  0  0  0  0  0  0  0  # atno 10764 bound_to 10752
  154.1803  135.6517  153.5085 H   0  0  0  0  0  0  0  0  0  0  0  0  # atno 10765 bound_to 10752
  141.0757  133.9306  157.2395 H   0  0  0  0  0  0  0  0  0  0  0  0  # atno 11005 bound_to 11000
  145.8601  139.2218  143.1722 LP  0  0  0  0  0  0  0  0  0  0  0  0  # atno 17320 bound_to 7965
  146.0182  140.8373  142.9937 LP  0  0  0  0  0  0  0  0  0  0  0  0  # atno 17321 bound_to 7965
  139.9983  143.5771  152.2885 LP  0  0  0  0  0  0  0  0  0  0  0  0  # atno 17342 bound_to 10162
  139.6452  144.7657  151.2259 LP  0  0  0  0  0  0  0  0  0  0  0  0  # atno 17343 bound_to 10162
  155.9723  130.4138  150.4099 LP  0  0  0  0  0  0  0  0  0  0  0  0  # atno 17370 bound_to 10713
  157.2164  131.0472  151.2571 LP  0  0  0  0  0  0  0  0  0  0  0  0  # atno 17371 bound_to 10713
  139.9569  135.0163  156.9153 LP  0  0  0  0  0  0  0  0  0  0  0  0  # atno 17394 bound_to 11000
  140.5579  134.0563  155.7389 LP  0  0  0  0  0  0  0  0  0  0  0  0  # atno 17395 bound_to 11000

$$$$
