AV-unprocessed.smi:2610|AV-procd|sdf|10209|dock4
  -GOLD-   2272014213D 1   1.00000     0.00000
 Structure written by MMmdl.
 46 48  0  0  0  0  0  0  0  0  2 V2000
  146.9609  142.2924  154.1358 C   0  0  0  0  0  0  0  0  0  0  0  0
  148.0905  141.2961  153.8513 C   0  0  0  0  0  0  0  0  0  0  0  0
  149.2997  141.4947  154.7764 C   0  0  0  0  0  0  0  0  0  0  0  0
  148.9856  141.1329  156.2366 C   0  0  0  0  0  0  0  0  0  0  0  0
  149.8999  141.8252  157.2002 C   0  0  0  0  0  0  0  0  0  0  0  0
  150.1293  143.1683  157.2435 N   0  3  0  0  0  0  0  0  0  0  0  0
  151.0333  143.4644  158.2620 C   0  0  0  0  0  0  0  0  0  0  0  0
  151.5549  144.6823  158.6872 C   0  0  0  0  0  0  0  0  0  0  0  0
  152.4605  144.6402  159.7669 C   0  0  0  0  0  0  0  0  0  0  0  0
  152.8138  143.4213  160.3801 C   0  0  0  0  0  0  0  0  0  0  0  0
  152.2786  142.1932  159.9389 C   0  0  0  0  0  0  0  0  0  0  0  0
  151.3852  142.2409  158.8675 C   0  0  0  0  0  0  0  0  0  0  0  0
  150.6781  141.2524  158.1678 N   0  0  0  0  0  0  0  0  0  0  0  0
  150.8395  139.8351  158.5505 C   0  0  0  0  0  0  0  0  0  0  0  0
  151.8852  139.0563  157.7098 C   0  0  0  0  0  0  0  0  0  0  0  0
  153.1597  139.6150  157.9742 O   0  0  0  0  0  0  0  0  0  0  0  0
  151.9396  137.5522  158.0544 C   0  0  0  0  0  0  0  0  0  0  0  0
  152.8341  136.7658  157.0795 C   0  0  0  0  0  0  0  0  0  0  0  0
  152.3978  136.9755  155.7421 O   0  0  0  0  0  0  0  0  0  0  0  0
  152.5025  138.3344  155.3354 C   0  0  0  0  0  0  0  0  0  0  0  0
  151.5894  139.2173  156.2051 C   0  0  0  0  0  0  0  0  0  0  0  0
  146.1202  142.1295  153.4609 H   0  0  0  0  0  0  0  0  0  0  0  0
  147.2991  143.3204  154.0028 H   0  0  0  0  0  0  0  0  0  0  0  0
  146.5923  142.1889  155.1567 H   0  0  0  0  0  0  0  0  0  0  0  0
  147.7090  140.2800  153.9600 H   0  0  0  0  0  0  0  0  0  0  0  0
  148.4046  141.3977  152.8117 H   0  0  0  0  0  0  0  0  0  0  0  0
  150.1307  140.8870  154.4158 H   0  0  0  0  0  0  0  0  0  0  0  0
  149.6284  142.5337  154.7232 H   0  0  0  0  0  0  0  0  0  0  0  0
  147.9511  141.3929  156.4584 H   0  0  0  0  0  0  0  0  0  0  0  0
  149.0755  140.0565  156.3859 H   0  0  0  0  0  0  0  0  0  0  0  0
  151.2836  145.6172  158.2195 H   0  0  0  0  0  0  0  0  0  0  0  0
  152.8917  145.5609  160.1326 H   0  0  0  0  0  0  0  0  0  0  0  0
  153.5101  143.4276  161.2061 H   0  0  0  0  0  0  0  0  0  0  0  0
  152.5608  141.2689  160.4196 H   0  0  0  0  0  0  0  0  0  0  0  0
  151.0861  139.7837  159.6107 H   0  0  0  0  0  0  0  0  0  0  0  0
  149.8607  139.3619  158.4640 H   0  0  0  0  0  0  0  0  0  0  0  0
  153.0434  140.3938  158.4971 H   0  0  0  0  0  0  0  0  0  0  0  0
  152.2861  137.3984  159.0768 H   0  0  0  0  0  0  0  0  0  0  0  0
  150.9339  137.1348  158.0020 H   0  0  0  0  0  0  0  0  0  0  0  0
  153.8811  137.0549  157.1832 H   0  0  0  0  0  0  0  0  0  0  0  0
  152.7791  135.7001  157.3019 H   0  0  0  0  0  0  0  0  0  0  0  0
  153.5410  138.6644  155.3926 H   0  0  0  0  0  0  0  0  0  0  0  0
  152.2060  138.4104  154.2892 H   0  0  0  0  0  0  0  0  0  0  0  0
  150.5535  138.9376  156.0096 H   0  0  0  0  0  0  0  0  0  0  0  0
  151.6843  140.2619  155.9054 H   0  0  0  0  0  0  0  0  0  0  0  0
  149.6892  143.8340  156.6215 H   0  0  0  0  0  0  0  0  0  0  0  0
  1  2  1  0  0  0  0
  1 22  1  0  0  0  0
  1 23  1  0  0  0  0
  1 24  1  0  0  0  0
  2  3  1  0  0  0  0
  2 25  1  0  0  0  0
  2 26  1  0  0  0  0
  3  4  1  0  0  0  0
  3 27  1  0  0  0  0
  3 28  1  0  0  0  0
  4  5  1  0  0  0  0
  4 29  1  0  0  0  0
  4 30  1  0  0  0  0
  5 13  1  0  0  0  0
  5  6  2  0  0  0  0
  6  7  1  0  0  0  0
  6 46  1  0  0  0  0
  7 12  2  0  0  0  0
  7  8  1  0  0  0  0
  8  9  2  0  0  0  0
  8 31  1  0  0  0  0
  9 10  1  0  0  0  0
  9 32  1  0  0  0  0
 10 11  2  0  0  0  0
 10 33  1  0  0  0  0
 11 12  1  0  0  0  0
 11 34  1  0  0  0  0
 12 13  1  0  0  0  0
 13 14  1  0  0  0  0
 14 15  1  0  0  0  0
 14 35  1  0  0  0  0
 14 36  1  0  0  0  0
 15 21  1  0  0  0  0
 15 16  1  0  0  0  0
 15 17  1  0  0  0  0
 16 37  1  0  0  0  0
 17 18  1  0  0  0  0
 17 38  1  0  0  0  0
 17 39  1  0  0  0  0
 18 19  1  0  0  0  0
 18 40  1  0  0  0  0
 18 41  1  0  0  0  0
 19 20  1  0  0  0  0
 20 21  1  0  0  0  0
 20 42  1  0  0  0  0
 20 43  1  0  0  0  0
 21 44  1  0  0  0  0
 21 45  1  0  0  0  0
M  CHG  1   6   1
M  END
> <s_m_source_file>
AV-unprocessed.smi

> <i_m_source_file_index>
2610

> <i_lp_mmshare_version>
43012

> <i_f3d_flags>
0

> <s_epik_input>
W0NIM11bQ0gyXVtDSDJdW0NIMl1jKG4xKW4oYyhjMTIpW2NIXVtjSF1bY0hdW2NIXTIpW0NIMl1DMyhbT0hdKVtDSDJdW0NIMl1PW0NIMl1bQ0gyXTM=

> <s_epik_cmdline>
J2VwaWtfcHl0aG9uJywgJy1waCcsICc3LjAnLCAnLXRuJywgJzgnLCAnLW1hJywgJzIwMCcsICctbWV0YWxfYmluZGluZycsICctaW1hZScsICc8aW5maWxlLm1hZT4nLCAnLW9tYWUnLCAnPG91dGZpbGUubWFlPic=

> <r_epik_Ionization_Penalty>
0.68424

> <r_epik_Ionization_Penalty_Charging>
0.68424

> <r_epik_Ionization_Penalty_Neutral>
5.75126e-08

> <r_epik_State_Penalty>
0.705545

> <r_epik_Charging_Adjusted_Penalty>
1.38978

> <i_epik_Tot_Q>
1

> <i_epik_Tot_abs_Q>
1

> <r_epik_Metal_State_Penalty>
4.58386

> <b_epik_Metal_Only>
0

> <s_lp_Force_Field>
OPLS_2005

> <r_lp_Energy>
18.9075

> <b_lp_Chiralities_Consistent>
1

> <s_lp_Variant>
AV-unprocessed.smi:2610-2

> <Gold.Version>
5.8.1

> <Gold.Id.Protein>
6NUR|6NUR_protein|mol2

> <Gold.PLP.Fitness>
55.8363

> <Gold.PLP.PLP>
-44.9105

> <Gold.PLP.part.hbond>
-3.0000

> <Gold.PLP.part.metal>
0.0000

> <Gold.PLP.part.buried>
-6.6804

> <Gold.PLP.part.nonpolar>
-36.4635

> <Gold.PLP.part.repulsive>
0.0255

> <Gold.PLP.ligand.clash>
0.0000

> <Gold.PLP.ligand.torsion>
0.5540

> <Gold.PLP.Chemscore.Hbond>
3.8800

> <Gold.PLP.Chemscore.CHOScore>
0.0000

> <Gold.PLP.Chemscore.Metal>
0.0000

> <Gold.Chemscore.Hbonds>
donor molecule, donor type, donor heavy atom, donor atom, acceptor molecule, acceptor atom, score
      L1  H     6    46       P1  8028  1.98
      P1  H  7997  8010       L1    16  1.00
      P1  H 10752 10765       L1    19  0.86

> <Gold.PLP.Chemscore.Internal.Correction>
0.3937

> <Gold.Rescore>
     Score         DG    S(hbond)    S(metal)    S(lipo)     H(rot)  DE(clash)    DE(int)     intcor
     22.53     -23.20       2.54        0.00     122.08       1.97       0.01       0.66       ----

> <Gold.Chemscore.Fitness>
22.5318

> <Gold.Chemscore.DG>
-23.2031

> <Gold.Chemscore.ZeroCoef>
-5.4800

> <Gold.Chemscore.Hbond>
2.5393

> <Gold.Chemscore.Metal>
0.0000

> <Gold.Chemscore.Lipo>
122.0812

> <Gold.Chemscore.Internal_Hbond>
0.0000

> <Gold.Chemscore.DEClash>
0.0103

> <Gold.Chemscore.DEInternal>
0.6609

> <Gold.Chemscore.Rot>
1.9694

> <Gold.Chemscore.Internal.Correction>
   9.000000E+99

> <Gold.Chemscore.Hbonds>
donor molecule, donor type, donor heavy atom, donor atom, acceptor molecule, acceptor atom, score
      L1  H     6    46       P1  8028  0.92
      P1  H  7997  8010       L1    16  0.40
      P1  H 10752 10765       L1    19  0.22

> <Gold.Chemscore.Hbond.Weighted>
-8.4813

> <Gold.Chemscore.Metal.Weighted>
-0.0000

> <Gold.Chemscore.Lipo.Weighted>
-14.2835

> <Gold.Chemscore.Internal_Hbond.Weighted>
0.0000

> <Gold.Chemscore.DEClash.Weighted>
0.0103

> <Gold.Chemscore.DEInternal.Weighted>
0.6609

> <Gold.Chemscore.Rot.Weighted>
5.0417

> <Gold.Chemscore.Internal.Correction.Weighted>
   9.000000E+99

> <Gold.Protein.RotatedTorsions>
[ 6907 6896 6895 6894 ] final   47.20 input  -60.11 | X-H torsion
[ 7974 7965 7964 7962 ] final -152.86 input  175.53 | X-H torsion
[ 8008 7997 7996 7995 ] final   47.49 input   59.86 | X-H torsion
[ 10167 10162 10161 10158 ] final  -87.39 input  -65.29 | X-H torsion
[ 10718 10713 10712 10709 ] final  110.20 input   66.30 | X-H torsion
[ 10763 10752 10751 10750 ] final -156.79 input  -60.55 | X-H torsion
[ 11005 11000 10999 10996 ] final  -40.26 input  -57.11 | X-H torsion

> <Gold.Protein.ActiveResidues>
 VAL166  LYS551  ARG553  GLY616  TRP617  ASP618  TYR619  PRO620  LYS621  CYS622 
 ASP623  PHE694  ASN695  SER759  ASP760  ASP761  ALA762  ILE779  LEU786  VAL792 
 PHE793  MET794  SER795  GLU796  ALA797  LYS798  CYS799  TRP800  GLU811  SER814 

> <Gold.Protein.RotatedAtoms>
  152.2653  134.7991  160.0423 H   0  0  0  0  0  0  0  0  0  0  0  0  # atno 6907 bound_to 6896
  151.8623  133.3454  159.3716 H   0  0  0  0  0  0  0  0  0  0  0  0  # atno 6908 bound_to 6896
  150.7131  134.5122  159.5657 H   0  0  0  0  0  0  0  0  0  0  0  0  # atno 6909 bound_to 6896
  144.7771  140.4605  143.5865 H   0  0  0  0  0  0  0  0  0  0  0  0  # atno 7974 bound_to 7965
  155.3700  140.3423  155.4243 H   0  0  0  0  0  0  0  0  0  0  0  0  # atno 8008 bound_to 7997
  156.1668  140.1618  156.8552 H   0  0  0  0  0  0  0  0  0  0  0  0  # atno 8009 bound_to 7997
  154.5193  140.0771  156.8123 H   0  0  0  0  0  0  0  0  0  0  0  0  # atno 8010 bound_to 7997
  140.3849  143.2731  151.9337 H   0  0  0  0  0  0  0  0  0  0  0  0  # atno 10167 bound_to 10162
  157.6506  131.0928  150.6566 H   0  0  0  0  0  0  0  0  0  0  0  0  # atno 10718 bound_to 10713
  154.7686  135.3138  154.8236 H   0  0  0  0  0  0  0  0  0  0  0  0  # atno 10763 bound_to 10752
  153.8977  135.6819  153.4761 H   0  0  0  0  0  0  0  0  0  0  0  0  # atno 10764 bound_to 10752
  153.1296  135.4786  154.9261 H   0  0  0  0  0  0  0  0  0  0  0  0  # atno 10765 bound_to 10752
  141.0162  133.6884  156.2298 H   0  0  0  0  0  0  0  0  0  0  0  0  # atno 11005 bound_to 11000
  145.6154  139.1518  143.3052 LP  0  0  0  0  0  0  0  0  0  0  0  0  # atno 17320 bound_to 7965
  146.1958  140.6267  142.9125 LP  0  0  0  0  0  0  0  0  0  0  0  0  # atno 17321 bound_to 7965
  139.4793  144.5783  151.7975 LP  0  0  0  0  0  0  0  0  0  0  0  0  # atno 17342 bound_to 10162
  140.4899  144.1325  150.5948 LP  0  0  0  0  0  0  0  0  0  0  0  0  # atno 17343 bound_to 10162
  156.6878  130.4586  149.5608 LP  0  0  0  0  0  0  0  0  0  0  0  0  # atno 17370 bound_to 10713
  156.1883  130.6543  151.1032 LP  0  0  0  0  0  0  0  0  0  0  0  0  # atno 17371 bound_to 10713
  140.6651  134.4927  157.5585 LP  0  0  0  0  0  0  0  0  0  0  0  0  # atno 17394 bound_to 11000
  139.9118  134.8328  156.1501 LP  0  0  0  0  0  0  0  0  0  0  0  0  # atno 17395 bound_to 11000

$$$$
