AV-unprocessed.smi:1240|AV-procd|sdf|5206|dock1
  -GOLD-   22720 4293D 1   1.00000     0.00000
 Structure written by MMmdl.
 48 50  0  0  0  0  0  0  0  0  2 V2000
  144.5038  136.6412  152.5882 O   0  0  0  0  0  0  0  0  0  0  0  0
  145.6834  136.4526  152.2925 C   0  0  0  0  0  0  0  0  0  0  0  0
  146.6714  137.2960  152.6229 N   0  0  0  0  0  0  0  0  0  0  0  0
  146.4970  138.5368  153.3724 C   0  0  0  0  0  0  0  0  0  0  0  0
  147.8476  139.1849  153.7916 C   0  0  1  0  0  0  0  0  0  0  0  0
  147.6599  140.5782  154.4651 C   0  0  1  0  0  0  0  0  0  0  0  0
  146.9699  141.6820  153.6595 C   0  0  0  0  0  0  0  0  0  0  0  0
  146.0354  142.3497  154.6713 C   0  0  0  0  0  0  0  0  0  0  0  0
  146.5330  141.9485  155.9390 O   0  0  0  0  0  0  0  0  0  0  0  0
  146.9273  140.5926  155.8118 C   0  0  0  0  0  0  0  0  0  0  0  0
  148.7813  138.2782  154.4875 N   0  0  0  0  0  0  0  0  0  0  0  0
  150.1537  138.7640  154.6170 C   0  0  0  0  0  0  0  0  0  0  0  0
  151.0710  137.7153  155.2704 C   0  0  0  0  0  0  0  0  0  0  0  0
  150.5345  137.3153  156.5269 O   0  0  0  0  0  0  0  0  0  0  0  0
  149.2217  136.7761  156.4145 C   0  0  0  0  0  0  0  0  0  0  0  0
  148.2910  137.8274  155.7881 C   0  0  0  0  0  0  0  0  0  0  0  0
  146.1566  135.3842  151.6279 N   0  0  0  0  0  0  0  0  0  0  0  0
  145.4356  134.2753  151.1067 C   0  0  0  0  0  0  0  0  0  0  0  0
  144.0350  134.2614  151.2908 C   0  0  0  0  0  0  0  0  0  0  0  0
  143.2797  133.1752  150.8039 C   0  0  0  0  0  0  0  0  0  0  0  0
  143.8993  132.1530  150.1761 N   0  3  0  0  0  0  0  0  0  0  0  0
  145.2360  132.1142  149.9894 C   0  0  0  0  0  0  0  0  0  0  0  0
  146.0436  133.1723  150.4542 C   0  0  0  0  0  0  0  0  0  0  0  0
  147.6137  137.0636  152.3451 H   0  0  0  0  0  0  0  0  0  0  0  0
  145.9203  139.2176  152.7474 H   0  0  0  0  0  0  0  0  0  0  0  0
  145.8720  138.3263  154.2401 H   0  0  0  0  0  0  0  0  0  0  0  0
  148.3482  139.4306  152.8538 H   0  0  0  0  0  0  0  0  0  0  0  0
  148.6596  140.9586  154.6806 H   0  0  0  0  0  0  0  0  0  0  0  0
  147.7122  142.3926  153.2941 H   0  0  0  0  0  0  0  0  0  0  0  0
  146.4178  141.3248  152.7919 H   0  0  0  0  0  0  0  0  0  0  0  0
  146.0162  143.4352  154.5741 H   0  0  0  0  0  0  0  0  0  0  0  0
  145.0158  141.9795  154.5543 H   0  0  0  0  0  0  0  0  0  0  0  0
  146.0335  139.9679  155.8119 H   0  0  0  0  0  0  0  0  0  0  0  0
  147.5640  140.2796  156.6395 H   0  0  0  0  0  0  0  0  0  0  0  0
  150.5656  139.0032  153.6393 H   0  0  0  0  0  0  0  0  0  0  0  0
  150.1752  139.6787  155.2099 H   0  0  0  0  0  0  0  0  0  0  0  0
  151.1805  136.8442  154.6226 H   0  0  0  0  0  0  0  0  0  0  0  0
  152.0686  138.1272  155.4228 H   0  0  0  0  0  0  0  0  0  0  0  0
  149.2423  135.8670  155.8112 H   0  0  0  0  0  0  0  0  0  0  0  0
  148.8651  136.4958  157.4056 H   0  0  0  0  0  0  0  0  0  0  0  0
  148.2107  138.6685  156.4763 H   0  0  0  0  0  0  0  0  0  0  0  0
  147.2900  137.4073  155.6846 H   0  0  0  0  0  0  0  0  0  0  0  0
  147.1603  135.3312  151.5347 H   0  0  0  0  0  0  0  0  0  0  0  0
  143.5387  135.0781  151.7948 H   0  0  0  0  0  0  0  0  0  0  0  0
  142.2067  133.0932  150.8986 H   0  0  0  0  0  0  0  0  0  0  0  0
  145.6186  131.2406  149.4822 H   0  0  0  0  0  0  0  0  0  0  0  0
  147.1114  133.1105  150.3117 H   0  0  0  0  0  0  0  0  0  0  0  0
  143.3347  131.3755  149.8324 H   0  0  0  0  0  0  0  0  0  0  0  0
  1  2  2  0  0  0  0
  2  3  1  0  0  0  0
  2 17  1  0  0  0  0
  3  4  1  0  0  0  0
  3 24  1  0  0  0  0
  4  5  1  0  0  0  0
  4 25  1  0  0  0  0
  4 26  1  0  0  0  0
  5  6  1  0  0  0  0
  5 11  1  0  0  0  0
  5 27  1  0  0  0  0
  6 10  1  0  0  0  0
  6  7  1  0  0  0  0
  6 28  1  0  0  0  0
  7  8  1  0  0  0  0
  7 29  1  0  0  0  0
  7 30  1  0  0  0  0
  8  9  1  0  0  0  0
  8 31  1  0  0  0  0
  8 32  1  0  0  0  0
  9 10  1  0  0  0  0
 10 33  1  0  0  0  0
 10 34  1  0  0  0  0
 11 16  1  0  0  0  0
 11 12  1  0  0  0  0
 12 13  1  0  0  0  0
 12 35  1  0  0  0  0
 12 36  1  0  0  0  0
 13 14  1  0  0  0  0
 13 37  1  0  0  0  0
 13 38  1  0  0  0  0
 14 15  1  0  0  0  0
 15 16  1  0  0  0  0
 15 39  1  0  0  0  0
 15 40  1  0  0  0  0
 16 41  1  0  0  0  0
 16 42  1  0  0  0  0
 17 18  1  0  0  0  0
 17 43  1  0  0  0  0
 18 23  1  0  0  0  0
 18 19  2  0  0  0  0
 19 20  1  0  0  0  0
 19 44  1  0  0  0  0
 20 21  2  0  0  0  0
 20 45  1  0  0  0  0
 21 22  1  0  0  0  0
 21 48  1  0  0  0  0
 22 23  2  0  0  0  0
 22 46  1  0  0  0  0
 23 47  1  0  0  0  0
M  CHG  1  21   1
M  END
> <s_m_source_file>
AV-unprocessed.smi

> <i_m_source_file_index>
1240

> <i_lp_mmshare_version>
43012

> <i_f3d_flags>
0

> <s_epik_input>
W2NIXTFbY0hdbltjSF1bY0hdYzFbTkhdQyg9TylbTkhdW0NIMl1bQ0BIXShbQ0BASF0yW0NIMl1bQ0gyXU9bQ0gyXTIpTjNbQ0gyXVtDSDJdT1tDSDJdW0NIMl0z

> <s_epik_cmdline>
J2VwaWtfcHl0aG9uJywgJy1waCcsICc3LjAnLCAnLXRuJywgJzgnLCAnLW1hJywgJzIwMCcsICctbWV0YWxfYmluZGluZycsICctaW1hZScsICc8aW5maWxlLm1hZT4nLCAnLW9tYWUnLCAnPG91dGZpbGUubWFlPic=

> <r_epik_Ionization_Penalty>
1.15944

> <r_epik_Ionization_Penalty_Charging>
1.0344

> <r_epik_Ionization_Penalty_Neutral>
0.125034

> <r_epik_State_Penalty>
1.2199

> <r_epik_Charging_Adjusted_Penalty>
2.25431

> <i_epik_Tot_Q>
1

> <i_epik_Tot_abs_Q>
1

> <r_epik_Metal_State_Penalty>
1.3155

> <b_epik_Metal_Only>
0

> <s_lp_Force_Field>
OPLS_2005

> <r_lp_Energy>
63.7867

> <b_lp_Chiralities_Consistent>
1

> <s_lp_Variant>
AV-unprocessed.smi:1240-12

> <Gold.Version>
5.8.1

> <Gold.Id.Protein>
6NUR|6NUR_protein|mol2

> <Gold.PLP.Fitness>
39.8626

> <Gold.PLP.PLP>
-34.0929

> <Gold.PLP.part.hbond>
-2.0000

> <Gold.PLP.part.metal>
0.0000

> <Gold.PLP.part.buried>
-6.0818

> <Gold.PLP.part.nonpolar>
-26.7457

> <Gold.PLP.part.repulsive>
0.6560

> <Gold.PLP.ligand.clash>
0.0000

> <Gold.PLP.ligand.torsion>
0.2035

> <Gold.PLP.Chemscore.Hbond>
1.9600

> <Gold.PLP.Chemscore.CHOScore>
0.0000

> <Gold.PLP.Chemscore.Metal>
0.0000

> <Gold.Chemscore.Hbonds>
donor molecule, donor type, donor heavy atom, donor atom, acceptor molecule, acceptor atom, score
      L1  H     3    24       P1  7948  1.00
      L1  H    17    43       P1  7948  0.98

> <Gold.PLP.Chemscore.Internal.Correction>
0.2968

> <Gold.Rescore>
     Score         DG    S(hbond)    S(metal)    S(lipo)     H(rot)  DE(clash)    DE(int)     intcor
     15.92     -17.66       1.88        0.00      87.61       1.69       0.09       1.66       ----

> <Gold.Chemscore.Fitness>
15.9171

> <Gold.Chemscore.DG>
-17.6642

> <Gold.Chemscore.ZeroCoef>
-5.4800

> <Gold.Chemscore.Hbond>
1.8751

> <Gold.Chemscore.Metal>
0.0000

> <Gold.Chemscore.Lipo>
87.6124

> <Gold.Chemscore.Internal_Hbond>
0.0000

> <Gold.Chemscore.DEClash>
0.0911

> <Gold.Chemscore.DEInternal>
1.6559

> <Gold.Chemscore.Rot>
1.6912

> <Gold.Chemscore.Internal.Correction>
   9.000000E+99

> <Gold.Chemscore.Hbonds>
donor molecule, donor type, donor heavy atom, donor atom, acceptor molecule, acceptor atom, score
      L1  H     3    24       P1  7948  0.99
      L1  H    17    43       P1  7948  0.87

> <Gold.Chemscore.Hbond.Weighted>
-6.2630

> <Gold.Chemscore.Metal.Weighted>
-0.0000

> <Gold.Chemscore.Lipo.Weighted>
-10.2507

> <Gold.Chemscore.Internal_Hbond.Weighted>
0.0000

> <Gold.Chemscore.DEClash.Weighted>
0.0911

> <Gold.Chemscore.DEInternal.Weighted>
1.6559

> <Gold.Chemscore.Rot.Weighted>
4.3295

> <Gold.Chemscore.Internal.Correction.Weighted>
   9.000000E+99

> <Gold.Protein.RotatedTorsions>
[ 6907 6896 6895 6894 ] final -125.69 input  -60.11 | X-H torsion
[ 7974 7965 7964 7962 ] final   -2.33 input  175.53 | X-H torsion
[ 8008 7997 7996 7995 ] final   62.54 input   59.86 | X-H torsion
[ 10167 10162 10161 10158 ] final  -18.75 input  -65.29 | X-H torsion
[ 10718 10713 10712 10709 ] final -119.28 input   66.30 | X-H torsion
[ 10763 10752 10751 10750 ] final -151.72 input  -60.55 | X-H torsion
[ 11005 11000 10999 10996 ] final   73.08 input  -57.11 | X-H torsion

> <Gold.Protein.ActiveResidues>
 VAL166  LYS551  ARG553  GLY616  TRP617  ASP618  TYR619  PRO620  LYS621  CYS622 
 ASP623  PHE694  ASN695  SER759  ASP760  ASP761  ALA762  ILE779  LEU786  VAL792 
 PHE793  MET794  SER795  GLU796  ALA797  LYS798  CYS799  TRP800  GLU811  SER814 

> <Gold.Protein.RotatedAtoms>
  150.8893  133.7264  159.2909 H   0  0  0  0  0  0  0  0  0  0  0  0  # atno 6907 bound_to 6896
  151.4820  135.1051  159.9790 H   0  0  0  0  0  0  0  0  0  0  0  0  # atno 6908 bound_to 6896
  152.4810  133.8208  159.7108 H   0  0  0  0  0  0  0  0  0  0  0  0  # atno 6909 bound_to 6896
  146.2406  140.1555  142.8333 H   0  0  0  0  0  0  0  0  0  0  0  0  # atno 7974 bound_to 7965
  155.6159  140.3495  155.4637 H   0  0  0  0  0  0  0  0  0  0  0  0  # atno 8008 bound_to 7997
  156.0117  140.1235  157.0471 H   0  0  0  0  0  0  0  0  0  0  0  0  # atno 8009 bound_to 7997
  154.4283  140.1080  156.5826 H   0  0  0  0  0  0  0  0  0  0  0  0  # atno 8010 bound_to 7997
  140.7262  143.4886  151.0022 H   0  0  0  0  0  0  0  0  0  0  0  0  # atno 10167 bound_to 10162
  156.1169  130.6293  150.9396 H   0  0  0  0  0  0  0  0  0  0  0  0  # atno 10718 bound_to 10713
  154.8040  135.3253  154.7478 H   0  0  0  0  0  0  0  0  0  0  0  0  # atno 10763 bound_to 10752
  153.8140  135.6893  153.4841 H   0  0  0  0  0  0  0  0  0  0  0  0  # atno 10764 bound_to 10752
  153.1774  135.4600  154.9927 H   0  0  0  0  0  0  0  0  0  0  0  0  # atno 10765 bound_to 10752
  139.9458  134.7315  156.0983 H   0  0  0  0  0  0  0  0  0  0  0  0  # atno 11005 bound_to 11000
  145.0132  140.8732  143.5211 LP  0  0  0  0  0  0  0  0  0  0  0  0  # atno 17320 bound_to 7965
  145.1592  139.2468  143.5400 LP  0  0  0  0  0  0  0  0  0  0  0  0  # atno 17321 bound_to 7965
  139.8589  143.7340  152.3174 LP  0  0  0  0  0  0  0  0  0  0  0  0  # atno 17342 bound_to 10162
  139.7549  144.7523  151.0451 LP  0  0  0  0  0  0  0  0  0  0  0  0  # atno 17343 bound_to 10162
  157.6352  131.0917  150.8362 LP  0  0  0  0  0  0  0  0  0  0  0  0  # atno 17370 bound_to 10713
  156.8464  130.5065  149.5316 LP  0  0  0  0  0  0  0  0  0  0  0  0  # atno 17371 bound_to 10713
  141.1108  133.6644  156.2974 LP  0  0  0  0  0  0  0  0  0  0  0  0  # atno 17394 bound_to 11000
  140.5838  134.5719  157.5485 LP  0  0  0  0  0  0  0  0  0  0  0  0  # atno 17395 bound_to 11000

$$$$
