AV-unprocessed.smi:988|AV-procd|sdf|4324|dock2
  -GOLD-   22720 2223D 1   1.00000     0.00000
 Structure written by MMmdl.
 28 28  0  0  0  0  0  0  0  0  1 V2000
  152.1453  145.0250  158.5746 C   0  0  0  0  0  0  0  0  0  0  0  0
  151.7028  144.3242  157.4262 O   0  0  0  0  0  0  0  0  0  0  0  0
  150.8864  143.2095  157.7474 C   0  0  0  0  0  0  0  0  0  0  0  0
  151.0049  142.1474  156.6446 C   0  0  0  0  0  0  0  0  0  0  0  0
  149.7719  142.0587  155.8716 N   0  0  0  0  0  0  0  0  0  0  0  0
  149.5426  141.1879  154.8766 C   0  0  0  0  0  0  0  0  0  0  0  0
  150.3287  140.2974  154.5543 O   0  0  0  0  0  0  0  0  0  0  0  0
  148.2316  141.3632  154.1104 C   0  0  0  0  0  0  0  0  0  0  0  0
  147.4343  140.1506  154.1723 N   0  0  0  0  0  0  0  0  0  0  0  0
  147.7163  138.9124  153.6324 C   0  0  0  0  0  0  0  0  0  0  0  0
  146.6682  138.0907  153.9335 C   0  0  0  0  0  0  0  0  0  0  0  0
  146.5318  136.7361  153.5762 N   0  0  0  0  0  0  0  0  0  0  0  0
  145.7831  138.9259  154.6717 C   0  0  0  0  0  0  0  0  0  0  0  0
  146.2441  140.1584  154.8131 N   0  0  0  0  0  0  0  0  0  0  0  0
  152.7739  145.8625  158.2723 H   0  0  0  0  0  0  0  0  0  0  0  0
  152.7333  144.3803  159.2291 H   0  0  0  0  0  0  0  0  0  0  0  0
  151.3026  145.4247  159.1401 H   0  0  0  0  0  0  0  0  0  0  0  0
  151.2076  142.7877  158.7009 H   0  0  0  0  0  0  0  0  0  0  0  0
  149.8454  143.5173  157.8619 H   0  0  0  0  0  0  0  0  0  0  0  0
  151.8652  142.3490  156.0041 H   0  0  0  0  0  0  0  0  0  0  0  0
  151.1806  141.1718  157.0984 H   0  0  0  0  0  0  0  0  0  0  0  0
  149.0644  142.7538  156.0618 H   0  0  0  0  0  0  0  0  0  0  0  0
  147.6540  142.1834  154.5386 H   0  0  0  0  0  0  0  0  0  0  0  0
  148.4354  141.6198  153.0695 H   0  0  0  0  0  0  0  0  0  0  0  0
  148.6270  138.7262  153.0817 H   0  0  0  0  0  0  0  0  0  0  0  0
  147.2394  136.2511  153.0426 H   0  0  0  0  0  0  0  0  0  0  0  0
  145.7211  136.1934  153.8376 H   0  0  0  0  0  0  0  0  0  0  0  0
  144.8261  138.6759  155.1055 H   0  0  0  0  0  0  0  0  0  0  0  0
  1  2  1  0  0  0  0
  1 15  1  0  0  0  0
  1 16  1  0  0  0  0
  1 17  1  0  0  0  0
  2  3  1  0  0  0  0
  3  4  1  0  0  0  0
  3 18  1  0  0  0  0
  3 19  1  0  0  0  0
  4  5  1  0  0  0  0
  4 20  1  0  0  0  0
  4 21  1  0  0  0  0
  5  6  1  0  0  0  0
  5 22  1  0  0  0  0
  6  7  2  0  0  0  0
  6  8  1  0  0  0  0
  8  9  1  0  0  0  0
  8 23  1  0  0  0  0
  8 24  1  0  0  0  0
  9 14  1  0  0  0  0
  9 10  1  0  0  0  0
 10 11  2  0  0  0  0
 10 25  1  0  0  0  0
 11 12  1  0  0  0  0
 11 13  1  0  0  0  0
 12 26  1  0  0  0  0
 12 27  1  0  0  0  0
 13 14  2  0  0  0  0
 13 28  1  0  0  0  0
M  END
> <s_m_source_file>
AV-unprocessed.smi

> <i_m_source_file_index>
988

> <i_lp_mmshare_version>
43012

> <i_f3d_flags>
0

> <s_epik_input>
W0NIM11PW0NIMl1bQ0gyXVtOSF1DKD1PKVtDSDJdbjFbY0hdYyhbTkgyXSlbY0hdbjE=

> <s_epik_cmdline>
J2VwaWtfcHl0aG9uJywgJy1waCcsICc3LjAnLCAnLXRuJywgJzgnLCAnLW1hJywgJzIwMCcsICctbWV0YWxfYmluZGluZycsICctaW1hZScsICc8aW5maWxlLm1hZT4nLCAnLW9tYWUnLCAnPG91dGZpbGUubWFlPic=

> <r_lp_tautomer_probability>
1

> <r_epik_Ionization_Penalty>
0.00010261

> <r_epik_Ionization_Penalty_Charging>
0

> <r_epik_Ionization_Penalty_Neutral>
0.00010261

> <r_epik_State_Penalty>
-0

> <r_epik_Charging_Adjusted_Penalty>
0

> <i_epik_Tot_Q>
0

> <i_epik_Tot_abs_Q>
0

> <r_epik_Metal_State_Penalty>
-0

> <b_epik_Metal_Only>
0

> <s_lp_Force_Field>
OPLS_2005

> <r_lp_Energy>
5.59493

> <b_lp_Chiralities_Consistent>
1

> <s_lp_Variant>
AV-unprocessed.smi:988-1

> <Gold.Version>
5.8.1

> <Gold.Id.Protein>
6NUR|6NUR_protein|mol2

> <Gold.PLP.Fitness>
36.0389

> <Gold.PLP.PLP>
-25.5184

> <Gold.PLP.part.hbond>
-3.0000

> <Gold.PLP.part.metal>
0.0000

> <Gold.PLP.part.buried>
-3.4883

> <Gold.PLP.part.nonpolar>
-19.0144

> <Gold.PLP.part.repulsive>
0.4668

> <Gold.PLP.ligand.clash>
0.0000

> <Gold.PLP.ligand.torsion>
0.5480

> <Gold.PLP.Chemscore.Hbond>
2.6400

> <Gold.PLP.Chemscore.CHOScore>
1.2281

> <Gold.PLP.Chemscore.Metal>
0.0000

> <Gold.Chemscore.Hbonds>
donor molecule, donor type, donor heavy atom, donor atom, acceptor molecule, acceptor atom, score
      L1  H     5    22       P1  8028  0.69
      L1  H    12    26       P1  7948  0.88
      P1  H  7989  7998       L1     7  1.00
      L1  C    10    25       P1  7948  0.32
      L1  C    10    25       P1  7957  0.98

> <Gold.PLP.Chemscore.Internal.Correction>
0.0122

> <Gold.Rescore>
     Score         DG    S(hbond)    S(metal)    S(lipo)     H(rot)  DE(clash)    DE(int)     intcor
     13.02     -13.54       2.41        0.00      50.62       2.31       0.02       0.50       ----

> <Gold.Chemscore.Fitness>
13.0205

> <Gold.Chemscore.DG>
-13.5398

> <Gold.Chemscore.ZeroCoef>
-5.4800

> <Gold.Chemscore.Hbond>
2.4128

> <Gold.Chemscore.Metal>
0.0000

> <Gold.Chemscore.Lipo>
50.6170

> <Gold.Chemscore.Internal_Hbond>
0.0000

> <Gold.Chemscore.DEClash>
0.0216

> <Gold.Chemscore.DEInternal>
0.4978

> <Gold.Chemscore.Rot>
2.3129

> <Gold.Chemscore.Internal.Correction>
   9.000000E+99

> <Gold.Chemscore.Hbonds>
donor molecule, donor type, donor heavy atom, donor atom, acceptor molecule, acceptor atom, score
      L1  H     5    22       P1  8028  0.65
      L1  H    12    26       P1  7948  0.82
      P1  H  7989  7998       L1     7  0.83

> <Gold.Chemscore.Hbond.Weighted>
-8.0588

> <Gold.Chemscore.Metal.Weighted>
-0.0000

> <Gold.Chemscore.Lipo.Weighted>
-5.9222

> <Gold.Chemscore.Internal_Hbond.Weighted>
0.0000

> <Gold.Chemscore.DEClash.Weighted>
0.0216

> <Gold.Chemscore.DEInternal.Weighted>
0.4978

> <Gold.Chemscore.Rot.Weighted>
5.9211

> <Gold.Chemscore.Internal.Correction.Weighted>
   9.000000E+99

> <Gold.Protein.RotatedTorsions>
[ 6907 6896 6895 6894 ] final   26.14 input  -60.11 | X-H torsion
[ 7974 7965 7964 7962 ] final  151.20 input  175.53 | X-H torsion
[ 8008 7997 7996 7995 ] final  172.54 input   59.86 | X-H torsion
[ 10167 10162 10161 10158 ] final   23.96 input  -65.29 | X-H torsion
[ 10718 10713 10712 10709 ] final -138.56 input   66.30 | X-H torsion
[ 10763 10752 10751 10750 ] final   93.96 input  -60.55 | X-H torsion
[ 11005 11000 10999 10996 ] final -164.08 input  -57.11 | X-H torsion

> <Gold.Protein.ActiveResidues>
 VAL166  LYS551  ARG553  GLY616  TRP617  ASP618  TYR619  PRO620  LYS621  CYS622 
 ASP623  PHE694  ASN695  SER759  ASP760  ASP761  ALA762  ILE779  LEU786  VAL792 
 PHE793  MET794  SER795  GLU796  ALA797  LYS798  CYS799  TRP800  GLU811  SER814 

> <Gold.Protein.RotatedAtoms>
  151.9830  135.0019  160.0557 H   0  0  0  0  0  0  0  0  0  0  0  0  # atno 6907 bound_to 6896
  152.1679  133.4619  159.4902 H   0  0  0  0  0  0  0  0  0  0  0  0  # atno 6908 bound_to 6896
  150.6897  134.1907  159.4327 H   0  0  0  0  0  0  0  0  0  0  0  0  # atno 6909 bound_to 6896
  144.8309  139.6507  143.6059 H   0  0  0  0  0  0  0  0  0  0  0  0  # atno 7974 bound_to 7965
  156.1164  140.1483  156.9266 H   0  0  0  0  0  0  0  0  0  0  0  0  # atno 8008 bound_to 7997
  154.4804  140.0881  156.7405 H   0  0  0  0  0  0  0  0  0  0  0  0  # atno 8009 bound_to 7997
  155.4506  140.3434  155.4302 H   0  0  0  0  0  0  0  0  0  0  0  0  # atno 8010 bound_to 7997
  140.5227  143.9975  150.6425 H   0  0  0  0  0  0  0  0  0  0  0  0  # atno 10167 bound_to 10162
  156.3008  130.7427  151.1478 H   0  0  0  0  0  0  0  0  0  0  0  0  # atno 10718 bound_to 10713
  153.2362  135.4306  155.0649 H   0  0  0  0  0  0  0  0  0  0  0  0  # atno 10763 bound_to 10752
  154.8320  135.3391  154.6715 H   0  0  0  0  0  0  0  0  0  0  0  0  # atno 10764 bound_to 10752
  153.7140  135.7021  153.5086 H   0  0  0  0  0  0  0  0  0  0  0  0  # atno 10765 bound_to 10752
  140.5909  134.5046  157.5192 H   0  0  0  0  0  0  0  0  0  0  0  0  # atno 11005 bound_to 11000
  146.2612  139.6415  142.9360 LP  0  0  0  0  0  0  0  0  0  0  0  0  # atno 17320 bound_to 7965
  145.4897  141.0438  143.2600 LP  0  0  0  0  0  0  0  0  0  0  0  0  # atno 17321 bound_to 7965
  140.3328  143.3067  152.0669 LP  0  0  0  0  0  0  0  0  0  0  0  0  # atno 17342 bound_to 10162
  139.4928  144.6497  151.6702 LP  0  0  0  0  0  0  0  0  0  0  0  0  # atno 17343 bound_to 10162
  157.7367  131.0559  150.5397 LP  0  0  0  0  0  0  0  0  0  0  0  0  # atno 17370 bound_to 10713
  156.5524  130.4235  149.6101 LP  0  0  0  0  0  0  0  0  0  0  0  0  # atno 17371 bound_to 10713
  139.9274  134.8028  156.1027 LP  0  0  0  0  0  0  0  0  0  0  0  0  # atno 17394 bound_to 11000
  141.0935  133.6705  156.2594 LP  0  0  0  0  0  0  0  0  0  0  0  0  # atno 17395 bound_to 11000

$$$$
