#       Name:                AV-unprocessed.smi:2054
#       Creating user name   scv26
#       Creation time:       Fri Mar 27 10:59:56 2020


#       File generated by GOLD software.
#

@<TRIPOS>MOLECULE
AV-unprocessed.smi:2054
    46    47     1
SMALL
NO_CHARGES


@<TRIPOS>ATOM
      1 ****        -5.5438  -3.3338   0.8630 C.3            1 S1                 0.0000
      2 ****        -5.4973  -2.1120  -0.5129 S.o2           1 S1                 0.0000
      3 ****        -5.7376  -2.8445  -1.7657 O.2            1 S1                 0.0000
      4 ****        -6.3406  -0.9589  -0.1630 O.2            1 S1                 0.0000
      5 ****        -3.8461  -1.5792  -0.5136 N.3            1 S1                 0.0000
      6 ****        -3.3926  -0.7694   0.6350 C.3            1 S1                 0.0000
      7 ****        -1.8586  -0.7192   0.7204 C.3            1 S1                 0.0000
      8 ****        -1.2452  -0.2093  -0.5935 C.3            1 S1                 0.0000
      9 ****         0.2865  -0.1646  -0.5144 C.2            1 S1                 0.0000
     10 ****         0.9282  -1.1913  -0.2901 O.2            1 S1                 0.0000
     11 ****         0.8600   1.0343  -0.7001 N.am           1 S1                 0.0000
     12 ****         2.2952   1.2917  -0.6700 C.3            1 S1                 0.0000
     13 ****         2.8159   1.4404   0.7692 C.3            1 S1                 0.0000
     14 ****         4.2984   1.7600   0.8111 C.ar           1 S1                 0.0000
     15 ****         4.7444   3.0853   1.0028 C.ar           1 S1                 0.0000
     16 ****         6.1312   3.3301   1.0236 C.ar           1 S1                 0.0000
     17 ****         7.0140   2.2465   0.8520 C.ar           1 S1                 0.0000
     18 ****         6.4682   0.9607   0.6662 C.ar           1 S1                 0.0000
     19 ****         5.1403   0.7152   0.6440 N.ar           1 S1                 0.0000
     20 ****        -1.7186  -1.1265  -1.7323 C.3            1 S1                 0.0000
     21 ****        -3.2537  -1.1821  -1.8071 C.3            1 S1                 0.0000
     22 ****        -6.5319  -3.7916   0.9024 H              1 S1                 0.0000
     23 ****        -5.3437  -2.8395   1.8125 H              1 S1                 0.0000
     24 ****        -4.7956  -4.1065   0.6888 H              1 S1                 0.0000
     25 ****        -3.7991   0.2383   0.5391 H              1 S1                 0.0000
     26 ****        -3.7929  -1.1814   1.5600 H              1 S1                 0.0000
     27 ****        -1.5624  -0.0750   1.5492 H              1 S1                 0.0000
     28 ****        -1.4804  -1.7158   0.9546 H              1 S1                 0.0000
     29 ****        -1.6152   0.8002  -0.7822 H              1 S1                 0.0000
     30 ****         0.2584   1.8255  -0.8788 H              1 S1                 0.0000
     31 ****         2.8305   0.4967  -1.1922 H              1 S1                 0.0000
     32 ****         2.4832   2.2097  -1.2274 H              1 S1                 0.0000
     33 ****         2.2652   2.2282   1.2851 H              1 S1                 0.0000
     34 ****         2.6382   0.5233   1.3330 H              1 S1                 0.0000
     35 ****         4.0425   3.8966   1.1283 H              1 S1                 0.0000
     36 ****         6.5105   4.3310   1.1674 H              1 S1                 0.0000
     37 ****         8.0833   2.3971   0.8618 H              1 S1                 0.0000
     38 ****         7.1157   0.1070   0.5306 H              1 S1                 0.0000
     39 ****        -1.3216  -0.7774  -2.6864 H              1 S1                 0.0000
     40 ****        -1.3314  -2.1368  -1.5894 H              1 S1                 0.0000
     41 ****        -3.5447  -1.8907  -2.5821 H              1 S1                 0.0000
     42 ****        -3.6571  -0.2113  -2.0978 H              1 S1                 0.0000
     43 ****        -3.4216  -2.4685  -0.3436 LP             1 S1                 0.0000
     44 ****         0.4512  -2.0603  -0.1584 LP             1 S1                 0.0000
     45 ****         1.9263  -1.1561  -0.2397 LP             1 S1                 0.0000
     46 ****         4.7902  -0.2116   0.5080 LP             1 S1                 0.0000
@<TRIPOS>BOND
    1    1    2 1     
    2    1   22 1     
    3    1   23 1     
    4    1   24 1     
    5    2    3 2     
    6    2    4 2     
    7    2    5 1     
    8    5   21 1     
    9    5    6 1     
   10    6    7 1     
   11    6   25 1     
   12    6   26 1     
   13    7    8 1     
   14    7   27 1     
   15    7   28 1     
   16    8    9 1     
   17    8   20 1     
   18    8   29 1     
   19    9   10 2     
   20    9   11 am    
   21   11   12 1     
   22   11   30 1     
   23   12   13 1     
   24   12   31 1     
   25   12   32 1     
   26   13   14 1     
   27   13   33 1     
   28   13   34 1     
   29   14   19 ar    
   30   14   15 ar    
   31   15   16 ar    
   32   15   35 1     
   33   16   17 ar    
   34   16   36 1     
   35   17   18 ar    
   36   17   37 1     
   37   18   19 ar    
   38   18   38 1     
   39   20   21 1     
   40   20   39 1     
   41   20   40 1     
   42   21   41 1     
   43   21   42 1     
   44    5   43 1     
   45   10   44 1     
   46   10   45 1     
   47   19   46 1     
@<TRIPOS>SUBSTRUCTURE
      1 S1             1
@<TRIPOS>SET
LONE_PAIRS      STATIC     ATOMS    <user>   **** ""
6 3 4 43 44 45 46
DONOR_HYDROGENS      STATIC     ATOMS    <user>   **** ""
1 30
ATOM$BLUE        STATIC     ATOMS    COLORGROUP SYSTEM
6 3 4 43 44 45 46
ATOM$RED        STATIC     ATOMS    COLORGROUP SYSTEM
1 30
