AV-unprocessed.smi:1669|AV-procd|sdf|6684|dock7
  -GOLD-   22720 7403D 1   1.00000     0.00000
 Structure written by MMmdl.
 48 50  0  0  0  0  0  0  0  0  2 V2000
  147.5304  136.8515  155.1071 C   0  0  0  0  0  0  0  0  0  0  0  0
  148.8116  136.2647  154.6400 N   0  3  2  0  0  0  0  0  0  0  0  0
  149.0039  134.8638  155.0957 C   0  0  0  0  0  0  0  0  0  0  0  0
  148.2538  133.8620  154.2344 C   0  0  0  0  0  0  0  0  0  0  0  0
  148.7711  132.5639  154.0366 C   0  0  0  0  0  0  0  0  0  0  0  0
  148.0703  131.6364  153.2414 C   0  0  0  0  0  0  0  0  0  0  0  0
  146.8515  132.0036  152.6391 C   0  0  0  0  0  0  0  0  0  0  0  0
  146.3340  133.2992  152.8311 C   0  0  0  0  0  0  0  0  0  0  0  0
  147.0344  134.2275  153.6260 C   0  0  0  0  0  0  0  0  0  0  0  0
  149.9800  137.1236  154.9626 C   0  0  0  0  0  0  0  0  0  0  0  0
  149.7621  138.5942  154.5427 C   0  0  2  0  0  0  0  0  0  0  0  0
  149.1470  138.6132  153.2709 O   0  0  0  0  0  0  0  0  0  0  0  0
  151.0656  139.4136  154.4512 C   0  0  0  0  0  0  0  0  0  0  0  0
  151.6565  139.6676  155.7584 N   0  0  0  0  0  0  0  0  0  0  0  0
  152.6353  138.9732  156.3944 C   0  0  0  0  0  0  0  0  0  0  0  0
  153.2809  137.7685  155.7693 C   0  0  0  0  0  0  0  0  0  0  0  0
  153.1410  136.5842  156.5272 O   0  0  0  0  0  0  0  0  0  0  0  0
  152.9775  139.4353  157.5992 N   0  0  0  0  0  0  0  0  0  0  0  0
  152.1521  140.5307  157.7559 C   0  0  0  0  0  0  0  0  0  0  0  0
  152.0312  141.4445  158.8269 C   0  0  0  0  0  0  0  0  0  0  0  0
  151.1021  142.5033  158.7601 C   0  0  0  0  0  0  0  0  0  0  0  0
  150.2830  142.6633  157.6238 C   0  0  0  0  0  0  0  0  0  0  0  0
  150.3871  141.7632  156.5459 C   0  0  0  0  0  0  0  0  0  0  0  0
  151.3149  140.7069  156.6188 C   0  0  0  0  0  0  0  0  0  0  0  0
  147.4831  136.8631  156.1967 H   0  0  0  0  0  0  0  0  0  0  0  0
  146.6771  136.2842  154.7362 H   0  0  0  0  0  0  0  0  0  0  0  0
  147.4042  137.8743  154.7551 H   0  0  0  0  0  0  0  0  0  0  0  0
  150.0621  134.6016  155.0537 H   0  0  0  0  0  0  0  0  0  0  0  0
  148.7006  134.7683  156.1396 H   0  0  0  0  0  0  0  0  0  0  0  0
  149.7046  132.2736  154.4965 H   0  0  0  0  0  0  0  0  0  0  0  0
  148.4674  130.6429  153.0934 H   0  0  0  0  0  0  0  0  0  0  0  0
  146.3140  131.2917  152.0297 H   0  0  0  0  0  0  0  0  0  0  0  0
  145.3995  133.5805  152.3681 H   0  0  0  0  0  0  0  0  0  0  0  0
  146.6313  135.2195  153.7690 H   0  0  0  0  0  0  0  0  0  0  0  0
  150.1834  137.0405  156.0309 H   0  0  0  0  0  0  0  0  0  0  0  0
  150.8746  136.7552  154.4584 H   0  0  0  0  0  0  0  0  0  0  0  0
  149.0922  139.0933  155.2414 H   0  0  0  0  0  0  0  0  0  0  0  0
  149.1806  137.7419  152.9051 H   0  0  0  0  0  0  0  0  0  0  0  0
  151.7896  138.9109  153.8104 H   0  0  0  0  0  0  0  0  0  0  0  0
  150.8681  140.3782  153.9810 H   0  0  0  0  0  0  0  0  0  0  0  0
  152.8449  137.5899  154.7866 H   0  0  0  0  0  0  0  0  0  0  0  0
  154.3426  137.9712  155.6261 H   0  0  0  0  0  0  0  0  0  0  0  0
  152.2226  136.4402  156.6960 H   0  0  0  0  0  0  0  0  0  0  0  0
  152.6551  141.3313  159.7012 H   0  0  0  0  0  0  0  0  0  0  0  0
  151.0192  143.1969  159.5842 H   0  0  0  0  0  0  0  0  0  0  0  0
  149.5752  143.4784  157.5802 H   0  0  0  0  0  0  0  0  0  0  0  0
  149.7616  141.8859  155.6743 H   0  0  0  0  0  0  0  0  0  0  0  0
  148.7699  136.2235  153.6315 H   0  0  0  0  0  0  0  0  0  0  0  0
  1  2  1  0  0  0  0
  1 25  1  0  0  0  0
  1 26  1  0  0  0  0
  1 27  1  0  0  0  0
  2  3  1  0  0  0  0
  2 10  1  0  0  0  0
  2 48  1  0  0  0  0
  3  4  1  0  0  0  0
  3 28  1  0  0  0  0
  3 29  1  0  0  0  0
  4  9  1  0  0  0  0
  4  5  2  0  0  0  0
  5  6  1  0  0  0  0
  5 30  1  0  0  0  0
  6  7  2  0  0  0  0
  6 31  1  0  0  0  0
  7  8  1  0  0  0  0
  7 32  1  0  0  0  0
  8  9  2  0  0  0  0
  8 33  1  0  0  0  0
  9 34  1  0  0  0  0
 10 11  1  0  0  0  0
 10 35  1  0  0  0  0
 10 36  1  0  0  0  0
 11 12  1  0  0  0  0
 11 13  1  0  0  0  0
 11 37  1  0  0  0  0
 12 38  1  0  0  0  0
 13 14  1  0  0  0  0
 13 39  1  0  0  0  0
 13 40  1  0  0  0  0
 14 24  1  0  0  0  0
 14 15  1  0  0  0  0
 15 16  1  0  0  0  0
 15 18  2  0  0  0  0
 16 17  1  0  0  0  0
 16 41  1  0  0  0  0
 16 42  1  0  0  0  0
 17 43  1  0  0  0  0
 18 19  1  0  0  0  0
 19 24  2  0  0  0  0
 19 20  1  0  0  0  0
 20 21  2  0  0  0  0
 20 44  1  0  0  0  0
 21 22  1  0  0  0  0
 21 45  1  0  0  0  0
 22 23  2  0  0  0  0
 22 46  1  0  0  0  0
 23 24  1  0  0  0  0
 23 47  1  0  0  0  0
M  CHG  1   2   1
M  END
> <s_m_source_file>
AV-unprocessed.smi

> <i_m_source_file_index>
1669

> <i_lp_mmshare_version>
43012

> <i_f3d_flags>
0

> <s_epik_input>
W2NIXTFbY0hdW2NIXVtjSF1bY0hdYzFbQ0gyXU4oW0NIM10pW0NIMl1bQ0BIXShbT0hdKVtDSDJdbihjKG4yKVtDSDJdW09IXSljKGMyMylbY0hdW2NIXVtjSF1bY0hdMw==

> <s_epik_cmdline>
J2VwaWtfcHl0aG9uJywgJy1waCcsICc3LjAnLCAnLXRuJywgJzgnLCAnLW1hJywgJzIwMCcsICctbWV0YWxfYmluZGluZycsICctaW1hZScsICc8aW5maWxlLm1hZT4nLCAnLW9tYWUnLCAnPG91dGZpbGUubWFlPic=

> <r_epik_Ionization_Penalty>
0.0949884

> <r_epik_Ionization_Penalty_Charging>
0.0475377

> <r_epik_Ionization_Penalty_Neutral>
0.0474507

> <r_epik_State_Penalty>
0.078247

> <r_epik_Charging_Adjusted_Penalty>
0.125785

> <i_epik_Tot_Q>
1

> <i_epik_Tot_abs_Q>
1

> <r_epik_Metal_State_Penalty>
0.0403451

> <b_epik_Metal_Only>
0

> <s_lp_Force_Field>
OPLS_2005

> <r_lp_Energy>
17.3617

> <b_lp_Chiralities_Consistent>
1

> <s_lp_Variant>
AV-unprocessed.smi:1669-2

> <Gold.Version>
5.8.1

> <Gold.Id.Protein>
6NUR|6NUR_protein|mol2

> <Gold.PLP.Fitness>
48.7879

> <Gold.PLP.PLP>
-36.6366

> <Gold.PLP.part.hbond>
-5.0000

> <Gold.PLP.part.metal>
0.0000

> <Gold.PLP.part.buried>
2.5325

> <Gold.PLP.part.nonpolar>
-34.4238

> <Gold.PLP.part.repulsive>
0.0000

> <Gold.PLP.ligand.clash>
0.0000

> <Gold.PLP.ligand.torsion>
1.2329

> <Gold.PLP.Chemscore.Hbond>
4.8056

> <Gold.PLP.Chemscore.CHOScore>
0.0000

> <Gold.PLP.Chemscore.Metal>
0.0000

> <Gold.Chemscore.Hbonds>
donor molecule, donor type, donor heavy atom, donor atom, acceptor molecule, acceptor atom, score
      L1  H     2    48       P1  7948  2.00
      L1  H    12    38       P1  7948  1.00
      P1  H  7997  8008       L1    18  0.77
      P1  H 10752 10763       L1    17  0.96

> <Gold.PLP.Chemscore.Internal.Correction>
0.2003

> <Gold.Rescore>
     Score         DG    S(hbond)    S(metal)    S(lipo)     H(rot)  DE(clash)    DE(int)     intcor
     14.60     -18.55       2.66        0.00     105.13       3.17       2.64       1.31       ----

> <Gold.Chemscore.Fitness>
14.5997

> <Gold.Chemscore.DG>
-18.5528

> <Gold.Chemscore.ZeroCoef>
-5.4800

> <Gold.Chemscore.Hbond>
2.6633

> <Gold.Chemscore.Metal>
0.0000

> <Gold.Chemscore.Lipo>
105.1308

> <Gold.Chemscore.Internal_Hbond>
0.0000

> <Gold.Chemscore.DEClash>
2.6400

> <Gold.Chemscore.DEInternal>
1.3131

> <Gold.Chemscore.Rot>
3.1731

> <Gold.Chemscore.Internal.Correction>
   9.000000E+99

> <Gold.Chemscore.Hbonds>
donor molecule, donor type, donor heavy atom, donor atom, acceptor molecule, acceptor atom, score
      L1  H     2    48       P1  7948  1.00
      L1  H    12    38       P1  7948  0.98
      P1  H  7997  8008       L1    18  0.08
      P1  H 10752 10763       L1    17  0.09

> <Gold.Chemscore.Hbond.Weighted>
-8.8956

> <Gold.Chemscore.Metal.Weighted>
-0.0000

> <Gold.Chemscore.Lipo.Weighted>
-12.3003

> <Gold.Chemscore.Internal_Hbond.Weighted>
0.0000

> <Gold.Chemscore.DEClash.Weighted>
2.6400

> <Gold.Chemscore.DEInternal.Weighted>
1.3131

> <Gold.Chemscore.Rot.Weighted>
8.1230

> <Gold.Chemscore.Internal.Correction.Weighted>
   9.000000E+99

> <Gold.Protein.RotatedTorsions>
[ 6907 6896 6895 6894 ] final  -69.64 input  -60.11 | X-H torsion
[ 7974 7965 7964 7962 ] final   99.60 input  175.53 | X-H torsion
[ 8008 7997 7996 7995 ] final  -94.96 input   59.86 | X-H torsion
[ 10167 10162 10161 10158 ] final   82.62 input  -65.29 | X-H torsion
[ 10718 10713 10712 10709 ] final  138.41 input   66.30 | X-H torsion
[ 10763 10752 10751 10750 ] final  116.22 input  -60.55 | X-H torsion
[ 11005 11000 10999 10996 ] final  131.52 input  -57.11 | X-H torsion

> <Gold.Protein.ActiveResidues>
 VAL166  LYS551  ARG553  GLY616  TRP617  ASP618  TYR619  PRO620  LYS621  CYS622 
 ASP623  PHE694  ASN695  SER759  ASP760  ASP761  ALA762  ILE779  LEU786  VAL792 
 PHE793  MET794  SER795  GLU796  ALA797  LYS798  CYS799  TRP800  GLU811  SER814 

> <Gold.Protein.RotatedAtoms>
  150.7296  134.5567  159.5821 H   0  0  0  0  0  0  0  0  0  0  0  0  # atno 6907 bound_to 6896
  152.3041  134.7573  160.0360 H   0  0  0  0  0  0  0  0  0  0  0  0  # atno 6908 bound_to 6896
  151.8144  133.3350  159.3601 H   0  0  0  0  0  0  0  0  0  0  0  0  # atno 6909 bound_to 6896
  145.3967  139.2354  143.3322 H   0  0  0  0  0  0  0  0  0  0  0  0  # atno 7974 bound_to 7965
  154.7551  140.0484  157.0926 H   0  0  0  0  0  0  0  0  0  0  0  0  # atno 8008 bound_to 7997
  155.0008  140.3124  155.4849 H   0  0  0  0  0  0  0  0  0  0  0  0  # atno 8009 bound_to 7997
  156.2893  140.2202  156.5117 H   0  0  0  0  0  0  0  0  0  0  0  0  # atno 8010 bound_to 7997
  139.9269  144.6177  150.8384 H   0  0  0  0  0  0  0  0  0  0  0  0  # atno 10167 bound_to 10162
  157.4256  131.1043  151.0306 H   0  0  0  0  0  0  0  0  0  0  0  0  # atno 10718 bound_to 10713
  153.5339  135.3572  155.2688 H   0  0  0  0  0  0  0  0  0  0  0  0  # atno 10763 bound_to 10752
  154.8724  135.4075  154.3120 H   0  0  0  0  0  0  0  0  0  0  0  0  # atno 10764 bound_to 10752
  153.3814  135.7068  153.6630 H   0  0  0  0  0  0  0  0  0  0  0  0  # atno 10765 bound_to 10752
  139.9735  134.9570  156.9450 H   0  0  0  0  0  0  0  0  0  0  0  0  # atno 11005 bound_to 11000
  146.2771  140.4659  142.8791 LP  0  0  0  0  0  0  0  0  0  0  0  0  # atno 17320 bound_to 7965
  144.8402  140.6845  143.6234 LP  0  0  0  0  0  0  0  0  0  0  0  0  # atno 17321 bound_to 7965
  140.7648  143.3258  151.2520 LP  0  0  0  0  0  0  0  0  0  0  0  0  # atno 17342 bound_to 10162
  139.6815  143.9847  152.2811 LP  0  0  0  0  0  0  0  0  0  0  0  0  # atno 17343 bound_to 10162
  157.1221  130.6066  149.5507 LP  0  0  0  0  0  0  0  0  0  0  0  0  # atno 17370 bound_to 10713
  155.9895  130.4943  150.7218 LP  0  0  0  0  0  0  0  0  0  0  0  0  # atno 17371 bound_to 10713
  140.5243  134.0876  155.7300 LP  0  0  0  0  0  0  0  0  0  0  0  0  # atno 17394 bound_to 11000
  141.1414  133.9132  157.2318 LP  0  0  0  0  0  0  0  0  0  0  0  0  # atno 17395 bound_to 11000

$$$$
