#       Name:                AV-unprocessed.smi:1851
#       Creating user name   scv26
#       Creation time:       Fri Mar 27 09:23:12 2020


#       File generated by GOLD software.
#

@<TRIPOS>MOLECULE
AV-unprocessed.smi:1851
    44    46     1
SMALL
NO_CHARGES


@<TRIPOS>ATOM
      1 ****        -2.8578   3.5265   3.3583 O.2            1 S1                 0.0000
      2 ****        -1.6581   3.2898   3.4894 C.2            1 S1                 0.0000
      3 ****        -0.8705   2.7970   2.5227 N.am           1 S1                 0.0000
      4 ****        -1.3109   2.4586   1.1732 C.3            1 S1                 0.0000
      5 ****        -1.8538   1.0592   1.1682 C.2            1 S1                 0.0000
      6 ****        -3.1620   0.8088   1.2351 N.2            1 S1                 0.0000
      7 ****        -3.2110  -0.5709   1.1940 C.ar           1 S1                 0.0000
      8 ****        -4.3151  -1.4525   1.2272 C.ar           1 S1                 0.0000
      9 ****        -4.1165  -2.8476   1.1640 C.ar           1 S1                 0.0000
     10 ****        -2.8144  -3.3798   1.0678 C.ar           1 S1                 0.0000
     11 ****        -1.7005  -2.5189   1.0356 C.ar           1 S1                 0.0000
     12 ****        -1.9042  -1.1275   1.0996 C.ar           1 S1                 0.0000
     13 ****        -1.0489  -0.0306   1.0888 N.pl3          1 S1                 0.0000
     14 ****         0.4016  -0.0760   0.9970 C.3            1 S1                 0.0000
     15 ****         0.8714  -0.0933  -0.4623 C.3            1 S1                 0.0000
     16 ****         2.2917  -0.1099  -0.4821 O.3            1 S1                 0.0000
     17 ****         2.9265  -0.1103  -1.7058 C.ar           1 S1                 0.0000
     18 ****         4.3369  -0.1028  -1.6952 C.ar           1 S1                 0.0000
     19 ****         5.0675  -0.1012  -2.8990 C.ar           1 S1                 0.0000
     20 ****         4.3904  -0.1077  -4.1327 C.ar           1 S1                 0.0000
     21 ****         5.2829  -0.1049  -5.6094 Cl             1 S1                 0.0000
     22 ****         2.9833  -0.1165  -4.1585 C.ar           1 S1                 0.0000
     23 ****         2.2529  -0.1178  -2.9539 C.ar           1 S1                 0.0000
     24 ****        -1.0857   3.4545   4.4151 H              1 S1                 0.0000
     25 ****         0.1030   2.6387   2.7387 H              1 S1                 0.0000
     26 ****        -2.0746   3.1549   0.8219 H              1 S1                 0.0000
     27 ****        -0.4719   2.5391   0.4824 H              1 S1                 0.0000
     28 ****        -5.3165  -1.0547   1.2998 H              1 S1                 0.0000
     29 ****        -4.9674  -3.5125   1.1884 H              1 S1                 0.0000
     30 ****        -2.6710  -4.4492   1.0187 H              1 S1                 0.0000
     31 ****        -0.7020  -2.9231   0.9617 H              1 S1                 0.0000
     32 ****         0.8275   0.7751   1.5280 H              1 S1                 0.0000
     33 ****         0.7553  -0.9677   1.5156 H              1 S1                 0.0000
     34 ****         0.4764  -0.9775  -0.9654 H              1 S1                 0.0000
     35 ****         0.4980   0.7906  -0.9819 H              1 S1                 0.0000
     36 ****         4.8652  -0.0972  -0.7531 H              1 S1                 0.0000
     37 ****         6.1474  -0.0949  -2.8740 H              1 S1                 0.0000
     38 ****         2.4601  -0.1221  -5.1034 H              1 S1                 0.0000
     39 ****         1.1754  -0.1248  -3.0154 H              1 S1                 0.0000
     40 ****        -3.3094   3.3510   2.4835 LP             1 S1                 0.0000
     41 ****        -3.3817   3.8944   4.1265 LP             1 S1                 0.0000
     42 ****        -3.9194   1.4586   1.2991 LP             1 S1                 0.0000
     43 ****         2.5853  -0.9328   0.0045 LP             1 S1                 0.0000
     44 ****         2.6045   0.7001   0.0139 LP             1 S1                 0.0000
@<TRIPOS>BOND
    1    1    2 2     
    2    2    3 am    
    3    2   24 1     
    4    3    4 1     
    5    3   25 1     
    6    4    5 1     
    7    4   26 1     
    8    4   27 1     
    9    5   13 1     
   10    5    6 2     
   11    6    7 1     
   12    7   12 ar    
   13    7    8 ar    
   14    8    9 ar    
   15    8   28 1     
   16    9   10 ar    
   17    9   29 1     
   18   10   11 ar    
   19   10   30 1     
   20   11   12 ar    
   21   11   31 1     
   22   12   13 1     
   23   13   14 1     
   24   14   15 1     
   25   14   32 1     
   26   14   33 1     
   27   15   16 1     
   28   15   34 1     
   29   15   35 1     
   30   16   17 1     
   31   17   23 ar    
   32   17   18 ar    
   33   18   19 ar    
   34   18   36 1     
   35   19   20 ar    
   36   19   37 1     
   37   20   21 1     
   38   20   22 ar    
   39   22   23 ar    
   40   22   38 1     
   41   23   39 1     
   42    1   40 1     
   43    1   41 1     
   44    6   42 1     
   45   16   43 1     
   46   16   44 1     
@<TRIPOS>SUBSTRUCTURE
      1 S1             1
@<TRIPOS>SET
LONE_PAIRS      STATIC     ATOMS    <user>   **** ""
5 40 41 42 43 44
DONOR_HYDROGENS      STATIC     ATOMS    <user>   **** ""
1 25
ATOM$BLUE        STATIC     ATOMS    COLORGROUP SYSTEM
5 40 41 42 43 44
ATOM$RED        STATIC     ATOMS    COLORGROUP SYSTEM
1 25
