#       Name:                AV-unprocessed.smi:530
#       Creating user name   scv26
#       Creation time:       Thu Mar 26 23:33:30 2020


#       File generated by GOLD software.
#

@<TRIPOS>MOLECULE
AV-unprocessed.smi:530
    38    40     1
SMALL
NO_CHARGES


@<TRIPOS>ATOM
      1 ****        -1.1388   1.1020  -2.8084 C.3            1 S1                 0.0000
      2 ****        -1.3298   1.6738  -1.4393 C.2            1 S1                 0.0000
      3 ****        -1.7995   2.9059  -1.2423 N.2            1 S1                 0.0000
      4 ****        -1.8113   3.0085   0.1356 C.ar           1 S1                 0.0000
      5 ****        -2.2057   4.0759   0.9739 C.ar           1 S1                 0.0000
      6 ****        -2.1265   3.9494   2.3763 C.ar           1 S1                 0.0000
      7 ****        -1.6524   2.7564   2.9596 C.ar           1 S1                 0.0000
      8 ****        -1.2563   1.6799   2.1428 C.ar           1 S1                 0.0000
      9 ****        -1.3382   1.8108   0.7436 C.ar           1 S1                 0.0000
     10 ****        -1.0365   0.9664  -0.3207 N.pl3          1 S1                 0.0000
     11 ****        -0.5176  -0.3917  -0.2299 C.3            1 S1                 0.0000
     12 ****         1.0201  -0.4554  -0.3239 C.3            1 S1                 0.0000
     13 ****         1.6026   0.3193   0.7069 O.3            1 S1                 0.0000
     14 ****         1.5109  -1.8947  -0.3091 C.ar           1 S1                 0.0000
     15 ****         1.5969  -2.6137   0.9037 C.ar           1 S1                 0.0000
     16 ****         2.0433  -3.9496   0.9070 C.ar           1 S1                 0.0000
     17 ****         2.4036  -4.5751  -0.3019 C.ar           1 S1                 0.0000
     18 ****         2.3155  -3.8648  -1.5144 C.ar           1 S1                 0.0000
     19 ****         1.8689  -2.5289  -1.5183 C.ar           1 S1                 0.0000
     20 ****        -1.4316   1.8265  -3.5690 H              1 S1                 0.0000
     21 ****        -1.7503   0.2085  -2.9346 H              1 S1                 0.0000
     22 ****        -0.0928   0.8419  -2.9694 H              1 S1                 0.0000
     23 ****        -2.5691   4.9941   0.5367 H              1 S1                 0.0000
     24 ****        -2.4299   4.7718   3.0074 H              1 S1                 0.0000
     25 ****        -1.5927   2.6681   4.0347 H              1 S1                 0.0000
     26 ****        -0.8897   0.7659   2.5859 H              1 S1                 0.0000
     27 ****        -0.8582  -0.8305   0.7089 H              1 S1                 0.0000
     28 ****        -0.9681  -0.9912  -1.0211 H              1 S1                 0.0000
     29 ****         1.3358  -0.0007  -1.2632 H              1 S1                 0.0000
     30 ****         2.5367   0.3487   0.5676 H              1 S1                 0.0000
     31 ****         1.3179  -2.1436   1.8354 H              1 S1                 0.0000
     32 ****         2.1079  -4.4947   1.8373 H              1 S1                 0.0000
     33 ****         2.7455  -5.5996  -0.2994 H              1 S1                 0.0000
     34 ****         2.5892  -4.3449  -2.4424 H              1 S1                 0.0000
     35 ****         1.8009  -1.9939  -2.4543 H              1 S1                 0.0000
     36 ****        -2.0746   3.5859  -1.9220 LP             1 S1                 0.0000
     37 ****         1.4067  -0.0979   1.5943 LP             1 S1                 0.0000
     38 ****         1.2287   1.2465   0.6846 LP             1 S1                 0.0000
@<TRIPOS>BOND
    1    1    2 1     
    2    1   20 1     
    3    1   21 1     
    4    1   22 1     
    5    2   10 1     
    6    2    3 2     
    7    3    4 1     
    8    4    9 ar    
    9    4    5 ar    
   10    5    6 ar    
   11    5   23 1     
   12    6    7 ar    
   13    6   24 1     
   14    7    8 ar    
   15    7   25 1     
   16    8    9 ar    
   17    8   26 1     
   18    9   10 1     
   19   10   11 1     
   20   11   12 1     
   21   11   27 1     
   22   11   28 1     
   23   12   13 1     
   24   12   14 1     
   25   12   29 1     
   26   13   30 1     
   27   14   19 ar    
   28   14   15 ar    
   29   15   16 ar    
   30   15   31 1     
   31   16   17 ar    
   32   16   32 1     
   33   17   18 ar    
   34   17   33 1     
   35   18   19 ar    
   36   18   34 1     
   37   19   35 1     
   38    3   36 1     
   39   13   37 1     
   40   13   38 1     
@<TRIPOS>SUBSTRUCTURE
      1 S1             1
@<TRIPOS>SET
LONE_PAIRS      STATIC     ATOMS    <user>   **** ""
3 36 37 38
DONOR_HYDROGENS      STATIC     ATOMS    <user>   **** ""
1 30
ATOM$BLUE        STATIC     ATOMS    COLORGROUP SYSTEM
3 36 37 38
ATOM$RED        STATIC     ATOMS    COLORGROUP SYSTEM
1 30
