#       Name:                AV-unprocessed.smi:2318
#       Creating user name   scv26
#       Creation time:       Fri Mar 27 12:50:01 2020


#       File generated by GOLD software.
#

@<TRIPOS>MOLECULE
AV-unprocessed.smi:2318
    40    41     1
SMALL
NO_CHARGES


@<TRIPOS>ATOM
      1 ****        -4.3458   4.2118  -0.3015 C.3            1 S1                 0.0000
      2 ****        -4.0807   2.8080  -0.5322 N.pl3          1 S1                 0.0000
      3 ****        -4.9823   1.7849  -0.7474 C.2            1 S1                 0.0000
      4 ****        -4.2641   0.6345  -0.9124 C.2            1 S1                 0.0000
      5 ****        -2.9162   1.0683  -0.7793 C.2            1 S1                 0.0000
      6 ****        -1.8456   0.1451  -0.8918 N.am           1 S1                 0.0000
      7 ****        -0.5295   0.3998  -0.7959 C.2            1 S1                 0.0000
      8 ****        -0.0346   1.5099  -0.5982 O.2            1 S1                 0.0000
      9 ****         0.1915  -0.7215  -0.9408 N.am           1 S1                 0.0000
     10 ****         1.6527  -0.8159  -0.9119 C.3            1 S1                 0.0000
     11 ****         2.1062  -1.4951   0.4068 C.3            1 S1                 0.0000
     12 ****         1.6069  -0.8021   1.6813 C.3            1 S1                 0.0000
     13 ****         2.4955  -1.3526   2.7965 C.3            1 S1                 0.0000
     14 ****         3.8420  -1.6731   2.1360 C.3            1 S1                 0.0000
     15 ****         3.6257  -1.5429   0.6219 C.3            1 S1                 0.0000
     16 ****         2.1239  -1.5499  -2.1882 C.3            1 S1                 0.0000
     17 ****         1.6477  -0.9286  -3.2680 F              1 S1                 0.0000
     18 ****         3.4533  -1.5539  -2.2764 F              1 S1                 0.0000
     19 ****         1.6862  -2.8096  -2.1934 F              1 S1                 0.0000
     20 ****        -2.8044   2.3695  -0.5495 N.2            1 S1                 0.0000
     21 ****        -5.4036   4.4240  -0.4598 H              1 S1                 0.0000
     22 ****        -3.7562   4.8188  -0.9894 H              1 S1                 0.0000
     23 ****        -4.0806   4.4718   0.7236 H              1 S1                 0.0000
     24 ****        -6.0481   1.9589  -0.7650 H              1 S1                 0.0000
     25 ****        -4.6442  -0.3590  -1.0995 H              1 S1                 0.0000
     26 ****        -2.1113  -0.8135  -1.0618 H              1 S1                 0.0000
     27 ****        -0.3079  -1.5844  -1.0994 H              1 S1                 0.0000
     28 ****         2.0822   0.1872  -0.9404 H              1 S1                 0.0000
     29 ****         1.7328  -2.5204   0.4225 H              1 S1                 0.0000
     30 ****         1.7497   0.2765   1.5992 H              1 S1                 0.0000
     31 ****         0.5489  -0.9822   1.8744 H              1 S1                 0.0000
     32 ****         2.5949  -0.6511   3.6254 H              1 S1                 0.0000
     33 ****         2.0570  -2.2691   3.1932 H              1 S1                 0.0000
     34 ****         4.6207  -0.9871   2.4712 H              1 S1                 0.0000
     35 ****         4.1615  -2.6819   2.4002 H              1 S1                 0.0000
     36 ****         4.0942  -2.3622   0.0759 H              1 S1                 0.0000
     37 ****         4.0801  -0.6142   0.2737 H              1 S1                 0.0000
     38 ****        -0.6258   2.3099  -0.4956 LP             1 S1                 0.0000
     39 ****         0.9586   1.6115  -0.5403 LP             1 S1                 0.0000
     40 ****        -1.9682   2.9024  -0.4192 LP             1 S1                 0.0000
@<TRIPOS>BOND
    1    1    2 1     
    2    1   21 1     
    3    1   22 1     
    4    1   23 1     
    5    2   20 1     
    6    2    3 1     
    7    3    4 2     
    8    3   24 1     
    9    4    5 1     
   10    4   25 1     
   11    5    6 1     
   12    5   20 2     
   13    6    7 am    
   14    6   26 1     
   15    7    8 2     
   16    7    9 am    
   17    9   10 1     
   18    9   27 1     
   19   10   11 1     
   20   10   16 1     
   21   10   28 1     
   22   11   15 1     
   23   11   12 1     
   24   11   29 1     
   25   12   13 1     
   26   12   30 1     
   27   12   31 1     
   28   13   14 1     
   29   13   32 1     
   30   13   33 1     
   31   14   15 1     
   32   14   34 1     
   33   14   35 1     
   34   15   36 1     
   35   15   37 1     
   36   16   17 1     
   37   16   18 1     
   38   16   19 1     
   39    8   38 1     
   40    8   39 1     
   41   20   40 1     
@<TRIPOS>SUBSTRUCTURE
      1 S1             1
@<TRIPOS>SET
LONE_PAIRS      STATIC     ATOMS    <user>   **** ""
3 38 39 40
DONOR_HYDROGENS      STATIC     ATOMS    <user>   **** ""
2 26 27
ATOM$BLUE        STATIC     ATOMS    COLORGROUP SYSTEM
3 38 39 40
ATOM$RED        STATIC     ATOMS    COLORGROUP SYSTEM
2 26 27
