AV-unprocessed.smi:2395|AV-procd|sdf|9491|dock4
  -GOLD-   2272013123D 1   1.00000     0.00000
 Structure written by MMmdl.
 39 40  0  0  0  0  0  0  0  0  1 V2000
  146.4690  143.0556  154.5333 C   0  0  0  0  0  0  0  0  0  0  0  0
  147.6322  142.1130  154.6512 C   0  0  0  0  0  0  0  0  0  0  0  0
  148.5949  142.3790  155.5177 N   0  0  0  0  0  0  0  0  0  0  0  0
  149.4679  141.3583  155.3901 N   0  0  0  0  0  0  0  0  0  0  0  0
  150.6629  141.3399  156.2224 C   0  0  0  0  0  0  0  0  0  0  0  0
  150.6061  142.3631  157.3632 C   0  0  0  0  0  0  0  0  0  0  0  0
  149.8763  142.1858  158.3399 O   0  0  0  0  0  0  0  0  0  0  0  0
  151.3954  143.4386  157.2235 N   0  0  0  0  0  0  0  0  0  0  0  0
  151.5181  144.5176  158.1947 C   0  0  0  0  0  0  0  0  0  0  0  0
  152.5704  144.2961  159.2645 C   0  0  0  0  0  0  0  0  0  0  0  0
  153.4823  143.0935  159.2016 C   0  0  0  0  0  0  0  0  0  0  0  0
  152.4281  143.1862  160.2792 C   0  0  0  0  0  0  0  0  0  0  0  0
  149.0557  140.4484  154.4325 C   0  0  0  0  0  0  0  0  0  0  0  0
  149.8432  139.2208  154.1016 C   0  0  0  0  0  0  0  0  0  0  0  0
  147.8688  140.9080  153.9277 C   0  0  0  0  0  0  0  0  0  0  0  0
  146.9972  140.2944  152.8642 C   0  0  0  0  0  0  0  0  0  0  0  0
  146.5296  138.8893  153.2652 C   0  0  0  0  0  0  0  0  0  0  0  0
  145.4383  138.4973  152.4609 O   0  0  0  0  0  0  0  0  0  0  0  0
  145.5379  142.5107  154.3759 H   0  0  0  0  0  0  0  0  0  0  0  0
  146.6028  143.7348  153.6914 H   0  0  0  0  0  0  0  0  0  0  0  0
  146.3475  143.6594  155.4333 H   0  0  0  0  0  0  0  0  0  0  0  0
  150.7867  140.3348  156.6277 H   0  0  0  0  0  0  0  0  0  0  0  0
  151.5389  141.5437  155.6047 H   0  0  0  0  0  0  0  0  0  0  0  0
  151.9599  143.5090  156.3892 H   0  0  0  0  0  0  0  0  0  0  0  0
  151.7463  145.4357  157.6526 H   0  0  0  0  0  0  0  0  0  0  0  0
  150.5553  144.6832  158.6809 H   0  0  0  0  0  0  0  0  0  0  0  0
  153.0352  145.2138  159.6205 H   0  0  0  0  0  0  0  0  0  0  0  0
  153.3193  142.3735  158.4021 H   0  0  0  0  0  0  0  0  0  0  0  0
  154.5197  143.2341  159.4983 H   0  0  0  0  0  0  0  0  0  0  0  0
  152.7625  143.3889  161.2946 H   0  0  0  0  0  0  0  0  0  0  0  0
  151.5643  142.5294  160.1951 H   0  0  0  0  0  0  0  0  0  0  0  0
  149.3478  138.6272  153.3336 H   0  0  0  0  0  0  0  0  0  0  0  0
  149.9636  138.5885  154.9813 H   0  0  0  0  0  0  0  0  0  0  0  0
  150.8352  139.4826  153.7337 H   0  0  0  0  0  0  0  0  0  0  0  0
  146.1259  140.9226  152.6748 H   0  0  0  0  0  0  0  0  0  0  0  0
  147.5298  140.2415  151.9140 H   0  0  0  0  0  0  0  0  0  0  0  0
  147.3367  138.1657  153.1460 H   0  0  0  0  0  0  0  0  0  0  0  0
  146.2242  138.8698  154.3119 H   0  0  0  0  0  0  0  0  0  0  0  0
  144.8083  139.2015  152.4464 H   0  0  0  0  0  0  0  0  0  0  0  0
  1  2  1  0  0  0  0
  1 19  1  0  0  0  0
  1 20  1  0  0  0  0
  1 21  1  0  0  0  0
  2 15  1  0  0  0  0
  2  3  2  0  0  0  0
  3  4  1  0  0  0  0
  4  5  1  0  0  0  0
  4 13  1  0  0  0  0
  5  6  1  0  0  0  0
  5 22  1  0  0  0  0
  5 23  1  0  0  0  0
  6  7  2  0  0  0  0
  6  8  1  0  0  0  0
  8  9  1  0  0  0  0
  8 24  1  0  0  0  0
  9 10  1  0  0  0  0
  9 25  1  0  0  0  0
  9 26  1  0  0  0  0
 10 12  1  0  0  0  0
 10 11  1  0  0  0  0
 10 27  1  0  0  0  0
 11 12  1  0  0  0  0
 11 28  1  0  0  0  0
 11 29  1  0  0  0  0
 12 30  1  0  0  0  0
 12 31  1  0  0  0  0
 13 14  1  0  0  0  0
 13 15  2  0  0  0  0
 14 32  1  0  0  0  0
 14 33  1  0  0  0  0
 14 34  1  0  0  0  0
 15 16  1  0  0  0  0
 16 17  1  0  0  0  0
 16 35  1  0  0  0  0
 16 36  1  0  0  0  0
 17 18  1  0  0  0  0
 17 37  1  0  0  0  0
 17 38  1  0  0  0  0
 18 39  1  0  0  0  0
M  END
> <s_m_source_file>
AV-unprocessed.smi

> <i_m_source_file_index>
2395

> <i_lp_mmshare_version>
43012

> <i_f3d_flags>
0

> <s_epik_input>
W09IXVtDSDJdW0NIMl1jMWMoW0NIM10pbihuYzFbQ0gzXSlbQ0gyXUMoPU8pW05IXVtDSDJdW0NIXTJbQ0gyXVtDSDJdMg==

> <s_epik_cmdline>
J2VwaWtfcHl0aG9uJywgJy1waCcsICc3LjAnLCAnLXRuJywgJzgnLCAnLW1hJywgJzIwMCcsICctbWV0YWxfYmluZGluZycsICctaW1hZScsICc8aW5maWxlLm1hZT4nLCAnLW9tYWUnLCAnPG91dGZpbGUubWFlPic=

> <r_lp_tautomer_probability>
1

> <r_epik_Ionization_Penalty>
0.000725848

> <r_epik_Ionization_Penalty_Charging>
0

> <r_epik_Ionization_Penalty_Neutral>
0.000725848

> <r_epik_State_Penalty>
-0

> <r_epik_Charging_Adjusted_Penalty>
0

> <i_epik_Tot_Q>
0

> <i_epik_Tot_abs_Q>
0

> <r_epik_Metal_State_Penalty>
-0

> <b_epik_Metal_Only>
0

> <s_lp_Force_Field>
OPLS_2005

> <r_lp_Energy>
10.6696

> <b_lp_Chiralities_Consistent>
1

> <s_lp_Variant>
AV-unprocessed.smi:2395-1

> <Gold.Version>
5.8.1

> <Gold.Id.Protein>
6NUR|6NUR_protein|mol2

> <Gold.PLP.Fitness>
43.2944

> <Gold.PLP.PLP>
-41.5340

> <Gold.PLP.part.hbond>
-2.8504

> <Gold.PLP.part.metal>
0.0000

> <Gold.PLP.part.buried>
-0.5683

> <Gold.PLP.part.nonpolar>
-42.0872

> <Gold.PLP.part.repulsive>
4.3678

> <Gold.PLP.ligand.clash>
0.0000

> <Gold.PLP.ligand.torsion>
0.9096

> <Gold.PLP.Chemscore.Hbond>
1.0000

> <Gold.PLP.Chemscore.CHOScore>
0.0000

> <Gold.PLP.Chemscore.Metal>
0.0000

> <Gold.Chemscore.Hbonds>
donor molecule, donor type, donor heavy atom, donor atom, acceptor molecule, acceptor atom, score
      L1  H    18    39       P1 10175  1.00

> <Gold.PLP.Chemscore.Internal.Correction>
0.5795

> <Gold.Rescore>
     Score         DG    S(hbond)    S(metal)    S(lipo)     H(rot)  DE(clash)    DE(int)     intcor
     12.15     -15.08       1.00        0.00     108.96       2.53       1.89       1.05       ----

> <Gold.Chemscore.Fitness>
12.1464

> <Gold.Chemscore.DG>
-15.0849

> <Gold.Chemscore.ZeroCoef>
-5.4800

> <Gold.Chemscore.Hbond>
0.9988

> <Gold.Chemscore.Metal>
0.0000

> <Gold.Chemscore.Lipo>
108.9554

> <Gold.Chemscore.Internal_Hbond>
0.0000

> <Gold.Chemscore.DEClash>
1.8896

> <Gold.Chemscore.DEInternal>
1.0489

> <Gold.Chemscore.Rot>
2.5309

> <Gold.Chemscore.Internal.Correction>
   9.000000E+99

> <Gold.Chemscore.Hbonds>
donor molecule, donor type, donor heavy atom, donor atom, acceptor molecule, acceptor atom, score
      L1  H    18    39       P1 10175  1.00

> <Gold.Chemscore.Hbond.Weighted>
-3.3361

> <Gold.Chemscore.Metal.Weighted>
-0.0000

> <Gold.Chemscore.Lipo.Weighted>
-12.7478

> <Gold.Chemscore.Internal_Hbond.Weighted>
0.0000

> <Gold.Chemscore.DEClash.Weighted>
1.8896

> <Gold.Chemscore.DEInternal.Weighted>
1.0489

> <Gold.Chemscore.Rot.Weighted>
6.4790

> <Gold.Chemscore.Internal.Correction.Weighted>
   9.000000E+99

> <Gold.Protein.RotatedTorsions>
[ 6907 6896 6895 6894 ] final   90.36 input  -60.11 | X-H torsion
[ 7974 7965 7964 7962 ] final  -21.56 input  175.53 | X-H torsion
[ 8008 7997 7996 7995 ] final  -72.45 input   59.86 | X-H torsion
[ 10167 10162 10161 10158 ] final -125.04 input  -65.29 | X-H torsion
[ 10718 10713 10712 10709 ] final  -53.14 input   66.30 | X-H torsion
[ 10763 10752 10751 10750 ] final  157.24 input  -60.55 | X-H torsion
[ 11005 11000 10999 10996 ] final    5.55 input  -57.11 | X-H torsion

> <Gold.Protein.ActiveResidues>
 VAL166  LYS551  ARG553  GLY616  TRP617  ASP618  TYR619  PRO620  LYS621  CYS622 
 ASP623  PHE694  ASN695  SER759  ASP760  ASP761  ALA762  ILE779  LEU786  VAL792 
 PHE793  MET794  SER795  GLU796  ALA797  LYS798  CYS799  TRP800  GLU811  SER814 

> <Gold.Protein.RotatedAtoms>
  152.5444  134.1824  159.8640 H   0  0  0  0  0  0  0  0  0  0  0  0  # atno 6907 bound_to 6896
  151.1825  133.4709  159.2601 H   0  0  0  0  0  0  0  0  0  0  0  0  # atno 6908 bound_to 6896
  151.1164  135.0067  159.8573 H   0  0  0  0  0  0  0  0  0  0  0  0  # atno 6909 bound_to 6896
  146.1726  140.4358  142.8526 H   0  0  0  0  0  0  0  0  0  0  0  0  # atno 7974 bound_to 7965
  154.5167  140.0797  156.8095 H   0  0  0  0  0  0  0  0  0  0  0  0  # atno 8008 bound_to 7997
  155.3665  140.3420  155.4224 H   0  0  0  0  0  0  0  0  0  0  0  0  # atno 8009 bound_to 7997
  156.1636  140.1596  156.8558 H   0  0  0  0  0  0  0  0  0  0  0  0  # atno 8010 bound_to 7997
  139.9863  143.5688  152.2359 H   0  0  0  0  0  0  0  0  0  0  0  0  # atno 10167 bound_to 10162
  156.1561  130.4150  149.9867 H   0  0  0  0  0  0  0  0  0  0  0  0  # atno 10718 bound_to 10713
  154.1972  135.2792  155.3003 H   0  0  0  0  0  0  0  0  0  0  0  0  # atno 10763 bound_to 10752
  154.5883  135.5568  153.7256 H   0  0  0  0  0  0  0  0  0  0  0  0  # atno 10764 bound_to 10752
  153.0097  135.6362  154.2110 H   0  0  0  0  0  0  0  0  0  0  0  0  # atno 10765 bound_to 10752
  140.5695  134.0116  155.8003 H   0  0  0  0  0  0  0  0  0  0  0  0  # atno 11005 bound_to 11000
  144.8186  140.6511  143.6368 LP  0  0  0  0  0  0  0  0  0  0  0  0  # atno 17320 bound_to 7965
  145.4300  139.1550  143.4027 LP  0  0  0  0  0  0  0  0  0  0  0  0  # atno 17321 bound_to 7965
  139.6372  144.7651  151.2412 LP  0  0  0  0  0  0  0  0  0  0  0  0  # atno 17342 bound_to 10162
  140.7471  143.6377  150.8363 LP  0  0  0  0  0  0  0  0  0  0  0  0  # atno 17343 bound_to 10162
  156.7711  130.9186  151.3644 LP  0  0  0  0  0  0  0  0  0  0  0  0  # atno 17370 bound_to 10713
  157.6696  130.9038  150.0009 LP  0  0  0  0  0  0  0  0  0  0  0  0  # atno 17371 bound_to 10713
  141.1065  133.9685  157.2988 LP  0  0  0  0  0  0  0  0  0  0  0  0  # atno 17394 bound_to 11000
  139.9369  135.0195  156.8583 LP  0  0  0  0  0  0  0  0  0  0  0  0  # atno 17395 bound_to 11000

$$$$
