AV-unprocessed.smi:3346|AV-procd|sdf|12909|dock6
  -GOLD-   2272019323D 1   1.00000     0.00000
 Structure written by MMmdl.
 47 48  0  0  0  0  0  0  0  0  1 V2000
  144.2531  134.1151  152.5053 C   0  0  0  0  0  0  0  0  0  0  0  0
  144.6512  135.4854  151.9370 C   0  0  0  0  0  0  0  0  0  0  0  0
  144.8809  135.3867  150.4193 C   0  0  0  0  0  0  0  0  0  0  0  0
  145.8780  136.0501  152.6882 C   0  0  0  0  0  0  0  0  0  0  0  0
  146.0338  137.5855  152.6370 C   0  0  2  0  0  0  0  0  0  0  0  0
  146.1819  138.0697  151.1834 C   0  0  0  0  0  0  0  0  0  0  0  0
  147.2166  137.9651  153.4020 N   0  0  0  0  0  0  0  0  0  0  0  0
  147.4983  139.3901  153.3086 C   0  0  0  0  0  0  0  0  0  0  0  0
  148.6689  139.8060  154.1847 C   0  0  0  0  0  0  0  0  0  0  0  0
  149.8891  139.1060  154.0791 C   0  0  0  0  0  0  0  0  0  0  0  0
  150.9791  139.5011  154.8754 C   0  0  0  0  0  0  0  0  0  0  0  0
  150.8042  140.5880  155.7512 C   0  0  0  0  0  0  0  0  0  0  0  0
  149.6430  141.2652  155.8662 N   0  0  0  0  0  0  0  0  0  0  0  0
  148.5892  140.8874  155.1014 C   0  0  0  0  0  0  0  0  0  0  0  0
  147.3855  141.5946  155.2631 N   0  0  0  0  0  0  0  0  0  0  0  0
  146.9432  142.2507  154.0402 C   0  0  0  0  0  0  0  0  0  0  0  0
  145.7543  143.1778  154.3457 C   0  0  0  0  0  0  0  0  0  0  0  0
  144.7123  142.4303  154.9675 O   0  0  0  0  0  0  0  0  0  0  0  0
  145.1328  141.8459  156.1976 C   0  0  0  0  0  0  0  0  0  0  0  0
  146.3049  140.8839  155.9370 C   0  0  0  0  0  0  0  0  0  0  0  0
  145.0537  133.3854  152.3791 H   0  0  0  0  0  0  0  0  0  0  0  0
  143.3653  133.7251  152.0066 H   0  0  0  0  0  0  0  0  0  0  0  0
  144.0266  134.1807  153.5698 H   0  0  0  0  0  0  0  0  0  0  0  0
  143.8065  136.1527  152.1044 H   0  0  0  0  0  0  0  0  0  0  0  0
  145.7426  134.7602  150.1882 H   0  0  0  0  0  0  0  0  0  0  0  0
  145.0484  136.3655  149.9711 H   0  0  0  0  0  0  0  0  0  0  0  0
  144.0132  134.9537  149.9209 H   0  0  0  0  0  0  0  0  0  0  0  0
  145.8430  135.7332  153.7320 H   0  0  0  0  0  0  0  0  0  0  0  0
  146.7742  135.5867  152.2733 H   0  0  0  0  0  0  0  0  0  0  0  0
  145.1487  138.0491  153.0719 H   0  0  0  0  0  0  0  0  0  0  0  0
  145.3299  137.7532  150.5810 H   0  0  0  0  0  0  0  0  0  0  0  0
  147.0817  137.6653  150.7183 H   0  0  0  0  0  0  0  0  0  0  0  0
  146.2312  139.1562  151.1164 H   0  0  0  0  0  0  0  0  0  0  0  0
  148.0142  137.4256  153.0975 H   0  0  0  0  0  0  0  0  0  0  0  0
  147.7343  139.6572  152.2788 H   0  0  0  0  0  0  0  0  0  0  0  0
  146.6095  139.9609  153.5798 H   0  0  0  0  0  0  0  0  0  0  0  0
  149.9903  138.2776  153.3935 H   0  0  0  0  0  0  0  0  0  0  0  0
  151.9259  138.9853  154.8148 H   0  0  0  0  0  0  0  0  0  0  0  0
  151.6180  140.9220  156.3777 H   0  0  0  0  0  0  0  0  0  0  0  0
  147.7607  142.8183  153.5970 H   0  0  0  0  0  0  0  0  0  0  0  0
  146.6489  141.4947  153.3111 H   0  0  0  0  0  0  0  0  0  0  0  0
  146.0601  143.9991  154.9951 H   0  0  0  0  0  0  0  0  0  0  0  0
  145.3757  143.6226  153.4255 H   0  0  0  0  0  0  0  0  0  0  0  0
  145.4201  142.6272  156.9033 H   0  0  0  0  0  0  0  0  0  0  0  0
  144.2953  141.3075  156.6412 H   0  0  0  0  0  0  0  0  0  0  0  0
  145.9654  140.0508  155.3200 H   0  0  0  0  0  0  0  0  0  0  0  0
  146.6664  140.4670  156.8775 H   0  0  0  0  0  0  0  0  0  0  0  0
  1  2  1  0  0  0  0
  1 21  1  0  0  0  0
  1 22  1  0  0  0  0
  1 23  1  0  0  0  0
  2  3  1  0  0  0  0
  2  4  1  0  0  0  0
  2 24  1  0  0  0  0
  3 25  1  0  0  0  0
  3 26  1  0  0  0  0
  3 27  1  0  0  0  0
  4  5  1  0  0  0  0
  4 28  1  0  0  0  0
  4 29  1  0  0  0  0
  5  6  1  0  0  0  0
  5  7  1  0  0  0  0
  5 30  1  0  0  0  0
  6 31  1  0  0  0  0
  6 32  1  0  0  0  0
  6 33  1  0  0  0  0
  7  8  1  0  0  0  0
  7 34  1  0  0  0  0
  8  9  1  0  0  0  0
  8 35  1  0  0  0  0
  8 36  1  0  0  0  0
  9 14  1  0  0  0  0
  9 10  2  0  0  0  0
 10 11  1  0  0  0  0
 10 37  1  0  0  0  0
 11 12  2  0  0  0  0
 11 38  1  0  0  0  0
 12 13  1  0  0  0  0
 12 39  1  0  0  0  0
 13 14  2  0  0  0  0
 14 15  1  0  0  0  0
 15 20  1  0  0  0  0
 15 16  1  0  0  0  0
 16 17  1  0  0  0  0
 16 40  1  0  0  0  0
 16 41  1  0  0  0  0
 17 18  1  0  0  0  0
 17 42  1  0  0  0  0
 17 43  1  0  0  0  0
 18 19  1  0  0  0  0
 19 20  1  0  0  0  0
 19 44  1  0  0  0  0
 19 45  1  0  0  0  0
 20 46  1  0  0  0  0
 20 47  1  0  0  0  0
M  END
> <s_m_source_file>
AV-unprocessed.smi

> <i_m_source_file_index>
3346

> <i_lp_mmshare_version>
43012

> <i_f3d_flags>
0

> <s_epik_input>
W0NIM11bQ0hdKFtDSDNdKVtDSDJdW0NASF0oW0NIM10pW05IXVtDSDJdYzFbY0hdW2NIXVtjSF1uYzFOMltDSDJdW0NIMl1PW0NIMl1bQ0gyXTI=

> <s_epik_cmdline>
J2VwaWtfcHl0aG9uJywgJy1waCcsICc3LjAnLCAnLXRuJywgJzgnLCAnLW1hJywgJzIwMCcsICctbWV0YWxfYmluZGluZycsICctaW1hZScsICc8aW5maWxlLm1hZT4nLCAnLW9tYWUnLCAnPG91dGZpbGUubWFlPic=

> <r_lp_tautomer_probability>
1

> <r_epik_Ionization_Penalty>
2.09752

> <r_epik_Ionization_Penalty_Charging>
0

> <r_epik_Ionization_Penalty_Neutral>
2.09752

> <r_epik_State_Penalty>
2.22589

> <r_epik_Charging_Adjusted_Penalty>
2.22589

> <i_epik_Tot_Q>
0

> <i_epik_Tot_abs_Q>
0

> <r_epik_Metal_State_Penalty>
2.21996

> <b_epik_Metal_Only>
0

> <s_lp_Force_Field>
OPLS_2005

> <r_lp_Energy>
25.807

> <b_lp_Chiralities_Consistent>
1

> <s_lp_Variant>
AV-unprocessed.smi:3346-3

> <Gold.Version>
5.8.1

> <Gold.Id.Protein>
6NUR|6NUR_protein|mol2

> <Gold.PLP.Fitness>
36.0693

> <Gold.PLP.PLP>
-33.7084

> <Gold.PLP.part.hbond>
-1.0000

> <Gold.PLP.part.metal>
0.0000

> <Gold.PLP.part.buried>
2.0324

> <Gold.PLP.part.nonpolar>
-35.0177

> <Gold.PLP.part.repulsive>
0.3969

> <Gold.PLP.ligand.clash>
0.0000

> <Gold.PLP.ligand.torsion>
0.4244

> <Gold.PLP.Chemscore.Hbond>
1.0000

> <Gold.PLP.Chemscore.CHOScore>
0.0000

> <Gold.PLP.Chemscore.Metal>
0.0000

> <Gold.Chemscore.Hbonds>
donor molecule, donor type, donor heavy atom, donor atom, acceptor molecule, acceptor atom, score
      L1  H     7    34       P1  7948  1.00

> <Gold.PLP.Chemscore.Internal.Correction>
0.2097

> <Gold.Rescore>
     Score         DG    S(hbond)    S(metal)    S(lipo)     H(rot)  DE(clash)    DE(int)     intcor
     12.81     -15.05       0.98        0.00      87.81       1.55       1.68       0.56       ----

> <Gold.Chemscore.Fitness>
12.8093

> <Gold.Chemscore.DG>
-15.0456

> <Gold.Chemscore.ZeroCoef>
-5.4800

> <Gold.Chemscore.Hbond>
0.9769

> <Gold.Chemscore.Metal>
0.0000

> <Gold.Chemscore.Lipo>
87.8135

> <Gold.Chemscore.Internal_Hbond>
0.0000

> <Gold.Chemscore.DEClash>
1.6792

> <Gold.Chemscore.DEInternal>
0.5571

> <Gold.Chemscore.Rot>
1.5514

> <Gold.Chemscore.Internal.Correction>
   9.000000E+99

> <Gold.Chemscore.Hbonds>
donor molecule, donor type, donor heavy atom, donor atom, acceptor molecule, acceptor atom, score
      L1  H     7    34       P1  7948  0.97

> <Gold.Chemscore.Hbond.Weighted>
-3.2630

> <Gold.Chemscore.Metal.Weighted>
-0.0000

> <Gold.Chemscore.Lipo.Weighted>
-10.2742

> <Gold.Chemscore.Internal_Hbond.Weighted>
0.0000

> <Gold.Chemscore.DEClash.Weighted>
1.6792

> <Gold.Chemscore.DEInternal.Weighted>
0.5571

> <Gold.Chemscore.Rot.Weighted>
3.9715

> <Gold.Chemscore.Internal.Correction.Weighted>
   9.000000E+99

> <Gold.Protein.RotatedTorsions>
[ 6907 6896 6895 6894 ] final -135.44 input  -60.11 | X-H torsion
[ 7974 7965 7964 7962 ] final  -66.64 input  175.53 | X-H torsion
[ 8008 7997 7996 7995 ] final  -94.55 input   59.86 | X-H torsion
[ 10167 10162 10161 10158 ] final  118.94 input  -65.29 | X-H torsion
[ 10718 10713 10712 10709 ] final -131.85 input   66.30 | X-H torsion
[ 10763 10752 10751 10750 ] final  172.22 input  -60.55 | X-H torsion
[ 11005 11000 10999 10996 ] final  154.30 input  -57.11 | X-H torsion

> <Gold.Protein.ActiveResidues>
 VAL166  LYS551  ARG553  GLY616  TRP617  ASP618  TYR619  PRO620  LYS621  CYS622 
 ASP623  PHE694  ASN695  SER759  ASP760  ASP761  ALA762  ILE779  LEU786  VAL792 
 PHE793  MET794  SER795  GLU796  ALA797  LYS798  CYS799  TRP800  GLU811  SER814 

> <Gold.Protein.RotatedAtoms>
  150.9979  133.6085  159.2698 H   0  0  0  0  0  0  0  0  0  0  0  0  # atno 6907 bound_to 6896
  151.3282  135.0834  159.9339 H   0  0  0  0  0  0  0  0  0  0  0  0  # atno 6908 bound_to 6896
  152.5265  133.9614  159.7773 H   0  0  0  0  0  0  0  0  0  0  0  0  # atno 6909 bound_to 6896
  145.7392  140.8961  143.0539 H   0  0  0  0  0  0  0  0  0  0  0  0  # atno 7974 bound_to 7965
  154.7498  140.0488  157.0883 H   0  0  0  0  0  0  0  0  0  0  0  0  # atno 8008 bound_to 7997
  155.0072  140.3131  155.4825 H   0  0  0  0  0  0  0  0  0  0  0  0  # atno 8009 bound_to 7997
  156.2883  140.2191  156.5184 H   0  0  0  0  0  0  0  0  0  0  0  0  # atno 8010 bound_to 7997
  139.6079  144.7074  151.2912 H   0  0  0  0  0  0  0  0  0  0  0  0  # atno 10167 bound_to 10162
  156.2286  130.7023  151.0833 H   0  0  0  0  0  0  0  0  0  0  0  0  # atno 10718 bound_to 10713
  154.4230  135.2758  155.1963 H   0  0  0  0  0  0  0  0  0  0  0  0  # atno 10763 bound_to 10752
  154.3901  135.6068  153.5842 H   0  0  0  0  0  0  0  0  0  0  0  0  # atno 10764 bound_to 10752
  152.9833  135.5901  154.4529 H   0  0  0  0  0  0  0  0  0  0  0  0  # atno 10765 bound_to 10752
  140.1476  134.8696  157.2413 H   0  0  0  0  0  0  0  0  0  0  0  0  # atno 11005 bound_to 11000
  144.6874  139.9437  143.7476 LP  0  0  0  0  0  0  0  0  0  0  0  0  # atno 17320 bound_to 7965
  146.0464  139.3469  143.0666 LP  0  0  0  0  0  0  0  0  0  0  0  0  # atno 17321 bound_to 7965
  140.7298  143.6898  150.7931 LP  0  0  0  0  0  0  0  0  0  0  0  0  # atno 17342 bound_to 10162
  140.0487  143.5272  152.2684 LP  0  0  0  0  0  0  0  0  0  0  0  0  # atno 17343 bound_to 10162
  157.7122  131.0728  150.6459 LP  0  0  0  0  0  0  0  0  0  0  0  0  # atno 17370 bound_to 10713
  156.6525  130.4489  149.5714 LP  0  0  0  0  0  0  0  0  0  0  0  0  # atno 17371 bound_to 10713
  140.2644  134.3533  155.7395 LP  0  0  0  0  0  0  0  0  0  0  0  0  # atno 17394 bound_to 11000
  141.2195  133.7388  156.9129 LP  0  0  0  0  0  0  0  0  0  0  0  0  # atno 17395 bound_to 11000

$$$$
