AV-unprocessed.smi:2874|AV-procd|sdf|11038|dock6
  -GOLD-   2272015503D 1   1.00000     0.00000
 Structure written by MMmdl.
 39 41  0  0  0  0  0  0  0  0  1 V2000
  153.5204  137.3794  161.1168 C   0  0  0  0  0  0  0  0  0  0  0  0
  153.1995  136.6222  159.9636 O   0  0  0  0  0  0  0  0  0  0  0  0
  152.5336  137.3919  158.9753 C   0  0  0  0  0  0  0  0  0  0  0  0
  153.3390  138.6656  158.6833 C   0  0  0  0  0  0  0  0  0  0  0  0
  152.4780  139.8023  158.3899 N   0  0  0  0  0  0  0  0  0  0  0  0
  151.4588  139.8667  157.4973 C   0  0  0  0  0  0  0  0  0  0  0  0
  151.0082  138.4715  156.5092 S   0  0  0  0  0  0  0  0  0  0  0  0
  151.0541  139.2366  154.8607 C   0  0  0  0  0  0  0  0  0  0  0  0
  149.6506  139.6152  154.4315 C   0  0  0  0  0  0  0  0  0  0  0  0
  148.8692  138.6227  153.9921 N   0  0  0  0  0  0  0  0  0  0  0  0
  147.6176  138.9554  153.6095 C   0  0  0  0  0  0  0  0  0  0  0  0
  147.1533  140.2852  153.6652 C   0  0  0  0  0  0  0  0  0  0  0  0
  148.0683  141.2453  154.1425 C   0  0  0  0  0  0  0  0  0  0  0  0
  147.7109  142.5880  154.2315 N   0  0  0  0  0  0  0  0  0  0  0  0
  149.3176  140.9071  154.5267 N   0  0  0  0  0  0  0  0  0  0  0  0
  150.8274  141.0407  157.4338 N   0  0  0  0  0  0  0  0  0  0  0  0
  151.4975  141.8041  158.3685 C   0  0  0  0  0  0  0  0  0  0  0  0
  151.3007  143.1440  158.7713 C   0  0  0  0  0  0  0  0  0  0  0  0
  152.1218  143.7189  159.7636 C   0  0  0  0  0  0  0  0  0  0  0  0
  151.8684  145.3562  160.2443 Cl  0  0  0  0  0  0  0  0  0  0  0  0
  153.1486  142.9625  160.3657 C   0  0  0  0  0  0  0  0  0  0  0  0
  153.3612  141.6256  159.9782 C   0  0  0  0  0  0  0  0  0  0  0  0
  152.5391  141.0576  158.9867 C   0  0  0  0  0  0  0  0  0  0  0  0
  154.0161  136.7404  161.8475 H   0  0  0  0  0  0  0  0  0  0  0  0
  152.6234  137.7899  161.5822 H   0  0  0  0  0  0  0  0  0  0  0  0
  154.1962  138.1998  160.8729 H   0  0  0  0  0  0  0  0  0  0  0  0
  152.4241  136.8077  158.0607 H   0  0  0  0  0  0  0  0  0  0  0  0
  151.5308  137.6530  159.3172 H   0  0  0  0  0  0  0  0  0  0  0  0
  153.9657  138.9147  159.5401 H   0  0  0  0  0  0  0  0  0  0  0  0
  154.0203  138.5033  157.8480 H   0  0  0  0  0  0  0  0  0  0  0  0
  151.6978  140.1174  154.8781 H   0  0  0  0  0  0  0  0  0  0  0  0
  151.4768  138.5347  154.1406 H   0  0  0  0  0  0  0  0  0  0  0  0
  146.9835  138.1568  153.2546 H   0  0  0  0  0  0  0  0  0  0  0  0
  146.1524  140.5481  153.3564 H   0  0  0  0  0  0  0  0  0  0  0  0
  146.7937  142.9100  153.9590 H   0  0  0  0  0  0  0  0  0  0  0  0
  148.3638  143.2843  154.5610 H   0  0  0  0  0  0  0  0  0  0  0  0
  150.5155  143.7296  158.3165 H   0  0  0  0  0  0  0  0  0  0  0  0
  153.7732  143.4076  161.1263 H   0  0  0  0  0  0  0  0  0  0  0  0
  154.1449  141.0430  160.4393 H   0  0  0  0  0  0  0  0  0  0  0  0
  1  2  1  0  0  0  0
  1 24  1  0  0  0  0
  1 25  1  0  0  0  0
  1 26  1  0  0  0  0
  2  3  1  0  0  0  0
  3  4  1  0  0  0  0
  3 27  1  0  0  0  0
  3 28  1  0  0  0  0
  4  5  1  0  0  0  0
  4 29  1  0  0  0  0
  4 30  1  0  0  0  0
  5 23  1  0  0  0  0
  5  6  1  0  0  0  0
  6  7  1  0  0  0  0
  6 16  2  0  0  0  0
  7  8  1  0  0  0  0
  8  9  1  0  0  0  0
  8 31  1  0  0  0  0
  8 32  1  0  0  0  0
  9 15  1  0  0  0  0
  9 10  2  0  0  0  0
 10 11  1  0  0  0  0
 11 12  2  0  0  0  0
 11 33  1  0  0  0  0
 12 13  1  0  0  0  0
 12 34  1  0  0  0  0
 13 14  1  0  0  0  0
 13 15  2  0  0  0  0
 14 35  1  0  0  0  0
 14 36  1  0  0  0  0
 16 17  1  0  0  0  0
 17 23  2  0  0  0  0
 17 18  1  0  0  0  0
 18 19  2  0  0  0  0
 18 37  1  0  0  0  0
 19 20  1  0  0  0  0
 19 21  1  0  0  0  0
 21 22  2  0  0  0  0
 21 38  1  0  0  0  0
 22 23  1  0  0  0  0
 22 39  1  0  0  0  0
M  END
> <s_m_source_file>
AV-unprocessed.smi

> <i_m_source_file_index>
2874

> <i_lp_mmshare_version>
43012

> <i_f3d_flags>
0

> <s_epik_input>
W2NIXTFjKENsKVtjSF1bY0hdYyhjMTIpbihbQ0gyXVtDSDJdT1tDSDNdKWMobjIpU1tDSDJdYzNuW2NIXVtjSF1jKG4zKVtOSDJd

> <s_epik_cmdline>
J2VwaWtfcHl0aG9uJywgJy1waCcsICc3LjAnLCAnLXRuJywgJzgnLCAnLW1hJywgJzIwMCcsICctbWV0YWxfYmluZGluZycsICctaW1hZScsICc8aW5maWxlLm1hZT4nLCAnLW9tYWUnLCAnPG91dGZpbGUubWFlPic=

> <r_lp_tautomer_probability>
1

> <r_epik_Ionization_Penalty>
0.0126717

> <r_epik_Ionization_Penalty_Charging>
0

> <r_epik_Ionization_Penalty_Neutral>
0.0126717

> <r_epik_State_Penalty>
0.00687269

> <r_epik_Charging_Adjusted_Penalty>
0.00687269

> <i_epik_Tot_Q>
0

> <i_epik_Tot_abs_Q>
0

> <r_epik_Metal_State_Penalty>
0.00678378

> <b_epik_Metal_Only>
0

> <s_lp_Force_Field>
OPLS_2005

> <r_lp_Energy>
1.60018

> <b_lp_Chiralities_Consistent>
1

> <s_lp_Variant>
AV-unprocessed.smi:2874-1

> <Gold.Version>
5.8.1

> <Gold.Id.Protein>
6NUR|6NUR_protein|mol2

> <Gold.PLP.Fitness>
50.2434

> <Gold.PLP.PLP>
-45.9993

> <Gold.PLP.part.hbond>
-2.5468

> <Gold.PLP.part.metal>
0.0000

> <Gold.PLP.part.buried>
-5.1673

> <Gold.PLP.part.nonpolar>
-39.0510

> <Gold.PLP.part.repulsive>
0.7123

> <Gold.PLP.ligand.clash>
0.0000

> <Gold.PLP.ligand.torsion>
0.8861

> <Gold.PLP.Chemscore.Hbond>
2.0000

> <Gold.PLP.Chemscore.CHOScore>
0.0000

> <Gold.PLP.Chemscore.Metal>
0.0000

> <Gold.Chemscore.Hbonds>
donor molecule, donor type, donor heavy atom, donor atom, acceptor molecule, acceptor atom, score
      L1  H    14    36       P1  8028  1.00
      P1  H  6896  6909       L1     2  0.90

> <Gold.PLP.Chemscore.Internal.Correction>
0.0163

> <Gold.Rescore>
     Score         DG    S(hbond)    S(metal)    S(lipo)     H(rot)  DE(clash)    DE(int)     intcor
     16.84     -18.24       1.79        0.00     111.52       2.44       0.44       0.96       ----

> <Gold.Chemscore.Fitness>
16.8393

> <Gold.Chemscore.DG>
-18.2437

> <Gold.Chemscore.ZeroCoef>
-5.4800

> <Gold.Chemscore.Hbond>
1.7871

> <Gold.Chemscore.Metal>
0.0000

> <Gold.Chemscore.Lipo>
111.5217

> <Gold.Chemscore.Internal_Hbond>
0.0000

> <Gold.Chemscore.DEClash>
0.4396

> <Gold.Chemscore.DEInternal>
0.9648

> <Gold.Chemscore.Rot>
2.4426

> <Gold.Chemscore.Internal.Correction>
   9.000000E+99

> <Gold.Chemscore.Hbonds>
donor molecule, donor type, donor heavy atom, donor atom, acceptor molecule, acceptor atom, score
      L1  H    14    36       P1  8028  0.96
      P1  H  6896  6909       L1     2  0.17

> <Gold.Chemscore.Hbond.Weighted>
-5.9688

> <Gold.Chemscore.Metal.Weighted>
-0.0000

> <Gold.Chemscore.Lipo.Weighted>
-13.0480

> <Gold.Chemscore.Internal_Hbond.Weighted>
0.0000

> <Gold.Chemscore.DEClash.Weighted>
0.4396

> <Gold.Chemscore.DEInternal.Weighted>
0.9648

> <Gold.Chemscore.Rot.Weighted>
6.2531

> <Gold.Chemscore.Internal.Correction.Weighted>
   9.000000E+99

> <Gold.Protein.RotatedTorsions>
[ 6907 6896 6895 6894 ] final  137.37 input  -60.11 | X-H torsion
[ 7974 7965 7964 7962 ] final  122.52 input  175.53 | X-H torsion
[ 8008 7997 7996 7995 ] final -168.61 input   59.86 | X-H torsion
[ 10167 10162 10161 10158 ] final  161.26 input  -65.29 | X-H torsion
[ 10718 10713 10712 10709 ] final  169.13 input   66.30 | X-H torsion
[ 10763 10752 10751 10750 ] final  -84.07 input  -60.55 | X-H torsion
[ 11005 11000 10999 10996 ] final  -72.67 input  -57.11 | X-H torsion

> <Gold.Protein.ActiveResidues>
 VAL166  LYS551  ARG553  GLY616  TRP617  ASP618  TYR619  PRO620  LYS621  CYS622 
 ASP623  PHE694  ASN695  SER759  ASP760  ASP761  ALA762  ILE779  LEU786  VAL792 
 PHE793  MET794  SER795  GLU796  ALA797  LYS798  CYS799  TRP800  GLU811  SER814 

> <Gold.Protein.RotatedAtoms>
  152.2788  133.5451  159.5484 H   0  0  0  0  0  0  0  0  0  0  0  0  # atno 6907 bound_to 6896
  150.7188  134.0593  159.3834 H   0  0  0  0  0  0  0  0  0  0  0  0  # atno 6908 bound_to 6896
  151.8505  135.0559  160.0509 H   0  0  0  0  0  0  0  0  0  0  0  0  # atno 6909 bound_to 6896
  145.1066  139.3481  143.4785 H   0  0  0  0  0  0  0  0  0  0  0  0  # atno 7974 bound_to 7965
  155.8938  140.1029  157.1399 H   0  0  0  0  0  0  0  0  0  0  0  0  # atno 8008 bound_to 7997
  154.4018  140.1305  156.4413 H   0  0  0  0  0  0  0  0  0  0  0  0  # atno 8009 bound_to 7997
  155.7502  140.3465  155.5149 H   0  0  0  0  0  0  0  0  0  0  0  0  # atno 8010 bound_to 7997
  139.4847  144.4554  151.8776 H   0  0  0  0  0  0  0  0  0  0  0  0  # atno 10167 bound_to 10162
  157.0272  131.0249  151.2756 H   0  0  0  0  0  0  0  0  0  0  0  0  # atno 10718 bound_to 10713
  154.5952  135.5533  153.7319 H   0  0  0  0  0  0  0  0  0  0  0  0  # atno 10763 bound_to 10752
  153.0132  135.6353  154.1792 H   0  0  0  0  0  0  0  0  0  0  0  0  # atno 10764 bound_to 10752
  154.1733  135.2891  155.3054 H   0  0  0  0  0  0  0  0  0  0  0  0  # atno 10765 bound_to 10752
  141.1612  133.6854  156.7095 H   0  0  0  0  0  0  0  0  0  0  0  0  # atno 11005 bound_to 11000
  146.3528  140.0966  142.8610 LP  0  0  0  0  0  0  0  0  0  0  0  0  # atno 17320 bound_to 7965
  145.0895  140.9275  143.4777 LP  0  0  0  0  0  0  0  0  0  0  0  0  # atno 17321 bound_to 7965
  140.4013  144.2490  150.5893 LP  0  0  0  0  0  0  0  0  0  0  0  0  # atno 17342 bound_to 10162
  140.5054  143.2305  151.8615 LP  0  0  0  0  0  0  0  0  0  0  0  0  # atno 17343 bound_to 10162
  157.5205  130.7995  149.7804 LP  0  0  0  0  0  0  0  0  0  0  0  0  # atno 17370 bound_to 10713
  156.0082  130.3845  150.2357 LP  0  0  0  0  0  0  0  0  0  0  0  0  # atno 17371 bound_to 10713
  140.2898  134.8250  157.4006 LP  0  0  0  0  0  0  0  0  0  0  0  0  # atno 17394 bound_to 11000
  140.1357  134.5037  155.8070 LP  0  0  0  0  0  0  0  0  0  0  0  0  # atno 17395 bound_to 11000

$$$$
