AV-unprocessed.smi:2620|AV-procd|sdf|10223|dock3
  -GOLD-   2272014233D 1   1.00000     0.00000
 Structure written by MMmdl.
 36 37  0  0  0  0  0  0  0  0  1 V2000
  148.0868  136.4657  160.8676 C   0  0  0  0  0  0  0  0  0  0  0  0
  149.0956  136.1424  159.9269 O   0  0  0  0  0  0  0  0  0  0  0  0
  149.0028  136.9163  158.7431 C   0  0  0  0  0  0  0  0  0  0  0  0
  150.3609  136.8923  158.0258 C   0  0  0  0  0  0  0  0  0  0  0  0
  151.1700  138.0691  158.3696 N   0  0  0  0  0  0  0  0  0  0  0  0
  150.7765  139.2980  157.8048 C   0  0  0  0  0  0  0  0  0  0  0  0
  151.4481  140.4414  158.0366 C   0  0  0  0  0  0  0  0  0  0  0  0
  151.0065  141.7135  157.4158 C   0  0  0  0  0  0  0  0  0  0  0  0
  150.4635  141.7262  156.3102 O   0  0  0  0  0  0  0  0  0  0  0  0
  151.2141  142.9845  158.1697 C   0  0  0  0  0  0  0  0  0  0  0  0
  152.4988  143.5731  158.1323 C   0  0  0  0  0  0  0  0  0  0  0  0
  152.7573  144.7785  158.8118 C   0  0  0  0  0  0  0  0  0  0  0  0
  151.7337  145.4062  159.5439 C   0  0  0  0  0  0  0  0  0  0  0  0
  150.4546  144.8230  159.6020 C   0  0  0  0  0  0  0  0  0  0  0  0
  150.1883  143.6150  158.9255 C   0  0  0  0  0  0  0  0  0  0  0  0
  148.9398  143.0706  159.0475 O   0  0  0  0  0  0  0  0  0  0  0  0
  152.6019  140.3790  158.9123 C   0  0  0  0  0  0  0  0  0  0  0  0
  152.9885  139.2046  159.4484 C   0  0  0  0  0  0  0  0  0  0  0  0
  154.1229  139.1211  160.3075 C   0  0  0  0  0  0  0  0  0  0  0  0
  155.0527  139.0762  160.9952 N   0  0  0  0  0  0  0  0  0  0  0  0
  152.2659  137.9534  159.1796 C   0  0  0  0  0  0  0  0  0  0  0  0
  152.6165  136.8691  159.6483 O   0  0  0  0  0  0  0  0  0  0  0  0
  148.2058  135.8501  161.7589 H   0  0  0  0  0  0  0  0  0  0  0  0
  147.0932  136.2779  160.4593 H   0  0  0  0  0  0  0  0  0  0  0  0
  148.1490  137.5115  161.1708 H   0  0  0  0  0  0  0  0  0  0  0  0
  148.2239  136.5124  158.0944 H   0  0  0  0  0  0  0  0  0  0  0  0
  148.7264  137.9426  158.9909 H   0  0  0  0  0  0  0  0  0  0  0  0
  150.8962  135.9794  158.2909 H   0  0  0  0  0  0  0  0  0  0  0  0
  150.2114  136.8277  156.9467 H   0  0  0  0  0  0  0  0  0  0  0  0
  149.9074  139.2410  157.1642 H   0  0  0  0  0  0  0  0  0  0  0  0
  153.2964  143.1075  157.5708 H   0  0  0  0  0  0  0  0  0  0  0  0
  153.7413  145.2216  158.7701 H   0  0  0  0  0  0  0  0  0  0  0  0
  151.9309  146.3306  160.0663 H   0  0  0  0  0  0  0  0  0  0  0  0
  149.6766  145.3045  160.1763 H   0  0  0  0  0  0  0  0  0  0  0  0
  148.2481  143.6806  158.8410 H   0  0  0  0  0  0  0  0  0  0  0  0
  153.1608  141.2737  159.1457 H   0  0  0  0  0  0  0  0  0  0  0  0
  1  2  1  0  0  0  0
  1 23  1  0  0  0  0
  1 24  1  0  0  0  0
  1 25  1  0  0  0  0
  2  3  1  0  0  0  0
  3  4  1  0  0  0  0
  3 26  1  0  0  0  0
  3 27  1  0  0  0  0
  4  5  1  0  0  0  0
  4 28  1  0  0  0  0
  4 29  1  0  0  0  0
  5 21  1  0  0  0  0
  5  6  1  0  0  0  0
  6  7  2  0  0  0  0
  6 30  1  0  0  0  0
  7  8  1  0  0  0  0
  7 17  1  0  0  0  0
  8  9  2  0  0  0  0
  8 10  1  0  0  0  0
 10 15  1  0  0  0  0
 10 11  2  0  0  0  0
 11 12  1  0  0  0  0
 11 31  1  0  0  0  0
 12 13  2  0  0  0  0
 12 32  1  0  0  0  0
 13 14  1  0  0  0  0
 13 33  1  0  0  0  0
 14 15  2  0  0  0  0
 14 34  1  0  0  0  0
 15 16  1  0  0  0  0
 16 35  1  0  0  0  0
 17 18  2  0  0  0  0
 17 36  1  0  0  0  0
 18 19  1  0  0  0  0
 18 21  1  0  0  0  0
 19 20  3  0  0  0  0
 21 22  2  0  0  0  0
M  END
> <s_m_source_file>
AV-unprocessed.smi

> <i_m_source_file_index>
2620

> <i_lp_mmshare_version>
43012

> <i_f3d_flags>
0

> <s_epik_input>
W0NIM11PW0NIMl1bQ0gyXW4xW2NIXWMoW2NIXWMoQyNOKWMxPU8pQyg9TyljMltjSF1bY0hdW2NIXVtjSF1jMltPSF0=

> <s_epik_cmdline>
J2VwaWtfcHl0aG9uJywgJy1waCcsICc3LjAnLCAnLXRuJywgJzgnLCAnLW1hJywgJzIwMCcsICctbWV0YWxfYmluZGluZycsICctaW1hZScsICc8aW5maWxlLm1hZT4nLCAnLW9tYWUnLCAnPG91dGZpbGUubWFlPic=

> <r_epik_Ionization_Penalty>
0.219503

> <r_epik_Ionization_Penalty_Charging>
5.62591e-11

> <r_epik_Ionization_Penalty_Neutral>
0.219503

> <r_epik_State_Penalty>
0.209817

> <r_epik_Charging_Adjusted_Penalty>
0.209817

> <i_epik_Tot_Q>
0

> <i_epik_Tot_abs_Q>
0

> <r_epik_Metal_State_Penalty>
0.209817

> <b_epik_Metal_Only>
0

> <s_lp_Force_Field>
OPLS_2005

> <r_lp_Energy>
23.6774

> <b_lp_Chiralities_Consistent>
1

> <s_lp_Variant>
AV-unprocessed.smi:2620-1

> <Gold.Version>
5.8.1

> <Gold.Id.Protein>
6NUR|6NUR_protein|mol2

> <Gold.PLP.Fitness>
42.8108

> <Gold.PLP.PLP>
-40.1942

> <Gold.PLP.part.hbond>
-2.6425

> <Gold.PLP.part.metal>
0.0000

> <Gold.PLP.part.buried>
-7.9480

> <Gold.PLP.part.nonpolar>
-29.6334

> <Gold.PLP.part.repulsive>
0.0789

> <Gold.PLP.ligand.clash>
0.0000

> <Gold.PLP.ligand.torsion>
2.3597

> <Gold.PLP.Chemscore.Hbond>
1.8656

> <Gold.PLP.Chemscore.CHOScore>
0.0000

> <Gold.PLP.Chemscore.Metal>
0.0000

> <Gold.Chemscore.Hbonds>
donor molecule, donor type, donor heavy atom, donor atom, acceptor molecule, acceptor atom, score
      P1  H  6896  6907       L1    22  0.81
      P1  H  6896  6909       L1     2  0.33

> <Gold.PLP.Chemscore.Internal.Correction>
1.7393

> <Gold.Rescore>
     Score         DG    S(hbond)    S(metal)    S(lipo)     H(rot)  DE(clash)    DE(int)     intcor
     15.64     -17.85       1.87        0.00      95.71       1.98       0.00       2.22       ----

> <Gold.Chemscore.Fitness>
15.6352

> <Gold.Chemscore.DG>
-17.8529

> <Gold.Chemscore.ZeroCoef>
-5.4800

> <Gold.Chemscore.Hbond>
1.8723

> <Gold.Chemscore.Metal>
0.0000

> <Gold.Chemscore.Lipo>
95.7054

> <Gold.Chemscore.Internal_Hbond>
0.0000

> <Gold.Chemscore.DEClash>
0.0000

> <Gold.Chemscore.DEInternal>
2.2177

> <Gold.Chemscore.Rot>
1.9836

> <Gold.Chemscore.Internal.Correction>
   9.000000E+99

> <Gold.Chemscore.Hbonds>
donor molecule, donor type, donor heavy atom, donor atom, acceptor molecule, acceptor atom, score
      P1  H  6896  6907       L1    22  0.76
      P1  H  6896  6909       L1     2  0.19

> <Gold.Chemscore.Hbond.Weighted>
-6.2534

> <Gold.Chemscore.Metal.Weighted>
-0.0000

> <Gold.Chemscore.Lipo.Weighted>
-11.1975

> <Gold.Chemscore.Internal_Hbond.Weighted>
0.0000

> <Gold.Chemscore.DEClash.Weighted>
0.0000

> <Gold.Chemscore.DEInternal.Weighted>
2.2177

> <Gold.Chemscore.Rot.Weighted>
5.0780

> <Gold.Chemscore.Internal.Correction.Weighted>
   9.000000E+99

> <Gold.Protein.RotatedTorsions>
[ 6907 6896 6895 6894 ] final   45.47 input  -60.11 | X-H torsion
[ 7974 7965 7964 7962 ] final   90.38 input  175.53 | X-H torsion
[ 8008 7997 7996 7995 ] final  -49.13 input   59.86 | X-H torsion
[ 10167 10162 10161 10158 ] final  115.31 input  -65.29 | X-H torsion
[ 10718 10713 10712 10709 ] final   82.04 input   66.30 | X-H torsion
[ 10763 10752 10751 10750 ] final  155.61 input  -60.55 | X-H torsion
[ 11005 11000 10999 10996 ] final -143.84 input  -57.11 | X-H torsion

> <Gold.Protein.ActiveResidues>
 VAL166  LYS551  ARG553  GLY616  TRP617  ASP618  TYR619  PRO620  LYS621  CYS622 
 ASP623  PHE694  ASN695  SER759  ASP760  ASP761  ALA762  ILE779  LEU786  VAL792 
 PHE793  MET794  SER795  GLU796  ALA797  LYS798  CYS799  TRP800  GLU811  SER814 

> <Gold.Protein.RotatedAtoms>
  152.2449  134.8191  160.0454 H   0  0  0  0  0  0  0  0  0  0  0  0  # atno 6907 bound_to 6896
  151.8893  133.3507  159.3801 H   0  0  0  0  0  0  0  0  0  0  0  0  # atno 6908 bound_to 6896
  150.7065  134.4866  159.5540 H   0  0  0  0  0  0  0  0  0  0  0  0  # atno 6909 bound_to 6896
  145.5197  139.2279  143.2678 H   0  0  0  0  0  0  0  0  0  0  0  0  # atno 7974 bound_to 7965
  154.4039  140.1304  156.4453 H   0  0  0  0  0  0  0  0  0  0  0  0  # atno 8008 bound_to 7997
  155.7419  140.3489  155.5088 H   0  0  0  0  0  0  0  0  0  0  0  0  # atno 8009 bound_to 7997
  155.9031  140.1023  157.1325 H   0  0  0  0  0  0  0  0  0  0  0  0  # atno 8010 bound_to 7997
  139.6326  144.7116  151.2401 H   0  0  0  0  0  0  0  0  0  0  0  0  # atno 10167 bound_to 10162
  157.6848  131.0030  150.2315 H   0  0  0  0  0  0  0  0  0  0  0  0  # atno 10718 bound_to 10713
  154.1712  135.2804  155.3080 H   0  0  0  0  0  0  0  0  0  0  0  0  # atno 10763 bound_to 10752
  154.6074  135.5510  153.7440 H   0  0  0  0  0  0  0  0  0  0  0  0  # atno 10764 bound_to 10752
  153.0164  135.6407  154.1852 H   0  0  0  0  0  0  0  0  0  0  0  0  # atno 10765 bound_to 10752
  140.8085  134.2773  157.4950 H   0  0  0  0  0  0  0  0  0  0  0  0  # atno 11005 bound_to 11000
  146.2114  140.6009  142.9058 LP  0  0  0  0  0  0  0  0  0  0  0  0  # atno 17320 bound_to 7965
  144.7682  140.5579  143.6688 LP  0  0  0  0  0  0  0  0  0  0  0  0  # atno 17321 bound_to 7965
  140.7447  143.6453  150.8298 LP  0  0  0  0  0  0  0  0  0  0  0  0  # atno 17342 bound_to 10162
  140.0080  143.5673  152.2850 LP  0  0  0  0  0  0  0  0  0  0  0  0  # atno 17343 bound_to 10162
  156.2947  130.3750  149.7807 LP  0  0  0  0  0  0  0  0  0  0  0  0  # atno 17370 bound_to 10713
  156.5456  130.8319  151.3283 LP  0  0  0  0  0  0  0  0  0  0  0  0  # atno 17371 bound_to 10713
  139.8716  134.9470  156.3953 LP  0  0  0  0  0  0  0  0  0  0  0  0  # atno 17394 bound_to 11000
  140.9222  133.7637  155.9921 LP  0  0  0  0  0  0  0  0  0  0  0  0  # atno 17395 bound_to 11000

$$$$
