AV-unprocessed.smi:252|AV-procd|sdf|1939|dock8
  -GOLD-   2262021 63D 1   1.00000     0.00000
 Structure written by MMmdl.
 56 59  0  0  0  0  0  0  0  0  1 V2000
  150.0449  145.1207  160.4643 C   0  0  0  0  0  0  0  0  0  0  0  0
  151.5512  145.3384  160.2505 C   0  0  0  0  0  0  0  0  0  0  0  0
  152.2315  144.2101  159.4682 C   0  0  0  0  0  0  0  0  0  0  0  0
  152.3656  144.2759  158.2457 O   0  0  0  0  0  0  0  0  0  0  0  0
  152.6586  143.1689  160.1990 N   0  0  0  0  0  0  0  0  0  0  0  0
  153.3405  141.9919  159.6705 C   0  0  1  0  0  0  0  0  0  0  0  0
  154.1233  141.2955  160.7998 C   0  0  0  0  0  0  0  0  0  0  0  0
  154.7701  139.9977  160.2903 C   0  0  0  0  0  0  0  0  0  0  0  0
  153.7201  139.0801  159.6447 C   0  0  0  0  0  0  0  0  0  0  0  0
  152.9975  139.7922  158.5950 N   0  0  0  0  0  0  0  0  0  0  0  0
  152.2200  138.9934  157.8346 C   0  0  0  0  0  0  0  0  0  0  0  0
  152.1849  137.6555  158.0696 N   0  0  0  0  0  0  0  0  0  0  0  0
  151.4130  136.8685  157.3133 C   0  0  0  0  0  0  0  0  0  0  0  0
  150.6196  137.2069  156.2939 N   0  0  0  0  0  0  0  0  0  0  0  0
  150.6594  138.5500  156.0570 C   0  0  0  0  0  0  0  0  0  0  0  0
  151.4232  139.5078  156.7796 C   0  0  0  0  0  0  0  0  0  0  0  0
  151.2050  140.7803  156.2681 N   0  0  0  0  0  0  0  0  0  0  0  0
  150.3569  140.5859  155.2953 C   0  0  0  0  0  0  0  0  0  0  0  0
  149.9880  139.2749  155.0877 N   0  0  0  0  0  0  0  0  0  0  0  0
  149.0685  138.7795  154.0746 C   0  0  0  0  0  0  0  0  0  0  0  0
  147.6049  139.2710  154.2422 C   0  0  2  0  0  0  0  0  0  0  0  0
  147.3297  139.3963  155.6264 O   0  0  0  0  0  0  0  0  0  0  0  0
  146.5637  138.3472  153.6181 C   0  0  0  0  0  0  0  0  0  0  0  0
  146.5374  138.8221  152.1744 C   0  0  0  0  0  0  0  0  0  0  0  0
  146.6326  140.2337  152.2888 O   0  0  0  0  0  0  0  0  0  0  0  0
  147.3694  140.5896  153.4599 C   0  0  1  0  0  0  0  0  0  0  0  0
  146.5481  141.6662  154.1898 C   0  0  0  0  0  0  0  0  0  0  0  0
  152.3306  141.0154  159.0320 C   0  0  0  0  0  0  0  0  0  0  0  0
  149.6074  145.9612  161.0030 H   0  0  0  0  0  0  0  0  0  0  0  0
  149.8517  144.2198  161.0481 H   0  0  0  0  0  0  0  0  0  0  0  0
  149.5172  145.0277  159.5144 H   0  0  0  0  0  0  0  0  0  0  0  0
  151.7084  146.2765  159.7166 H   0  0  0  0  0  0  0  0  0  0  0  0
  152.0464  145.4402  161.2168 H   0  0  0  0  0  0  0  0  0  0  0  0
  152.5064  143.1967  161.1966 H   0  0  0  0  0  0  0  0  0  0  0  0
  154.0546  142.3095  158.9077 H   0  0  0  0  0  0  0  0  0  0  0  0
  154.8899  141.9622  161.1963 H   0  0  0  0  0  0  0  0  0  0  0  0
  153.4522  141.0622  161.6278 H   0  0  0  0  0  0  0  0  0  0  0  0
  155.5425  140.2376  159.5582 H   0  0  0  0  0  0  0  0  0  0  0  0
  155.2683  139.4786  161.1094 H   0  0  0  0  0  0  0  0  0  0  0  0
  154.2047  138.1956  159.2285 H   0  0  0  0  0  0  0  0  0  0  0  0
  153.0152  138.7333  160.4019 H   0  0  0  0  0  0  0  0  0  0  0  0
  151.4333  135.8171  157.5595 H   0  0  0  0  0  0  0  0  0  0  0  0
  149.9812  141.3986  154.6904 H   0  0  0  0  0  0  0  0  0  0  0  0
  149.4509  139.0757  153.0966 H   0  0  0  0  0  0  0  0  0  0  0  0
  149.1080  137.6897  154.0923 H   0  0  0  0  0  0  0  0  0  0  0  0
  148.1429  139.3206  156.1016 H   0  0  0  0  0  0  0  0  0  0  0  0
  146.7764  137.2838  153.7169 H   0  0  0  0  0  0  0  0  0  0  0  0
  145.5829  138.5235  154.0630 H   0  0  0  0  0  0  0  0  0  0  0  0
  147.3956  138.4398  151.6206 H   0  0  0  0  0  0  0  0  0  0  0  0
  145.6301  138.5239  151.6489 H   0  0  0  0  0  0  0  0  0  0  0  0
  148.3206  141.0269  153.1527 H   0  0  0  0  0  0  0  0  0  0  0  0
  147.0639  142.0236  155.0813 H   0  0  0  0  0  0  0  0  0  0  0  0
  145.5717  141.2859  154.4916 H   0  0  0  0  0  0  0  0  0  0  0  0
  146.3808  142.5281  153.5433 H   0  0  0  0  0  0  0  0  0  0  0  0
  151.5492  140.7634  159.7508 H   0  0  0  0  0  0  0  0  0  0  0  0
  151.8398  141.4866  158.1791 H   0  0  0  0  0  0  0  0  0  0  0  0
  1  2  1  0  0  0  0
  1 29  1  0  0  0  0
  1 30  1  0  0  0  0
  1 31  1  0  0  0  0
  2  3  1  0  0  0  0
  2 32  1  0  0  0  0
  2 33  1  0  0  0  0
  3  4  2  0  0  0  0
  3  5  1  0  0  0  0
  5  6  1  0  0  0  0
  5 34  1  0  0  0  0
  6 28  1  0  0  0  0
  6  7  1  0  0  0  0
  6 35  1  0  0  0  0
  7  8  1  0  0  0  0
  7 36  1  0  0  0  0
  7 37  1  0  0  0  0
  8  9  1  0  0  0  0
  8 38  1  0  0  0  0
  8 39  1  0  0  0  0
  9 10  1  0  0  0  0
  9 40  1  0  0  0  0
  9 41  1  0  0  0  0
 10 11  1  0  0  0  0
 10 28  1  0  0  0  0
 11 16  1  0  0  0  0
 11 12  2  0  0  0  0
 12 13  1  0  0  0  0
 13 14  2  0  0  0  0
 13 42  1  0  0  0  0
 14 15  1  0  0  0  0
 15 19  1  0  0  0  0
 15 16  2  0  0  0  0
 16 17  1  0  0  0  0
 17 18  2  0  0  0  0
 18 19  1  0  0  0  0
 18 43  1  0  0  0  0
 19 20  1  0  0  0  0
 20 21  1  0  0  0  0
 20 44  1  0  0  0  0
 20 45  1  0  0  0  0
 21 26  1  0  0  0  0
 21 22  1  0  0  0  0
 21 23  1  0  0  0  0
 22 46  1  0  0  0  0
 23 24  1  0  0  0  0
 23 47  1  0  0  0  0
 23 48  1  0  0  0  0
 24 25  1  0  0  0  0
 24 49  1  0  0  0  0
 24 50  1  0  0  0  0
 25 26  1  0  0  0  0
 26 27  1  0  0  0  0
 26 51  1  0  0  0  0
 27 52  1  0  0  0  0
 27 53  1  0  0  0  0
 27 54  1  0  0  0  0
 28 55  1  0  0  0  0
 28 56  1  0  0  0  0
M  END
> <s_m_source_file>
AV-unprocessed.smi

> <i_m_source_file_index>
252

> <i_lp_mmshare_version>
43012

> <i_f3d_flags>
0

> <s_epik_input>
W0NIM11bQ0gyXUMoPU8pW05IXVtDQEBIXTFbQ0gyXVtDSDJdW0NIMl1OKFtDSDJdMSljKG5bY0hdbjIpYyhjMjMpbltjSF1uM1tDSDJdW0NAQF00KFtPSF0pW0NIMl1bQ0gyXU9bQ0BIXTRbQ0gzXQ==

> <s_epik_cmdline>
J2VwaWtfcHl0aG9uJywgJy1waCcsICc3LjAnLCAnLXRuJywgJzgnLCAnLW1hJywgJzIwMCcsICctbWV0YWxfYmluZGluZycsICctaW1hZScsICc8aW5maWxlLm1hZT4nLCAnLW9tYWUnLCAnPG91dGZpbGUubWFlPic=

> <r_lp_tautomer_probability>
1

> <r_epik_Ionization_Penalty>
0.00182575

> <r_epik_Ionization_Penalty_Charging>
0

> <r_epik_Ionization_Penalty_Neutral>
0.00182575

> <r_epik_State_Penalty>
0.00104524

> <r_epik_Charging_Adjusted_Penalty>
0.00104524

> <i_epik_Tot_Q>
0

> <i_epik_Tot_abs_Q>
0

> <r_epik_Metal_State_Penalty>
-0

> <b_epik_Metal_Only>
0

> <s_lp_Force_Field>
OPLS_2005

> <r_lp_Energy>
37.9455

> <b_lp_Chiralities_Consistent>
1

> <s_lp_Variant>
AV-unprocessed.smi:252-4

> <Gold.Version>
5.8.1

> <Gold.Id.Protein>
6NUR|6NUR_protein|mol2

> <Gold.PLP.Fitness>
44.6937

> <Gold.PLP.PLP>
-45.4106

> <Gold.PLP.part.hbond>
-0.6509

> <Gold.PLP.part.metal>
0.0000

> <Gold.PLP.part.buried>
-3.9470

> <Gold.PLP.part.nonpolar>
-42.6734

> <Gold.PLP.part.repulsive>
1.5547

> <Gold.PLP.ligand.clash>
0.0000

> <Gold.PLP.ligand.torsion>
1.3401

> <Gold.PLP.Chemscore.Hbond>
0.5712

> <Gold.PLP.Chemscore.CHOScore>
0.0000

> <Gold.PLP.Chemscore.Metal>
0.0000

> <Gold.Chemscore.Hbonds>
donor molecule, donor type, donor heavy atom, donor atom, acceptor molecule, acceptor atom, score
      P1  H  7997  8008       L1    10  0.34

> <Gold.PLP.Chemscore.Internal.Correction>
0.2496

> <Gold.Rescore>
     Score         DG    S(hbond)    S(metal)    S(lipo)     H(rot)  DE(clash)    DE(int)     intcor
      9.34     -10.89       0.00        0.00     105.41       2.70       0.70       0.85       ----

> <Gold.Chemscore.Fitness>
9.3429

> <Gold.Chemscore.DG>
-10.8910

> <Gold.Chemscore.ZeroCoef>
-5.4800

> <Gold.Chemscore.Hbond>
0.0000

> <Gold.Chemscore.Metal>
0.0000

> <Gold.Chemscore.Lipo>
105.4143

> <Gold.Chemscore.Internal_Hbond>
0.0000

> <Gold.Chemscore.DEClash>
0.6956

> <Gold.Chemscore.DEInternal>
0.8526

> <Gold.Chemscore.Rot>
2.7041

> <Gold.Chemscore.Internal.Correction>
   9.000000E+99

> <Gold.Chemscore.Hbonds>
donor molecule, donor type, donor heavy atom, donor atom, acceptor molecule, acceptor atom, score
      P1  H  7997  8008       L1    10  0.01

> <Gold.Chemscore.Hbond.Weighted>
-0.0000

> <Gold.Chemscore.Metal.Weighted>
-0.0000

> <Gold.Chemscore.Lipo.Weighted>
-12.3335

> <Gold.Chemscore.Internal_Hbond.Weighted>
0.0000

> <Gold.Chemscore.DEClash.Weighted>
0.6956

> <Gold.Chemscore.DEInternal.Weighted>
0.8526

> <Gold.Chemscore.Rot.Weighted>
6.9225

> <Gold.Chemscore.Internal.Correction.Weighted>
   9.000000E+99

> <Gold.Protein.RotatedTorsions>
[ 6907 6896 6895 6894 ] final   -0.04 input  -60.11 | X-H torsion
[ 7974 7965 7964 7962 ] final  166.82 input  175.53 | X-H torsion
[ 8008 7997 7996 7995 ] final  -96.44 input   59.86 | X-H torsion
[ 10167 10162 10161 10158 ] final -113.28 input  -65.29 | X-H torsion
[ 10718 10713 10712 10709 ] final  142.56 input   66.30 | X-H torsion
[ 10763 10752 10751 10750 ] final  -67.57 input  -60.55 | X-H torsion
[ 11005 11000 10999 10996 ] final -164.44 input  -57.11 | X-H torsion

> <Gold.Protein.ActiveResidues>
 VAL166  LYS551  ARG553  GLY616  TRP617  ASP618  TYR619  PRO620  LYS621  CYS622 
 ASP623  PHE694  ASN695  SER759  ASP760  ASP761  ALA762  ILE779  LEU786  VAL792 
 PHE793  MET794  SER795  GLU796  ALA797  LYS798  CYS799  TRP800  GLU811  SER814 

> <Gold.Protein.RotatedAtoms>
  151.5687  135.1063  159.9989 H   0  0  0  0  0  0  0  0  0  0  0  0  # atno 6907 bound_to 6896
  152.4411  133.7446  159.6670 H   0  0  0  0  0  0  0  0  0  0  0  0  # atno 6908 bound_to 6896
  150.8317  133.8011  159.3119 H   0  0  0  0  0  0  0  0  0  0  0  0  # atno 6909 bound_to 6896
  144.7448  139.8670  143.6385 H   0  0  0  0  0  0  0  0  0  0  0  0  # atno 7974 bound_to 7965
  154.7745  140.0471  157.1078 H   0  0  0  0  0  0  0  0  0  0  0  0  # atno 8008 bound_to 7997
  154.9779  140.3098  155.4939 H   0  0  0  0  0  0  0  0  0  0  0  0  # atno 8009 bound_to 7997
  156.2927  140.2241  156.4876 H   0  0  0  0  0  0  0  0  0  0  0  0  # atno 8010 bound_to 7997
  140.1136  143.4506  152.1737 H   0  0  0  0  0  0  0  0  0  0  0  0  # atno 10167 bound_to 10162
  157.3792  131.0990  151.0755 H   0  0  0  0  0  0  0  0  0  0  0  0  # atno 10718 bound_to 10713
  154.3764  135.6084  153.5767 H   0  0  0  0  0  0  0  0  0  0  0  0  # atno 10763 bound_to 10752
  152.9789  135.5850  154.4462 H   0  0  0  0  0  0  0  0  0  0  0  0  # atno 10764 bound_to 10752
  154.4224  135.2846  155.1944 H   0  0  0  0  0  0  0  0  0  0  0  0  # atno 10765 bound_to 10752
  140.5869  134.5085  157.5187 H   0  0  0  0  0  0  0  0  0  0  0  0  # atno 11005 bound_to 11000
  146.1307  139.4342  143.0170 LP  0  0  0  0  0  0  0  0  0  0  0  0  # atno 17320 bound_to 7965
  145.7167  141.0088  143.1424 LP  0  0  0  0  0  0  0  0  0  0  0  0  # atno 17321 bound_to 7965
  139.5606  144.7403  151.4166 LP  0  0  0  0  0  0  0  0  0  0  0  0  # atno 17342 bound_to 10162
  140.6912  143.7857  150.7258 LP  0  0  0  0  0  0  0  0  0  0  0  0  # atno 17343 bound_to 10162
  157.1830  130.6318  149.5678 LP  0  0  0  0  0  0  0  0  0  0  0  0  # atno 17370 bound_to 10713
  155.9772  130.4747  150.6577 LP  0  0  0  0  0  0  0  0  0  0  0  0  # atno 17371 bound_to 10713
  139.9292  134.7997  156.0980 LP  0  0  0  0  0  0  0  0  0  0  0  0  # atno 17394 bound_to 11000
  141.0960  133.6695  156.2647 LP  0  0  0  0  0  0  0  0  0  0  0  0  # atno 17395 bound_to 11000

$$$$
