AV-unprocessed.smi:1830|AV-procd|sdf|7451|dock2
  -GOLD-   22720 9143D 1   1.00000     0.00000
 Structure written by MMmdl.
 54 57  0  0  0  0  0  0  0  0  3 V2000
  151.4594  135.6751  155.8999 O   0  0  0  0  0  0  0  0  0  0  0  0
  150.7175  135.8678  154.9373 C   0  0  0  0  0  0  0  0  0  0  0  0
  150.7192  136.9990  154.2186 N   0  0  0  0  0  0  0  0  0  0  0  0
  151.5418  138.1698  154.5079 C   0  0  0  0  0  0  0  0  0  0  0  0
  151.0060  139.0073  155.6847 C   0  0  1  0  0  0  0  0  0  0  0  0
  152.0684  139.2596  156.7842 C   0  0  0  0  0  0  0  0  0  0  0  0
  151.4995  140.1898  157.7770 N   0  3  1  0  0  0  0  0  0  0  0  0
  152.3303  140.5758  158.9305 C   0  0  0  0  0  0  0  0  0  0  0  0
  151.7489  141.9244  159.4009 C   0  0  0  0  0  0  0  0  0  0  0  0
  150.7038  142.3216  158.3421 C   0  0  0  0  0  0  0  0  0  0  0  0
  151.0680  141.4413  157.1507 C   0  0  2  0  0  0  0  0  0  0  0  0
  149.9778  141.1314  156.1179 C   0  0  0  0  0  0  0  0  0  0  0  0
  150.5467  140.2520  155.1464 O   0  0  0  0  0  0  0  0  0  0  0  0
  149.7976  135.0004  154.4820 N   0  0  0  0  0  0  0  0  0  0  0  0
  149.4382  133.7347  155.0279 C   0  0  0  0  0  0  0  0  0  0  0  0
  150.2210  133.1196  156.0389 C   0  0  0  0  0  0  0  0  0  0  0  0
  149.8278  131.8803  156.5776 C   0  0  0  0  0  0  0  0  0  0  0  0
  148.6582  131.2696  156.0948 C   0  0  0  0  0  0  0  0  0  0  0  0
  147.9464  131.8689  155.1184 N   0  3  0  0  0  0  0  0  0  0  0  0
  148.2806  133.0538  154.5484 C   0  0  0  0  0  0  0  0  0  0  0  0
  147.4418  133.5503  153.5241 N   0  0  0  0  0  0  0  0  0  0  0  0
  146.0749  133.9628  153.8229 C   0  0  0  0  0  0  0  0  0  0  0  0
  145.3920  134.0880  152.4638 C   0  0  0  0  0  0  0  0  0  0  0  0
  146.0503  132.9695  151.6620 C   0  0  0  0  0  0  0  0  0  0  0  0
  147.4827  132.9271  152.2050 C   0  0  0  0  0  0  0  0  0  0  0  0
  150.0772  137.0753  153.4431 H   0  0  0  0  0  0  0  0  0  0  0  0
  152.5529  137.8265  154.7289 H   0  0  0  0  0  0  0  0  0  0  0  0
  151.6195  138.7891  153.6125 H   0  0  0  0  0  0  0  0  0  0  0  0
  150.1483  138.4960  156.1256 H   0  0  0  0  0  0  0  0  0  0  0  0
  152.3462  138.3280  157.2784 H   0  0  0  0  0  0  0  0  0  0  0  0
  152.9763  139.6849  156.3535 H   0  0  0  0  0  0  0  0  0  0  0  0
  152.3015  139.8123  159.7081 H   0  0  0  0  0  0  0  0  0  0  0  0
  153.3674  140.7044  158.6166 H   0  0  0  0  0  0  0  0  0  0  0  0
  151.2910  141.8440  160.3873 H   0  0  0  0  0  0  0  0  0  0  0  0
  152.5399  142.6721  159.4664 H   0  0  0  0  0  0  0  0  0  0  0  0
  149.7022  142.0777  158.6991 H   0  0  0  0  0  0  0  0  0  0  0  0
  150.7267  143.3852  158.1028 H   0  0  0  0  0  0  0  0  0  0  0  0
  151.9231  141.8911  156.6411 H   0  0  0  0  0  0  0  0  0  0  0  0
  149.1029  140.6732  156.5818 H   0  0  0  0  0  0  0  0  0  0  0  0
  149.6459  142.0449  155.6244 H   0  0  0  0  0  0  0  0  0  0  0  0
  149.2023  135.3378  153.7401 H   0  0  0  0  0  0  0  0  0  0  0  0
  151.1250  133.5783  156.4097 H   0  0  0  0  0  0  0  0  0  0  0  0
  150.4144  131.4070  157.3515 H   0  0  0  0  0  0  0  0  0  0  0  0
  148.2769  130.3232  156.4502 H   0  0  0  0  0  0  0  0  0  0  0  0
  145.5677  133.2024  154.4179 H   0  0  0  0  0  0  0  0  0  0  0  0
  146.0533  134.9036  154.3742 H   0  0  0  0  0  0  0  0  0  0  0  0
  144.3076  133.9928  152.5221 H   0  0  0  0  0  0  0  0  0  0  0  0
  145.6251  135.0548  152.0149 H   0  0  0  0  0  0  0  0  0  0  0  0
  145.5486  132.0243  151.8738 H   0  0  0  0  0  0  0  0  0  0  0  0
  146.0099  133.1360  150.5852 H   0  0  0  0  0  0  0  0  0  0  0  0
  148.1411  133.5117  151.5620 H   0  0  0  0  0  0  0  0  0  0  0  0
  147.8615  131.9047  152.2436 H   0  0  0  0  0  0  0  0  0  0  0  0
  150.6677  139.7584  158.1543 H   0  0  0  0  0  0  0  0  0  0  0  0
  147.1075  131.3954  154.7825 H   0  0  0  0  0  0  0  0  0  0  0  0
  1  2  2  0  0  0  0
  2  3  1  0  0  0  0
  2 14  1  0  0  0  0
  3  4  1  0  0  0  0
  3 26  1  0  0  0  0
  4  5  1  0  0  0  0
  4 27  1  0  0  0  0
  4 28  1  0  0  0  0
  5 13  1  0  0  0  0
  5  6  1  0  0  0  0
  5 29  1  0  0  0  0
  6  7  1  0  0  0  0
  6 30  1  0  0  0  0
  6 31  1  0  0  0  0
  7 11  1  0  0  0  0
  7  8  1  0  0  0  0
  7 53  1  0  0  0  0
  8  9  1  0  0  0  0
  8 32  1  0  0  0  0
  8 33  1  0  0  0  0
  9 10  1  0  0  0  0
  9 34  1  0  0  0  0
  9 35  1  0  0  0  0
 10 11  1  0  0  0  0
 10 36  1  0  0  0  0
 10 37  1  0  0  0  0
 11 12  1  0  0  0  0
 11 38  1  0  0  0  0
 12 13  1  0  0  0  0
 12 39  1  0  0  0  0
 12 40  1  0  0  0  0
 14 15  1  0  0  0  0
 14 41  1  0  0  0  0
 15 20  1  0  0  0  0
 15 16  2  0  0  0  0
 16 17  1  0  0  0  0
 16 42  1  0  0  0  0
 17 18  2  0  0  0  0
 17 43  1  0  0  0  0
 18 19  1  0  0  0  0
 18 44  1  0  0  0  0
 19 20  2  0  0  0  0
 19 54  1  0  0  0  0
 20 21  1  0  0  0  0
 21 25  1  0  0  0  0
 21 22  1  0  0  0  0
 22 23  1  0  0  0  0
 22 45  1  0  0  0  0
 22 46  1  0  0  0  0
 23 24  1  0  0  0  0
 23 47  1  0  0  0  0
 23 48  1  0  0  0  0
 24 25  1  0  0  0  0
 24 49  1  0  0  0  0
 24 50  1  0  0  0  0
 25 51  1  0  0  0  0
 25 52  1  0  0  0  0
M  CHG  1   7   1
M  CHG  1  19   1
M  END
> <s_m_source_file>
AV-unprocessed.smi

> <i_m_source_file_index>
1830

> <i_lp_mmshare_version>
43012

> <i_f3d_flags>
0

> <s_epik_input>
W0NIMl0xW0NIMl1bQ0gyXVtDQEhdKE4xMilbQ0gyXU9bQ0BASF0oW0NIMl0yKVtDSDJdW05IXUMoPU8pW05IXWMzW2NIXVtjSF1bY0hdbmMzTjRbQ0gyXVtDSDJdW0NIMl1bQ0gyXTQ=

> <s_epik_cmdline>
J2VwaWtfcHl0aG9uJywgJy1waCcsICc3LjAnLCAnLXRuJywgJzgnLCAnLW1hJywgJzIwMCcsICctbWV0YWxfYmluZGluZycsICctaW1hZScsICc8aW5maWxlLm1hZT4nLCAnLW9tYWUnLCAnPG91dGZpbGUubWFlPic=

> <r_lp_tautomer_probability>
0.999994

> <r_epik_Ionization_Penalty>
1.29113

> <r_epik_Ionization_Penalty_Charging>
1.29111

> <r_epik_Ionization_Penalty_Neutral>
1.88144e-05

> <r_epik_State_Penalty>
1.32676

> <r_epik_Charging_Adjusted_Penalty>
2.61787

> <i_epik_Tot_Q>
2

> <i_epik_Tot_abs_Q>
2

> <r_epik_Metal_State_Penalty>
1.40425

> <b_epik_Metal_Only>
0

> <s_lp_Force_Field>
OPLS_2005

> <r_lp_Energy>
72.9797

> <b_lp_Chiralities_Consistent>
1

> <s_lp_Variant>
AV-unprocessed.smi:1830-20

> <Gold.Version>
5.8.1

> <Gold.Id.Protein>
6NUR|6NUR_protein|mol2

> <Gold.PLP.Fitness>
48.4502

> <Gold.PLP.PLP>
-38.4294

> <Gold.PLP.part.hbond>
-5.2412

> <Gold.PLP.part.metal>
0.0000

> <Gold.PLP.part.buried>
-5.2799

> <Gold.PLP.part.nonpolar>
-29.4104

> <Gold.PLP.part.repulsive>
0.4629

> <Gold.PLP.ligand.clash>
0.0000

> <Gold.PLP.ligand.torsion>
1.0659

> <Gold.PLP.Chemscore.Hbond>
3.9192

> <Gold.PLP.Chemscore.CHOScore>
0.0000

> <Gold.PLP.Chemscore.Metal>
0.0000

> <Gold.Chemscore.Hbonds>
donor molecule, donor type, donor heavy atom, donor atom, acceptor molecule, acceptor atom, score
      L1  H     3    26       P1  7948  0.85
      L1  H    14    41       P1  7948  0.92
      P1  H  7989  7998       L1    13  0.91
      P1  H 10752 10765       L1     1  1.00

> <Gold.PLP.Chemscore.Internal.Correction>
0.3951

> <Gold.Rescore>
     Score         DG    S(hbond)    S(metal)    S(lipo)     H(rot)  DE(clash)    DE(int)     intcor
     19.66     -22.12       2.90        0.00      90.77       1.43       0.12       2.34       ----

> <Gold.Chemscore.Fitness>
19.6638

> <Gold.Chemscore.DG>
-22.1241

> <Gold.Chemscore.ZeroCoef>
-5.4800

> <Gold.Chemscore.Hbond>
2.8979

> <Gold.Chemscore.Metal>
0.0000

> <Gold.Chemscore.Lipo>
90.7720

> <Gold.Chemscore.Internal_Hbond>
0.0000

> <Gold.Chemscore.DEClash>
0.1174

> <Gold.Chemscore.DEInternal>
2.3429

> <Gold.Chemscore.Rot>
1.4278

> <Gold.Chemscore.Internal.Correction>
   9.000000E+99

> <Gold.Chemscore.Hbonds>
donor molecule, donor type, donor heavy atom, donor atom, acceptor molecule, acceptor atom, score
      L1  H     3    26       P1  7948  0.18
      L1  H    14    41       P1  7948  0.37
      P1  H  7989  7998       L1    13  0.73
      P1  H 10752 10765       L1     1  0.39

> <Gold.Chemscore.Hbond.Weighted>
-9.6789

> <Gold.Chemscore.Metal.Weighted>
-0.0000

> <Gold.Chemscore.Lipo.Weighted>
-10.6203

> <Gold.Chemscore.Internal_Hbond.Weighted>
0.0000

> <Gold.Chemscore.DEClash.Weighted>
0.1174

> <Gold.Chemscore.DEInternal.Weighted>
2.3429

> <Gold.Chemscore.Rot.Weighted>
3.6551

> <Gold.Chemscore.Internal.Correction.Weighted>
   9.000000E+99

> <Gold.Protein.RotatedTorsions>
[ 6907 6896 6895 6894 ] final   88.15 input  -60.11 | X-H torsion
[ 7974 7965 7964 7962 ] final  -47.33 input  175.53 | X-H torsion
[ 8008 7997 7996 7995 ] final  -76.20 input   59.86 | X-H torsion
[ 10167 10162 10161 10158 ] final  -50.64 input  -65.29 | X-H torsion
[ 10718 10713 10712 10709 ] final -139.07 input   66.30 | X-H torsion
[ 10763 10752 10751 10750 ] final -146.91 input  -60.55 | X-H torsion
[ 11005 11000 10999 10996 ] final   -8.91 input  -57.11 | X-H torsion

> <Gold.Protein.ActiveResidues>
 VAL166  LYS551  ARG553  GLY616  TRP617  ASP618  TYR619  PRO620  LYS621  CYS622 
 ASP623  PHE694  ASN695  SER759  ASP760  ASP761  ALA762  ILE779  LEU786  VAL792 
 PHE793  MET794  SER795  GLU796  ALA797  LYS798  CYS799  TRP800  GLU811  SER814 

> <Gold.Protein.RotatedAtoms>
  152.5421  134.2165  159.8770 H   0  0  0  0  0  0  0  0  0  0  0  0  # atno 6907 bound_to 6896
  151.2145  133.4530  159.2606 H   0  0  0  0  0  0  0  0  0  0  0  0  # atno 6908 bound_to 6896
  151.0865  134.9903  159.8437 H   0  0  0  0  0  0  0  0  0  0  0  0  # atno 6909 bound_to 6896
  145.9627  140.7463  142.9449 H   0  0  0  0  0  0  0  0  0  0  0  0  # atno 7974 bound_to 7965
  154.5484  140.0731  156.8627 H   0  0  0  0  0  0  0  0  0  0  0  0  # atno 8008 bound_to 7997
  155.3041  140.3386  155.4228 H   0  0  0  0  0  0  0  0  0  0  0  0  # atno 8009 bound_to 7997
  156.1939  140.1696  156.8023 H   0  0  0  0  0  0  0  0  0  0  0  0  # atno 8010 bound_to 7997
  140.6627  143.2650  151.4389 H   0  0  0  0  0  0  0  0  0  0  0  0  # atno 10167 bound_to 10162
  156.3066  130.7458  151.1524 H   0  0  0  0  0  0  0  0  0  0  0  0  # atno 10718 bound_to 10713
  154.8312  135.3374  154.6735 H   0  0  0  0  0  0  0  0  0  0  0  0  # atno 10763 bound_to 10752
  153.7355  135.6949  153.4983 H   0  0  0  0  0  0  0  0  0  0  0  0  # atno 10764 bound_to 10752
  153.2281  135.4426  155.0516 H   0  0  0  0  0  0  0  0  0  0  0  0  # atno 10765 bound_to 10752
  140.7286  133.8768  155.8875 H   0  0  0  0  0  0  0  0  0  0  0  0  # atno 11005 bound_to 11000
  144.6818  140.2618  143.7318 LP  0  0  0  0  0  0  0  0  0  0  0  0  # atno 17320 bound_to 7965
  145.8017  139.1967  143.2044 LP  0  0  0  0  0  0  0  0  0  0  0  0  # atno 17321 bound_to 7965
  139.5866  144.1590  152.2037 LP  0  0  0  0  0  0  0  0  0  0  0  0  # atno 17342 bound_to 10162
  140.0932  144.5603  150.7040 LP  0  0  0  0  0  0  0  0  0  0  0  0  # atno 17343 bound_to 10162
  157.7381  131.0544  150.5315 LP  0  0  0  0  0  0  0  0  0  0  0  0  # atno 17370 bound_to 10713
  156.5450  130.4217  149.6135 LP  0  0  0  0  0  0  0  0  0  0  0  0  # atno 17371 bound_to 10713
  140.9941  134.1239  157.4380 LP  0  0  0  0  0  0  0  0  0  0  0  0  # atno 17394 bound_to 11000
  139.8831  135.0049  156.6280 LP  0  0  0  0  0  0  0  0  0  0  0  0  # atno 17395 bound_to 11000

$$$$
