AV-unprocessed.smi:730|AV-procd|sdf|3524|dock4
  -GOLD-   22720 0513D 1   1.00000     0.00000
 Structure written by MMmdl.
 40 41  0  0  0  0  0  0  0  0  1 V2000
  145.8328  131.9601  149.5653 C   0  0  0  0  0  0  0  0  0  0  0  0
  144.5451  132.7280  149.9247 C   0  0  0  0  0  0  0  0  0  0  0  0
  143.7902  133.0477  148.6208 C   0  0  0  0  0  0  0  0  0  0  0  0
  143.6688  131.8200  150.8078 C   0  0  0  0  0  0  0  0  0  0  0  0
  144.8677  134.0005  150.6575 C   0  0  0  0  0  0  0  0  0  0  0  0
  146.0396  134.6065  151.0223 C   0  0  0  0  0  0  0  0  0  0  0  0
  145.6049  135.7827  151.6884 C   0  0  0  0  0  0  0  0  0  0  0  0
  146.5411  136.7012  152.2282 N   0  0  0  0  0  0  0  0  0  0  0  0
  146.3491  137.5693  153.2359 C   0  0  0  0  0  0  0  0  0  0  0  0
  145.2987  137.7091  153.8631 O   0  0  0  0  0  0  0  0  0  0  0  0
  147.4573  138.2820  153.4821 N   0  0  0  0  0  0  0  0  0  0  0  0
  147.5831  139.3115  154.5141 C   0  0  2  0  0  0  0  0  0  0  0  0
  146.5068  140.4076  154.3559 C   0  0  0  0  0  0  0  0  0  0  0  0
  147.2503  141.7463  154.3528 C   0  0  0  0  0  0  0  0  0  0  0  0
  148.6417  141.4087  153.8265 C   0  0  0  0  0  0  0  0  0  0  0  0
  148.9431  140.0454  154.4508 C   0  0  2  0  0  0  0  0  0  0  0  0
  149.9566  139.3659  153.7330 O   0  0  0  0  0  0  0  0  0  0  0  0
  144.2868  135.8908  151.7310 N   0  0  0  0  0  0  0  0  0  0  0  0
  143.8091  134.7525  151.0722 O   0  0  0  0  0  0  0  0  0  0  0  0
  145.6093  131.0342  149.0344 H   0  0  0  0  0  0  0  0  0  0  0  0
  146.4009  131.6947  150.4579 H   0  0  0  0  0  0  0  0  0  0  0  0
  146.4850  132.5539  148.9238 H   0  0  0  0  0  0  0  0  0  0  0  0
  144.3838  133.6870  147.9659 H   0  0  0  0  0  0  0  0  0  0  0  0
  142.8507  133.5650  148.8191 H   0  0  0  0  0  0  0  0  0  0  0  0
  143.5509  132.1400  148.0656 H   0  0  0  0  0  0  0  0  0  0  0  0
  143.4272  130.8844  150.3022 H   0  0  0  0  0  0  0  0  0  0  0  0
  142.7259  132.3034  151.0659 H   0  0  0  0  0  0  0  0  0  0  0  0
  144.1742  131.5688  151.7410 H   0  0  0  0  0  0  0  0  0  0  0  0
  147.0469  134.2622  150.8408 H   0  0  0  0  0  0  0  0  0  0  0  0
  147.4550  136.6977  151.8005 H   0  0  0  0  0  0  0  0  0  0  0  0
  148.2778  138.1034  152.9213 H   0  0  0  0  0  0  0  0  0  0  0  0
  147.4938  138.8376  155.4936 H   0  0  0  0  0  0  0  0  0  0  0  0
  145.9759  140.2943  153.4093 H   0  0  0  0  0  0  0  0  0  0  0  0
  145.7591  140.3630  155.1484 H   0  0  0  0  0  0  0  0  0  0  0  0
  146.7462  142.5045  153.7529 H   0  0  0  0  0  0  0  0  0  0  0  0
  147.3276  142.1263  155.3725 H   0  0  0  0  0  0  0  0  0  0  0  0
  148.6080  141.3279  152.7387 H   0  0  0  0  0  0  0  0  0  0  0  0
  149.3849  142.1639  154.0836 H   0  0  0  0  0  0  0  0  0  0  0  0
  149.3005  140.2045  155.4694 H   0  0  0  0  0  0  0  0  0  0  0  0
  149.6949  139.3117  152.8266 H   0  0  0  0  0  0  0  0  0  0  0  0
  1  2  1  0  0  0  0
  1 20  1  0  0  0  0
  1 21  1  0  0  0  0
  1 22  1  0  0  0  0
  2  3  1  0  0  0  0
  2  4  1  0  0  0  0
  2  5  1  0  0  0  0
  3 23  1  0  0  0  0
  3 24  1  0  0  0  0
  3 25  1  0  0  0  0
  4 26  1  0  0  0  0
  4 27  1  0  0  0  0
  4 28  1  0  0  0  0
  5 19  1  0  0  0  0
  5  6  2  0  0  0  0
  6  7  1  0  0  0  0
  6 29  1  0  0  0  0
  7  8  1  0  0  0  0
  7 18  2  0  0  0  0
  8  9  1  0  0  0  0
  8 30  1  0  0  0  0
  9 10  2  0  0  0  0
  9 11  1  0  0  0  0
 11 12  1  0  0  0  0
 11 31  1  0  0  0  0
 12 16  1  0  0  0  0
 12 13  1  0  0  0  0
 12 32  1  0  0  0  0
 13 14  1  0  0  0  0
 13 33  1  0  0  0  0
 13 34  1  0  0  0  0
 14 15  1  0  0  0  0
 14 35  1  0  0  0  0
 14 36  1  0  0  0  0
 15 16  1  0  0  0  0
 15 37  1  0  0  0  0
 15 38  1  0  0  0  0
 16 17  1  0  0  0  0
 16 39  1  0  0  0  0
 17 40  1  0  0  0  0
 18 19  1  0  0  0  0
M  END
> <s_m_source_file>
AV-unprocessed.smi

> <i_m_source_file_index>
730

> <i_lp_mmshare_version>
43012

> <i_f3d_flags>
0

> <s_epik_input>
W0NIM11DKFtDSDNdKShbQ0gzXSljMVtjSF1jKG5vMSlbTkhdQyg9TylbTkhdW0NAQEhdMltDSDJdW0NIMl1bQ0gyXVtDQEhdMltPSF0=

> <s_epik_cmdline>
J2VwaWtfcHl0aG9uJywgJy1waCcsICc3LjAnLCAnLXRuJywgJzgnLCAnLW1hJywgJzIwMCcsICctbWV0YWxfYmluZGluZycsICctaW1hZScsICc8aW5maWxlLm1hZT4nLCAnLW9tYWUnLCAnPG91dGZpbGUubWFlPic=

> <r_lp_tautomer_probability>
1

> <r_epik_Ionization_Penalty>
2.23071e-05

> <r_epik_Ionization_Penalty_Charging>
0

> <r_epik_Ionization_Penalty_Neutral>
2.23071e-05

> <r_epik_State_Penalty>
-0

> <r_epik_Charging_Adjusted_Penalty>
0

> <i_epik_Tot_Q>
0

> <i_epik_Tot_abs_Q>
0

> <r_epik_Metal_State_Penalty>
-0

> <b_epik_Metal_Only>
0

> <s_lp_Force_Field>
OPLS_2005

> <r_lp_Energy>
21.1431

> <b_lp_Chiralities_Consistent>
1

> <s_lp_Variant>
AV-unprocessed.smi:730-3

> <Gold.Version>
5.8.1

> <Gold.Id.Protein>
6NUR|6NUR_protein|mol2

> <Gold.PLP.Fitness>
41.3014

> <Gold.PLP.PLP>
-33.7859

> <Gold.PLP.part.hbond>
-3.7536

> <Gold.PLP.part.metal>
0.0000

> <Gold.PLP.part.buried>
-1.9646

> <Gold.PLP.part.nonpolar>
-28.8731

> <Gold.PLP.part.repulsive>
0.5854

> <Gold.PLP.ligand.clash>
0.0000

> <Gold.PLP.ligand.torsion>
0.1708

> <Gold.PLP.Chemscore.Hbond>
2.6184

> <Gold.PLP.Chemscore.CHOScore>
0.0000

> <Gold.PLP.Chemscore.Metal>
0.0000

> <Gold.Chemscore.Hbonds>
donor molecule, donor type, donor heavy atom, donor atom, acceptor molecule, acceptor atom, score
      L1  H     8    30       P1  7948  0.99
      L1  H    11    31       P1  7948  0.31
      L1  H    17    40       P1  7957  1.00
      P1  H  7989  7998       L1    17  0.35

> <Gold.PLP.Chemscore.Internal.Correction>
0.0019

> <Gold.Rescore>
     Score         DG    S(hbond)    S(metal)    S(lipo)     H(rot)  DE(clash)    DE(int)     intcor
     16.89     -18.86       2.29        0.00      86.35       1.71       0.01       1.96       ----

> <Gold.Chemscore.Fitness>
16.8871

> <Gold.Chemscore.DG>
-18.8577

> <Gold.Chemscore.ZeroCoef>
-5.4800

> <Gold.Chemscore.Hbond>
2.2930

> <Gold.Chemscore.Metal>
0.0000

> <Gold.Chemscore.Lipo>
86.3516

> <Gold.Chemscore.Internal_Hbond>
0.0000

> <Gold.Chemscore.DEClash>
0.0142

> <Gold.Chemscore.DEInternal>
1.9564

> <Gold.Chemscore.Rot>
1.7125

> <Gold.Chemscore.Internal.Correction>
   9.000000E+99

> <Gold.Chemscore.Hbonds>
donor molecule, donor type, donor heavy atom, donor atom, acceptor molecule, acceptor atom, score
      L1  H     8    30       P1  7948  0.89
      L1  H    11    31       P1  7948  0.31
      L1  H    17    40       P1  7957  0.95
      P1  H  7989  7998       L1    17  0.03

> <Gold.Chemscore.Hbond.Weighted>
-7.6586

> <Gold.Chemscore.Metal.Weighted>
-0.0000

> <Gold.Chemscore.Lipo.Weighted>
-10.1031

> <Gold.Chemscore.Internal_Hbond.Weighted>
0.0000

> <Gold.Chemscore.DEClash.Weighted>
0.0142

> <Gold.Chemscore.DEInternal.Weighted>
1.9564

> <Gold.Chemscore.Rot.Weighted>
4.3841

> <Gold.Chemscore.Internal.Correction.Weighted>
   9.000000E+99

> <Gold.Protein.RotatedTorsions>
[ 6907 6896 6895 6894 ] final  -72.06 input  -60.11 | X-H torsion
[ 7974 7965 7964 7962 ] final -171.05 input  175.53 | X-H torsion
[ 8008 7997 7996 7995 ] final -153.28 input   59.86 | X-H torsion
[ 10167 10162 10161 10158 ] final   37.25 input  -65.29 | X-H torsion
[ 10718 10713 10712 10709 ] final  173.50 input   66.30 | X-H torsion
[ 10763 10752 10751 10750 ] final  164.16 input  -60.55 | X-H torsion
[ 11005 11000 10999 10996 ] final   49.23 input  -57.11 | X-H torsion

> <Gold.Protein.ActiveResidues>
 VAL166  LYS551  ARG553  GLY616  TRP617  ASP618  TYR619  PRO620  LYS621  CYS622 
 ASP623  PHE694  ASN695  SER759  ASP760  ASP761  ALA762  ILE779  LEU786  VAL792 
 PHE793  MET794  SER795  GLU796  ALA797  LYS798  CYS799  TRP800  GLU811  SER814 

> <Gold.Protein.RotatedAtoms>
  150.7186  134.5218  159.5657 H   0  0  0  0  0  0  0  0  0  0  0  0  # atno 6907 bound_to 6896
  152.2772  134.7866  160.0412 H   0  0  0  0  0  0  0  0  0  0  0  0  # atno 6908 bound_to 6896
  151.8525  133.3407  159.3714 H   0  0  0  0  0  0  0  0  0  0  0  0  # atno 6909 bound_to 6896
  144.7162  140.1979  143.6341 H   0  0  0  0  0  0  0  0  0  0  0  0  # atno 7974 bound_to 7965
  155.6684  140.0730  157.2529 H   0  0  0  0  0  0  0  0  0  0  0  0  # atno 8008 bound_to 7997
  154.4128  140.1703  156.1903 H   0  0  0  0  0  0  0  0  0  0  0  0  # atno 8009 bound_to 7997
  155.9638  140.3367  155.6517 H   0  0  0  0  0  0  0  0  0  0  0  0  # atno 8010 bound_to 7997
  140.4051  144.1670  150.6136 H   0  0  0  0  0  0  0  0  0  0  0  0  # atno 10167 bound_to 10162
  156.9634  131.0068  151.2922 H   0  0  0  0  0  0  0  0  0  0  0  0  # atno 10718 bound_to 10713
  154.3047  135.2758  155.2594 H   0  0  0  0  0  0  0  0  0  0  0  0  # atno 10763 bound_to 10752
  154.5015  135.5807  153.6538 H   0  0  0  0  0  0  0  0  0  0  0  0  # atno 10764 bound_to 10752
  152.9896  135.6159  154.3220 H   0  0  0  0  0  0  0  0  0  0  0  0  # atno 10765 bound_to 10752
  140.1121  134.4940  155.8668 H   0  0  0  0  0  0  0  0  0  0  0  0  # atno 11005 bound_to 11000
  145.8707  139.2270  143.1663 LP  0  0  0  0  0  0  0  0  0  0  0  0  # atno 17320 bound_to 7965
  146.0087  140.8455  142.9981 LP  0  0  0  0  0  0  0  0  0  0  0  0  # atno 17321 bound_to 7965
  140.4698  143.2417  151.9104 LP  0  0  0  0  0  0  0  0  0  0  0  0  # atno 17342 bound_to 10162
  139.4783  144.5381  151.8568 LP  0  0  0  0  0  0  0  0  0  0  0  0  # atno 17343 bound_to 10162
  157.5642  130.8266  149.8306 LP  0  0  0  0  0  0  0  0  0  0  0  0  # atno 17370 bound_to 10713
  156.0313  130.3764  150.1681 LP  0  0  0  0  0  0  0  0  0  0  0  0  # atno 17371 bound_to 10713
  141.2133  133.6731  156.6726 LP  0  0  0  0  0  0  0  0  0  0  0  0  # atno 17394 bound_to 11000
  140.3076  134.8112  157.4150 LP  0  0  0  0  0  0  0  0  0  0  0  0  # atno 17395 bound_to 11000

$$$$
