AV-unprocessed.smi:2093|AV-procd|sdf|8547|dock7
  -GOLD-   2272011273D 1   1.00000     0.00000
 Structure written by MMmdl.
 31 32  0  0  0  0  0  0  0  0  1 V2000
  147.7564  140.6049  154.3763 C   0  0  0  0  0  0  0  0  0  0  0  0
  148.5172  139.2985  154.6503 C   0  0  1  0  0  0  0  0  0  0  0  0
  148.0262  138.2678  153.7380 N   0  0  0  0  0  0  0  0  0  0  0  0
  146.8308  137.6632  153.8044 C   0  0  0  0  0  0  0  0  0  0  0  0
  145.9772  137.9265  154.6519 O   0  0  0  0  0  0  0  0  0  0  0  0
  146.7001  136.7441  152.8318 N   0  0  0  0  0  0  0  0  0  0  0  0
  145.5916  135.8984  152.5653 C   0  0  0  0  0  0  0  0  0  0  0  0
  144.8489  135.3063  153.5081 N   0  0  0  0  0  0  0  0  0  0  0  0
  143.8240  134.5317  152.9588 C   0  0  0  0  0  0  0  0  0  0  0  0
  143.8004  134.5460  151.5865 C   0  0  0  0  0  0  0  0  0  0  0  0
  145.0718  135.5389  150.9252 S   0  0  0  0  0  0  0  0  0  0  0  0
  150.0395  139.4544  154.4687 C   0  0  1  0  0  0  0  0  0  0  0  0
  150.7377  140.2632  155.5640 C   0  0  0  0  0  0  0  0  0  0  0  0
  152.1615  139.7266  155.5614 C   0  0  0  0  0  0  0  0  0  0  0  0
  152.0782  138.4472  154.7254 C   0  0  0  0  0  0  0  0  0  0  0  0
  150.6887  138.1965  154.5761 O   0  0  0  0  0  0  0  0  0  0  0  0
  148.0593  141.3933  155.0656 H   0  0  0  0  0  0  0  0  0  0  0  0
  146.6816  140.4642  154.4969 H   0  0  0  0  0  0  0  0  0  0  0  0
  147.9337  140.9630  153.3616 H   0  0  0  0  0  0  0  0  0  0  0  0
  148.3242  139.0114  155.6854 H   0  0  0  0  0  0  0  0  0  0  0  0
  148.6588  137.9793  153.0064 H   0  0  0  0  0  0  0  0  0  0  0  0
  147.4875  136.6343  152.2103 H   0  0  0  0  0  0  0  0  0  0  0  0
  143.1546  134.0017  153.6202 H   0  0  0  0  0  0  0  0  0  0  0  0
  143.1149  134.0343  150.9275 H   0  0  0  0  0  0  0  0  0  0  0  0
  150.2656  139.8835  153.4903 H   0  0  0  0  0  0  0  0  0  0  0  0
  150.6920  141.3378  155.3853 H   0  0  0  0  0  0  0  0  0  0  0  0
  150.2769  140.0641  156.5327 H   0  0  0  0  0  0  0  0  0  0  0  0
  152.8588  140.4359  155.1142 H   0  0  0  0  0  0  0  0  0  0  0  0
  152.4982  139.5199  156.5780 H   0  0  0  0  0  0  0  0  0  0  0  0
  152.5221  138.6025  153.7409 H   0  0  0  0  0  0  0  0  0  0  0  0
  152.5825  137.6034  155.1970 H   0  0  0  0  0  0  0  0  0  0  0  0
  1  2  1  0  0  0  0
  1 17  1  0  0  0  0
  1 18  1  0  0  0  0
  1 19  1  0  0  0  0
  2  3  1  0  0  0  0
  2 12  1  0  0  0  0
  2 20  1  0  0  0  0
  3  4  1  0  0  0  0
  3 21  1  0  0  0  0
  4  5  2  0  0  0  0
  4  6  1  0  0  0  0
  6  7  1  0  0  0  0
  6 22  1  0  0  0  0
  7 11  1  0  0  0  0
  7  8  2  0  0  0  0
  8  9  1  0  0  0  0
  9 10  2  0  0  0  0
  9 23  1  0  0  0  0
 10 11  1  0  0  0  0
 10 24  1  0  0  0  0
 12 16  1  0  0  0  0
 12 13  1  0  0  0  0
 12 25  1  0  0  0  0
 13 14  1  0  0  0  0
 13 26  1  0  0  0  0
 13 27  1  0  0  0  0
 14 15  1  0  0  0  0
 14 28  1  0  0  0  0
 14 29  1  0  0  0  0
 15 16  1  0  0  0  0
 15 30  1  0  0  0  0
 15 31  1  0  0  0  0
M  END
> <s_m_source_file>
AV-unprocessed.smi

> <i_m_source_file_index>
2093

> <i_lp_mmshare_version>
43012

> <i_f3d_flags>
0

> <s_epik_input>
TzFbQ0gyXVtDSDJdW0NIMl1bQ0BIXTFbQ0BIXShbQ0gzXSlbTkhdQyg9TylbTkhdYzJuW2NIXVtjSF1zMg==

> <s_epik_cmdline>
J2VwaWtfcHl0aG9uJywgJy1waCcsICc3LjAnLCAnLXRuJywgJzgnLCAnLW1hJywgJzIwMCcsICctbWV0YWxfYmluZGluZycsICctaW1hZScsICc8aW5maWxlLm1hZT4nLCAnLW9tYWUnLCAnPG91dGZpbGUubWFlPic=

> <r_lp_tautomer_probability>
0.999

> <r_epik_Ionization_Penalty>
0.000334433

> <r_epik_Ionization_Penalty_Charging>
0

> <r_epik_Ionization_Penalty_Neutral>
0.000334433

> <r_epik_State_Penalty>
0.000177984

> <r_epik_Charging_Adjusted_Penalty>
0.000177984

> <i_epik_Tot_Q>
0

> <i_epik_Tot_abs_Q>
0

> <r_epik_Metal_State_Penalty>
0.00767616

> <b_epik_Metal_Only>
0

> <s_lp_Force_Field>
OPLS_2005

> <r_lp_Energy>
16.8099

> <b_lp_Chiralities_Consistent>
1

> <s_lp_Variant>
AV-unprocessed.smi:2093-4

> <Gold.Version>
5.8.1

> <Gold.Id.Protein>
6NUR|6NUR_protein|mol2

> <Gold.PLP.Fitness>
35.2720

> <Gold.PLP.PLP>
-25.0270

> <Gold.PLP.part.hbond>
-1.8642

> <Gold.PLP.part.metal>
0.0000

> <Gold.PLP.part.buried>
-3.2549

> <Gold.PLP.part.nonpolar>
-21.3958

> <Gold.PLP.part.repulsive>
0.3681

> <Gold.PLP.ligand.clash>
0.0000

> <Gold.PLP.ligand.torsion>
0.5645

> <Gold.PLP.Chemscore.Hbond>
1.7840

> <Gold.PLP.Chemscore.CHOScore>
1.9997

> <Gold.PLP.Chemscore.Metal>
0.0000

> <Gold.Chemscore.Hbonds>
donor molecule, donor type, donor heavy atom, donor atom, acceptor molecule, acceptor atom, score
      L1  H     3    21       P1  7948  0.65
      L1  H     6    22       P1  7948  1.00
      L1  C     9    23       P1 10957  0.91
      L1  C    10    24       P1 10186  0.97

> <Gold.PLP.Chemscore.Internal.Correction>
0.0228

> <Gold.Rescore>
     Score         DG    S(hbond)    S(metal)    S(lipo)     H(rot)  DE(clash)    DE(int)     intcor
     14.87     -15.38       1.93        0.00      57.88       1.29       0.09       0.41       ----

> <Gold.Chemscore.Fitness>
14.8749

> <Gold.Chemscore.DG>
-15.3772

> <Gold.Chemscore.ZeroCoef>
-5.4800

> <Gold.Chemscore.Hbond>
1.9273

> <Gold.Chemscore.Metal>
0.0000

> <Gold.Chemscore.Lipo>
57.8805

> <Gold.Chemscore.Internal_Hbond>
0.0000

> <Gold.Chemscore.DEClash>
0.0892

> <Gold.Chemscore.DEInternal>
0.4130

> <Gold.Chemscore.Rot>
1.2938

> <Gold.Chemscore.Internal.Correction>
   9.000000E+99

> <Gold.Chemscore.Hbonds>
donor molecule, donor type, donor heavy atom, donor atom, acceptor molecule, acceptor atom, score
      L1  H     3    21       P1  7948  0.62
      L1  H     6    22       P1  7948  0.93

> <Gold.Chemscore.Hbond.Weighted>
-6.4373

> <Gold.Chemscore.Metal.Weighted>
-0.0000

> <Gold.Chemscore.Lipo.Weighted>
-6.7720

> <Gold.Chemscore.Internal_Hbond.Weighted>
0.0000

> <Gold.Chemscore.DEClash.Weighted>
0.0892

> <Gold.Chemscore.DEInternal.Weighted>
0.4130

> <Gold.Chemscore.Rot.Weighted>
3.3122

> <Gold.Chemscore.Internal.Correction.Weighted>
   9.000000E+99

> <Gold.Protein.RotatedTorsions>
[ 6907 6896 6895 6894 ] final  -81.29 input  -60.11 | X-H torsion
[ 7974 7965 7964 7962 ] final  -49.48 input  175.53 | X-H torsion
[ 8008 7997 7996 7995 ] final  -11.89 input   59.86 | X-H torsion
[ 10167 10162 10161 10158 ] final   72.95 input  -65.29 | X-H torsion
[ 10718 10713 10712 10709 ] final -173.28 input   66.30 | X-H torsion
[ 10763 10752 10751 10750 ] final -142.49 input  -60.55 | X-H torsion
[ 11005 11000 10999 10996 ] final -159.07 input  -57.11 | X-H torsion

> <Gold.Protein.ActiveResidues>
 VAL166  LYS551  ARG553  GLY616  TRP617  ASP618  TYR619  PRO620  LYS621  CYS622 
 ASP623  PHE694  ASN695  SER759  ASP760  ASP761  ALA762  ILE779  LEU786  VAL792 
 PHE793  MET794  SER795  GLU796  ALA797  LYS798  CYS799  TRP800  GLU811  SER814 

> <Gold.Protein.RotatedAtoms>
  150.6914  134.3840  159.5046 H   0  0  0  0  0  0  0  0  0  0  0  0  # atno 6907 bound_to 6896
  152.1638  134.8888  160.0549 H   0  0  0  0  0  0  0  0  0  0  0  0  # atno 6908 bound_to 6896
  151.9939  133.3766  159.4192 H   0  0  0  0  0  0  0  0  0  0  0  0  # atno 6909 bound_to 6896
  145.9401  140.7670  142.9556 H   0  0  0  0  0  0  0  0  0  0  0  0  # atno 7974 bound_to 7965
  154.5424  140.2290  155.8618 H   0  0  0  0  0  0  0  0  0  0  0  0  # atno 8008 bound_to 7997
  156.1871  140.3086  155.9222 H   0  0  0  0  0  0  0  0  0  0  0  0  # atno 8009 bound_to 7997
  155.3230  140.0441  157.3030 H   0  0  0  0  0  0  0  0  0  0  0  0  # atno 8010 bound_to 7997
  140.0298  144.5475  150.7516 H   0  0  0  0  0  0  0  0  0  0  0  0  # atno 10167 bound_to 10162
  156.7680  130.9438  151.3119 H   0  0  0  0  0  0  0  0  0  0  0  0  # atno 10718 bound_to 10713
  154.8507  135.3494  154.6036 H   0  0  0  0  0  0  0  0  0  0  0  0  # atno 10763 bound_to 10752
  153.6644  135.6988  153.5171 H   0  0  0  0  0  0  0  0  0  0  0  0  # atno 10764 bound_to 10752
  153.2792  135.4269  155.1019 H   0  0  0  0  0  0  0  0  0  0  0  0  # atno 10765 bound_to 10752
  140.6467  134.4494  157.5234 H   0  0  0  0  0  0  0  0  0  0  0  0  # atno 11005 bound_to 11000
  144.6778  140.2267  143.7360 LP  0  0  0  0  0  0  0  0  0  0  0  0  # atno 17320 bound_to 7965
  145.8311  139.2086  143.1882 LP  0  0  0  0  0  0  0  0  0  0  0  0  # atno 17321 bound_to 7965
  140.7307  143.2686  151.3962 LP  0  0  0  0  0  0  0  0  0  0  0  0  # atno 17342 bound_to 10162
  139.6084  144.1149  152.2273 LP  0  0  0  0  0  0  0  0  0  0  0  0  # atno 17343 bound_to 10162
  157.6704  130.9046  150.0027 LP  0  0  0  0  0  0  0  0  0  0  0  0  # atno 17370 bound_to 10713
  156.1296  130.3643  149.9753 LP  0  0  0  0  0  0  0  0  0  0  0  0  # atno 17371 bound_to 10713
  139.9060  134.8447  156.1704 LP  0  0  0  0  0  0  0  0  0  0  0  0  # atno 17394 bound_to 11000
  141.0567  133.6862  156.1874 LP  0  0  0  0  0  0  0  0  0  0  0  0  # atno 17395 bound_to 11000

$$$$
