AV-unprocessed.smi:334|AV-procd|sdf|2367|dock10
  -GOLD-   2262022283D 1   1.00000     0.00000
 Structure written by MMmdl.
 44 46  0  0  0  0  0  0  0  0  3 V2000
  151.0887  141.0395  156.8421 C   0  0  0  0  0  0  0  0  0  0  0  0
  150.6057  142.4024  157.3645 C   0  0  1  0  0  0  0  0  0  0  0  0
  149.1544  142.4921  157.2446 N   0  0  0  0  0  0  0  0  0  0  0  0
  148.2748  141.5070  157.4930 C   0  0  0  0  0  0  0  0  0  0  0  0
  148.6090  140.4071  157.9314 O   0  0  0  0  0  0  0  0  0  0  0  0
  146.7891  141.7748  157.1949 C   0  0  0  0  0  0  0  0  0  0  0  0
  146.1443  142.7505  158.0941 N   0  0  0  0  0  0  0  0  0  0  0  0
  146.8654  143.1364  159.2412 C   0  0  0  0  0  0  0  0  0  0  0  0
  146.3813  144.0324  160.1234 C   0  0  0  0  0  0  0  0  0  0  0  0
  147.1388  144.4221  161.2922 N   0  3  0  0  0  0  0  0  0  0  0  0
  146.8715  145.4877  161.8379 O   0  0  0  0  0  0  0  0  0  0  0  0
  148.0249  143.6785  161.7026 O   0  5  0  0  0  0  0  0  0  0  0  0
  145.0736  144.6005  159.8588 C   0  0  0  0  0  0  0  0  0  0  0  0
  144.3798  144.2378  158.7622 C   0  0  0  0  0  0  0  0  0  0  0  0
  144.9102  143.2653  157.8016 C   0  0  0  0  0  0  0  0  0  0  0  0
  144.2884  142.9412  156.7901 O   0  0  0  0  0  0  0  0  0  0  0  0
  150.9954  142.6420  158.8418 C   0  0  2  0  0  0  0  0  0  0  0  0
  150.1735  143.7367  159.5618 C   0  0  0  0  0  0  0  0  0  0  0  0
  151.2593  144.6022  160.2276 C   0  0  2  0  0  0  0  0  0  0  0  0
  151.9585  145.4469  159.1472 C   0  0  0  0  0  0  0  0  0  0  0  0
  152.8064  144.4023  158.3988 C   0  0  0  0  0  0  0  0  0  0  0  0
  152.4517  143.0875  159.1243 C   0  0  1  0  0  0  0  0  0  0  0  0
  152.3320  143.5729  160.5659 C   0  0  0  0  0  0  0  0  0  0  0  0
  152.1761  140.9679  156.8712 H   0  0  0  0  0  0  0  0  0  0  0  0
  150.7828  140.8823  155.8074 H   0  0  0  0  0  0  0  0  0  0  0  0
  150.6844  140.2199  157.4368 H   0  0  0  0  0  0  0  0  0  0  0  0
  151.0442  143.1884  156.7492 H   0  0  0  0  0  0  0  0  0  0  0  0
  148.7892  143.3658  156.8948 H   0  0  0  0  0  0  0  0  0  0  0  0
  146.6989  142.1053  156.1586 H   0  0  0  0  0  0  0  0  0  0  0  0
  146.2621  140.8203  157.2304 H   0  0  0  0  0  0  0  0  0  0  0  0
  147.8308  142.6621  159.3442 H   0  0  0  0  0  0  0  0  0  0  0  0
  144.6418  145.3216  160.5371 H   0  0  0  0  0  0  0  0  0  0  0  0
  143.4079  144.6742  158.5840 H   0  0  0  0  0  0  0  0  0  0  0  0
  150.8357  141.7040  159.3772 H   0  0  0  0  0  0  0  0  0  0  0  0
  149.5526  144.3231  158.8830 H   0  0  0  0  0  0  0  0  0  0  0  0
  149.5133  143.2906  160.3067 H   0  0  0  0  0  0  0  0  0  0  0  0
  150.8956  145.1870  161.0729 H   0  0  0  0  0  0  0  0  0  0  0  0
  151.2481  145.9526  158.4922 H   0  0  0  0  0  0  0  0  0  0  0  0
  152.5970  146.2071  159.5990 H   0  0  0  0  0  0  0  0  0  0  0  0
  152.6041  144.3795  157.3290 H   0  0  0  0  0  0  0  0  0  0  0  0
  153.8674  144.6253  158.5187 H   0  0  0  0  0  0  0  0  0  0  0  0
  153.1873  142.2963  158.9770 H   0  0  0  0  0  0  0  0  0  0  0  0
  153.2510  144.0173  160.9525 H   0  0  0  0  0  0  0  0  0  0  0  0
  151.9896  142.8020  161.2588 H   0  0  0  0  0  0  0  0  0  0  0  0
  1  2  1  0  0  0  0
  1 24  1  0  0  0  0
  1 25  1  0  0  0  0
  1 26  1  0  0  0  0
  2  3  1  0  0  0  0
  2 17  1  0  0  0  0
  2 27  1  0  0  0  0
  3  4  1  0  0  0  0
  3 28  1  0  0  0  0
  4  5  2  0  0  0  0
  4  6  1  0  0  0  0
  6  7  1  0  0  0  0
  6 29  1  0  0  0  0
  6 30  1  0  0  0  0
  7 15  1  0  0  0  0
  7  8  1  0  0  0  0
  8  9  2  0  0  0  0
  8 31  1  0  0  0  0
  9 10  1  0  0  0  0
  9 13  1  0  0  0  0
 10 11  2  0  0  0  0
 10 12  1  0  0  0  0
 13 14  2  0  0  0  0
 13 32  1  0  0  0  0
 14 15  1  0  0  0  0
 14 33  1  0  0  0  0
 15 16  2  0  0  0  0
 17 22  1  0  0  0  0
 17 18  1  0  0  0  0
 17 34  1  0  0  0  0
 18 19  1  0  0  0  0
 18 35  1  0  0  0  0
 18 36  1  0  0  0  0
 19 23  1  0  0  0  0
 19 20  1  0  0  0  0
 19 37  1  0  0  0  0
 20 21  1  0  0  0  0
 20 38  1  0  0  0  0
 20 39  1  0  0  0  0
 21 22  1  0  0  0  0
 21 40  1  0  0  0  0
 21 41  1  0  0  0  0
 22 23  1  0  0  0  0
 22 42  1  0  0  0  0
 23 43  1  0  0  0  0
 23 44  1  0  0  0  0
M  CHG  1  10   1
M  CHG  1  12  -1
M  END
> <s_m_source_file>
AV-unprocessed.smi

> <i_m_source_file_index>
334

> <i_lp_mmshare_version>
43012

> <i_f3d_flags>
0

> <s_epik_input>
W0NIMl0xW0NIMl1bQ0BIXShbQ0gyXTIpW0NAQEhdKFtDSDJdW0NAQEhdMTIpW0NASF0oW0NIM10pW05IXUMoPU8pW0NIMl1uM1tjSF1jKFtOK10oPU8pW08tXSlbY0hdW2NIXWMzPU8=

> <s_epik_cmdline>
J2VwaWtfcHl0aG9uJywgJy1waCcsICc3LjAnLCAnLXRuJywgJzgnLCAnLW1hJywgJzIwMCcsICctbWV0YWxfYmluZGluZycsICctaW1hZScsICc8aW5maWxlLm1hZT4nLCAnLW9tYWUnLCAnPG91dGZpbGUubWFlPic=

> <r_lp_tautomer_probability>
1

> <r_epik_Ionization_Penalty>
2.17081e-08

> <r_epik_Ionization_Penalty_Charging>
8.1195e-11

> <r_epik_Ionization_Penalty_Neutral>
2.16269e-08

> <r_epik_State_Penalty>
-0

> <r_epik_Charging_Adjusted_Penalty>
8.1195e-11

> <i_epik_Tot_Q>
0

> <i_epik_Tot_abs_Q>
2

> <r_epik_Metal_State_Penalty>
-0

> <b_epik_Metal_Only>
0

> <s_lp_Force_Field>
OPLS_2005

> <r_lp_Energy>
62.3621

> <b_lp_Chiralities_Consistent>
1

> <s_lp_Variant>
AV-unprocessed.smi:334-6

> <Gold.Version>
5.8.1

> <Gold.Id.Protein>
6NUR|6NUR_protein|mol2

> <Gold.PLP.Fitness>
49.4533

> <Gold.PLP.PLP>
-45.6483

> <Gold.PLP.part.hbond>
-4.4819

> <Gold.PLP.part.metal>
0.0000

> <Gold.PLP.part.buried>
-8.2597

> <Gold.PLP.part.nonpolar>
-33.7030

> <Gold.PLP.part.repulsive>
0.4605

> <Gold.PLP.ligand.clash>
0.0000

> <Gold.PLP.ligand.torsion>
1.0818

> <Gold.PLP.Chemscore.Hbond>
1.9760

> <Gold.PLP.Chemscore.CHOScore>
0.0000

> <Gold.PLP.Chemscore.Metal>
0.0000

> <Gold.Chemscore.Hbonds>
donor molecule, donor type, donor heavy atom, donor atom, acceptor molecule, acceptor atom, score
      L1  H     3    28       P1  8028  0.99
      P1  H  6933  6944       L1    12  0.68

> <Gold.PLP.Chemscore.Internal.Correction>
0.0406

> <Gold.Rescore>
     Score         DG    S(hbond)    S(metal)    S(lipo)     H(rot)  DE(clash)    DE(int)     intcor
     15.15     -19.88       1.95        0.00     105.73       1.75       0.17       4.56       ----

> <Gold.Chemscore.Fitness>
15.1516

> <Gold.Chemscore.DG>
-19.8791

> <Gold.Chemscore.ZeroCoef>
-5.4800

> <Gold.Chemscore.Hbond>
1.9466

> <Gold.Chemscore.Metal>
0.0000

> <Gold.Chemscore.Lipo>
105.7339

> <Gold.Chemscore.Internal_Hbond>
0.0000

> <Gold.Chemscore.DEClash>
0.1680

> <Gold.Chemscore.DEInternal>
4.5595

> <Gold.Chemscore.Rot>
1.7474

> <Gold.Chemscore.Internal.Correction>
   9.000000E+99

> <Gold.Chemscore.Hbonds>
donor molecule, donor type, donor heavy atom, donor atom, acceptor molecule, acceptor atom, score
      L1  H     3    28       P1  8028  0.57
      P1  H  6933  6944       L1    12  0.64

> <Gold.Chemscore.Hbond.Weighted>
-6.5016

> <Gold.Chemscore.Metal.Weighted>
-0.0000

> <Gold.Chemscore.Lipo.Weighted>
-12.3709

> <Gold.Chemscore.Internal_Hbond.Weighted>
0.0000

> <Gold.Chemscore.DEClash.Weighted>
0.1680

> <Gold.Chemscore.DEInternal.Weighted>
4.5595

> <Gold.Chemscore.Rot.Weighted>
4.4733

> <Gold.Chemscore.Internal.Correction.Weighted>
   9.000000E+99

> <Gold.Protein.RotatedTorsions>
[ 6907 6896 6895 6894 ] final  159.41 input  -60.11 | X-H torsion
[ 7974 7965 7964 7962 ] final -109.23 input  175.53 | X-H torsion
[ 8008 7997 7996 7995 ] final -174.55 input   59.86 | X-H torsion
[ 10167 10162 10161 10158 ] final  155.99 input  -65.29 | X-H torsion
[ 10718 10713 10712 10709 ] final -106.51 input   66.30 | X-H torsion
[ 10763 10752 10751 10750 ] final  -18.33 input  -60.55 | X-H torsion
[ 11005 11000 10999 10996 ] final   -3.75 input  -57.11 | X-H torsion

> <Gold.Protein.ActiveResidues>
 VAL166  LYS551  ARG553  GLY616  TRP617  ASP618  TYR619  PRO620  LYS621  CYS622 
 ASP623  PHE694  ASN695  SER759  ASP760  ASP761  ALA762  ILE779  LEU786  VAL792 
 PHE793  MET794  SER795  GLU796  ALA797  LYS798  CYS799  TRP800  GLU811  SER814 

> <Gold.Protein.RotatedAtoms>
  151.9860  133.3774  159.4125 H   0  0  0  0  0  0  0  0  0  0  0  0  # atno 6907 bound_to 6896
  150.6928  134.3987  159.5118 H   0  0  0  0  0  0  0  0  0  0  0  0  # atno 6908 bound_to 6896
  152.1713  134.8831  160.0585 H   0  0  0  0  0  0  0  0  0  0  0  0  # atno 6909 bound_to 6896
  145.1830  140.8980  143.3469 H   0  0  0  0  0  0  0  0  0  0  0  0  # atno 7974 bound_to 7965
  155.9714  140.1164  157.0808 H   0  0  0  0  0  0  0  0  0  0  0  0  # atno 8008 bound_to 7997
  154.4157  140.1162  156.5379 H   0  0  0  0  0  0  0  0  0  0  0  0  # atno 8009 bound_to 7997
  155.6591  140.3473  155.4778 H   0  0  0  0  0  0  0  0  0  0  0  0  # atno 8010 bound_to 7997
  139.4821  144.5049  151.8112 H   0  0  0  0  0  0  0  0  0  0  0  0  # atno 10167 bound_to 10162
  156.0393  130.5616  150.7691 H   0  0  0  0  0  0  0  0  0  0  0  0  # atno 10718 bound_to 10713
  153.5877  135.7003  153.5436 H   0  0  0  0  0  0  0  0  0  0  0  0  # atno 10763 bound_to 10752
  153.3206  135.4075  155.1413 H   0  0  0  0  0  0  0  0  0  0  0  0  # atno 10764 bound_to 10752
  154.8606  135.3694  154.5407 H   0  0  0  0  0  0  0  0  0  0  0  0  # atno 10765 bound_to 10752
  140.6727  133.9222  155.8505 H   0  0  0  0  0  0  0  0  0  0  0  0  # atno 11005 bound_to 11000
  145.0117  139.3504  143.6117 LP  0  0  0  0  0  0  0  0  0  0  0  0  # atno 17320 bound_to 7965
  146.3450  139.9382  142.8744 LP  0  0  0  0  0  0  0  0  0  0  0  0  # atno 17321 bound_to 7965
  140.4546  144.1807  150.5900 LP  0  0  0  0  0  0  0  0  0  0  0  0  # atno 17342 bound_to 10162
  140.4549  143.2472  151.9298 LP  0  0  0  0  0  0  0  0  0  0  0  0  # atno 17343 bound_to 10162
  157.5190  131.0930  151.0103 LP  0  0  0  0  0  0  0  0  0  0  0  0  # atno 17370 bound_to 10713
  157.0439  130.5760  149.5360 LP  0  0  0  0  0  0  0  0  0  0  0  0  # atno 17371 bound_to 10713
  141.0379  134.0663  157.3937 LP  0  0  0  0  0  0  0  0  0  0  0  0  # atno 17394 bound_to 11000
  139.8976  135.0151  156.7110 LP  0  0  0  0  0  0  0  0  0  0  0  0  # atno 17395 bound_to 11000

$$$$
