#       Name:                AV-unprocessed.smi:3124
#       Creating user name   scv26
#       Creation time:       Fri Mar 27 17:28:54 2020


#       File generated by GOLD software.
#

@<TRIPOS>MOLECULE
AV-unprocessed.smi:3124
    25    25     1
SMALL
NO_CHARGES


@<TRIPOS>ATOM
      1 ****        -1.5198   3.5799  -0.8522 C.3            1 S1                 0.0000
      2 ****        -1.4857   2.1562  -0.3792 C.2            1 S1                 0.0000
      3 ****        -0.4612   1.1858  -0.5820 C.2            1 S1                 0.0000
      4 ****        -0.9228   0.0642   0.0522 C.2            1 S1                 0.0000
      5 ****        -0.3513  -1.3108   0.2167 C.3            1 S1                 0.0000
      6 ****         1.1567  -1.4297  -0.0799 C.3            1 S1                 0.0000
      7 ****         1.6296  -2.8892  -0.0331 C.3            1 S1                 0.0000
      8 ****         1.9453  -0.6122   0.8611 N.4            1 S1                 1.0000
      9 ****        -2.1521   0.4025   0.5707 N.pl3          1 S1                 0.0000
     10 ****        -2.5023   1.6772   0.3205 N.2            1 S1                 0.0000
     11 ****        -2.7557  -0.2175   1.0923 H              1 S1                 0.0000
     12 ****        -0.8328   3.7342  -1.6844 H              1 S1                 0.0000
     13 ****        -1.2327   4.2636  -0.0532 H              1 S1                 0.0000
     14 ****        -2.5169   3.8628  -1.1914 H              1 S1                 0.0000
     15 ****         0.4699   1.3021  -1.1164 H              1 S1                 0.0000
     16 ****        -0.5505  -1.6648   1.2293 H              1 S1                 0.0000
     17 ****        -0.8957  -1.9862  -0.4445 H              1 S1                 0.0000
     18 ****         1.3489  -1.0495  -1.0840 H              1 S1                 0.0000
     19 ****         1.0872  -3.5008  -0.7551 H              1 S1                 0.0000
     20 ****         1.4756  -3.3265   0.9540 H              1 S1                 0.0000
     21 ****         2.6911  -2.9676  -0.2705 H              1 S1                 0.0000
     22 ****         1.8030  -0.9479   1.8030 H              1 S1                 0.0000
     23 ****         1.6470   0.3513   0.8000 H              1 S1                 0.0000
     24 ****         2.9252  -0.6761   0.6255 H              1 S1                 0.0000
     25 ****        -3.3370   2.1525   0.5986 LP             1 S1                 0.0000
@<TRIPOS>BOND
    1    1    2 1     
    2    1   12 1     
    3    1   13 1     
    4    1   14 1     
    5    2   10 2     
    6    2    3 1     
    7    3    4 2     
    8    3   15 1     
    9    4    5 1     
   10    4    9 1     
   11    5    6 1     
   12    5   16 1     
   13    5   17 1     
   14    6    7 1     
   15    6    8 1     
   16    6   18 1     
   17    7   19 1     
   18    7   20 1     
   19    7   21 1     
   20    8   22 1     
   21    8   23 1     
   22    8   24 1     
   23    9   11 1     
   24    9   10 1     
   25   10   25 1     
@<TRIPOS>SUBSTRUCTURE
      1 S1             1
@<TRIPOS>SET
LONE_PAIRS      STATIC     ATOMS    <user>   **** ""
1 25
DONOR_HYDROGENS      STATIC     ATOMS    <user>   **** ""
4 22 23 24 11
ATOM$BLUE        STATIC     ATOMS    COLORGROUP SYSTEM
1 25
ATOM$RED        STATIC     ATOMS    COLORGROUP SYSTEM
4 22 23 24 11
