#       Name:                AV-unprocessed.smi:3303
#       Creating user name   scv26
#       Creation time:       Fri Mar 27 19:00:20 2020


#       File generated by GOLD software.
#

@<TRIPOS>MOLECULE
AV-unprocessed.smi:3303
    46    47     1
SMALL
NO_CHARGES


@<TRIPOS>ATOM
      1 ****        -0.4050  -2.4241   2.2676 C.3            1 S1                 0.0000
      2 ****        -0.9699  -1.0034   2.0556 C.3            1 S1                 0.0000
      3 ****        -2.5095  -0.9981   2.1577 C.3            1 S1                 0.0000
      4 ****        -3.1357  -1.6570   0.9817 N.4            1 S1                 1.0000
      5 ****        -4.5923  -1.8645   1.1486 C.3            1 S1                 0.0000
      6 ****        -2.7488  -1.0450  -0.3231 C.3            1 S1                 0.0000
      7 ****        -3.3875   0.3393  -0.5693 C.3            1 S1                 0.0000
      8 ****        -1.2114  -1.0135  -0.4704 C.3            1 S1                 0.0000
      9 ****        -0.5248  -0.3333   0.7343 C.3            1 S1                 0.0000
     10 ****         0.9522  -0.3206   0.6126 N.4            1 S1                 1.0000
     11 ****         1.5007   0.6388  -0.3688 C.3            1 S1                 0.0000
     12 ****         3.0354   0.6109  -0.3621 C.3            1 S1                 0.0000
     13 ****         3.6320   1.5854  -1.3597 C.ar           1 S1                 0.0000
     14 ****         4.1880   2.8091  -0.9299 C.ar           1 S1                 0.0000
     15 ****         4.7279   3.6770  -1.8991 C.ar           1 S1                 0.0000
     16 ****         4.6888   3.2906  -3.2525 C.ar           1 S1                 0.0000
     17 ****         4.1101   2.0480  -3.5787 C.ar           1 S1                 0.0000
     18 ****         3.5900   1.2081  -2.6573 N.ar           1 S1                 0.0000
     19 ****        -0.7399  -3.1188   1.4977 H              1 S1                 0.0000
     20 ****        -0.7243  -2.8278   3.2288 H              1 S1                 0.0000
     21 ****         0.6848  -2.4299   2.2683 H              1 S1                 0.0000
     22 ****        -0.5904  -0.3940   2.8773 H              1 S1                 0.0000
     23 ****        -2.8174  -1.5119   3.0696 H              1 S1                 0.0000
     24 ****        -2.8789   0.0241   2.2478 H              1 S1                 0.0000
     25 ****        -5.1187  -0.9201   1.2909 H              1 S1                 0.0000
     26 ****        -4.7875  -2.4898   2.0204 H              1 S1                 0.0000
     27 ****        -5.0148  -2.3695   0.2793 H              1 S1                 0.0000
     28 ****        -3.1261  -1.7068  -1.1042 H              1 S1                 0.0000
     29 ****        -3.0673   0.7447  -1.5294 H              1 S1                 0.0000
     30 ****        -3.1168   1.0668   0.1951 H              1 S1                 0.0000
     31 ****        -4.4753   0.2825  -0.6026 H              1 S1                 0.0000
     32 ****        -0.8387  -2.0327  -0.5780 H              1 S1                 0.0000
     33 ****        -0.9523  -0.5067  -1.3999 H              1 S1                 0.0000
     34 ****        -0.8471   0.7080   0.7757 H              1 S1                 0.0000
     35 ****         1.3319  -0.0718   1.5151 H              1 S1                 0.0000
     36 ****         1.1339   0.3966  -1.3661 H              1 S1                 0.0000
     37 ****         1.1486   1.6431  -0.1293 H              1 S1                 0.0000
     38 ****         3.4083   0.8460   0.6359 H              1 S1                 0.0000
     39 ****         3.3939  -0.3931  -0.5946 H              1 S1                 0.0000
     40 ****         4.2046   3.0792   0.1157 H              1 S1                 0.0000
     41 ****         5.1643   4.6215  -1.6093 H              1 S1                 0.0000
     42 ****         5.0942   3.9305  -4.0224 H              1 S1                 0.0000
     43 ****         4.0633   1.7203  -4.6066 H              1 S1                 0.0000
     44 ****         1.2708  -1.2505   0.3797 H              1 S1                 0.0000
     45 ****        -2.7427  -2.5875   0.9599 H              1 S1                 0.0000
     46 ****         3.1862   0.3339  -2.9269 LP             1 S1                 0.0000
@<TRIPOS>BOND
    1    1    2 1     
    2    1   19 1     
    3    1   20 1     
    4    1   21 1     
    5    2    9 1     
    6    2    3 1     
    7    2   22 1     
    8    3    4 1     
    9    3   23 1     
   10    3   24 1     
   11    4    5 1     
   12    4    6 1     
   13    4   45 1     
   14    5   25 1     
   15    5   26 1     
   16    5   27 1     
   17    6    7 1     
   18    6    8 1     
   19    6   28 1     
   20    7   29 1     
   21    7   30 1     
   22    7   31 1     
   23    8    9 1     
   24    8   32 1     
   25    8   33 1     
   26    9   10 1     
   27    9   34 1     
   28   10   11 1     
   29   10   35 1     
   30   10   44 1     
   31   11   12 1     
   32   11   36 1     
   33   11   37 1     
   34   12   13 1     
   35   12   38 1     
   36   12   39 1     
   37   13   18 ar    
   38   13   14 ar    
   39   14   15 ar    
   40   14   40 1     
   41   15   16 ar    
   42   15   41 1     
   43   16   17 ar    
   44   16   42 1     
   45   17   18 ar    
   46   17   43 1     
   47   18   46 1     
@<TRIPOS>SUBSTRUCTURE
      1 S1             1
@<TRIPOS>SET
LONE_PAIRS      STATIC     ATOMS    <user>   **** ""
1 46
DONOR_HYDROGENS      STATIC     ATOMS    <user>   **** ""
3 45 35 44
ATOM$BLUE        STATIC     ATOMS    COLORGROUP SYSTEM
1 46
ATOM$RED        STATIC     ATOMS    COLORGROUP SYSTEM
3 45 35 44
