AV-unprocessed.smi:1636|AV-procd|sdf|6543|dock7
  -GOLD-   22720 7223D 1   1.00000     0.00000
 Structure written by MMmdl.
 43 44  0  0  0  0  0  0  0  0  1 V2000
  152.7751  142.8153  162.1803 C   0  0  0  0  0  0  0  0  0  0  0  0
  152.8038  142.9468  160.6538 C   0  0  1  0  0  0  0  0  0  0  0  0
  152.1731  141.7265  159.9564 C   0  0  0  0  0  0  0  0  0  0  0  0
  152.1042  141.9328  158.5120 N   0  0  0  0  0  0  0  0  0  0  0  0
  151.8276  140.8223  157.6809 C   0  0  0  0  0  0  0  0  0  0  0  0
  151.9259  140.8924  156.2675 C   0  0  0  0  0  0  0  0  0  0  0  0
  151.6300  139.7503  155.4991 C   0  0  0  0  0  0  0  0  0  0  0  0
  151.2461  138.5638  156.1525 C   0  0  0  0  0  0  0  0  0  0  0  0
  150.9145  137.3150  155.3487 C   0  0  0  0  0  0  0  0  0  0  0  0
  149.9612  137.5371  154.2662 N   0  0  0  0  0  0  0  0  0  0  0  0
  148.9473  138.4127  154.3089 C   0  0  0  0  0  0  0  0  0  0  0  0
  148.7019  139.1371  155.2737 O   0  0  0  0  0  0  0  0  0  0  0  0
  148.2328  138.4033  153.1752 N   0  0  0  0  0  0  0  0  0  0  0  0
  147.0685  139.2419  152.9162 C   0  0  0  0  0  0  0  0  0  0  0  0
  146.7590  139.3308  151.4137 C   0  0  0  0  0  0  0  0  0  0  0  0
  146.5514  138.0368  150.8914 O   0  0  0  0  0  0  0  0  0  0  0  0
  151.1675  138.5865  157.5604 C   0  0  0  0  0  0  0  0  0  0  0  0
  151.4489  139.6784  158.3016 N   0  0  0  0  0  0  0  0  0  0  0  0
  151.4998  143.2069  158.1237 C   0  0  0  0  0  0  0  0  0  0  0  0
  152.1470  144.3706  158.8920 C   0  0  0  0  0  0  0  0  0  0  0  0
  152.0828  144.1198  160.2912 O   0  0  0  0  0  0  0  0  0  0  0  0
  153.3307  141.9364  162.5086 H   0  0  0  0  0  0  0  0  0  0  0  0
  151.7534  142.7233  162.5502 H   0  0  0  0  0  0  0  0  0  0  0  0
  153.2241  143.6882  162.6548 H   0  0  0  0  0  0  0  0  0  0  0  0
  153.8427  143.0539  160.3364 H   0  0  0  0  0  0  0  0  0  0  0  0
  152.7769  140.8475  160.1829 H   0  0  0  0  0  0  0  0  0  0  0  0
  151.1681  141.5468  160.3405 H   0  0  0  0  0  0  0  0  0  0  0  0
  152.2306  141.7917  155.7543 H   0  0  0  0  0  0  0  0  0  0  0  0
  151.7017  139.7879  154.4221 H   0  0  0  0  0  0  0  0  0  0  0  0
  151.8387  136.9348  154.9134 H   0  0  0  0  0  0  0  0  0  0  0  0
  150.5413  136.5323  156.0116 H   0  0  0  0  0  0  0  0  0  0  0  0
  150.0820  136.9845  153.4300 H   0  0  0  0  0  0  0  0  0  0  0  0
  148.5145  137.7746  152.4376 H   0  0  0  0  0  0  0  0  0  0  0  0
  146.2038  138.8666  153.4666 H   0  0  0  0  0  0  0  0  0  0  0  0
  147.2808  140.2359  153.3108 H   0  0  0  0  0  0  0  0  0  0  0  0
  145.8635  139.9278  151.2390 H   0  0  0  0  0  0  0  0  0  0  0  0
  147.5789  139.8046  150.8734 H   0  0  0  0  0  0  0  0  0  0  0  0
  145.6802  137.9957  150.5272 H   0  0  0  0  0  0  0  0  0  0  0  0
  150.8677  137.7084  158.1130 H   0  0  0  0  0  0  0  0  0  0  0  0
  151.6049  143.3958  157.0557 H   0  0  0  0  0  0  0  0  0  0  0  0
  150.4310  143.1670  158.3370 H   0  0  0  0  0  0  0  0  0  0  0  0
  153.1838  144.5120  158.5827 H   0  0  0  0  0  0  0  0  0  0  0  0
  151.6220  145.3004  158.6743 H   0  0  0  0  0  0  0  0  0  0  0  0
  1  2  1  0  0  0  0
  1 22  1  0  0  0  0
  1 23  1  0  0  0  0
  1 24  1  0  0  0  0
  2 21  1  0  0  0  0
  2  3  1  0  0  0  0
  2 25  1  0  0  0  0
  3  4  1  0  0  0  0
  3 26  1  0  0  0  0
  3 27  1  0  0  0  0
  4  5  1  0  0  0  0
  4 19  1  0  0  0  0
  5 18  1  0  0  0  0
  5  6  2  0  0  0  0
  6  7  1  0  0  0  0
  6 28  1  0  0  0  0
  7  8  2  0  0  0  0
  7 29  1  0  0  0  0
  8  9  1  0  0  0  0
  8 17  1  0  0  0  0
  9 10  1  0  0  0  0
  9 30  1  0  0  0  0
  9 31  1  0  0  0  0
 10 11  1  0  0  0  0
 10 32  1  0  0  0  0
 11 12  2  0  0  0  0
 11 13  1  0  0  0  0
 13 14  1  0  0  0  0
 13 33  1  0  0  0  0
 14 15  1  0  0  0  0
 14 34  1  0  0  0  0
 14 35  1  0  0  0  0
 15 16  1  0  0  0  0
 15 36  1  0  0  0  0
 15 37  1  0  0  0  0
 16 38  1  0  0  0  0
 17 18  2  0  0  0  0
 17 39  1  0  0  0  0
 19 20  1  0  0  0  0
 19 40  1  0  0  0  0
 19 41  1  0  0  0  0
 20 21  1  0  0  0  0
 20 42  1  0  0  0  0
 20 43  1  0  0  0  0
M  END
> <s_m_source_file>
AV-unprocessed.smi

> <i_m_source_file_index>
1636

> <i_lp_mmshare_version>
43012

> <i_f3d_flags>
0

> <s_epik_input>
W0NIM11bQ0BASF0xW0NIMl1OKFtDSDJdW0NIMl1PMSljMltjSF1bY0hdYyhbY0hdbjIpW0NIMl1bTkhdQyg9TylbTkhdW0NIMl1bQ0gyXVtPSF0=

> <s_epik_cmdline>
J2VwaWtfcHl0aG9uJywgJy1waCcsICc3LjAnLCAnLXRuJywgJzgnLCAnLW1hJywgJzIwMCcsICctbWV0YWxfYmluZGluZycsICctaW1hZScsICc8aW5maWxlLm1hZT4nLCAnLW9tYWUnLCAnPG91dGZpbGUubWFlPic=

> <r_lp_tautomer_probability>
1

> <r_epik_Ionization_Penalty>
0.00695222

> <r_epik_Ionization_Penalty_Charging>
0

> <r_epik_Ionization_Penalty_Neutral>
0.00695222

> <r_epik_State_Penalty>
0.00513345

> <r_epik_Charging_Adjusted_Penalty>
0.00513345

> <i_epik_Tot_Q>
0

> <i_epik_Tot_abs_Q>
0

> <r_epik_Metal_State_Penalty>
-0

> <b_epik_Metal_Only>
0

> <s_lp_Force_Field>
OPLS_2005

> <r_lp_Energy>
12.451

> <b_lp_Chiralities_Consistent>
1

> <s_lp_Variant>
AV-unprocessed.smi:1636-2

> <Gold.Version>
5.8.1

> <Gold.Id.Protein>
6NUR|6NUR_protein|mol2

> <Gold.PLP.Fitness>
52.6266

> <Gold.PLP.PLP>
-42.1320

> <Gold.PLP.part.hbond>
-5.6791

> <Gold.PLP.part.metal>
0.0000

> <Gold.PLP.part.buried>
-3.8610

> <Gold.PLP.part.nonpolar>
-32.6541

> <Gold.PLP.part.repulsive>
0.1966

> <Gold.PLP.ligand.clash>
0.0000

> <Gold.PLP.ligand.torsion>
0.6127

> <Gold.PLP.Chemscore.Hbond>
3.7556

> <Gold.PLP.Chemscore.CHOScore>
0.0000

> <Gold.PLP.Chemscore.Metal>
0.0000

> <Gold.Chemscore.Hbonds>
donor molecule, donor type, donor heavy atom, donor atom, acceptor molecule, acceptor atom, score
      L1  H    10    32       P1  7948  0.73
      L1  H    13    33       P1  7948  1.00
      L1  H    16    38       P1 10171  1.00
      P1  H  7954  7966       L1    16  0.95

> <Gold.PLP.Chemscore.Internal.Correction>
0.4532

> <Gold.Rescore>
     Score         DG    S(hbond)    S(metal)    S(lipo)     H(rot)  DE(clash)    DE(int)     intcor
     18.78     -21.21       3.38        0.00      98.98       2.78       0.32       2.11       ----

> <Gold.Chemscore.Fitness>
18.7781

> <Gold.Chemscore.DG>
-21.2094

> <Gold.Chemscore.ZeroCoef>
-5.4800

> <Gold.Chemscore.Hbond>
3.3750

> <Gold.Chemscore.Metal>
0.0000

> <Gold.Chemscore.Lipo>
98.9822

> <Gold.Chemscore.Internal_Hbond>
0.0000

> <Gold.Chemscore.DEClash>
0.3196

> <Gold.Chemscore.DEInternal>
2.1117

> <Gold.Chemscore.Rot>
2.7828

> <Gold.Chemscore.Internal.Correction>
   9.000000E+99

> <Gold.Chemscore.Hbonds>
donor molecule, donor type, donor heavy atom, donor atom, acceptor molecule, acceptor atom, score
      L1  H    10    32       P1  7948  0.14
      L1  H    13    33       P1  7948  0.97
      L1  H    16    38       P1 10171  0.94
      P1  H  7954  7966       L1    16  0.21

> <Gold.Chemscore.Hbond.Weighted>
-11.2725

> <Gold.Chemscore.Metal.Weighted>
-0.0000

> <Gold.Chemscore.Lipo.Weighted>
-11.5809

> <Gold.Chemscore.Internal_Hbond.Weighted>
0.0000

> <Gold.Chemscore.DEClash.Weighted>
0.3196

> <Gold.Chemscore.DEInternal.Weighted>
2.1117

> <Gold.Chemscore.Rot.Weighted>
7.1241

> <Gold.Chemscore.Internal.Correction.Weighted>
   9.000000E+99

> <Gold.Protein.RotatedTorsions>
[ 6907 6896 6895 6894 ] final   -0.06 input  -60.11 | X-H torsion
[ 7974 7965 7964 7962 ] final  -52.99 input  175.53 | X-H torsion
[ 8008 7997 7996 7995 ] final   93.07 input   59.86 | X-H torsion
[ 10167 10162 10161 10158 ] final   57.35 input  -65.29 | X-H torsion
[ 10718 10713 10712 10709 ] final  124.14 input   66.30 | X-H torsion
[ 10763 10752 10751 10750 ] final   96.15 input  -60.55 | X-H torsion
[ 11005 11000 10999 10996 ] final  -52.42 input  -57.11 | X-H torsion

> <Gold.Protein.ActiveResidues>
 VAL166  LYS551  ARG553  GLY616  TRP617  ASP618  TYR619  PRO620  LYS621  CYS622 
 ASP623  PHE694  ASN695  SER759  ASP760  ASP761  ALA762  ILE779  LEU786  VAL792 
 PHE793  MET794  SER795  GLU796  ALA797  LYS798  CYS799  TRP800  GLU811  SER814 

> <Gold.Protein.RotatedAtoms>
  151.5684  135.1063  159.9989 H   0  0  0  0  0  0  0  0  0  0  0  0  # atno 6907 bound_to 6896
  152.4413  133.7449  159.6672 H   0  0  0  0  0  0  0  0  0  0  0  0  # atno 6908 bound_to 6896
  150.8319  133.8008  159.3119 H   0  0  0  0  0  0  0  0  0  0  0  0  # atno 6909 bound_to 6896
  145.9018  140.7987  142.9739 H   0  0  0  0  0  0  0  0  0  0  0  0  # atno 7974 bound_to 7965
  156.0426  140.3317  155.7261 H   0  0  0  0  0  0  0  0  0  0  0  0  # atno 8008 bound_to 7997
  155.5721  140.0629  157.2821 H   0  0  0  0  0  0  0  0  0  0  0  0  # atno 8009 bound_to 7997
  154.4400  140.1859  156.0878 H   0  0  0  0  0  0  0  0  0  0  0  0  # atno 8010 bound_to 7997
  140.1989  144.4008  150.6537 H   0  0  0  0  0  0  0  0  0  0  0  0  # atno 10167 bound_to 10162
  157.5609  131.1089  150.8540 H   0  0  0  0  0  0  0  0  0  0  0  0  # atno 10718 bound_to 10713
  153.2615  135.4229  155.0899 H   0  0  0  0  0  0  0  0  0  0  0  0  # atno 10763 bound_to 10752
  154.8422  135.3450  154.6371 H   0  0  0  0  0  0  0  0  0  0  0  0  # atno 10764 bound_to 10752
  153.6791  135.7040  153.5180 H   0  0  0  0  0  0  0  0  0  0  0  0  # atno 10765 bound_to 10752
  141.0923  133.6630  156.4022 H   0  0  0  0  0  0  0  0  0  0  0  0  # atno 11005 bound_to 11000
  144.6736  140.1689  143.7416 LP  0  0  0  0  0  0  0  0  0  0  0  0  # atno 17320 bound_to 7965
  145.8781  139.2308  143.1621 LP  0  0  0  0  0  0  0  0  0  0  0  0  # atno 17321 bound_to 7965
  140.6404  143.2202  151.6303 LP  0  0  0  0  0  0  0  0  0  0  0  0  # atno 17342 bound_to 10162
  139.5225  144.3161  152.0951 LP  0  0  0  0  0  0  0  0  0  0  0  0  # atno 17343 bound_to 10162
  156.9038  130.5256  149.5282 LP  0  0  0  0  0  0  0  0  0  0  0  0  # atno 17370 bound_to 10713
  156.0662  130.5704  150.9293 LP  0  0  0  0  0  0  0  0  0  0  0  0  # atno 17371 bound_to 10713
  140.5222  134.6293  157.5322 LP  0  0  0  0  0  0  0  0  0  0  0  0  # atno 17394 bound_to 11000
  139.9752  134.7227  155.9964 LP  0  0  0  0  0  0  0  0  0  0  0  0  # atno 17395 bound_to 11000

$$$$
