AV-unprocessed.smi:568|AV-procd|sdf|2957|dock7
  -GOLD-   2262023463D 1   1.00000     0.00000
 Structure written by MMmdl.
 35 36  0  0  0  0  0  0  0  0  1 V2000
  148.1090  141.2869  154.9476 C   0  0  0  0  0  0  0  0  0  0  0  0
  149.2563  140.3250  154.8298 C   0  0  0  0  0  0  0  0  0  0  0  0
  149.1246  139.2465  154.0760 N   0  0  0  0  0  0  0  0  0  0  0  0
  150.3411  138.5640  154.1674 O   0  0  0  0  0  0  0  0  0  0  0  0
  151.1686  139.2672  154.9813 C   0  0  0  0  0  0  0  0  0  0  0  0
  152.5272  138.6943  155.2059 C   0  0  0  0  0  0  0  0  0  0  0  0
  150.5439  140.3967  155.4357 C   0  0  0  0  0  0  0  0  0  0  0  0
  151.0766  141.4643  156.3580 C   0  0  0  0  0  0  0  0  0  0  0  0
  151.5966  140.8228  157.6448 C   0  0  0  0  0  0  0  0  0  0  0  0
  151.4660  139.6133  157.8300 O   0  0  0  0  0  0  0  0  0  0  0  0
  152.1906  141.6455  158.5206 N   0  0  0  0  0  0  0  0  0  0  0  0
  152.8031  141.2285  159.7740 C   0  0  0  0  0  0  0  0  0  0  0  0
  153.1104  142.4485  160.6575 C   0  0  2  0  0  0  0  0  0  0  0  0
  153.3173  142.1315  162.1263 C   0  0  0  0  0  0  0  0  0  0  0  0
  153.1107  143.4969  162.7748 C   0  0  0  0  0  0  0  0  0  0  0  0
  152.1839  144.1897  161.9428 O   0  0  0  0  0  0  0  0  0  0  0  0
  151.9725  143.4653  160.7343 C   0  0  0  0  0  0  0  0  0  0  0  0
  148.1394  141.8251  155.8949 H   0  0  0  0  0  0  0  0  0  0  0  0
  147.1493  140.7719  154.8956 H   0  0  0  0  0  0  0  0  0  0  0  0
  148.1358  142.0245  154.1455 H   0  0  0  0  0  0  0  0  0  0  0  0
  152.9079  138.9640  156.1909 H   0  0  0  0  0  0  0  0  0  0  0  0
  153.2287  139.0657  154.4590 H   0  0  0  0  0  0  0  0  0  0  0  0
  152.5071  137.6062  155.1419 H   0  0  0  0  0  0  0  0  0  0  0  0
  151.8849  142.0289  155.8921 H   0  0  0  0  0  0  0  0  0  0  0  0
  150.3044  142.1931  156.6073 H   0  0  0  0  0  0  0  0  0  0  0  0
  152.2508  142.6255  158.2858 H   0  0  0  0  0  0  0  0  0  0  0  0
  152.1257  140.5496  160.2936 H   0  0  0  0  0  0  0  0  0  0  0  0
  153.7202  140.6730  159.5690 H   0  0  0  0  0  0  0  0  0  0  0  0
  154.0014  142.9545  160.2812 H   0  0  0  0  0  0  0  0  0  0  0  0
  152.5568  141.4317  162.4757 H   0  0  0  0  0  0  0  0  0  0  0  0
  154.2974  141.7052  162.3426 H   0  0  0  0  0  0  0  0  0  0  0  0
  152.7471  143.4197  163.7996 H   0  0  0  0  0  0  0  0  0  0  0  0
  154.0472  144.0556  162.7892 H   0  0  0  0  0  0  0  0  0  0  0  0
  151.9477  144.1305  159.8708 H   0  0  0  0  0  0  0  0  0  0  0  0
  151.0066  142.9623  160.8007 H   0  0  0  0  0  0  0  0  0  0  0  0
  1  2  1  0  0  0  0
  1 18  1  0  0  0  0
  1 19  1  0  0  0  0
  1 20  1  0  0  0  0
  2  7  1  0  0  0  0
  2  3  2  0  0  0  0
  3  4  1  0  0  0  0
  4  5  1  0  0  0  0
  5  6  1  0  0  0  0
  5  7  2  0  0  0  0
  6 21  1  0  0  0  0
  6 22  1  0  0  0  0
  6 23  1  0  0  0  0
  7  8  1  0  0  0  0
  8  9  1  0  0  0  0
  8 24  1  0  0  0  0
  8 25  1  0  0  0  0
  9 10  2  0  0  0  0
  9 11  1  0  0  0  0
 11 12  1  0  0  0  0
 11 26  1  0  0  0  0
 12 13  1  0  0  0  0
 12 27  1  0  0  0  0
 12 28  1  0  0  0  0
 13 17  1  0  0  0  0
 13 14  1  0  0  0  0
 13 29  1  0  0  0  0
 14 15  1  0  0  0  0
 14 30  1  0  0  0  0
 14 31  1  0  0  0  0
 15 16  1  0  0  0  0
 15 32  1  0  0  0  0
 15 33  1  0  0  0  0
 16 17  1  0  0  0  0
 17 34  1  0  0  0  0
 17 35  1  0  0  0  0
M  END
> <s_m_source_file>
AV-unprocessed.smi

> <i_m_source_file_index>
568

> <i_lp_mmshare_version>
43012

> <i_f3d_flags>
0

> <s_epik_input>
W0NIM11jMW5vYyhbQ0gzXSljMVtDSDJdQyg9TylbTkhdW0NIMl1bQ0BASF0yW0NIMl1bQ0gyXU9bQ0gyXTI=

> <s_epik_cmdline>
J2VwaWtfcHl0aG9uJywgJy1waCcsICc3LjAnLCAnLXRuJywgJzgnLCAnLW1hJywgJzIwMCcsICctbWV0YWxfYmluZGluZycsICctaW1hZScsICc8aW5maWxlLm1hZT4nLCAnLW9tYWUnLCAnPG91dGZpbGUubWFlPic=

> <r_lp_tautomer_probability>
1

> <r_epik_Ionization_Penalty>
2.07075e-08

> <r_epik_Ionization_Penalty_Charging>
0

> <r_epik_Ionization_Penalty_Neutral>
2.07075e-08

> <r_epik_State_Penalty>
-0

> <r_epik_Charging_Adjusted_Penalty>
0

> <i_epik_Tot_Q>
0

> <i_epik_Tot_abs_Q>
0

> <r_epik_Metal_State_Penalty>
-0

> <b_epik_Metal_Only>
0

> <s_lp_Force_Field>
OPLS_2005

> <r_lp_Energy>
12.0647

> <b_lp_Chiralities_Consistent>
1

> <s_lp_Variant>
AV-unprocessed.smi:568-1

> <Gold.Version>
5.8.1

> <Gold.Id.Protein>
6NUR|6NUR_protein|mol2

> <Gold.PLP.Fitness>
36.6433

> <Gold.PLP.PLP>
-37.1618

> <Gold.PLP.part.hbond>
0.0000

> <Gold.PLP.part.metal>
0.0000

> <Gold.PLP.part.buried>
-5.5404

> <Gold.PLP.part.nonpolar>
-33.0122

> <Gold.PLP.part.repulsive>
1.8241

> <Gold.PLP.ligand.clash>
0.0000

> <Gold.PLP.ligand.torsion>
0.2648

> <Gold.PLP.Chemscore.Hbond>
0.0000

> <Gold.PLP.Chemscore.CHOScore>
0.0000

> <Gold.PLP.Chemscore.Metal>
0.0000

> <Gold.PLP.Chemscore.Internal.Correction>
0.0111

> <Gold.Rescore>
     Score         DG    S(hbond)    S(metal)    S(lipo)     H(rot)  DE(clash)    DE(int)     intcor
     11.62     -12.78       0.00        0.00      96.41       1.56       0.14       1.02       ----

> <Gold.Chemscore.Fitness>
11.6172

> <Gold.Chemscore.DG>
-12.7785

> <Gold.Chemscore.ZeroCoef>
-5.4800

> <Gold.Chemscore.Hbond>
0.0000

> <Gold.Chemscore.Metal>
0.0000

> <Gold.Chemscore.Lipo>
96.4051

> <Gold.Chemscore.Internal_Hbond>
0.0000

> <Gold.Chemscore.DEClash>
0.1421

> <Gold.Chemscore.DEInternal>
1.0191

> <Gold.Chemscore.Rot>
1.5551

> <Gold.Chemscore.Internal.Correction>
   9.000000E+99

> <Gold.Chemscore.Hbond.Weighted>
-0.0000

> <Gold.Chemscore.Metal.Weighted>
-0.0000

> <Gold.Chemscore.Lipo.Weighted>
-11.2794

> <Gold.Chemscore.Internal_Hbond.Weighted>
0.0000

> <Gold.Chemscore.DEClash.Weighted>
0.1421

> <Gold.Chemscore.DEInternal.Weighted>
1.0191

> <Gold.Chemscore.Rot.Weighted>
3.9809

> <Gold.Chemscore.Internal.Correction.Weighted>
   9.000000E+99

> <Gold.Protein.RotatedTorsions>
[ 6907 6896 6895 6894 ] final  159.91 input  -60.11 | X-H torsion
[ 7974 7965 7964 7962 ] final   53.17 input  175.53 | X-H torsion
[ 8008 7997 7996 7995 ] final   74.78 input   59.86 | X-H torsion
[ 10167 10162 10161 10158 ] final -118.05 input  -65.29 | X-H torsion
[ 10718 10713 10712 10709 ] final  -12.07 input   66.30 | X-H torsion
[ 10763 10752 10751 10750 ] final  140.07 input  -60.55 | X-H torsion
[ 11005 11000 10999 10996 ] final   80.51 input  -57.11 | X-H torsion

> <Gold.Protein.ActiveResidues>
 VAL166  LYS551  ARG553  GLY616  TRP617  ASP618  TYR619  PRO620  LYS621  CYS622 
 ASP623  PHE694  ASN695  SER759  ASP760  ASP761  ALA762  ILE779  LEU786  VAL792 
 PHE793  MET794  SER795  GLU796  ALA797  LYS798  CYS799  TRP800  GLU811  SER814 

> <Gold.Protein.RotatedAtoms>
  151.9785  133.3749  159.4097 H   0  0  0  0  0  0  0  0  0  0  0  0  # atno 6907 bound_to 6896
  150.6938  134.4064  159.5151 H   0  0  0  0  0  0  0  0  0  0  0  0  # atno 6908 bound_to 6896
  152.1779  134.8778  160.0579 H   0  0  0  0  0  0  0  0  0  0  0  0  # atno 6909 bound_to 6896
  145.9739  139.4176  143.0173 H   0  0  0  0  0  0  0  0  0  0  0  0  # atno 7974 bound_to 7965
  155.8034  140.3475  155.5415 H   0  0  0  0  0  0  0  0  0  0  0  0  # atno 8008 bound_to 7997
  155.8515  140.0957  157.1692 H   0  0  0  0  0  0  0  0  0  0  0  0  # atno 8009 bound_to 7997
  154.4008  140.1375  156.3837 H   0  0  0  0  0  0  0  0  0  0  0  0  # atno 8010 bound_to 7997
  140.0617  143.4961  152.2028 H   0  0  0  0  0  0  0  0  0  0  0  0  # atno 10167 bound_to 10162
  156.6499  130.4952  149.6066 H   0  0  0  0  0  0  0  0  0  0  0  0  # atno 10718 bound_to 10713
  153.9166  135.3005  155.3448 H   0  0  0  0  0  0  0  0  0  0  0  0  # atno 10763 bound_to 10752
  154.7596  135.4940  153.9443 H   0  0  0  0  0  0  0  0  0  0  0  0  # atno 10764 bound_to 10752
  153.1164  135.6771  153.9513 H   0  0  0  0  0  0  0  0  0  0  0  0  # atno 10765 bound_to 10752
  139.9132  134.7925  156.1918 H   0  0  0  0  0  0  0  0  0  0  0  0  # atno 11005 bound_to 11000
  145.7866  140.9833  143.1071 LP  0  0  0  0  0  0  0  0  0  0  0  0  # atno 17320 bound_to 7965
  144.6844  139.9631  143.7480 LP  0  0  0  0  0  0  0  0  0  0  0  0  # atno 17321 bound_to 7965
  139.5890  144.7542  151.3449 LP  0  0  0  0  0  0  0  0  0  0  0  0  # atno 17342 bound_to 10162
  140.7168  143.7243  150.7672 LP  0  0  0  0  0  0  0  0  0  0  0  0  # atno 17343 bound_to 10162
  156.2093  130.6669  151.1252 LP  0  0  0  0  0  0  0  0  0  0  0  0  # atno 17370 bound_to 10713
  157.7144  131.0717  150.6381 LP  0  0  0  0  0  0  0  0  0  0  0  0  # atno 17371 bound_to 10713
  141.0579  133.6856  156.1895 LP  0  0  0  0  0  0  0  0  0  0  0  0  # atno 17394 bound_to 11000
  140.6708  134.4870  157.5587 LP  0  0  0  0  0  0  0  0  0  0  0  0  # atno 17395 bound_to 11000

$$$$
