AV-unprocessed.smi:2027|AV-procd|sdf|8212|dock7
  -GOLD-   2272010473D 1   1.00000     0.00000
 Structure written by MMmdl.
 50 52  0  0  0  0  0  0  0  0  2 V2000
  152.8264  143.1091  161.5486 C   0  0  0  0  0  0  0  0  0  0  0  0
  152.3442  142.5506  160.2211 C   0  0  0  0  0  0  0  0  0  0  0  0
  152.8643  141.3187  159.7645 C   0  0  0  0  0  0  0  0  0  0  0  0
  152.4394  140.7633  158.5380 C   0  0  0  0  0  0  0  0  0  0  0  0
  152.8081  139.5875  157.9074 N   0  0  0  0  0  0  0  0  0  0  0  0
  152.0649  139.6289  156.8057 C   0  0  0  0  0  0  0  0  0  0  0  0
  151.2619  140.6984  156.6437 N   0  0  0  0  0  0  0  0  0  0  0  0
  150.3663  140.9628  155.5320 C   0  0  0  0  0  0  0  0  0  0  0  0
  149.2210  139.9365  155.4399 C   0  0  1  0  0  0  0  0  0  0  0  0
  147.9798  140.6118  155.5113 O   0  0  0  0  0  0  0  0  0  0  0  0
  149.2733  139.1404  154.1209 C   0  0  0  0  0  0  0  0  0  0  0  0
  149.8650  137.7899  154.3022 N   0  3  1  0  0  0  0  0  0  0  0  0
  151.3438  137.8132  154.2020 C   0  0  0  0  0  0  0  0  0  0  0  0
  149.3839  137.1037  155.5294 C   0  0  0  0  0  0  0  0  0  0  0  0
  149.7421  135.6426  155.5168 C   0  0  0  0  0  0  0  0  0  0  0  0
  150.5480  134.9366  156.4552 C   0  0  0  0  0  0  0  0  0  0  0  0
  150.6674  133.6516  156.1659 N   0  0  0  0  0  0  0  0  0  0  0  0
  149.9531  133.4935  155.0329 N   0  0  0  0  0  0  0  0  0  0  0  0
  149.8623  132.1844  154.4224 C   0  0  0  0  0  0  0  0  0  0  0  0
  149.3858  134.6782  154.6160 C   0  0  0  0  0  0  0  0  0  0  0  0
  151.4727  141.4805  157.7741 C   0  0  0  0  0  0  0  0  0  0  0  0
  150.9481  142.7074  158.2169 C   0  0  0  0  0  0  0  0  0  0  0  0
  151.3835  143.2479  159.4451 C   0  0  0  0  0  0  0  0  0  0  0  0
  150.8110  144.5732  159.9159 C   0  0  0  0  0  0  0  0  0  0  0  0
  153.5585  142.4498  162.0159 H   0  0  0  0  0  0  0  0  0  0  0  0
  151.9918  143.2242  162.2404 H   0  0  0  0  0  0  0  0  0  0  0  0
  153.2962  144.0826  161.4064 H   0  0  0  0  0  0  0  0  0  0  0  0
  153.5954  140.7869  160.3557 H   0  0  0  0  0  0  0  0  0  0  0  0
  152.1095  138.8373  156.0717 H   0  0  0  0  0  0  0  0  0  0  0  0
  149.9674  141.9730  155.6368 H   0  0  0  0  0  0  0  0  0  0  0  0
  150.9552  140.9535  154.6140 H   0  0  0  0  0  0  0  0  0  0  0  0
  149.2867  139.2632  156.2942 H   0  0  0  0  0  0  0  0  0  0  0  0
  147.2887  139.9899  155.3375 H   0  0  0  0  0  0  0  0  0  0  0  0
  148.2576  139.0560  153.7303 H   0  0  0  0  0  0  0  0  0  0  0  0
  149.8423  139.6828  153.3640 H   0  0  0  0  0  0  0  0  0  0  0  0
  151.7814  138.3905  155.0175 H   0  0  0  0  0  0  0  0  0  0  0  0
  151.6606  138.2599  153.2589 H   0  0  0  0  0  0  0  0  0  0  0  0
  151.7604  136.8065  154.2339 H   0  0  0  0  0  0  0  0  0  0  0  0
  149.7935  137.6071  156.4065 H   0  0  0  0  0  0  0  0  0  0  0  0
  148.3027  137.2083  155.6135 H   0  0  0  0  0  0  0  0  0  0  0  0
  151.0419  135.3183  157.3367 H   0  0  0  0  0  0  0  0  0  0  0  0
  149.4108  132.2637  153.4331 H   0  0  0  0  0  0  0  0  0  0  0  0
  149.2466  131.5320  155.0426 H   0  0  0  0  0  0  0  0  0  0  0  0
  150.8577  131.7500  154.3226 H   0  0  0  0  0  0  0  0  0  0  0  0
  148.7778  134.7356  153.7249 H   0  0  0  0  0  0  0  0  0  0  0  0
  150.2159  143.2275  157.6171 H   0  0  0  0  0  0  0  0  0  0  0  0
  150.0862  144.9692  159.2042 H   0  0  0  0  0  0  0  0  0  0  0  0
  151.6040  145.3124  160.0320 H   0  0  0  0  0  0  0  0  0  0  0  0
  150.3063  144.4527  160.8748 H   0  0  0  0  0  0  0  0  0  0  0  0
  149.5397  137.2457  153.5155 H   0  0  0  0  0  0  0  0  0  0  0  0
  1  2  1  0  0  0  0
  1 25  1  0  0  0  0
  1 26  1  0  0  0  0
  1 27  1  0  0  0  0
  2 23  1  0  0  0  0
  2  3  2  0  0  0  0
  3  4  1  0  0  0  0
  3 28  1  0  0  0  0
  4 21  2  0  0  0  0
  4  5  1  0  0  0  0
  5  6  2  0  0  0  0
  6  7  1  0  0  0  0
  6 29  1  0  0  0  0
  7  8  1  0  0  0  0
  7 21  1  0  0  0  0
  8  9  1  0  0  0  0
  8 30  1  0  0  0  0
  8 31  1  0  0  0  0
  9 10  1  0  0  0  0
  9 11  1  0  0  0  0
  9 32  1  0  0  0  0
 10 33  1  0  0  0  0
 11 12  1  0  0  0  0
 11 34  1  0  0  0  0
 11 35  1  0  0  0  0
 12 13  1  0  0  0  0
 12 14  1  0  0  0  0
 12 50  1  0  0  0  0
 13 36  1  0  0  0  0
 13 37  1  0  0  0  0
 13 38  1  0  0  0  0
 14 15  1  0  0  0  0
 14 39  1  0  0  0  0
 14 40  1  0  0  0  0
 15 20  2  0  0  0  0
 15 16  1  0  0  0  0
 16 17  2  0  0  0  0
 16 41  1  0  0  0  0
 17 18  1  0  0  0  0
 18 19  1  0  0  0  0
 18 20  1  0  0  0  0
 19 42  1  0  0  0  0
 19 43  1  0  0  0  0
 19 44  1  0  0  0  0
 20 45  1  0  0  0  0
 21 22  1  0  0  0  0
 22 23  2  0  0  0  0
 22 46  1  0  0  0  0
 23 24  1  0  0  0  0
 24 47  1  0  0  0  0
 24 48  1  0  0  0  0
 24 49  1  0  0  0  0
M  CHG  1  12   1
M  END
> <s_m_source_file>
AV-unprocessed.smi

> <i_m_source_file_index>
2027

> <i_lp_mmshare_version>
43012

> <i_f3d_flags>
0

> <s_epik_input>
W0NIM11jKFtjSF0xKWMoW0NIM10pW2NIXWMoYzEyKW4oW2NIXW4yKVtDSDJdW0NASF0oW09IXSlbQ0gyXU4oW0NIM10pW0NIMl1jM1tjSF1ubihbQ0gzXSlbY0hdMw==

> <s_epik_cmdline>
J2VwaWtfcHl0aG9uJywgJy1waCcsICc3LjAnLCAnLXRuJywgJzgnLCAnLW1hJywgJzIwMCcsICctbWV0YWxfYmluZGluZycsICctaW1hZScsICc8aW5maWxlLm1hZT4nLCAnLW9tYWUnLCAnPG91dGZpbGUubWFlPic=

> <r_lp_tautomer_probability>
1

> <r_epik_Ionization_Penalty>
0.646578

> <r_epik_Ionization_Penalty_Charging>
0.559419

> <r_epik_Ionization_Penalty_Neutral>
0.087159

> <r_epik_State_Penalty>
0.661677

> <r_epik_Charging_Adjusted_Penalty>
1.2211

> <i_epik_Tot_Q>
1

> <i_epik_Tot_abs_Q>
1

> <r_epik_Metal_State_Penalty>
0.649174

> <b_epik_Metal_Only>
0

> <s_lp_Force_Field>
OPLS_2005

> <r_lp_Energy>
9.42611

> <b_lp_Chiralities_Consistent>
1

> <s_lp_Variant>
AV-unprocessed.smi:2027-4

> <Gold.Version>
5.8.1

> <Gold.Id.Protein>
6NUR|6NUR_protein|mol2

> <Gold.PLP.Fitness>
54.6046

> <Gold.PLP.PLP>
-45.6971

> <Gold.PLP.part.hbond>
-2.0000

> <Gold.PLP.part.metal>
0.0000

> <Gold.PLP.part.buried>
-4.1596

> <Gold.PLP.part.nonpolar>
-39.7382

> <Gold.PLP.part.repulsive>
0.0321

> <Gold.PLP.ligand.clash>
0.0000

> <Gold.PLP.ligand.torsion>
1.6334

> <Gold.PLP.Chemscore.Hbond>
3.0000

> <Gold.PLP.Chemscore.CHOScore>
0.9847

> <Gold.PLP.Chemscore.Metal>
0.0000

> <Gold.Chemscore.Hbonds>
donor molecule, donor type, donor heavy atom, donor atom, acceptor molecule, acceptor atom, score
      L1  H    12    50       P1  7948  2.00
      P1  H  7997  8010       L1     5  0.89
      L1  C    20    45       P1  7948  0.98

> <Gold.PLP.Chemscore.Internal.Correction>
0.2202

> <Gold.Rescore>
     Score         DG    S(hbond)    S(metal)    S(lipo)     H(rot)  DE(clash)    DE(int)     intcor
     16.22     -17.97       1.54        0.00     117.55       2.50       0.06       1.68       ----

> <Gold.Chemscore.Fitness>
16.2239

> <Gold.Chemscore.DG>
-17.9691

> <Gold.Chemscore.ZeroCoef>
-5.4800

> <Gold.Chemscore.Hbond>
1.5414

> <Gold.Chemscore.Metal>
0.0000

> <Gold.Chemscore.Lipo>
117.5467

> <Gold.Chemscore.Internal_Hbond>
0.0000

> <Gold.Chemscore.DEClash>
0.0647

> <Gold.Chemscore.DEInternal>
1.6805

> <Gold.Chemscore.Rot>
2.5047

> <Gold.Chemscore.Internal.Correction>
   9.000000E+99

> <Gold.Chemscore.Hbonds>
donor molecule, donor type, donor heavy atom, donor atom, acceptor molecule, acceptor atom, score
      L1  H    12    50       P1  7948  0.85
      P1  H  7997  8010       L1     5  0.10

> <Gold.Chemscore.Hbond.Weighted>
-5.1481

> <Gold.Chemscore.Metal.Weighted>
-0.0000

> <Gold.Chemscore.Lipo.Weighted>
-13.7530

> <Gold.Chemscore.Internal_Hbond.Weighted>
0.0000

> <Gold.Chemscore.DEClash.Weighted>
0.0647

> <Gold.Chemscore.DEInternal.Weighted>
1.6805

> <Gold.Chemscore.Rot.Weighted>
6.4120

> <Gold.Chemscore.Internal.Correction.Weighted>
   9.000000E+99

> <Gold.Protein.RotatedTorsions>
[ 6907 6896 6895 6894 ] final -170.38 input  -60.11 | X-H torsion
[ 7974 7965 7964 7962 ] final  -87.62 input  175.53 | X-H torsion
[ 8008 7997 7996 7995 ] final   27.65 input   59.86 | X-H torsion
[ 10167 10162 10161 10158 ] final  -91.10 input  -65.29 | X-H torsion
[ 10718 10713 10712 10709 ] final   86.69 input   66.30 | X-H torsion
[ 10763 10752 10751 10750 ] final  131.89 input  -60.55 | X-H torsion
[ 11005 11000 10999 10996 ] final  -97.37 input  -57.11 | X-H torsion

> <Gold.Protein.ActiveResidues>
 VAL166  LYS551  ARG553  GLY616  TRP617  ASP618  TYR619  PRO620  LYS621  CYS622 
 ASP623  PHE694  ASN695  SER759  ASP760  ASP761  ALA762  ILE779  LEU786  VAL792 
 PHE793  MET794  SER795  GLU796  ALA797  LYS798  CYS799  TRP800  GLU811  SER814 

> <Gold.Protein.RotatedAtoms>
  151.5068  133.3493  159.2877 H   0  0  0  0  0  0  0  0  0  0  0  0  # atno 6907 bound_to 6896
  150.8738  134.8119  159.7185 H   0  0  0  0  0  0  0  0  0  0  0  0  # atno 6908 bound_to 6896
  152.4716  134.4956  159.9760 H   0  0  0  0  0  0  0  0  0  0  0  0  # atno 6909 bound_to 6896
  145.4641  140.9560  143.1953 H   0  0  0  0  0  0  0  0  0  0  0  0  # atno 7974 bound_to 7965
  155.0462  140.3175  155.4707 H   0  0  0  0  0  0  0  0  0  0  0  0  # atno 8008 bound_to 7997
  156.2844  140.2154  156.5530 H   0  0  0  0  0  0  0  0  0  0  0  0  # atno 8009 bound_to 7997
  154.7248  140.0486  157.0661 H   0  0  0  0  0  0  0  0  0  0  0  0  # atno 8010 bound_to 7997
  140.3483  143.2905  151.9756 H   0  0  0  0  0  0  0  0  0  0  0  0  # atno 10167 bound_to 10162
  157.6932  131.0225  150.3011 H   0  0  0  0  0  0  0  0  0  0  0  0  # atno 10718 bound_to 10713
  153.7817  135.3167  155.3366 H   0  0  0  0  0  0  0  0  0  0  0  0  # atno 10763 bound_to 10752
  154.8159  135.4636  154.0644 H   0  0  0  0  0  0  0  0  0  0  0  0  # atno 10764 bound_to 10752
  153.1935  135.6912  153.8407 H   0  0  0  0  0  0  0  0  0  0  0  0  # atno 10765 bound_to 10752
  141.1381  133.8166  157.0697 H   0  0  0  0  0  0  0  0  0  0  0  0  # atno 11005 bound_to 11000
  144.7985  139.6187  143.7082 LP  0  0  0  0  0  0  0  0  0  0  0  0  # atno 17320 bound_to 7965
  146.2434  139.6048  142.9476 LP  0  0  0  0  0  0  0  0  0  0  0  0  # atno 17321 bound_to 7965
  139.4830  144.6098  151.7454 LP  0  0  0  0  0  0  0  0  0  0  0  0  # atno 17342 bound_to 10162
  140.5243  144.0829  150.6032 LP  0  0  0  0  0  0  0  0  0  0  0  0  # atno 17343 bound_to 10162
  156.3526  130.3833  149.7316 LP  0  0  0  0  0  0  0  0  0  0  0  0  # atno 17370 bound_to 10713
  156.4789  130.8031  151.3047 LP  0  0  0  0  0  0  0  0  0  0  0  0  # atno 17371 bound_to 10713
  140.0519  134.9801  157.1151 LP  0  0  0  0  0  0  0  0  0  0  0  0  # atno 17394 bound_to 11000
  140.3977  134.2116  155.7164 LP  0  0  0  0  0  0  0  0  0  0  0  0  # atno 17395 bound_to 11000

$$$$
