#       Name:                AV-unprocessed.smi:1206
#       Creating user name   scv26
#       Creation time:       Fri Mar 27 04:07:27 2020


#       File generated by GOLD software.
#

@<TRIPOS>MOLECULE
AV-unprocessed.smi:1206
    45    46     1
SMALL
NO_CHARGES


@<TRIPOS>ATOM
      1 ****        -1.4531  -1.7473   0.9119 C.3            1 S1                 0.0000
      2 ****        -0.9956  -0.9212  -0.2359 N.4            1 S1                 1.0000
      3 ****        -1.8163  -1.2156  -1.4377 C.3            1 S1                 0.0000
      4 ****         0.5022  -0.8565  -0.4305 C.3            1 S1                 0.0000
      5 ****         1.0925   0.0580   0.6904 C.3            1 S1                 0.0000
      6 ****         0.5158   1.4031   0.6861 N.am           1 S1                 0.0000
      7 ****        -0.4731   1.8534   1.4714 C.2            1 S1                 0.0000
      8 ****        -0.9562   1.1212   2.3373 O.2            1 S1                 0.0000
      9 ****        -0.8549   3.1180   1.1898 N.pl3          1 S1                -1.0000
     10 ****        -1.8682   3.6784   1.8709 C.2            1 S1                 0.0000
     11 ****        -3.1287   3.6790   1.4085 N.2            1 S1                 0.0000
     12 ****        -4.0235   4.3071   2.2643 N.2            1 S1                 0.0000
     13 ****        -3.4096   4.7755   3.3507 C.2            1 S1                 0.0000
     14 ****        -1.6834   4.4915   3.4272 S.3            1 S1                 0.0000
     15 ****         1.1351  -2.2788  -0.3516 C.3            1 S1                 0.0000
     16 ****         2.6406  -2.3142  -0.6800 C.3            1 S1                 0.0000
     17 ****         2.9420  -1.6890  -2.0481 C.3            1 S1                 0.0000
     18 ****         2.3753  -0.2667  -2.1458 C.3            1 S1                 0.0000
     19 ****         0.8686  -0.2548  -1.8291 C.3            1 S1                 0.0000
     20 ****        -1.3804  -2.8121   0.6883 H              1 S1                 0.0000
     21 ****        -2.4973  -1.5285   1.1366 H              1 S1                 0.0000
     22 ****        -0.8880  -1.5517   1.8214 H              1 S1                 0.0000
     23 ****        -1.5215  -2.1583  -1.8996 H              1 S1                 0.0000
     24 ****        -1.7467  -0.4186  -2.1779 H              1 S1                 0.0000
     25 ****        -2.8718  -1.2894  -1.1740 H              1 S1                 0.0000
     26 ****         0.9813  -0.4001   1.6732 H              1 S1                 0.0000
     27 ****         2.1674   0.1815   0.5794 H              1 S1                 0.0000
     28 ****         0.8837   2.0489   0.0024 H              1 S1                 0.0000
     29 ****        -3.9758   5.2939   4.1100 H              1 S1                 0.0000
     30 ****         1.0007  -2.7084   0.6412 H              1 S1                 0.0000
     31 ****         0.6183  -2.9458  -1.0428 H              1 S1                 0.0000
     32 ****         3.2074  -1.7970   0.0943 H              1 S1                 0.0000
     33 ****         2.9917  -3.3465  -0.6660 H              1 S1                 0.0000
     34 ****         4.0179  -1.6755  -2.2242 H              1 S1                 0.0000
     35 ****         2.5079  -2.3091  -2.8333 H              1 S1                 0.0000
     36 ****         2.9196   0.4042  -1.4819 H              1 S1                 0.0000
     37 ****         2.5382   0.1193  -3.1525 H              1 S1                 0.0000
     38 ****         0.4042  -0.8332  -2.6274 H              1 S1                 0.0000
     39 ****         0.4814   0.7596  -1.9294 H              1 S1                 0.0000
     40 ****        -1.2483   0.0257   0.0126 H              1 S1                 0.0000
     41 ****        -0.6105   0.1902   2.4546 LP             1 S1                 0.0000
     42 ****        -1.6938   1.4582   2.9225 LP             1 S1                 0.0000
     43 ****        -0.3842   3.6361   0.4757 LP             1 S1                 0.0000
     44 ****        -3.3958   3.2688   0.5365 LP             1 S1                 0.0000
     45 ****        -5.0037   4.3967   2.0881 LP             1 S1                 0.0000
@<TRIPOS>BOND
    1    1    2 1     
    2    1   20 1     
    3    1   21 1     
    4    1   22 1     
    5    2    3 1     
    6    2    4 1     
    7    2   40 1     
    8    3   23 1     
    9    3   24 1     
   10    3   25 1     
   11    4   19 1     
   12    4    5 1     
   13    4   15 1     
   14    5    6 1     
   15    5   26 1     
   16    5   27 1     
   17    6    7 am    
   18    6   28 1     
   19    7    8 2     
   20    7    9 1     
   21    9   10 1     
   22   10   14 1     
   23   10   11 2     
   24   11   12 1     
   25   12   13 2     
   26   13   14 1     
   27   13   29 1     
   28   15   16 1     
   29   15   30 1     
   30   15   31 1     
   31   16   17 1     
   32   16   32 1     
   33   16   33 1     
   34   17   18 1     
   35   17   34 1     
   36   17   35 1     
   37   18   19 1     
   38   18   36 1     
   39   18   37 1     
   40   19   38 1     
   41   19   39 1     
   42    8   41 1     
   43    8   42 1     
   44    9   43 1     
   45   11   44 1     
   46   12   45 1     
@<TRIPOS>SUBSTRUCTURE
      1 S1             1
@<TRIPOS>SET
LONE_PAIRS      STATIC     ATOMS    <user>   **** ""
5 41 42 43 44 45
DONOR_HYDROGENS      STATIC     ATOMS    <user>   **** ""
2 40 28
ATOM$BLUE        STATIC     ATOMS    COLORGROUP SYSTEM
5 41 42 43 44 45
ATOM$RED        STATIC     ATOMS    COLORGROUP SYSTEM
2 40 28
