AV-unprocessed.smi:113|AV-procd|sdf|1099|dock1
  -GOLD-   2262018203D 1   1.00000     0.00000
 Structure written by MMmdl.
 53 56  0  0  0  0  0  0  0  0  2 V2000
  155.3826  139.1796  163.1103 C   0  0  0  0  0  0  0  0  0  0  0  0
  154.6451  139.7175  161.9025 C   0  0  0  0  0  0  0  0  0  0  0  0
  154.4418  138.9434  160.7437 C   0  0  0  0  0  0  0  0  0  0  0  0
  153.7440  139.4928  159.6395 C   0  0  0  0  0  0  0  0  0  0  0  0
  153.5071  138.6743  158.3657 C   0  0  0  0  0  0  0  0  0  0  0  0
  152.1241  138.4836  157.9517 N   0  0  0  0  0  0  0  0  0  0  0  0
  151.2883  137.6925  158.7752 C   0  0  0  0  0  0  0  0  0  0  0  0
  151.7068  137.1788  159.8149 O   0  0  0  0  0  0  0  0  0  0  0  0
  149.9213  137.5148  158.2820 C   0  0  0  0  0  0  0  0  0  0  0  0
  148.9749  136.6456  159.0957 C   0  0  0  0  0  0  0  0  0  0  0  0
  149.5407  138.1040  157.1225 C   0  0  0  0  0  0  0  0  0  0  0  0
  150.3712  138.9006  156.3456 N   0  0  0  0  0  0  0  0  0  0  0  0
  149.9484  139.4868  155.0039 C   0  0  2  0  0  0  0  0  0  0  0  0
  150.0994  141.0074  154.8839 C   0  0  0  0  0  0  0  0  0  0  0  0
  148.7071  141.5299  155.2443 C   0  0  1  0  0  0  0  0  0  0  0  0
  148.2374  142.3956  154.2277 O   0  0  0  0  0  0  0  0  0  0  0  0
  147.8452  140.2591  155.4320 C   0  0  1  0  0  0  0  0  0  0  0  0
  146.4095  140.2875  154.8777 C   0  0  0  0  0  0  0  0  0  0  0  0
  146.4275  140.4214  153.4719 O   0  0  0  0  0  0  0  0  0  0  0  0
  148.5960  139.2237  154.8093 O   0  0  0  0  0  0  0  0  0  0  0  0
  151.7195  139.0640  156.7290 C   0  0  0  0  0  0  0  0  0  0  0  0
  152.5126  139.6821  156.0142 O   0  0  0  0  0  0  0  0  0  0  0  0
  153.2644  140.8275  159.7417 C   0  0  0  0  0  0  0  0  0  0  0  0
  152.5590  141.4583  158.6888 C   0  0  0  0  0  0  0  0  0  0  0  0
  152.1023  142.7839  158.8270 C   0  0  0  0  0  0  0  0  0  0  0  0
  152.3408  143.4966  160.0169 C   0  0  0  0  0  0  0  0  0  0  0  0
  153.0387  142.8844  161.0743 C   0  0  0  0  0  0  0  0  0  0  0  0
  153.4983  141.5592  160.9375 C   0  0  0  0  0  0  0  0  0  0  0  0
  154.1697  140.9784  161.9542 N   0  3  0  0  0  0  0  0  0  0  0  0
  156.0783  138.3920  162.8197 H   0  0  0  0  0  0  0  0  0  0  0  0
  154.6758  138.7652  163.8297 H   0  0  0  0  0  0  0  0  0  0  0  0
  155.9519  139.9691  163.6019 H   0  0  0  0  0  0  0  0  0  0  0  0
  154.8259  137.9346  160.7178 H   0  0  0  0  0  0  0  0  0  0  0  0
  154.0426  139.1225  157.5272 H   0  0  0  0  0  0  0  0  0  0  0  0
  153.9504  137.6822  158.4670 H   0  0  0  0  0  0  0  0  0  0  0  0
  147.9849  136.5860  158.6427 H   0  0  0  0  0  0  0  0  0  0  0  0
  148.8557  137.0493  160.1018 H   0  0  0  0  0  0  0  0  0  0  0  0
  149.3646  135.6305  159.1775 H   0  0  0  0  0  0  0  0  0  0  0  0
  148.5307  137.9161  156.7967 H   0  0  0  0  0  0  0  0  0  0  0  0
  150.5625  138.9753  154.2609 H   0  0  0  0  0  0  0  0  0  0  0  0
  150.9144  141.3997  155.4918 H   0  0  0  0  0  0  0  0  0  0  0  0
  150.3374  141.2293  153.8423 H   0  0  0  0  0  0  0  0  0  0  0  0
  148.7317  142.0969  156.1751 H   0  0  0  0  0  0  0  0  0  0  0  0
  148.5096  143.2770  154.4326 H   0  0  0  0  0  0  0  0  0  0  0  0
  147.8004  140.0189  156.4958 H   0  0  0  0  0  0  0  0  0  0  0  0
  145.8492  139.3969  155.1627 H   0  0  0  0  0  0  0  0  0  0  0  0
  145.8724  141.1422  155.2896 H   0  0  0  0  0  0  0  0  0  0  0  0
  145.5379  140.5184  153.1680 H   0  0  0  0  0  0  0  0  0  0  0  0
  152.3561  140.9439  157.7617 H   0  0  0  0  0  0  0  0  0  0  0  0
  151.5668  143.2556  158.0160 H   0  0  0  0  0  0  0  0  0  0  0  0
  151.9884  144.5129  160.1178 H   0  0  0  0  0  0  0  0  0  0  0  0
  153.2190  143.4367  161.9852 H   0  0  0  0  0  0  0  0  0  0  0  0
  154.3265  141.5208  162.8035 H   0  0  0  0  0  0  0  0  0  0  0  0
  1  2  1  0  0  0  0
  1 30  1  0  0  0  0
  1 31  1  0  0  0  0
  1 32  1  0  0  0  0
  2 29  1  0  0  0  0
  2  3  2  0  0  0  0
  3  4  1  0  0  0  0
  3 33  1  0  0  0  0
  4  5  1  0  0  0  0
  4 23  2  0  0  0  0
  5  6  1  0  0  0  0
  5 34  1  0  0  0  0
  5 35  1  0  0  0  0
  6 21  1  0  0  0  0
  6  7  1  0  0  0  0
  7  8  2  0  0  0  0
  7  9  1  0  0  0  0
  9 10  1  0  0  0  0
  9 11  2  0  0  0  0
 10 36  1  0  0  0  0
 10 37  1  0  0  0  0
 10 38  1  0  0  0  0
 11 12  1  0  0  0  0
 11 39  1  0  0  0  0
 12 13  1  0  0  0  0
 12 21  1  0  0  0  0
 13 20  1  0  0  0  0
 13 14  1  0  0  0  0
 13 40  1  0  0  0  0
 14 15  1  0  0  0  0
 14 41  1  0  0  0  0
 14 42  1  0  0  0  0
 15 16  1  0  0  0  0
 15 17  1  0  0  0  0
 15 43  1  0  0  0  0
 16 44  1  0  0  0  0
 17 18  1  0  0  0  0
 17 20  1  0  0  0  0
 17 45  1  0  0  0  0
 18 19  1  0  0  0  0
 18 46  1  0  0  0  0
 18 47  1  0  0  0  0
 19 48  1  0  0  0  0
 21 22  2  0  0  0  0
 23 28  1  0  0  0  0
 23 24  1  0  0  0  0
 24 25  2  0  0  0  0
 24 49  1  0  0  0  0
 25 26  1  0  0  0  0
 25 50  1  0  0  0  0
 26 27  2  0  0  0  0
 26 51  1  0  0  0  0
 27 28  1  0  0  0  0
 27 52  1  0  0  0  0
 28 29  2  0  0  0  0
 29 53  1  0  0  0  0
M  CHG  1  29   1
M  END
> <s_m_source_file>
AV-unprocessed.smi

> <i_m_source_file_index>
113

> <i_lp_mmshare_version>
43012

> <i_f3d_flags>
0

> <s_epik_input>
W2NIXTFbY0hdW2NIXVtjSF1jKGMxMiluYyhbQ0gzXSlbY0hdYzJbQ0gyXW4zYyg9TyljKFtDSDNdKVtjSF1uKGMzPU8pW0NAQEhdNFtDSDJdW0NAQEhdKFtPSF0pW0NASF0oTzQpW0NIMl1bT0hd

> <s_epik_cmdline>
J2VwaWtfcHl0aG9uJywgJy1waCcsICc3LjAnLCAnLXRuJywgJzgnLCAnLW1hJywgJzIwMCcsICctbWV0YWxfYmluZGluZycsICctaW1hZScsICc8aW5maWxlLm1hZT4nLCAnLW9tYWUnLCAnPG91dGZpbGUubWFlPic=

> <r_lp_tautomer_probability>
1

> <r_epik_Ionization_Penalty>
0.705471

> <r_epik_Ionization_Penalty_Charging>
0.70547

> <r_epik_Ionization_Penalty_Neutral>
1.19947e-07

> <r_epik_State_Penalty>
0.728574

> <r_epik_Charging_Adjusted_Penalty>
1.43404

> <i_epik_Tot_Q>
1

> <i_epik_Tot_abs_Q>
1

> <r_epik_Metal_State_Penalty>
4.61665

> <b_epik_Metal_Only>
0

> <s_epik_Chemistry_Notes>
This compound contains an acetal/aminal-like group ( X-CH(R)-Y where X, Y are N, S, or O) that may be acid/base labile, releasing an aldehyde.

> <s_lp_Force_Field>
OPLS_2005

> <r_lp_Energy>
45.3358

> <b_lp_Chiralities_Consistent>
1

> <s_lp_Variant>
AV-unprocessed.smi:113-9

> <Gold.Version>
5.8.1

> <Gold.Id.Protein>
6NUR|6NUR_protein|mol2

> <Gold.PLP.Fitness>
57.6786

> <Gold.PLP.PLP>
-45.7593

> <Gold.PLP.part.hbond>
-4.9687

> <Gold.PLP.part.metal>
0.0000

> <Gold.PLP.part.buried>
-4.2174

> <Gold.PLP.part.nonpolar>
-35.9258

> <Gold.PLP.part.repulsive>
0.1075

> <Gold.PLP.ligand.clash>
0.0000

> <Gold.PLP.ligand.torsion>
0.0904

> <Gold.PLP.Chemscore.Hbond>
4.0049

> <Gold.PLP.Chemscore.CHOScore>
0.0000

> <Gold.PLP.Chemscore.Metal>
0.0000

> <Gold.Chemscore.Hbonds>
donor molecule, donor type, donor heavy atom, donor atom, acceptor molecule, acceptor atom, score
      L1  H    16    44       P1  8028  1.00
      L1  H    19    48       P1 10175  1.00
      P1  H  6896  6909       L1     8  1.00
      P1  H  7997  8008       L1    22  1.00

> <Gold.PLP.Chemscore.Internal.Correction>
0.0854

> <Gold.Rescore>
     Score         DG    S(hbond)    S(metal)    S(lipo)     H(rot)  DE(clash)    DE(int)     intcor
     23.38     -24.94       3.88        0.00     121.62       3.01       0.31       1.25       ----

> <Gold.Chemscore.Fitness>
23.3792

> <Gold.Chemscore.DG>
-24.9435

> <Gold.Chemscore.ZeroCoef>
-5.4800

> <Gold.Chemscore.Hbond>
3.8757

> <Gold.Chemscore.Metal>
0.0000

> <Gold.Chemscore.Lipo>
121.6192

> <Gold.Chemscore.Internal_Hbond>
0.0000

> <Gold.Chemscore.DEClash>
0.3110

> <Gold.Chemscore.DEInternal>
1.2533

> <Gold.Chemscore.Rot>
3.0120

> <Gold.Chemscore.Internal.Correction>
   9.000000E+99

> <Gold.Chemscore.Hbonds>
donor molecule, donor type, donor heavy atom, donor atom, acceptor molecule, acceptor atom, score
      L1  H    16    44       P1  8028  0.97
      L1  H    19    48       P1 10175  0.89
      P1  H  6896  6909       L1     8  0.90
      P1  H  7997  8008       L1    22  0.98

> <Gold.Chemscore.Hbond.Weighted>
-12.9448

> <Gold.Chemscore.Metal.Weighted>
-0.0000

> <Gold.Chemscore.Lipo.Weighted>
-14.2294

> <Gold.Chemscore.Internal_Hbond.Weighted>
0.0000

> <Gold.Chemscore.DEClash.Weighted>
0.3110

> <Gold.Chemscore.DEInternal.Weighted>
1.2533

> <Gold.Chemscore.Rot.Weighted>
7.7108

> <Gold.Chemscore.Internal.Correction.Weighted>
   9.000000E+99

> <Gold.Protein.RotatedTorsions>
[ 6907 6896 6895 6894 ] final  120.18 input  -60.11 | X-H torsion
[ 7974 7965 7964 7962 ] final   65.50 input  175.53 | X-H torsion
[ 8008 7997 7996 7995 ] final  -23.20 input   59.86 | X-H torsion
[ 10167 10162 10161 10158 ] final  -85.12 input  -65.29 | X-H torsion
[ 10718 10713 10712 10709 ] final  177.15 input   66.30 | X-H torsion
[ 10763 10752 10751 10750 ] final  112.43 input  -60.55 | X-H torsion
[ 11005 11000 10999 10996 ] final  -63.51 input  -57.11 | X-H torsion

> <Gold.Protein.ActiveResidues>
 VAL166  LYS551  ARG553  GLY616  TRP617  ASP618  TYR619  PRO620  LYS621  CYS622 
 ASP623  PHE694  ASN695  SER759  ASP760  ASP761  ALA762  ILE779  LEU786  VAL792 
 PHE793  MET794  SER795  GLU796  ALA797  LYS798  CYS799  TRP800  GLU811  SER814 

> <Gold.Protein.RotatedAtoms>
  152.4417  133.7461  159.6667 H   0  0  0  0  0  0  0  0  0  0  0  0  # atno 6907 bound_to 6896
  150.8309  133.8082  159.3105 H   0  0  0  0  0  0  0  0  0  0  0  0  # atno 6908 bound_to 6896
  151.5736  135.1064  160.0052 H   0  0  0  0  0  0  0  0  0  0  0  0  # atno 6909 bound_to 6896
  145.8378  139.3177  143.0949 H   0  0  0  0  0  0  0  0  0  0  0  0  # atno 7974 bound_to 7965
  154.4599  140.1987  156.0274 H   0  0  0  0  0  0  0  0  0  0  0  0  # atno 8008 bound_to 7997
  156.0819  140.3270  155.7677 H   0  0  0  0  0  0  0  0  0  0  0  0  # atno 8009 bound_to 7997
  155.5097  140.0560  157.2916 H   0  0  0  0  0  0  0  0  0  0  0  0  # atno 8010 bound_to 7997
  140.4068  143.2639  151.9071 H   0  0  0  0  0  0  0  0  0  0  0  0  # atno 10167 bound_to 10162
  156.9096  130.9905  151.3023 H   0  0  0  0  0  0  0  0  0  0  0  0  # atno 10718 bound_to 10713
  153.4777  135.3686  155.2425 H   0  0  0  0  0  0  0  0  0  0  0  0  # atno 10763 bound_to 10752
  154.8756  135.3947  154.3736 H   0  0  0  0  0  0  0  0  0  0  0  0  # atno 10764 bound_to 10752
  153.4335  135.7083  153.6280 H   0  0  0  0  0  0  0  0  0  0  0  0  # atno 10765 bound_to 10752
  141.1395  133.6653  156.5691 H   0  0  0  0  0  0  0  0  0  0  0  0  # atno 11005 bound_to 11000
  145.9499  140.8916  143.0264 LP  0  0  0  0  0  0  0  0  0  0  0  0  # atno 17320 bound_to 7965
  144.6735  140.1666  143.7418 LP  0  0  0  0  0  0  0  0  0  0  0  0  # atno 17321 bound_to 7965
  139.4783  144.5578  151.8286 LP  0  0  0  0  0  0  0  0  0  0  0  0  # atno 17342 bound_to 10162
  140.4681  144.1626  150.5914 LP  0  0  0  0  0  0  0  0  0  0  0  0  # atno 17343 bound_to 10162
  157.5976  130.8489  149.8752 LP  0  0  0  0  0  0  0  0  0  0  0  0  # atno 17370 bound_to 10713
  156.0542  130.3711  150.1129 LP  0  0  0  0  0  0  0  0  0  0  0  0  # atno 17371 bound_to 10713
  140.3927  134.7426  157.4732 LP  0  0  0  0  0  0  0  0  0  0  0  0  # atno 17394 bound_to 11000
  140.0554  134.6071  155.8812 LP  0  0  0  0  0  0  0  0  0  0  0  0  # atno 17395 bound_to 11000

$$$$
