AV-unprocessed.smi:2528|AV-procd|sdf|9951|dock2
  -GOLD-   2272013593D 1   1.00000     0.00000
 Structure written by MMmdl.
 44 46  0  0  0  0  0  0  0  0  2 V2000
  153.0307  140.1524  157.6551 O   0  0  0  0  0  0  0  0  0  0  0  0
  152.0663  140.6829  157.1034 C   0  0  0  0  0  0  0  0  0  0  0  0
  151.5163  140.2178  155.9723 N   0  0  0  0  0  0  0  0  0  0  0  0
  151.9546  139.0241  155.2563 C   0  0  0  0  0  0  0  0  0  0  0  0
  150.7628  138.1465  154.8343 C   0  0  1  0  0  0  0  0  0  0  0  0
  151.1315  136.6520  154.8125 C   0  0  0  0  0  0  0  0  0  0  0  0
  149.9483  135.8293  154.4592 N   0  3  1  0  0  0  0  0  0  0  0  0
  150.2366  134.3754  154.3509 C   0  0  0  0  0  0  0  0  0  0  0  0
  150.4012  133.7087  155.7300 C   0  0  0  0  0  0  0  0  0  0  0  0
  149.1829  133.9798  156.6229 C   0  0  0  0  0  0  0  0  0  0  0  0
  148.9194  135.4890  156.7241 C   0  0  0  0  0  0  0  0  0  0  0  0
  148.7711  136.1220  155.3231 C   0  0  1  0  0  0  0  0  0  0  0  0
  148.5168  137.6412  155.3802 C   0  0  0  0  0  0  0  0  0  0  0  0
  149.7014  138.3260  155.7663 O   0  0  0  0  0  0  0  0  0  0  0  0
  151.4222  141.7777  157.5439 N   0  0  0  0  0  0  0  0  0  0  0  0
  151.6964  142.5491  158.7048 C   0  0  0  0  0  0  0  0  0  0  0  0
  151.0475  143.8035  158.7564 C   0  0  0  0  0  0  0  0  0  0  0  0
  151.2522  144.6440  159.8678 C   0  0  0  0  0  0  0  0  0  0  0  0
  152.1043  144.2093  160.8985 C   0  0  0  0  0  0  0  0  0  0  0  0
  152.7138  142.9480  160.7675 C   0  0  0  0  0  0  0  0  0  0  0  0
  152.5170  142.1396  159.7046 N   0  0  0  0  0  0  0  0  0  0  0  0
  150.7301  140.7185  155.5847 H   0  0  0  0  0  0  0  0  0  0  0  0
  152.4953  139.3579  154.3704 H   0  0  0  0  0  0  0  0  0  0  0  0
  152.6669  138.4506  155.8520 H   0  0  0  0  0  0  0  0  0  0  0  0
  150.4337  138.4544  153.8396 H   0  0  0  0  0  0  0  0  0  0  0  0
  151.9220  136.4768  154.0820 H   0  0  0  0  0  0  0  0  0  0  0  0
  151.5276  136.3540  155.7834 H   0  0  0  0  0  0  0  0  0  0  0  0
  149.4102  133.9032  153.8183 H   0  0  0  0  0  0  0  0  0  0  0  0
  151.1261  134.2157  153.7401 H   0  0  0  0  0  0  0  0  0  0  0  0
  150.5356  132.6337  155.6062 H   0  0  0  0  0  0  0  0  0  0  0  0
  151.3054  134.0723  156.2188 H   0  0  0  0  0  0  0  0  0  0  0  0
  148.3062  133.4806  156.2082 H   0  0  0  0  0  0  0  0  0  0  0  0
  149.3414  133.5570  157.6153 H   0  0  0  0  0  0  0  0  0  0  0  0
  148.0141  135.6607  157.3072 H   0  0  0  0  0  0  0  0  0  0  0  0
  149.7295  135.9680  157.2751 H   0  0  0  0  0  0  0  0  0  0  0  0
  147.9026  135.6629  154.8485 H   0  0  0  0  0  0  0  0  0  0  0  0
  148.1784  138.0117  154.4111 H   0  0  0  0  0  0  0  0  0  0  0  0
  147.7249  137.8690  156.0940 H   0  0  0  0  0  0  0  0  0  0  0  0
  150.6380  142.0910  156.9914 H   0  0  0  0  0  0  0  0  0  0  0  0
  150.3962  144.1222  157.9556 H   0  0  0  0  0  0  0  0  0  0  0  0
  150.7637  145.6054  159.9272 H   0  0  0  0  0  0  0  0  0  0  0  0
  152.2866  144.8261  161.7660 H   0  0  0  0  0  0  0  0  0  0  0  0
  153.3766  142.5781  161.5357 H   0  0  0  0  0  0  0  0  0  0  0  0
  149.6890  136.1290  153.5302 H   0  0  0  0  0  0  0  0  0  0  0  0
  1  2  2  0  0  0  0
  2  3  1  0  0  0  0
  2 15  1  0  0  0  0
  3  4  1  0  0  0  0
  3 22  1  0  0  0  0
  4  5  1  0  0  0  0
  4 23  1  0  0  0  0
  4 24  1  0  0  0  0
  5 14  1  0  0  0  0
  5  6  1  0  0  0  0
  5 25  1  0  0  0  0
  6  7  1  0  0  0  0
  6 26  1  0  0  0  0
  6 27  1  0  0  0  0
  7 12  1  0  0  0  0
  7  8  1  0  0  0  0
  7 44  1  0  0  0  0
  8  9  1  0  0  0  0
  8 28  1  0  0  0  0
  8 29  1  0  0  0  0
  9 10  1  0  0  0  0
  9 30  1  0  0  0  0
  9 31  1  0  0  0  0
 10 11  1  0  0  0  0
 10 32  1  0  0  0  0
 10 33  1  0  0  0  0
 11 12  1  0  0  0  0
 11 34  1  0  0  0  0
 11 35  1  0  0  0  0
 12 13  1  0  0  0  0
 12 36  1  0  0  0  0
 13 14  1  0  0  0  0
 13 37  1  0  0  0  0
 13 38  1  0  0  0  0
 15 16  1  0  0  0  0
 15 39  1  0  0  0  0
 16 21  1  0  0  0  0
 16 17  2  0  0  0  0
 17 18  1  0  0  0  0
 17 40  1  0  0  0  0
 18 19  2  0  0  0  0
 18 41  1  0  0  0  0
 19 20  1  0  0  0  0
 19 42  1  0  0  0  0
 20 21  2  0  0  0  0
 20 43  1  0  0  0  0
M  CHG  1   7   1
M  END
> <s_m_source_file>
AV-unprocessed.smi

> <i_m_source_file_index>
2528

> <i_lp_mmshare_version>
43012

> <i_f3d_flags>
0

> <s_epik_input>
bjFbY0hdW2NIXVtjSF1bY0hdYzFbTkhdQyg9TylbTkhdW0NIMl1bQ0BIXShbQ0gyXTIpT1tDSDJdW0NAQEhdKE4yMylbQ0gyXVtDSDJdW0NIMl1bQ0gyXTM=

> <s_epik_cmdline>
J2VwaWtfcHl0aG9uJywgJy1waCcsICc3LjAnLCAnLXRuJywgJzgnLCAnLW1hJywgJzIwMCcsICctbWV0YWxfYmluZGluZycsICctaW1hZScsICc8aW5maWxlLm1hZT4nLCAnLW9tYWUnLCAnPG91dGZpbGUubWFlPic=

> <r_epik_Ionization_Penalty>
0.0932337

> <r_epik_Ionization_Penalty_Charging>
0.0931942

> <r_epik_Ionization_Penalty_Neutral>
3.9565e-05

> <r_epik_State_Penalty>
0.0834605

> <r_epik_Charging_Adjusted_Penalty>
0.176655

> <i_epik_Tot_Q>
1

> <i_epik_Tot_abs_Q>
1

> <r_epik_Metal_State_Penalty>
0.0834607

> <b_epik_Metal_Only>
0

> <s_lp_Force_Field>
OPLS_2005

> <r_lp_Energy>
26.7775

> <b_lp_Chiralities_Consistent>
1

> <s_lp_Variant>
AV-unprocessed.smi:2528-4

> <Gold.Version>
5.8.1

> <Gold.Id.Protein>
6NUR|6NUR_protein|mol2

> <Gold.PLP.Fitness>
41.2585

> <Gold.PLP.PLP>
-33.3425

> <Gold.PLP.part.hbond>
-2.0000

> <Gold.PLP.part.metal>
0.0000

> <Gold.PLP.part.buried>
-5.8676

> <Gold.PLP.part.nonpolar>
-25.8406

> <Gold.PLP.part.repulsive>
0.2788

> <Gold.PLP.ligand.clash>
0.0000

> <Gold.PLP.ligand.torsion>
0.5306

> <Gold.PLP.Chemscore.Hbond>
2.9920

> <Gold.PLP.Chemscore.CHOScore>
0.0000

> <Gold.PLP.Chemscore.Metal>
0.0000

> <Gold.Chemscore.Hbonds>
donor molecule, donor type, donor heavy atom, donor atom, acceptor molecule, acceptor atom, score
      L1  H     7    44       P1  7948  2.00
      P1  H  7997  8008       L1     1  1.00

> <Gold.PLP.Chemscore.Internal.Correction>
0.0012

> <Gold.Rescore>
     Score         DG    S(hbond)    S(metal)    S(lipo)     H(rot)  DE(clash)    DE(int)     intcor
     16.35     -18.27       1.94        0.00      81.99       1.29       0.03       1.89       ----

> <Gold.Chemscore.Fitness>
16.3480

> <Gold.Chemscore.DG>
-18.2732

> <Gold.Chemscore.ZeroCoef>
-5.4800

> <Gold.Chemscore.Hbond>
1.9447

> <Gold.Chemscore.Metal>
0.0000

> <Gold.Chemscore.Lipo>
81.9897

> <Gold.Chemscore.Internal_Hbond>
0.0000

> <Gold.Chemscore.DEClash>
0.0323

> <Gold.Chemscore.DEInternal>
1.8930

> <Gold.Chemscore.Rot>
1.2870

> <Gold.Chemscore.Internal.Correction>
   9.000000E+99

> <Gold.Chemscore.Hbonds>
donor molecule, donor type, donor heavy atom, donor atom, acceptor molecule, acceptor atom, score
      L1  H     7    44       P1  7948  0.26
      P1  H  7997  8008       L1     1  0.92

> <Gold.Chemscore.Hbond.Weighted>
-6.4953

> <Gold.Chemscore.Metal.Weighted>
-0.0000

> <Gold.Chemscore.Lipo.Weighted>
-9.5928

> <Gold.Chemscore.Internal_Hbond.Weighted>
0.0000

> <Gold.Chemscore.DEClash.Weighted>
0.0323

> <Gold.Chemscore.DEInternal.Weighted>
1.8930

> <Gold.Chemscore.Rot.Weighted>
3.2948

> <Gold.Chemscore.Internal.Correction.Weighted>
   9.000000E+99

> <Gold.Protein.RotatedTorsions>
[ 6907 6896 6895 6894 ] final   -9.83 input  -60.11 | X-H torsion
[ 7974 7965 7964 7962 ] final   40.05 input  175.53 | X-H torsion
[ 8008 7997 7996 7995 ] final  -74.39 input   59.86 | X-H torsion
[ 10167 10162 10161 10158 ] final  -18.76 input  -65.29 | X-H torsion
[ 10718 10713 10712 10709 ] final  144.55 input   66.30 | X-H torsion
[ 10763 10752 10751 10750 ] final  169.35 input  -60.55 | X-H torsion
[ 11005 11000 10999 10996 ] final  158.47 input  -57.11 | X-H torsion

> <Gold.Protein.ActiveResidues>
 VAL166  LYS551  ARG553  GLY616  TRP617  ASP618  TYR619  PRO620  LYS621  CYS622 
 ASP623  PHE694  ASN695  SER759  ASP760  ASP761  ALA762  ILE779  LEU786  VAL792 
 PHE793  MET794  SER795  GLU796  ALA797  LYS798  CYS799  TRP800  GLU811  SER814 

> <Gold.Protein.RotatedAtoms>
  151.4116  135.0986  159.9586 H   0  0  0  0  0  0  0  0  0  0  0  0  # atno 6907 bound_to 6896
  152.5018  133.8792  159.7348 H   0  0  0  0  0  0  0  0  0  0  0  0  # atno 6908 bound_to 6896
  150.9288  133.6734  159.2843 H   0  0  0  0  0  0  0  0  0  0  0  0  # atno 6909 bound_to 6896
  146.0936  139.5579  142.9460 H   0  0  0  0  0  0  0  0  0  0  0  0  # atno 7974 bound_to 7965
  154.5326  140.0762  156.8372 H   0  0  0  0  0  0  0  0  0  0  0  0  # atno 8008 bound_to 7997
  155.3343  140.3403  155.4221 H   0  0  0  0  0  0  0  0  0  0  0  0  # atno 8009 bound_to 7997
  156.1797  140.1648  156.8284 H   0  0  0  0  0  0  0  0  0  0  0  0  # atno 8010 bound_to 7997
  140.7262  143.4884  151.0024 H   0  0  0  0  0  0  0  0  0  0  0  0  # atno 10167 bound_to 10162
  157.3559  131.0958  151.0959 H   0  0  0  0  0  0  0  0  0  0  0  0  # atno 10718 bound_to 10713
  154.3819  135.2753  155.2206 H   0  0  0  0  0  0  0  0  0  0  0  0  # atno 10763 bound_to 10752
  154.4310  135.5977  153.6072 H   0  0  0  0  0  0  0  0  0  0  0  0  # atno 10764 bound_to 10752
  152.9834  135.5995  154.4062 H   0  0  0  0  0  0  0  0  0  0  0  0  # atno 10765 bound_to 10752
  140.1868  134.8436  157.2867 H   0  0  0  0  0  0  0  0  0  0  0  0  # atno 11005 bound_to 11000
  145.5992  141.0358  143.2027 LP  0  0  0  0  0  0  0  0  0  0  0  0  # atno 17320 bound_to 7965
  144.7378  139.7535  143.7322 LP  0  0  0  0  0  0  0  0  0  0  0  0  # atno 17321 bound_to 7965
  139.8587  143.7342  152.3174 LP  0  0  0  0  0  0  0  0  0  0  0  0  # atno 17342 bound_to 10162
  139.7550  144.7523  151.0449 LP  0  0  0  0  0  0  0  0  0  0  0  0  # atno 17343 bound_to 10162
  157.2117  130.6441  149.5777 LP  0  0  0  0  0  0  0  0  0  0  0  0  # atno 17370 bound_to 10713
  155.9729  130.4658  150.6265 LP  0  0  0  0  0  0  0  0  0  0  0  0  # atno 17371 bound_to 10713
  140.2204  134.4030  155.7568 LP  0  0  0  0  0  0  0  0  0  0  0  0  # atno 17394 bound_to 11000
  141.2225  133.7163  156.8481 LP  0  0  0  0  0  0  0  0  0  0  0  0  # atno 17395 bound_to 11000

$$$$
