AV-unprocessed.smi:2564|AV-procd|sdf|10067|dock1
  -GOLD-   2272014103D 1   1.00000     0.00000
 Structure written by MMmdl.
 28 29  0  0  0  0  0  0  0  0  1 V2000
  152.5996  144.7846  158.6758 C   0  0  0  0  0  0  0  0  0  0  0  0
  153.1216  143.7287  159.4448 C   0  0  0  0  0  0  0  0  0  0  0  0
  152.7881  142.4365  159.2286 N   0  0  0  0  0  0  0  0  0  0  0  0
  151.9317  142.1208  158.2504 N   0  0  0  0  0  0  0  0  0  0  0  0
  151.3923  143.0877  157.4653 C   0  0  0  0  0  0  0  0  0  0  0  0
  150.4990  142.7281  156.4459 N   0  0  0  0  0  0  0  0  0  0  0  0
  150.4698  141.3737  155.9056 C   0  0  0  0  0  0  0  0  0  0  0  0
  149.5193  141.2388  154.7038 C   0  0  1  0  0  0  0  0  0  0  0  0
  149.4268  139.7778  154.2196 C   0  0  0  0  0  0  0  0  0  0  0  0
  148.4577  139.6584  153.1312 N   0  0  0  0  0  0  0  0  0  0  0  0
  147.1519  140.1845  153.5226 C   0  0  0  0  0  0  0  0  0  0  0  0
  147.2909  141.6282  154.0354 C   0  0  0  0  0  0  0  0  0  0  0  0
  148.2198  141.6591  155.1134 O   0  0  0  0  0  0  0  0  0  0  0  0
  151.7005  144.4506  157.6483 C   0  0  0  0  0  0  0  0  0  0  0  0
  152.8791  145.8099  158.8672 H   0  0  0  0  0  0  0  0  0  0  0  0
  153.8182  143.9225  160.2471 H   0  0  0  0  0  0  0  0  0  0  0  0
  150.0405  143.4576  155.9194 H   0  0  0  0  0  0  0  0  0  0  0  0
  151.4797  141.0709  155.6266 H   0  0  0  0  0  0  0  0  0  0  0  0
  150.1590  140.6938  156.6992 H   0  0  0  0  0  0  0  0  0  0  0  0
  149.8709  141.8688  153.8844 H   0  0  0  0  0  0  0  0  0  0  0  0
  150.4050  139.4321  153.8848 H   0  0  0  0  0  0  0  0  0  0  0  0
  149.1337  139.1323  155.0485 H   0  0  0  0  0  0  0  0  0  0  0  0
  148.3654  138.6837  152.8634 H   0  0  0  0  0  0  0  0  0  0  0  0
  146.4649  140.1506  152.6769 H   0  0  0  0  0  0  0  0  0  0  0  0
  146.7191  139.5591  154.3043 H   0  0  0  0  0  0  0  0  0  0  0  0
  147.6127  142.2996  153.2374 H   0  0  0  0  0  0  0  0  0  0  0  0
  146.3271  141.9939  154.3897 H   0  0  0  0  0  0  0  0  0  0  0  0
  151.2656  145.2156  157.0220 H   0  0  0  0  0  0  0  0  0  0  0  0
  1 14  1  0  0  0  0
  1  2  2  0  0  0  0
  1 15  1  0  0  0  0
  2  3  1  0  0  0  0
  2 16  1  0  0  0  0
  3  4  2  0  0  0  0
  4  5  1  0  0  0  0
  5  6  1  0  0  0  0
  5 14  2  0  0  0  0
  6  7  1  0  0  0  0
  6 17  1  0  0  0  0
  7  8  1  0  0  0  0
  7 18  1  0  0  0  0
  7 19  1  0  0  0  0
  8 13  1  0  0  0  0
  8  9  1  0  0  0  0
  8 20  1  0  0  0  0
  9 10  1  0  0  0  0
  9 21  1  0  0  0  0
  9 22  1  0  0  0  0
 10 11  1  0  0  0  0
 10 23  1  0  0  0  0
 11 12  1  0  0  0  0
 11 24  1  0  0  0  0
 11 25  1  0  0  0  0
 12 13  1  0  0  0  0
 12 26  1  0  0  0  0
 12 27  1  0  0  0  0
 14 28  1  0  0  0  0
M  END
> <s_m_source_file>
AV-unprocessed.smi

> <i_m_source_file_index>
2564

> <i_lp_mmshare_version>
43012

> <i_f3d_flags>
0

> <s_epik_input>
W2NIXTFbY0hdW2NIXW5uYzFbTkhdW0NIMl1bQ0BASF0yW0NIMl1bTkhdW0NIMl1bQ0gyXU8y

> <s_epik_cmdline>
J2VwaWtfcHl0aG9uJywgJy1waCcsICc3LjAnLCAnLXRuJywgJzgnLCAnLW1hJywgJzIwMCcsICctbWV0YWxfYmluZGluZycsICctaW1hZScsICc8aW5maWxlLm1hZT4nLCAnLW9tYWUnLCAnPG91dGZpbGUubWFlPic=

> <r_lp_tautomer_probability>
0.999978

> <r_epik_Ionization_Penalty>
2.48194

> <r_epik_Ionization_Penalty_Charging>
0

> <r_epik_Ionization_Penalty_Neutral>
2.48194

> <r_epik_State_Penalty>
2.63388

> <r_epik_Charging_Adjusted_Penalty>
2.63388

> <i_epik_Tot_Q>
0

> <i_epik_Tot_abs_Q>
0

> <r_epik_Metal_State_Penalty>
2.61931

> <b_epik_Metal_Only>
0

> <s_lp_Force_Field>
OPLS_2005

> <r_lp_Energy>
19.9467

> <b_lp_Chiralities_Consistent>
1

> <s_lp_Variant>
AV-unprocessed.smi:2564-6

> <Gold.Version>
5.8.1

> <Gold.Id.Protein>
6NUR|6NUR_protein|mol2

> <Gold.PLP.Fitness>
37.2607

> <Gold.PLP.PLP>
-34.5159

> <Gold.PLP.part.hbond>
-1.4973

> <Gold.PLP.part.metal>
0.0000

> <Gold.PLP.part.buried>
-5.4552

> <Gold.PLP.part.nonpolar>
-27.9363

> <Gold.PLP.part.repulsive>
0.2732

> <Gold.PLP.ligand.clash>
0.0000

> <Gold.PLP.ligand.torsion>
0.1199

> <Gold.PLP.Chemscore.Hbond>
0.9920

> <Gold.PLP.Chemscore.CHOScore>
0.0000

> <Gold.PLP.Chemscore.Metal>
0.0000

> <Gold.Chemscore.Hbonds>
donor molecule, donor type, donor heavy atom, donor atom, acceptor molecule, acceptor atom, score
      L1  H     6    17       P1  8028  1.00

> <Gold.PLP.Chemscore.Internal.Correction>
0.0087

> <Gold.Rescore>
     Score         DG    S(hbond)    S(metal)    S(lipo)     H(rot)  DE(clash)    DE(int)     intcor
     17.15     -17.48       1.89        0.00      76.98       1.30       0.14       0.19       ----

> <Gold.Chemscore.Fitness>
17.1532

> <Gold.Chemscore.DG>
-17.4829

> <Gold.Chemscore.ZeroCoef>
-5.4800

> <Gold.Chemscore.Hbond>
1.8938

> <Gold.Chemscore.Metal>
0.0000

> <Gold.Chemscore.Lipo>
76.9829

> <Gold.Chemscore.Internal_Hbond>
0.0000

> <Gold.Chemscore.DEClash>
0.1442

> <Gold.Chemscore.DEInternal>
0.1855

> <Gold.Chemscore.Rot>
1.3006

> <Gold.Chemscore.Internal.Correction>
   9.000000E+99

> <Gold.Chemscore.Hbonds>
donor molecule, donor type, donor heavy atom, donor atom, acceptor molecule, acceptor atom, score
      L1  H     6    17       P1  8028  0.99

> <Gold.Chemscore.Hbond.Weighted>
-6.3254

> <Gold.Chemscore.Metal.Weighted>
-0.0000

> <Gold.Chemscore.Lipo.Weighted>
-9.0070

> <Gold.Chemscore.Internal_Hbond.Weighted>
0.0000

> <Gold.Chemscore.DEClash.Weighted>
0.1442

> <Gold.Chemscore.DEInternal.Weighted>
0.1855

> <Gold.Chemscore.Rot.Weighted>
3.3296

> <Gold.Chemscore.Internal.Correction.Weighted>
   9.000000E+99

> <Gold.Protein.RotatedTorsions>
[ 6907 6896 6895 6894 ] final  -72.04 input  -60.11 | X-H torsion
[ 7974 7965 7964 7962 ] final   53.93 input  175.53 | X-H torsion
[ 8008 7997 7996 7995 ] final -151.04 input   59.86 | X-H torsion
[ 10167 10162 10161 10158 ] final -168.31 input  -65.29 | X-H torsion
[ 10718 10713 10712 10709 ] final -110.25 input   66.30 | X-H torsion
[ 10763 10752 10751 10750 ] final    8.96 input  -60.55 | X-H torsion
[ 11005 11000 10999 10996 ] final  149.25 input  -57.11 | X-H torsion

> <Gold.Protein.ActiveResidues>
 VAL166  LYS551  ARG553  GLY616  TRP617  ASP618  TYR619  PRO620  LYS621  CYS622 
 ASP623  PHE694  ASN695  SER759  ASP760  ASP761  ALA762  ILE779  LEU786  VAL792 
 PHE793  MET794  SER795  GLU796  ALA797  LYS798  CYS799  TRP800  GLU811  SER814 

> <Gold.Protein.RotatedAtoms>
  150.7186  134.5221  159.5658 H   0  0  0  0  0  0  0  0  0  0  0  0  # atno 6907 bound_to 6896
  152.2773  134.7864  160.0412 H   0  0  0  0  0  0  0  0  0  0  0  0  # atno 6908 bound_to 6896
  151.8523  133.3406  159.3714 H   0  0  0  0  0  0  0  0  0  0  0  0  # atno 6909 bound_to 6896
  145.9661  139.4104  143.0219 H   0  0  0  0  0  0  0  0  0  0  0  0  # atno 7974 bound_to 7965
  155.6331  140.0693  157.2642 H   0  0  0  0  0  0  0  0  0  0  0  0  # atno 8008 bound_to 7997
  154.4201  140.1764  156.1543 H   0  0  0  0  0  0  0  0  0  0  0  0  # atno 8009 bound_to 7997
  155.9916  140.3344  155.6762 H   0  0  0  0  0  0  0  0  0  0  0  0  # atno 8010 bound_to 7997
  139.5993  144.1045  152.1725 H   0  0  0  0  0  0  0  0  0  0  0  0  # atno 10167 bound_to 10162
  156.0581  130.5806  150.8212 H   0  0  0  0  0  0  0  0  0  0  0  0  # atno 10718 bound_to 10713
  153.2193  135.6879  153.8019 H   0  0  0  0  0  0  0  0  0  0  0  0  # atno 10763 bound_to 10752
  153.7224  135.3265  155.3270 H   0  0  0  0  0  0  0  0  0  0  0  0  # atno 10764 bound_to 10752
  154.8261  135.4616  154.1034 H   0  0  0  0  0  0  0  0  0  0  0  0  # atno 10765 bound_to 10752
  140.1029  134.8972  157.1823 H   0  0  0  0  0  0  0  0  0  0  0  0  # atno 11005 bound_to 11000
  145.7972  140.9787  143.1018 LP  0  0  0  0  0  0  0  0  0  0  0  0  # atno 17320 bound_to 7965
  144.6826  139.9756  143.7483 LP  0  0  0  0  0  0  0  0  0  0  0  0  # atno 17321 bound_to 7965
  140.0637  144.5836  150.7243 LP  0  0  0  0  0  0  0  0  0  0  0  0  # atno 17342 bound_to 10162
  140.7237  143.2614  151.4193 LP  0  0  0  0  0  0  0  0  0  0  0  0  # atno 17343 bound_to 10162
  157.5567  131.0945  150.9618 LP  0  0  0  0  0  0  0  0  0  0  0  0  # atno 17370 bound_to 10713
  156.9865  130.5547  149.5300 LP  0  0  0  0  0  0  0  0  0  0  0  0  # atno 17371 bound_to 10713
  140.3195  134.2932  155.7249 LP  0  0  0  0  0  0  0  0  0  0  0  0  # atno 17394 bound_to 11000
  141.2110  133.7701  156.9891 LP  0  0  0  0  0  0  0  0  0  0  0  0  # atno 17395 bound_to 11000

$$$$
