#       Name:                AV-unprocessed.smi:1471
#       Creating user name   scv26
#       Creation time:       Fri Mar 27 06:05:09 2020


#       File generated by GOLD software.
#

@<TRIPOS>MOLECULE
AV-unprocessed.smi:1471
    50    51     1
SMALL
NO_CHARGES


@<TRIPOS>ATOM
      1 ****        -1.3358   4.4958   2.2550 C.3            1 S1                 0.0000
      2 ****        -1.2052   3.6688   1.0042 C.2            1 S1                 0.0000
      3 ****        -0.7029   2.4857   1.1407 N.2            1 S1                 0.0000
      4 ****        -0.5341   1.6472   0.0571 N.am           1 S1                 0.0000
      5 ****         0.0535   0.3462   0.3965 C.3            1 S1                 0.0000
      6 ****         1.5680   0.2968   0.0937 C.3            1 S1                 0.0000
      7 ****         2.2709   0.8460   1.1905 O.3            1 S1                 0.0000
      8 ****         2.0710  -1.1418  -0.0945 C.3            1 S1                 0.0000
      9 ****         1.5463  -1.6538  -1.3109 O.3            1 S1                 0.0000
     10 ****         1.8749  -3.0139  -1.5534 C.3            1 S1                 0.0000
     11 ****         1.1280  -3.9789  -0.6472 C.ar           1 S1                 0.0000
     12 ****         1.8412  -4.9377   0.1036 C.ar           1 S1                 0.0000
     13 ****         1.1533  -5.8371   0.9412 C.ar           1 S1                 0.0000
     14 ****        -0.2511  -5.7848   1.0284 C.ar           1 S1                 0.0000
     15 ****        -0.9673  -4.8339   0.2762 C.ar           1 S1                 0.0000
     16 ****        -0.2812  -3.9337  -0.5624 C.ar           1 S1                 0.0000
     17 ****        -0.9824  -3.0262  -1.2835 F              1 S1                 0.0000
     18 ****        -0.8589   1.9637  -1.2290 C.2            1 S1                 0.0000
     19 ****        -0.6789   1.1875  -2.1686 O.2            1 S1                 0.0000
     20 ****        -1.4322   3.3035  -1.3760 C.2            1 S1                 0.0000
     21 ****        -1.7869   3.6762  -2.7075 C.1            1 S1                 0.0000
     22 ****        -2.0765   3.9984  -3.7811 N.1            1 S1                 0.0000
     23 ****        -1.6109   4.1339  -0.3184 C.2            1 S1                 0.0000
     24 ****        -2.2012   5.5338  -0.4192 C.3            1 S1                 0.0000
     25 ****        -0.8537   5.4659   2.1318 H              1 S1                 0.0000
     26 ****        -0.8735   4.0085   3.1151 H              1 S1                 0.0000
     27 ****        -2.3852   4.6669   2.4959 H              1 S1                 0.0000
     28 ****        -0.1377   0.0894   1.4405 H              1 S1                 0.0000
     29 ****        -0.4660  -0.4255  -0.1747 H              1 S1                 0.0000
     30 ****         1.8122   0.8745  -0.7986 H              1 S1                 0.0000
     31 ****         2.0700   0.3374   1.9610 H              1 S1                 0.0000
     32 ****         3.1610  -1.1581  -0.1459 H              1 S1                 0.0000
     33 ****         1.7739  -1.7577   0.7560 H              1 S1                 0.0000
     34 ****         1.6047  -3.2453  -2.5838 H              1 S1                 0.0000
     35 ****         2.9534  -3.1609  -1.4768 H              1 S1                 0.0000
     36 ****         2.9185  -4.9851   0.0425 H              1 S1                 0.0000
     37 ****         1.7034  -6.5678   1.5159 H              1 S1                 0.0000
     38 ****        -0.7787  -6.4750   1.6702 H              1 S1                 0.0000
     39 ****        -2.0448  -4.7958   0.3410 H              1 S1                 0.0000
     40 ****        -2.5885   5.7460  -1.4152 H              1 S1                 0.0000
     41 ****        -1.4423   6.2830  -0.1917 H              1 S1                 0.0000
     42 ****        -3.0278   5.6571   0.2811 H              1 S1                 0.0000
     43 ****        -0.4309   2.1712   2.0502 LP             1 S1                 0.0000
     44 ****         1.9893   1.7953   1.3302 LP             1 S1                 0.0000
     45 ****         3.2542   0.8129   1.0116 LP             1 S1                 0.0000
     46 ****         1.9059  -1.1040  -2.0648 LP             1 S1                 0.0000
     47 ****         0.5501  -1.5708  -1.2835 LP             1 S1                 0.0000
     48 ****        -0.2803   0.2855  -2.0027 LP             1 S1                 0.0000
     49 ****        -0.9314   1.4595  -3.0972 LP             1 S1                 0.0000
     50 ****        -2.3267   4.2767  -4.7084 LP             1 S1                 0.0000
@<TRIPOS>BOND
    1    1    2 1     
    2    1   25 1     
    3    1   26 1     
    4    1   27 1     
    5    2   23 1     
    6    2    3 2     
    7    3    4 1     
    8    4    5 1     
    9    4   18 am    
   10    5    6 1     
   11    5   28 1     
   12    5   29 1     
   13    6    7 1     
   14    6    8 1     
   15    6   30 1     
   16    7   31 1     
   17    8    9 1     
   18    8   32 1     
   19    8   33 1     
   20    9   10 1     
   21   10   11 1     
   22   10   34 1     
   23   10   35 1     
   24   11   16 ar    
   25   11   12 ar    
   26   12   13 ar    
   27   12   36 1     
   28   13   14 ar    
   29   13   37 1     
   30   14   15 ar    
   31   14   38 1     
   32   15   16 ar    
   33   15   39 1     
   34   16   17 1     
   35   18   19 2     
   36   18   20 1     
   37   20   21 1     
   38   20   23 2     
   39   21   22 3     
   40   23   24 1     
   41   24   40 1     
   42   24   41 1     
   43   24   42 1     
   44    3   43 1     
   45    7   44 1     
   46    7   45 1     
   47    9   46 1     
   48    9   47 1     
   49   19   48 1     
   50   19   49 1     
   51   22   50 1     
@<TRIPOS>SUBSTRUCTURE
      1 S1             1
@<TRIPOS>SET
LONE_PAIRS      STATIC     ATOMS    <user>   **** ""
8 43 44 45 46 47 48 49 50
DONOR_HYDROGENS      STATIC     ATOMS    <user>   **** ""
1 31
ATOM$BLUE        STATIC     ATOMS    COLORGROUP SYSTEM
8 43 44 45 46 47 48 49 50
ATOM$RED        STATIC     ATOMS    COLORGROUP SYSTEM
1 31
