#       Name:                AV-unprocessed.smi:1915
#       Creating user name   scv26
#       Creation time:       Fri Mar 27 09:50:43 2020


#       File generated by GOLD software.
#

@<TRIPOS>MOLECULE
AV-unprocessed.smi:1915
    49    50     1
SMALL
NO_CHARGES


@<TRIPOS>ATOM
      1 ****        -4.4872   0.9059   2.1727 C.3            1 S1                 0.0000
      2 ****        -4.4751  -0.2520   1.1598 C.3            1 S1                 0.0000
      3 ****        -5.5721  -1.2718   1.5006 C.3            1 S1                 0.0000
      4 ****        -3.1028  -0.9534   1.0463 C.3            1 S1                 0.0000
      5 ****        -2.0372  -0.0612   0.5890 N.am           1 S1                 0.0000
      6 ****        -1.7760   0.1071  -0.8317 C.3            1 S1                 0.0000
      7 ****        -0.4404   0.8767  -0.9247 C.3            1 S1                 0.0000
      8 ****         0.7075   0.0059  -1.4581 C.2            1 S1                 0.0000
      9 ****         0.9542  -1.0821  -0.9361 O.2            1 S1                 0.0000
     10 ****         1.4129   0.5057  -2.4853 N.am           1 S1                 0.0000
     11 ****         2.5452  -0.1506  -3.1355 C.3            1 S1                 0.0000
     12 ****         3.9081   0.2721  -2.5495 C.3            1 S1                 0.0000
     13 ****         4.0761  -0.0561  -1.0757 C.ar           1 S1                 0.0000
     14 ****         4.5060  -1.3277  -0.6390 C.ar           1 S1                 0.0000
     15 ****         4.6052  -1.5845   0.7442 C.ar           1 S1                 0.0000
     16 ****         4.2741  -0.5655   1.6612 C.ar           1 S1                 0.0000
     17 ****         3.8518   0.6866   1.1708 C.ar           1 S1                 0.0000
     18 ****         3.7683   0.8935  -0.1617 N.pl3          1 S1                 1.0000
     19 ****        -0.1537   1.3553   0.5117 C.3            1 S1                 0.0000
     20 ****        -1.1697   0.6075   1.3577 C.2            1 S1                 0.0000
     21 ****        -1.1516   0.6270   2.5874 O.2            1 S1                 0.0000
     22 ****        -4.1868   0.5671   3.1646 H              1 S1                 0.0000
     23 ****        -5.4829   1.3415   2.2584 H              1 S1                 0.0000
     24 ****        -3.8138   1.7087   1.8738 H              1 S1                 0.0000
     25 ****        -4.7185   0.1658   0.1820 H              1 S1                 0.0000
     26 ****        -5.3973  -1.7322   2.4737 H              1 S1                 0.0000
     27 ****        -5.6133  -2.0692   0.7580 H              1 S1                 0.0000
     28 ****        -6.5546  -0.7997   1.5274 H              1 S1                 0.0000
     29 ****        -2.8295  -1.3947   2.0064 H              1 S1                 0.0000
     30 ****        -3.1750  -1.7884   0.3483 H              1 S1                 0.0000
     31 ****        -1.7477  -0.8594  -1.3382 H              1 S1                 0.0000
     32 ****        -2.5857   0.6855  -1.2786 H              1 S1                 0.0000
     33 ****        -0.5663   1.7391  -1.5815 H              1 S1                 0.0000
     34 ****         1.1370   1.4049  -2.8534 H              1 S1                 0.0000
     35 ****         2.4366  -1.2355  -3.0874 H              1 S1                 0.0000
     36 ****         2.5140   0.1070  -4.1944 H              1 S1                 0.0000
     37 ****         4.7088  -0.2163  -3.1060 H              1 S1                 0.0000
     38 ****         4.0533   1.3437  -2.6938 H              1 S1                 0.0000
     39 ****         4.7458  -2.1012  -1.3540 H              1 S1                 0.0000
     40 ****         4.9274  -2.5532   1.0972 H              1 S1                 0.0000
     41 ****         4.3405  -0.7432   2.7247 H              1 S1                 0.0000
     42 ****         3.5749   1.5207   1.7990 H              1 S1                 0.0000
     43 ****         0.8593   1.1390   0.8540 H              1 S1                 0.0000
     44 ****        -0.3206   2.4285   0.6095 H              1 S1                 0.0000
     45 ****         3.4519   1.8046  -0.4939 H              1 S1                 0.0000
     46 ****         0.4066  -1.4012  -0.1626 LP             1 S1                 0.0000
     47 ****         1.7021  -1.6464  -1.2858 LP             1 S1                 0.0000
     48 ****        -1.8314   0.1081   3.1058 LP             1 S1                 0.0000
     49 ****        -0.4571   1.1617   3.0688 LP             1 S1                 0.0000
@<TRIPOS>BOND
    1    1    2 1     
    2    1   22 1     
    3    1   23 1     
    4    1   24 1     
    5    2    3 1     
    6    2    4 1     
    7    2   25 1     
    8    3   26 1     
    9    3   27 1     
   10    3   28 1     
   11    4    5 1     
   12    4   29 1     
   13    4   30 1     
   14    5   20 am    
   15    5    6 1     
   16    6    7 1     
   17    6   31 1     
   18    6   32 1     
   19    7    8 1     
   20    7   19 1     
   21    7   33 1     
   22    8    9 2     
   23    8   10 am    
   24   10   11 1     
   25   10   34 1     
   26   11   12 1     
   27   11   35 1     
   28   11   36 1     
   29   12   13 1     
   30   12   37 1     
   31   12   38 1     
   32   13   18 ar    
   33   13   14 ar    
   34   14   15 ar    
   35   14   39 1     
   36   15   16 ar    
   37   15   40 1     
   38   16   17 ar    
   39   16   41 1     
   40   17   18 ar    
   41   17   42 1     
   42   18   45 1     
   43   19   20 1     
   44   19   43 1     
   45   19   44 1     
   46   20   21 2     
   47    9   46 1     
   48    9   47 1     
   49   21   48 1     
   50   21   49 1     
@<TRIPOS>SUBSTRUCTURE
      1 S1             1
@<TRIPOS>SET
LONE_PAIRS      STATIC     ATOMS    <user>   **** ""
4 46 47 48 49
DONOR_HYDROGENS      STATIC     ATOMS    <user>   **** ""
2 34 45
ATOM$BLUE        STATIC     ATOMS    COLORGROUP SYSTEM
4 46 47 48 49
ATOM$RED        STATIC     ATOMS    COLORGROUP SYSTEM
2 34 45
