AV-unprocessed.smi:548|AV-procd|sdf|2890|dock9
  -GOLD-   2262023383D 1   1.00000     0.00000
 Structure written by MMmdl.
 25 25  0  0  0  0  0  0  0  0  3 V2000
  150.4340  138.8227  157.5893 C   0  0  0  0  0  0  0  0  0  0  0  0
  151.6960  139.6944  157.3741 C   0  0  0  0  0  0  0  0  0  0  0  0
  152.8144  139.1947  158.3217 C   0  0  0  0  0  0  0  0  0  0  0  0
  152.1733  139.5324  155.9039 C   0  0  0  0  0  0  0  0  0  0  0  0
  153.3139  139.0559  155.7073 O   0  0  0  0  0  0  0  0  0  0  0  0
  151.4122  139.9317  154.9939 O   0  5  0  0  0  0  0  0  0  0  0  0
  151.3723  141.1758  157.6750 C   0  0  0  0  0  0  0  0  0  0  0  0
  152.0853  141.8378  158.7050 C   0  0  0  0  0  0  0  0  0  0  0  0
  151.8169  143.1882  159.0068 C   0  0  0  0  0  0  0  0  0  0  0  0
  150.8305  143.8714  158.2707 C   0  0  0  0  0  0  0  0  0  0  0  0
  150.5130  145.2057  158.5152 N   0  0  0  0  0  0  0  0  0  0  0  0
  150.1631  143.2239  157.2941 N   0  3  0  0  0  0  0  0  0  0  0  0
  150.3918  141.9311  156.9756 C   0  0  0  0  0  0  0  0  0  0  0  0
  149.5875  139.1835  157.0033 H   0  0  0  0  0  0  0  0  0  0  0  0
  150.1199  138.8155  158.6330 H   0  0  0  0  0  0  0  0  0  0  0  0
  150.6138  137.7845  157.3064 H   0  0  0  0  0  0  0  0  0  0  0  0
  153.7029  139.8257  158.2685 H   0  0  0  0  0  0  0  0  0  0  0  0
  153.1172  138.1751  158.0784 H   0  0  0  0  0  0  0  0  0  0  0  0
  152.4901  139.1877  159.3623 H   0  0  0  0  0  0  0  0  0  0  0  0
  152.8424  141.3155  159.2701 H   0  0  0  0  0  0  0  0  0  0  0  0
  152.3647  143.6861  159.7936 H   0  0  0  0  0  0  0  0  0  0  0  0
  150.9821  145.7366  159.2351 H   0  0  0  0  0  0  0  0  0  0  0  0
  149.8028  145.6861  157.9817 H   0  0  0  0  0  0  0  0  0  0  0  0
  149.7746  141.5603  156.1704 H   0  0  0  0  0  0  0  0  0  0  0  0
  149.4508  143.7305  156.7683 H   0  0  0  0  0  0  0  0  0  0  0  0
  1  2  1  0  0  0  0
  1 14  1  0  0  0  0
  1 15  1  0  0  0  0
  1 16  1  0  0  0  0
  2  3  1  0  0  0  0
  2  4  1  0  0  0  0
  2  7  1  0  0  0  0
  3 17  1  0  0  0  0
  3 18  1  0  0  0  0
  3 19  1  0  0  0  0
  4  5  2  0  0  0  0
  4  6  1  0  0  0  0
  7 13  1  0  0  0  0
  7  8  2  0  0  0  0
  8  9  1  0  0  0  0
  8 20  1  0  0  0  0
  9 10  2  0  0  0  0
  9 21  1  0  0  0  0
 10 11  1  0  0  0  0
 10 12  1  0  0  0  0
 11 22  1  0  0  0  0
 11 23  1  0  0  0  0
 12 13  2  0  0  0  0
 12 25  1  0  0  0  0
 13 24  1  0  0  0  0
M  CHG  1   6  -1
M  CHG  1  12   1
M  END
> <s_m_source_file>
AV-unprocessed.smi

> <i_m_source_file_index>
548

> <i_lp_mmshare_version>
43012

> <i_f3d_flags>
0

> <s_epik_input>
Tz1DKFtPSF0pQyhbQ0gzXSkoW0NIM10pYzFbY0hdW2NIXWMoW05IMl0pbltjSF0x

> <s_epik_cmdline>
J2VwaWtfcHl0aG9uJywgJy1waCcsICc3LjAnLCAnLXRuJywgJzgnLCAnLW1hJywgJzIwMCcsICctbWV0YWxfYmluZGluZycsICctaW1hZScsICc8aW5maWxlLm1hZT4nLCAnLW9tYWUnLCAnPG91dGZpbGUubWFlPic=

> <r_lp_tautomer_probability>
0.999994

> <r_epik_Ionization_Penalty>
0.0472787

> <r_epik_Ionization_Penalty_Charging>
0.0472785

> <r_epik_Ionization_Penalty_Neutral>
2.36651e-07

> <r_epik_State_Penalty>
0.0398874

> <r_epik_Charging_Adjusted_Penalty>
0.0871658

> <i_epik_Tot_Q>
0

> <i_epik_Tot_abs_Q>
2

> <r_epik_Metal_State_Penalty>
2.52256

> <b_epik_Metal_Only>
0

> <s_lp_Force_Field>
OPLS_2005

> <r_lp_Energy>
11.9737

> <b_lp_Chiralities_Consistent>
1

> <s_lp_Variant>
AV-unprocessed.smi:548-1

> <Gold.Version>
5.8.1

> <Gold.Id.Protein>
6NUR|6NUR_protein|mol2

> <Gold.PLP.Fitness>
44.4092

> <Gold.PLP.PLP>
-23.4319

> <Gold.PLP.part.hbond>
-4.1403

> <Gold.PLP.part.metal>
0.0000

> <Gold.PLP.part.buried>
-4.4953

> <Gold.PLP.part.nonpolar>
-15.9239

> <Gold.PLP.part.repulsive>
0.2632

> <Gold.PLP.ligand.clash>
0.0000

> <Gold.PLP.ligand.torsion>
0.0176

> <Gold.PLP.Chemscore.Hbond>
7.0000

> <Gold.PLP.Chemscore.CHOScore>
0.0000

> <Gold.PLP.Chemscore.Metal>
0.0000

> <Gold.Chemscore.Hbonds>
donor molecule, donor type, donor heavy atom, donor atom, acceptor molecule, acceptor atom, score
      L1  H    11    23       P1  8029  2.00
      L1  H    12    25       P1  8028  2.00
      P1  H  7989  7998       L1     6  1.00
      P1  H  7997  8009       L1     5  2.00

> <Gold.PLP.Chemscore.Internal.Correction>
0.0126

> <Gold.Rescore>
     Score         DG    S(hbond)    S(metal)    S(lipo)     H(rot)  DE(clash)    DE(int)     intcor
     17.43     -17.61       3.35        0.00      40.92       1.50       0.00       0.18       ----

> <Gold.Chemscore.Fitness>
17.4303

> <Gold.Chemscore.DG>
-17.6125

> <Gold.Chemscore.ZeroCoef>
-5.4800

> <Gold.Chemscore.Hbond>
3.3458

> <Gold.Chemscore.Metal>
0.0000

> <Gold.Chemscore.Lipo>
40.9195

> <Gold.Chemscore.Internal_Hbond>
0.0000

> <Gold.Chemscore.DEClash>
0.0000

> <Gold.Chemscore.DEInternal>
0.1822

> <Gold.Chemscore.Rot>
1.4961

> <Gold.Chemscore.Internal.Correction>
   9.000000E+99

> <Gold.Chemscore.Hbonds>
donor molecule, donor type, donor heavy atom, donor atom, acceptor molecule, acceptor atom, score
      L1  H    11    23       P1  8029  0.23
      L1  H    12    25       P1  8028  0.92
      P1  H  7989  7998       L1     6  0.99
      P1  H  7997  8009       L1     5  0.57

> <Gold.Chemscore.Hbond.Weighted>
-11.1748

> <Gold.Chemscore.Metal.Weighted>
-0.0000

> <Gold.Chemscore.Lipo.Weighted>
-4.7876

> <Gold.Chemscore.Internal_Hbond.Weighted>
0.0000

> <Gold.Chemscore.DEClash.Weighted>
0.0000

> <Gold.Chemscore.DEInternal.Weighted>
0.1822

> <Gold.Chemscore.Rot.Weighted>
3.8299

> <Gold.Chemscore.Internal.Correction.Weighted>
   9.000000E+99

> <Gold.Protein.RotatedTorsions>
[ 6907 6896 6895 6894 ] final  109.82 input  -60.11 | X-H torsion
[ 7974 7965 7964 7962 ] final   96.23 input  175.53 | X-H torsion
[ 8008 7997 7996 7995 ] final -158.96 input   59.86 | X-H torsion
[ 10167 10162 10161 10158 ] final -150.19 input  -65.29 | X-H torsion
[ 10718 10713 10712 10709 ] final -178.38 input   66.30 | X-H torsion
[ 10763 10752 10751 10750 ] final  -85.38 input  -60.55 | X-H torsion
[ 11005 11000 10999 10996 ] final   -1.84 input  -57.11 | X-H torsion

> <Gold.Protein.ActiveResidues>
 VAL166  LYS551  ARG553  GLY616  TRP617  ASP618  TYR619  PRO620  LYS621  CYS622 
 ASP623  PHE694  ASN695  SER759  ASP760  ASP761  ALA762  ILE779  LEU786  VAL792 
 PHE793  MET794  SER795  GLU796  ALA797  LYS798  CYS799  TRP800  GLU811  SER814 

> <Gold.Protein.RotatedAtoms>
  152.5049  133.8889  159.7383 H   0  0  0  0  0  0  0  0  0  0  0  0  # atno 6907 bound_to 6896
  150.9333  133.6732  159.2813 H   0  0  0  0  0  0  0  0  0  0  0  0  # atno 6908 bound_to 6896
  151.4069  135.0984  159.9626 H   0  0  0  0  0  0  0  0  0  0  0  0  # atno 6909 bound_to 6896
  145.4416  139.2301  143.3089 H   0  0  0  0  0  0  0  0  0  0  0  0  # atno 7974 bound_to 7965
  155.7554  140.0832  157.2181 H   0  0  0  0  0  0  0  0  0  0  0  0  # atno 8008 bound_to 7997
  154.4008  140.1553  156.2828 H   0  0  0  0  0  0  0  0  0  0  0  0  # atno 8009 bound_to 7997
  155.8891  140.3416  155.5945 H   0  0  0  0  0  0  0  0  0  0  0  0  # atno 8010 bound_to 7997
  139.7376  143.8711  152.2553 H   0  0  0  0  0  0  0  0  0  0  0  0  # atno 10167 bound_to 10162
  156.8434  130.9694  151.3098 H   0  0  0  0  0  0  0  0  0  0  0  0  # atno 10718 bound_to 10713
  154.6105  135.5487  153.7468 H   0  0  0  0  0  0  0  0  0  0  0  0  # atno 10763 bound_to 10752
  153.0193  135.6388  154.1586 H   0  0  0  0  0  0  0  0  0  0  0  0  # atno 10764 bound_to 10752
  154.1523  135.2902  155.3112 H   0  0  0  0  0  0  0  0  0  0  0  0  # atno 10765 bound_to 10752
  140.6517  133.9398  155.8384 H   0  0  0  0  0  0  0  0  0  0  0  0  # atno 11005 bound_to 11000
  146.2553  140.5165  142.8876 LP  0  0  0  0  0  0  0  0  0  0  0  0  # atno 17320 bound_to 7965
  144.8118  140.6398  143.6410 LP  0  0  0  0  0  0  0  0  0  0  0  0  # atno 17321 bound_to 7965
  139.8653  144.7096  150.9051 LP  0  0  0  0  0  0  0  0  0  0  0  0  # atno 17342 bound_to 10162
  140.7781  143.3783  151.1522 LP  0  0  0  0  0  0  0  0  0  0  0  0  # atno 17343 bound_to 10162
  157.6343  130.8754  149.9330 LP  0  0  0  0  0  0  0  0  0  0  0  0  # atno 17370 bound_to 10713
  156.0868  130.3667  150.0472 LP  0  0  0  0  0  0  0  0  0  0  0  0  # atno 17371 bound_to 10713
  141.0531  134.0455  157.3757 LP  0  0  0  0  0  0  0  0  0  0  0  0  # atno 17394 bound_to 11000
  139.9043  135.0175  156.7415 LP  0  0  0  0  0  0  0  0  0  0  0  0  # atno 17395 bound_to 11000

$$$$
