AV-unprocessed.smi:2784|AV-procd|sdf|10729|dock6
  -GOLD-   2272015163D 1   1.00000     0.00000
 Structure written by MMmdl.
 31 32  0  0  0  0  0  0  0  0  1 V2000
  153.4581  142.1215  160.2425 C   0  0  0  0  0  0  0  0  0  0  0  0
  152.0678  141.9259  160.0382 O   0  0  0  0  0  0  0  0  0  0  0  0
  151.3945  143.0746  159.5411 C   0  0  1  0  0  0  0  0  0  0  0  0
  151.5804  144.2920  160.4574 C   0  0  0  0  0  0  0  0  0  0  0  0
  151.5454  145.4885  159.5138 C   0  0  0  0  0  0  0  0  0  0  0  0
  152.2838  144.9952  158.2711 C   0  0  0  0  0  0  0  0  0  0  0  0
  151.9836  143.4861  158.1740 C   0  0  2  0  0  0  0  0  0  0  0  0
  151.0356  143.2042  157.0985 N   0  0  0  0  0  0  0  0  0  0  0  0
  150.7092  141.9795  156.6611 C   0  0  0  0  0  0  0  0  0  0  0  0
  151.1944  140.9436  157.1167 O   0  0  0  0  0  0  0  0  0  0  0  0
  149.7996  142.0400  155.6742 N   0  0  0  0  0  0  0  0  0  0  0  0
  149.2033  140.9557  154.9826 C   0  0  0  0  0  0  0  0  0  0  0  0
  147.9021  140.7833  154.7452 N   0  0  0  0  0  0  0  0  0  0  0  0
  147.8300  139.5905  154.0405 C   0  0  0  0  0  0  0  0  0  0  0  0
  149.1035  139.1046  153.8908 C   0  0  0  0  0  0  0  0  0  0  0  0
  149.9884  139.9637  154.4855 O   0  0  0  0  0  0  0  0  0  0  0  0
  153.8994  141.2061  160.6364 H   0  0  0  0  0  0  0  0  0  0  0  0
  153.6421  142.9186  160.9636 H   0  0  0  0  0  0  0  0  0  0  0  0
  153.9721  142.3648  159.3123 H   0  0  0  0  0  0  0  0  0  0  0  0
  150.3273  142.8672  159.4341 H   0  0  0  0  0  0  0  0  0  0  0  0
  150.8221  144.3511  161.2385 H   0  0  0  0  0  0  0  0  0  0  0  0
  152.5562  144.2468  160.9432 H   0  0  0  0  0  0  0  0  0  0  0  0
  150.5124  145.7280  159.2591 H   0  0  0  0  0  0  0  0  0  0  0  0
  152.0004  146.3796  159.9467 H   0  0  0  0  0  0  0  0  0  0  0  0
  152.0049  145.5562  157.3784 H   0  0  0  0  0  0  0  0  0  0  0  0
  153.3559  145.1364  158.4133 H   0  0  0  0  0  0  0  0  0  0  0  0
  152.9142  142.9453  157.9895 H   0  0  0  0  0  0  0  0  0  0  0  0
  150.5893  144.0002  156.6671 H   0  0  0  0  0  0  0  0  0  0  0  0
  149.4935  142.9595  155.3925 H   0  0  0  0  0  0  0  0  0  0  0  0
  146.8877  139.1845  153.7036 H   0  0  0  0  0  0  0  0  0  0  0  0
  149.5204  138.2262  153.4206 H   0  0  0  0  0  0  0  0  0  0  0  0
  1  2  1  0  0  0  0
  1 17  1  0  0  0  0
  1 18  1  0  0  0  0
  1 19  1  0  0  0  0
  2  3  1  0  0  0  0
  3  7  1  0  0  0  0
  3  4  1  0  0  0  0
  3 20  1  0  0  0  0
  4  5  1  0  0  0  0
  4 21  1  0  0  0  0
  4 22  1  0  0  0  0
  5  6  1  0  0  0  0
  5 23  1  0  0  0  0
  5 24  1  0  0  0  0
  6  7  1  0  0  0  0
  6 25  1  0  0  0  0
  6 26  1  0  0  0  0
  7  8  1  0  0  0  0
  7 27  1  0  0  0  0
  8  9  1  0  0  0  0
  8 28  1  0  0  0  0
  9 10  2  0  0  0  0
  9 11  1  0  0  0  0
 11 12  1  0  0  0  0
 11 29  1  0  0  0  0
 12 16  1  0  0  0  0
 12 13  2  0  0  0  0
 13 14  1  0  0  0  0
 14 15  2  0  0  0  0
 14 30  1  0  0  0  0
 15 16  1  0  0  0  0
 15 31  1  0  0  0  0
M  END
> <s_m_source_file>
AV-unprocessed.smi

> <i_m_source_file_index>
2784

> <i_lp_mmshare_version>
43012

> <i_f3d_flags>
0

> <s_epik_input>
W0NIM11PW0NAQEhdMVtDSDJdW0NIMl1bQ0gyXVtDQEhdMVtOSF1DKD1PKVtOSF1jMm5bY0hdW2NIXW8y

> <s_epik_cmdline>
J2VwaWtfcHl0aG9uJywgJy1waCcsICc3LjAnLCAnLXRuJywgJzgnLCAnLW1hJywgJzIwMCcsICctbWV0YWxfYmluZGluZycsICctaW1hZScsICc8aW5maWxlLm1hZT4nLCAnLW9tYWUnLCAnPG91dGZpbGUubWFlPic=

> <r_lp_tautomer_probability>
0.785861

> <r_epik_Ionization_Penalty>
4.58897e-05

> <r_epik_Ionization_Penalty_Charging>
0

> <r_epik_Ionization_Penalty_Neutral>
4.58897e-05

> <r_epik_State_Penalty>
0.0380021

> <r_epik_Charging_Adjusted_Penalty>
0.0380021

> <i_epik_Tot_Q>
0

> <i_epik_Tot_abs_Q>
0

> <r_epik_Metal_State_Penalty>
0.0585611

> <b_epik_Metal_Only>
0

> <s_lp_Force_Field>
OPLS_2005

> <r_lp_Energy>
18.2903

> <b_lp_Chiralities_Consistent>
1

> <s_lp_Variant>
AV-unprocessed.smi:2784-4

> <Gold.Version>
5.8.1

> <Gold.Id.Protein>
6NUR|6NUR_protein|mol2

> <Gold.PLP.Fitness>
44.4170

> <Gold.PLP.PLP>
-33.4717

> <Gold.PLP.part.hbond>
-3.0000

> <Gold.PLP.part.metal>
0.0000

> <Gold.PLP.part.buried>
-4.2278

> <Gold.PLP.part.nonpolar>
-27.9950

> <Gold.PLP.part.repulsive>
0.4127

> <Gold.PLP.ligand.clash>
0.0000

> <Gold.PLP.ligand.torsion>
0.5179

> <Gold.PLP.Chemscore.Hbond>
2.9675

> <Gold.PLP.Chemscore.CHOScore>
1.0247

> <Gold.PLP.Chemscore.Metal>
0.0000

> <Gold.Chemscore.Hbonds>
donor molecule, donor type, donor heavy atom, donor atom, acceptor molecule, acceptor atom, score
      L1  H     8    28       P1  8028  0.81
      L1  H    11    29       P1  8028  1.00
      P1  H  7989  7998       L1    16  0.80
      L1  C    15    31       P1  7948  0.93

> <Gold.PLP.Chemscore.Internal.Correction>
0.0047

> <Gold.Rescore>
     Score         DG    S(hbond)    S(metal)    S(lipo)     H(rot)  DE(clash)    DE(int)     intcor
     19.35     -21.25       2.84        0.00      82.63       1.32       1.35       0.55       ----

> <Gold.Chemscore.Fitness>
19.3485

> <Gold.Chemscore.DG>
-21.2521

> <Gold.Chemscore.ZeroCoef>
-5.4800

> <Gold.Chemscore.Hbond>
2.8422

> <Gold.Chemscore.Metal>
0.0000

> <Gold.Chemscore.Lipo>
82.6272

> <Gold.Chemscore.Internal_Hbond>
0.0000

> <Gold.Chemscore.DEClash>
1.3501

> <Gold.Chemscore.DEInternal>
0.5535

> <Gold.Chemscore.Rot>
1.3235

> <Gold.Chemscore.Internal.Correction>
   9.000000E+99

> <Gold.Chemscore.Hbonds>
donor molecule, donor type, donor heavy atom, donor atom, acceptor molecule, acceptor atom, score
      L1  H     8    28       P1  8028  0.77
      L1  H    11    29       P1  8028  0.98
      P1  H  7989  7998       L1    16  0.50

> <Gold.Chemscore.Hbond.Weighted>
-9.4929

> <Gold.Chemscore.Metal.Weighted>
-0.0000

> <Gold.Chemscore.Lipo.Weighted>
-9.6674

> <Gold.Chemscore.Internal_Hbond.Weighted>
0.0000

> <Gold.Chemscore.DEClash.Weighted>
1.3501

> <Gold.Chemscore.DEInternal.Weighted>
0.5535

> <Gold.Chemscore.Rot.Weighted>
3.3882

> <Gold.Chemscore.Internal.Correction.Weighted>
   9.000000E+99

> <Gold.Protein.RotatedTorsions>
[ 6907 6896 6895 6894 ] final -154.69 input  -60.11 | X-H torsion
[ 7974 7965 7964 7962 ] final   61.17 input  175.53 | X-H torsion
[ 8008 7997 7996 7995 ] final   24.52 input   59.86 | X-H torsion
[ 10167 10162 10161 10158 ] final   -4.54 input  -65.29 | X-H torsion
[ 10718 10713 10712 10709 ] final -164.78 input   66.30 | X-H torsion
[ 10763 10752 10751 10750 ] final  109.23 input  -60.55 | X-H torsion
[ 11005 11000 10999 10996 ] final  -26.68 input  -57.11 | X-H torsion

> <Gold.Protein.ActiveResidues>
 VAL166  LYS551  ARG553  GLY616  TRP617  ASP618  TYR619  PRO620  LYS621  CYS622 
 ASP623  PHE694  ASN695  SER759  ASP760  ASP761  ALA762  ILE779  LEU786  VAL792 
 PHE793  MET794  SER795  GLU796  ALA797  LYS798  CYS799  TRP800  GLU811  SER814 

> <Gold.Protein.RotatedAtoms>
  151.2612  133.4301  159.2615 H   0  0  0  0  0  0  0  0  0  0  0  0  # atno 6907 bound_to 6896
  151.0529  134.9685  159.8231 H   0  0  0  0  0  0  0  0  0  0  0  0  # atno 6908 bound_to 6896
  152.5385  134.2566  159.8972 H   0  0  0  0  0  0  0  0  0  0  0  0  # atno 6909 bound_to 6896
  145.8877  139.3489  143.0668 H   0  0  0  0  0  0  0  0  0  0  0  0  # atno 7974 bound_to 7965
  154.9975  140.3121  155.4881 H   0  0  0  0  0  0  0  0  0  0  0  0  # atno 8008 bound_to 7997
  156.2930  140.2238  156.5023 H   0  0  0  0  0  0  0  0  0  0  0  0  # atno 8009 bound_to 7997
  154.7648  140.0456  157.0991 H   0  0  0  0  0  0  0  0  0  0  0  0  # atno 8010 bound_to 7997
  140.6931  143.6412  150.8434 H   0  0  0  0  0  0  0  0  0  0  0  0  # atno 10167 bound_to 10162
  156.6439  130.8980  151.3001 H   0  0  0  0  0  0  0  0  0  0  0  0  # atno 10718 bound_to 10713
  153.4318  135.3787  155.2175 H   0  0  0  0  0  0  0  0  0  0  0  0  # atno 10763 bound_to 10752
  154.8750  135.3842  154.4259 H   0  0  0  0  0  0  0  0  0  0  0  0  # atno 10764 bound_to 10752
  153.4793  135.7088  153.6010 H   0  0  0  0  0  0  0  0  0  0  0  0  # atno 10765 bound_to 10752
  140.9051  133.7498  156.0596 H   0  0  0  0  0  0  0  0  0  0  0  0  # atno 11005 bound_to 11000
  145.8946  140.9282  143.0534 LP  0  0  0  0  0  0  0  0  0  0  0  0  # atno 17320 bound_to 7965
  144.6729  140.0951  143.7463 LP  0  0  0  0  0  0  0  0  0  0  0  0  # atno 17321 bound_to 7965
  140.0127  143.5625  152.2832 LP  0  0  0  0  0  0  0  0  0  0  0  0  # atno 17342 bound_to 10162
  139.6355  144.7649  151.2447 LP  0  0  0  0  0  0  0  0  0  0  0  0  # atno 17343 bound_to 10162
  157.7162  130.9500  150.1265 LP  0  0  0  0  0  0  0  0  0  0  0  0  # atno 17370 bound_to 10713
  156.2137  130.3668  149.8639 LP  0  0  0  0  0  0  0  0  0  0  0  0  # atno 17371 bound_to 10713
  140.8180  134.3322  157.5391 LP  0  0  0  0  0  0  0  0  0  0  0  0  # atno 17394 bound_to 11000
  139.8748  134.9293  156.3473 LP  0  0  0  0  0  0  0  0  0  0  0  0  # atno 17395 bound_to 11000

$$$$
