#       Name:                AV-unprocessed.smi:91
#       Creating user name   scv26
#       Creation time:       Thu Mar 26 17:26:27 2020


#       File generated by GOLD software.
#

@<TRIPOS>MOLECULE
AV-unprocessed.smi:91
    72    75     1
SMALL
NO_CHARGES


@<TRIPOS>ATOM
      1 ****        -6.3906  -3.4536  -1.1950 C.3            1 S1                 0.0000
      2 ****        -5.5639  -2.6948  -0.3302 O.3            1 S1                 0.0000
      3 ****        -5.6775  -1.2991  -0.5553 C.3            1 S1                 0.0000
      4 ****        -4.7482  -0.5509   0.4092 C.3            1 S1                 0.0000
      5 ****        -3.2637  -0.7682   0.0689 C.3            1 S1                 0.0000
      6 ****        -2.4237   0.0775   0.9107 N.3            1 S1                 0.0000
      7 ****        -1.1142  -0.2757   0.9953 C.ar           1 S1                 0.0000
      8 ****        -0.8400  -1.5391   1.4147 N.ar           1 S1                 0.0000
      9 ****         0.4219  -1.9615   1.5271 C.ar           1 S1                 0.0000
     10 ****         1.5489  -1.2963   1.2727 N.ar           1 S1                 0.0000
     11 ****         1.2868  -0.0274   0.8497 C.ar           1 S1                 0.0000
     12 ****         0.0000   0.5640   0.6861 C.ar           1 S1                 0.0000
     13 ****         0.1485   1.8708   0.2302 N.2            1 S1                 0.0000
     14 ****         1.4383   2.0413   0.1366 C.2            1 S1                 0.0000
     15 ****         2.1963   0.9469   0.4806 N.pl3          1 S1                 0.0000
     16 ****         3.6449   0.8484   0.4568 C.3            1 S1                 0.0000
     17 ****         4.1799   0.0040  -0.7268 C.3            1 S1                 0.0000
     18 ****         3.5961   0.4457  -2.0911 C.3            1 S1                 0.0000
     19 ****         3.9551   1.7771  -2.4001 O.3            1 S1                 0.0000
     20 ****         5.7286  -0.0430  -0.7342 C.3            1 S1                 0.0000
     21 ****         6.3390  -0.9473  -1.7906 C.3            1 S1                 0.0000
     22 ****         7.7544  -1.1502  -1.2617 C.3            1 S1                 0.0000
     23 ****         7.6441  -1.1108   0.1567 O.3            1 S1                 0.0000
     24 ****         6.3544  -0.6373   0.5320 C.3            1 S1                 0.0000
     25 ****        -2.7803   1.4900   0.8539 C.3            1 S1                 0.0000
     26 ****        -4.2789   1.7027   1.1620 C.3            1 S1                 0.0000
     27 ****        -4.5982   1.4754   2.6549 C.3            1 S1                 0.0000
     28 ****        -4.6897   3.1308   0.7712 C.3            1 S1                 0.0000
     29 ****        -5.0604   0.8402   0.3279 O.3            1 S1                 0.0000
     30 ****        -6.2694  -4.5151  -0.9793 H              1 S1                 0.0000
     31 ****        -6.1232  -3.2898  -2.2397 H              1 S1                 0.0000
     32 ****        -7.4427  -3.2003  -1.0586 H              1 S1                 0.0000
     33 ****        -5.4335  -1.0520  -1.5899 H              1 S1                 0.0000
     34 ****        -6.7099  -0.9914  -0.3814 H              1 S1                 0.0000
     35 ****        -4.9532  -0.9085   1.4182 H              1 S1                 0.0000
     36 ****        -3.0193  -1.8242   0.1863 H              1 S1                 0.0000
     37 ****        -3.0759  -0.5147  -0.9752 H              1 S1                 0.0000
     38 ****         0.5456  -2.9787   1.8679 H              1 S1                 0.0000
     39 ****         1.8744   2.9708  -0.1996 H              1 S1                 0.0000
     40 ****         4.0582   1.8570   0.4176 H              1 S1                 0.0000
     41 ****         3.9630   0.4224   1.4086 H              1 S1                 0.0000
     42 ****         3.8314  -1.0175  -0.5666 H              1 S1                 0.0000
     43 ****         3.9445  -0.2056  -2.8923 H              1 S1                 0.0000
     44 ****         2.5090   0.3655  -2.0966 H              1 S1                 0.0000
     45 ****         3.5886   1.9990  -3.2424 H              1 S1                 0.0000
     46 ****         6.1243   0.9646  -0.8732 H              1 S1                 0.0000
     47 ****         5.8122  -1.9022  -1.8269 H              1 S1                 0.0000
     48 ****         6.3283  -0.5120  -2.7901 H              1 S1                 0.0000
     49 ****         8.1977  -2.0858  -1.6031 H              1 S1                 0.0000
     50 ****         8.4005  -0.3320  -1.5819 H              1 S1                 0.0000
     51 ****         6.4259   0.0882   1.3426 H              1 S1                 0.0000
     52 ****         5.7708  -1.4863   0.8908 H              1 S1                 0.0000
     53 ****        -2.1782   2.0626   1.5605 H              1 S1                 0.0000
     54 ****        -2.5523   1.8624  -0.1458 H              1 S1                 0.0000
     55 ****        -4.0995   2.2194   3.2771 H              1 S1                 0.0000
     56 ****        -4.2690   0.4988   3.0083 H              1 S1                 0.0000
     57 ****        -5.6692   1.5525   2.8440 H              1 S1                 0.0000
     58 ****        -4.1334   3.8745   1.3427 H              1 S1                 0.0000
     59 ****        -5.7518   3.2992   0.9520 H              1 S1                 0.0000
     60 ****        -4.5037   3.3200  -0.2866 H              1 S1                 0.0000
     61 ****        -4.6126  -2.9666  -0.4759 LP             1 S1                 0.0000
     62 ****        -5.8250  -2.8893   0.6153 LP             1 S1                 0.0000
     63 ****        -2.6682  -0.1432   1.8549 LP             1 S1                 0.0000
     64 ****        -1.5912  -2.1590   1.6415 LP             1 S1                 0.0000
     65 ****         2.4669  -1.6785   1.3784 LP             1 S1                 0.0000
     66 ****        -0.5726   2.5313   0.0211 LP             1 S1                 0.0000
     67 ****         4.9512   1.8587  -2.4337 LP             1 S1                 0.0000
     68 ****         3.5935   2.3947  -1.7017 LP             1 S1                 0.0000
     69 ****         8.3424  -0.4978   0.5263 LP             1 S1                 0.0000
     70 ****         7.7793  -2.0306   0.5251 LP             1 S1                 0.0000
     71 ****        -6.0207   0.9547   0.5821 LP             1 S1                 0.0000
     72 ****        -4.9298   1.1293  -0.6205 LP             1 S1                 0.0000
@<TRIPOS>BOND
    1    1    2 1     
    2    1   30 1     
    3    1   31 1     
    4    1   32 1     
    5    2    3 1     
    6    3    4 1     
    7    3   33 1     
    8    3   34 1     
    9    4   29 1     
   10    4    5 1     
   11    4   35 1     
   12    5    6 1     
   13    5   36 1     
   14    5   37 1     
   15    6    7 1     
   16    6   25 1     
   17    7   12 ar    
   18    7    8 ar    
   19    8    9 ar    
   20    9   10 ar    
   21    9   38 1     
   22   10   11 ar    
   23   11   15 1     
   24   11   12 ar    
   25   12   13 1     
   26   13   14 2     
   27   14   15 1     
   28   14   39 1     
   29   15   16 1     
   30   16   17 1     
   31   16   40 1     
   32   16   41 1     
   33   17   18 1     
   34   17   20 1     
   35   17   42 1     
   36   18   19 1     
   37   18   43 1     
   38   18   44 1     
   39   19   45 1     
   40   20   24 1     
   41   20   21 1     
   42   20   46 1     
   43   21   22 1     
   44   21   47 1     
   45   21   48 1     
   46   22   23 1     
   47   22   49 1     
   48   22   50 1     
   49   23   24 1     
   50   24   51 1     
   51   24   52 1     
   52   25   26 1     
   53   25   53 1     
   54   25   54 1     
   55   26   27 1     
   56   26   28 1     
   57   26   29 1     
   58   27   55 1     
   59   27   56 1     
   60   27   57 1     
   61   28   58 1     
   62   28   59 1     
   63   28   60 1     
   64    2   61 1     
   65    2   62 1     
   66    6   63 1     
   67    8   64 1     
   68   10   65 1     
   69   13   66 1     
   70   19   67 1     
   71   19   68 1     
   72   23   69 1     
   73   23   70 1     
   74   29   71 1     
   75   29   72 1     
@<TRIPOS>SUBSTRUCTURE
      1 S1             1
@<TRIPOS>SET
LONE_PAIRS      STATIC     ATOMS    <user>   **** ""
12 61 62 63 64 65 66 67 68 69 70 71 72
DONOR_HYDROGENS      STATIC     ATOMS    <user>   **** ""
1 45
ATOM$BLUE        STATIC     ATOMS    COLORGROUP SYSTEM
12 61 62 63 64 65 66 67 68 69 70 71 72
ATOM$RED        STATIC     ATOMS    COLORGROUP SYSTEM
1 45
