#       Name:                AV-unprocessed.smi:2283
#       Creating user name   scv26
#       Creation time:       Fri Mar 27 12:41:37 2020


#       File generated by GOLD software.
#

@<TRIPOS>MOLECULE
AV-unprocessed.smi:2283
    42    43     1
SMALL
NO_CHARGES


@<TRIPOS>ATOM
      1 ****        -2.0384  -2.7432   0.0516 C.3            1 S1                 0.0000
      2 ****        -1.9789  -2.2975   1.5029 C.ar           1 S1                 0.0000
      3 ****        -2.4376  -3.1852   2.5003 C.ar           1 S1                 0.0000
      4 ****        -2.3886  -2.8235   3.8588 C.ar           1 S1                 0.0000
      5 ****        -1.8753  -1.5691   4.2309 C.ar           1 S1                 0.0000
      6 ****        -1.4178  -0.6771   3.2437 C.ar           1 S1                 0.0000
      7 ****        -1.4714  -1.0234   1.8733 C.ar           1 S1                 0.0000
      8 ****        -0.9583  -0.0291   0.8316 C.3            1 S1                 0.0000
      9 ****        -1.3288   1.2974   1.1538 O.3            1 S1                 0.0000
     10 ****         0.5813  -0.1047   0.7160 C.3            1 S1                 0.0000
     11 ****         1.0829   0.4931  -0.5342 N.am           1 S1                 0.0000
     12 ****         1.0713  -0.3343  -1.6698 C.2            1 S1                 0.0000
     13 ****         1.4813   0.0852  -2.8217 N.2            1 S1                 0.0000
     14 ****         1.9509   1.3944  -2.9594 C.2            1 S1                 0.0000
     15 ****         2.4054   1.7847  -4.3547 C.3            1 S1                 0.0000
     16 ****         1.9893   2.2468  -1.8990 C.2            1 S1                 0.0000
     17 ****         2.4897   3.6831  -1.9895 C.3            1 S1                 0.0000
     18 ****         1.5274   1.7823  -0.5807 C.2            1 S1                 0.0000
     19 ****         1.5371   2.5021   0.4196 O.2            1 S1                 0.0000
     20 ****        -2.3429  -3.7869  -0.0314 H              1 S1                 0.0000
     21 ****        -1.0611  -2.6466  -0.4209 H              1 S1                 0.0000
     22 ****        -2.7577  -2.1408  -0.5037 H              1 S1                 0.0000
     23 ****        -2.8287  -4.1545   2.2275 H              1 S1                 0.0000
     24 ****        -2.7405  -3.5100   4.6148 H              1 S1                 0.0000
     25 ****        -1.8305  -1.2907   5.2736 H              1 S1                 0.0000
     26 ****        -1.0200   0.2799   3.5484 H              1 S1                 0.0000
     27 ****        -1.4157  -0.2425  -0.1333 H              1 S1                 0.0000
     28 ****        -2.2722   1.3531   1.1554 H              1 S1                 0.0000
     29 ****         1.0532   0.3319   1.5982 H              1 S1                 0.0000
     30 ****         0.8880  -1.1526   0.7423 H              1 S1                 0.0000
     31 ****         0.6919  -1.3449  -1.5098 H              1 S1                 0.0000
     32 ****         1.8165   2.6230  -4.7279 H              1 S1                 0.0000
     33 ****         2.2906   0.9577  -5.0564 H              1 S1                 0.0000
     34 ****         3.4571   2.0724  -4.3470 H              1 S1                 0.0000
     35 ****         3.3375   3.8292  -1.3193 H              1 S1                 0.0000
     36 ****         1.7004   4.3747  -1.6929 H              1 S1                 0.0000
     37 ****         2.8112   3.9642  -2.9908 H              1 S1                 0.0000
     38 ****        -0.9548   1.9270   0.4728 LP             1 S1                 0.0000
     39 ****        -0.9752   1.5363   2.0582 LP             1 S1                 0.0000
     40 ****         1.4626  -0.5259  -3.6130 LP             1 S1                 0.0000
     41 ****         1.2134   2.1450   1.2957 LP             1 S1                 0.0000
     42 ****         1.8688   3.4433   0.3551 LP             1 S1                 0.0000
@<TRIPOS>BOND
    1    1    2 1     
    2    1   20 1     
    3    1   21 1     
    4    1   22 1     
    5    2    7 ar    
    6    2    3 ar    
    7    3    4 ar    
    8    3   23 1     
    9    4    5 ar    
   10    4   24 1     
   11    5    6 ar    
   12    5   25 1     
   13    6    7 ar    
   14    6   26 1     
   15    7    8 1     
   16    8    9 1     
   17    8   10 1     
   18    8   27 1     
   19    9   28 1     
   20   10   11 1     
   21   10   29 1     
   22   10   30 1     
   23   11   18 am    
   24   11   12 1     
   25   12   13 2     
   26   12   31 1     
   27   13   14 1     
   28   14   15 1     
   29   14   16 2     
   30   15   32 1     
   31   15   33 1     
   32   15   34 1     
   33   16   17 1     
   34   16   18 1     
   35   17   35 1     
   36   17   36 1     
   37   17   37 1     
   38   18   19 2     
   39    9   38 1     
   40    9   39 1     
   41   13   40 1     
   42   19   41 1     
   43   19   42 1     
@<TRIPOS>SUBSTRUCTURE
      1 S1             1
@<TRIPOS>SET
LONE_PAIRS      STATIC     ATOMS    <user>   **** ""
5 38 39 40 41 42
DONOR_HYDROGENS      STATIC     ATOMS    <user>   **** ""
1 28
ATOM$BLUE        STATIC     ATOMS    COLORGROUP SYSTEM
5 38 39 40 41 42
ATOM$RED        STATIC     ATOMS    COLORGROUP SYSTEM
1 28
