AV-unprocessed.smi:1243|AV-procd|sdf|5218|dock6
  -GOLD-   22720 4313D 1   1.00000     0.00000
 Structure written by MMmdl.
 51 52  0  0  0  0  0  0  0  0  2 V2000
  145.2936  137.8546  162.3783 C   0  0  0  0  0  0  0  0  0  0  0  0
  146.2676  137.4179  161.4365 O   0  0  0  0  0  0  0  0  0  0  0  0
  146.5981  136.0763  161.4044 C   0  0  0  0  0  0  0  0  0  0  0  0
  146.1623  135.2794  162.4124 N   0  0  0  0  0  0  0  0  0  0  0  0
  146.4870  133.9705  162.3832 C   0  0  0  0  0  0  0  0  0  0  0  0
  147.2624  133.3911  161.3620 C   0  0  0  0  0  0  0  0  0  0  0  0
  147.7149  134.2153  160.3151 C   0  0  0  0  0  0  0  0  0  0  0  0
  147.3686  135.5879  160.3239 C   0  0  0  0  0  0  0  0  0  0  0  0
  147.7943  136.5060  159.3263 N   0  0  0  0  0  0  0  0  0  0  0  0
  148.6762  136.3003  158.3342 C   0  0  0  0  0  0  0  0  0  0  0  0
  149.2600  135.2394  158.1135 O   0  0  0  0  0  0  0  0  0  0  0  0
  148.8222  137.4015  157.5844 N   0  0  0  0  0  0  0  0  0  0  0  0
  149.6553  137.5186  156.3875 C   0  0  0  0  0  0  0  0  0  0  0  0
  149.7383  138.9794  155.8540 C   0  0  0  0  0  0  0  0  0  0  0  0
  150.0062  139.9261  157.0485 C   0  0  0  0  0  0  0  0  0  0  0  0
  150.9437  139.0534  154.8820 C   0  0  0  0  0  0  0  0  0  0  0  0
  148.4904  139.3434  155.1286 N   0  0  0  0  0  0  0  0  0  0  0  0
  148.6115  140.5115  154.2398 C   0  0  0  0  0  0  0  0  0  0  0  0
  147.3591  140.6460  153.3506 C   0  0  0  0  0  0  0  0  0  0  0  0
  146.1280  140.7825  154.1616 N   0  3  0  0  0  0  0  0  0  0  0  0
  145.9435  142.1272  154.7544 C   0  0  0  0  0  0  0  0  0  0  0  0
  146.0368  139.6764  155.1415 C   0  0  0  0  0  0  0  0  0  0  0  0
  147.3184  139.5672  155.9919 C   0  0  0  0  0  0  0  0  0  0  0  0
  145.1420  138.9283  162.2686 H   0  0  0  0  0  0  0  0  0  0  0  0
  145.6191  137.6698  163.4028 H   0  0  0  0  0  0  0  0  0  0  0  0
  144.3316  137.3668  162.2142 H   0  0  0  0  0  0  0  0  0  0  0  0
  146.1232  133.3680  163.2025 H   0  0  0  0  0  0  0  0  0  0  0  0
  147.5089  132.3399  161.3842 H   0  0  0  0  0  0  0  0  0  0  0  0
  148.3285  133.7873  159.5373 H   0  0  0  0  0  0  0  0  0  0  0  0
  147.3132  137.3934  159.3213 H   0  0  0  0  0  0  0  0  0  0  0  0
  148.2905  138.2195  157.8420 H   0  0  0  0  0  0  0  0  0  0  0  0
  150.6415  137.1173  156.6171 H   0  0  0  0  0  0  0  0  0  0  0  0
  149.2838  136.8648  155.5964 H   0  0  0  0  0  0  0  0  0  0  0  0
  150.9320  139.6510  157.5551 H   0  0  0  0  0  0  0  0  0  0  0  0
  149.2157  139.8824  157.7974 H   0  0  0  0  0  0  0  0  0  0  0  0
  150.1179  140.9651  156.7393 H   0  0  0  0  0  0  0  0  0  0  0  0
  151.8266  138.5827  155.3160 H   0  0  0  0  0  0  0  0  0  0  0  0
  151.2346  140.0782  154.6518 H   0  0  0  0  0  0  0  0  0  0  0  0
  150.7382  138.5441  153.9396 H   0  0  0  0  0  0  0  0  0  0  0  0
  148.7679  141.4229  154.8169 H   0  0  0  0  0  0  0  0  0  0  0  0
  149.4644  140.4121  153.5721 H   0  0  0  0  0  0  0  0  0  0  0  0
  147.4579  141.4982  152.6771 H   0  0  0  0  0  0  0  0  0  0  0  0
  147.2641  139.7630  152.7167 H   0  0  0  0  0  0  0  0  0  0  0  0
  146.7312  142.3721  155.4667 H   0  0  0  0  0  0  0  0  0  0  0  0
  144.9866  142.1860  155.2740 H   0  0  0  0  0  0  0  0  0  0  0  0
  145.9426  142.8901  153.9750 H   0  0  0  0  0  0  0  0  0  0  0  0
  145.1641  139.8157  155.7807 H   0  0  0  0  0  0  0  0  0  0  0  0
  145.8758  138.7423  154.6012 H   0  0  0  0  0  0  0  0  0  0  0  0
  147.1714  138.7387  156.6808 H   0  0  0  0  0  0  0  0  0  0  0  0
  147.4503  140.4622  156.6001 H   0  0  0  0  0  0  0  0  0  0  0  0
  145.3532  140.6638  153.5246 H   0  0  0  0  0  0  0  0  0  0  0  0
  1  2  1  0  0  0  0
  1 24  1  0  0  0  0
  1 25  1  0  0  0  0
  1 26  1  0  0  0  0
  2  3  1  0  0  0  0
  3  8  1  0  0  0  0
  3  4  2  0  0  0  0
  4  5  1  0  0  0  0
  5  6  2  0  0  0  0
  5 27  1  0  0  0  0
  6  7  1  0  0  0  0
  6 28  1  0  0  0  0
  7  8  2  0  0  0  0
  7 29  1  0  0  0  0
  8  9  1  0  0  0  0
  9 10  1  0  0  0  0
  9 30  1  0  0  0  0
 10 11  2  0  0  0  0
 10 12  1  0  0  0  0
 12 13  1  0  0  0  0
 12 31  1  0  0  0  0
 13 14  1  0  0  0  0
 13 32  1  0  0  0  0
 13 33  1  0  0  0  0
 14 15  1  0  0  0  0
 14 16  1  0  0  0  0
 14 17  1  0  0  0  0
 15 34  1  0  0  0  0
 15 35  1  0  0  0  0
 15 36  1  0  0  0  0
 16 37  1  0  0  0  0
 16 38  1  0  0  0  0
 16 39  1  0  0  0  0
 17 23  1  0  0  0  0
 17 18  1  0  0  0  0
 18 19  1  0  0  0  0
 18 40  1  0  0  0  0
 18 41  1  0  0  0  0
 19 20  1  0  0  0  0
 19 42  1  0  0  0  0
 19 43  1  0  0  0  0
 20 21  1  0  0  0  0
 20 22  1  0  0  0  0
 20 51  1  0  0  0  0
 21 44  1  0  0  0  0
 21 45  1  0  0  0  0
 21 46  1  0  0  0  0
 22 23  1  0  0  0  0
 22 47  1  0  0  0  0
 22 48  1  0  0  0  0
 23 49  1  0  0  0  0
 23 50  1  0  0  0  0
M  CHG  1  20   1
M  END
> <s_m_source_file>
AV-unprocessed.smi

> <i_m_source_file_index>
1243

> <i_lp_mmshare_version>
43012

> <i_f3d_flags>
0

> <s_epik_input>
W0NIM11PYzFuW2NIXVtjSF1bY0hdYzFbTkhdQyg9TylbTkhdW0NIMl1DKFtDSDNdKShbQ0gzXSlOMltDSDJdW0NIMl1OKFtDSDNdKVtDSDJdW0NIMl0y

> <s_epik_cmdline>
J2VwaWtfcHl0aG9uJywgJy1waCcsICc3LjAnLCAnLXRuJywgJzgnLCAnLW1hJywgJzIwMCcsICctbWV0YWxfYmluZGluZycsICctaW1hZScsICc8aW5maWxlLm1hZT4nLCAnLW9tYWUnLCAnPG91dGZpbGUubWFlPic=

> <r_lp_tautomer_probability>
1

> <r_epik_Ionization_Penalty>
0.0248754

> <r_epik_Ionization_Penalty_Charging>
0.0238192

> <r_epik_Ionization_Penalty_Neutral>
0.00105626

> <r_epik_State_Penalty>
0.139266

> <r_epik_Charging_Adjusted_Penalty>
0.163085

> <i_epik_Tot_Q>
1

> <i_epik_Tot_abs_Q>
1

> <r_epik_Metal_State_Penalty>
0.139265

> <b_epik_Metal_Only>
0

> <s_lp_Force_Field>
OPLS_2005

> <r_lp_Energy>
29.8064

> <b_lp_Chiralities_Consistent>
1

> <s_lp_Variant>
AV-unprocessed.smi:1243-1

> <Gold.Version>
5.8.1

> <Gold.Id.Protein>
6NUR|6NUR_protein|mol2

> <Gold.PLP.Fitness>
42.2764

> <Gold.PLP.PLP>
-31.5565

> <Gold.PLP.part.hbond>
-2.9810

> <Gold.PLP.part.metal>
0.0000

> <Gold.PLP.part.buried>
-5.4908

> <Gold.PLP.part.nonpolar>
-24.8237

> <Gold.PLP.part.repulsive>
0.2662

> <Gold.PLP.ligand.clash>
0.0000

> <Gold.PLP.ligand.torsion>
0.6621

> <Gold.PLP.Chemscore.Hbond>
4.0000

> <Gold.PLP.Chemscore.CHOScore>
0.0000

> <Gold.PLP.Chemscore.Metal>
0.0000

> <Gold.Chemscore.Hbonds>
donor molecule, donor type, donor heavy atom, donor atom, acceptor molecule, acceptor atom, score
      L1  H    20    51       P1 10175  2.00
      P1  H  6896  6908       L1    11  0.80
      P1  H  6934  6947       L1     2  1.00

> <Gold.PLP.Chemscore.Internal.Correction>
0.0441

> <Gold.Rescore>
     Score         DG    S(hbond)    S(metal)    S(lipo)     H(rot)  DE(clash)    DE(int)     intcor
     17.07     -19.27       2.86        0.00      73.81       1.72       0.03       2.17       ----

> <Gold.Chemscore.Fitness>
17.0661

> <Gold.Chemscore.DG>
-19.2708

> <Gold.Chemscore.ZeroCoef>
-5.4800

> <Gold.Chemscore.Hbond>
2.8629

> <Gold.Chemscore.Metal>
0.0000

> <Gold.Chemscore.Lipo>
73.8071

> <Gold.Chemscore.Internal_Hbond>
0.0000

> <Gold.Chemscore.DEClash>
0.0332

> <Gold.Chemscore.DEInternal>
2.1716

> <Gold.Chemscore.Rot>
1.7213

> <Gold.Chemscore.Internal.Correction>
   9.000000E+99

> <Gold.Chemscore.Hbonds>
donor molecule, donor type, donor heavy atom, donor atom, acceptor molecule, acceptor atom, score
      L1  H    20    51       P1 10175  0.92
      P1  H  6896  6908       L1    11  0.76
      P1  H  6934  6947       L1     2  0.39

> <Gold.Chemscore.Hbond.Weighted>
-9.5620

> <Gold.Chemscore.Metal.Weighted>
-0.0000

> <Gold.Chemscore.Lipo.Weighted>
-8.6354

> <Gold.Chemscore.Internal_Hbond.Weighted>
0.0000

> <Gold.Chemscore.DEClash.Weighted>
0.0332

> <Gold.Chemscore.DEInternal.Weighted>
2.1716

> <Gold.Chemscore.Rot.Weighted>
4.4066

> <Gold.Chemscore.Internal.Correction.Weighted>
   9.000000E+99

> <Gold.Protein.RotatedTorsions>
[ 6907 6896 6895 6894 ] final  167.78 input  -60.11 | X-H torsion
[ 7974 7965 7964 7962 ] final -134.14 input  175.53 | X-H torsion
[ 8008 7997 7996 7995 ] final   88.01 input   59.86 | X-H torsion
[ 10167 10162 10161 10158 ] final  -25.05 input  -65.29 | X-H torsion
[ 10718 10713 10712 10709 ] final   42.77 input   66.30 | X-H torsion
[ 10763 10752 10751 10750 ] final -128.49 input  -60.55 | X-H torsion
[ 11005 11000 10999 10996 ] final  -98.32 input  -57.11 | X-H torsion

> <Gold.Protein.ActiveResidues>
 VAL166  LYS551  ARG553  GLY616  TRP617  ASP618  TYR619  PRO620  LYS621  CYS622 
 ASP623  PHE694  ASN695  SER759  ASP760  ASP761  ALA762  ILE779  LEU786  VAL792 
 PHE793  MET794  SER795  GLU796  ALA797  LYS798  CYS799  TRP800  GLU811  SER814 

> <Gold.Protein.RotatedAtoms>
  151.8580  133.3452  159.3694 H   0  0  0  0  0  0  0  0  0  0  0  0  # atno 6907 bound_to 6896
  150.7187  134.5234  159.5674 H   0  0  0  0  0  0  0  0  0  0  0  0  # atno 6908 bound_to 6896
  152.2741  134.7901  160.0460 H   0  0  0  0  0  0  0  0  0  0  0  0  # atno 6909 bound_to 6896
  144.9130  140.6919  143.5013 H   0  0  0  0  0  0  0  0  0  0  0  0  # atno 7974 bound_to 7965
  155.9825  140.3376  155.6676 H   0  0  0  0  0  0  0  0  0  0  0  0  # atno 8008 bound_to 7997
  155.6530  140.0707  157.2598 H   0  0  0  0  0  0  0  0  0  0  0  0  # atno 8009 bound_to 7997
  154.4196  140.1722  156.1682 H   0  0  0  0  0  0  0  0  0  0  0  0  # atno 8010 bound_to 7997
  140.7287  143.4299  151.0819 H   0  0  0  0  0  0  0  0  0  0  0  0  # atno 10167 bound_to 10162
  157.4085  130.7901  149.7410 H   0  0  0  0  0  0  0  0  0  0  0  0  # atno 10718 bound_to 10713
  154.8756  135.3926  154.3766 H   0  0  0  0  0  0  0  0  0  0  0  0  # atno 10763 bound_to 10752
  153.4518  135.7028  153.6109 H   0  0  0  0  0  0  0  0  0  0  0  0  # atno 10764 bound_to 10752
  153.4645  135.3804  155.2326 H   0  0  0  0  0  0  0  0  0  0  0  0  # atno 10765 bound_to 10752
  141.1349  133.8237  157.0824 H   0  0  0  0  0  0  0  0  0  0  0  0  # atno 11005 bound_to 11000
  145.3423  139.1729  143.4479 LP  0  0  0  0  0  0  0  0  0  0  0  0  # atno 17320 bound_to 7965
  146.3168  140.3465  142.8652 LP  0  0  0  0  0  0  0  0  0  0  0  0  # atno 17321 bound_to 7965
  139.7954  143.8159  152.3157 LP  0  0  0  0  0  0  0  0  0  0  0  0  # atno 17342 bound_to 10162
  139.8157  144.7317  150.9638 LP  0  0  0  0  0  0  0  0  0  0  0  0  # atno 17343 bound_to 10162
  155.9844  130.3992  150.3316 LP  0  0  0  0  0  0  0  0  0  0  0  0  # atno 17370 bound_to 10713
  157.1451  131.0306  151.2910 LP  0  0  0  0  0  0  0  0  0  0  0  0  # atno 17371 bound_to 10713
  140.0443  134.9838  157.1020 LP  0  0  0  0  0  0  0  0  0  0  0  0  # atno 17394 bound_to 11000
  140.4087  134.2005  155.7163 LP  0  0  0  0  0  0  0  0  0  0  0  0  # atno 17395 bound_to 11000

$$$$
