AV-unprocessed.smi:2547|AV-procd|sdf|10006|dock8
  -GOLD-   2272014 53D 1   1.00000     0.00000
 Structure written by MMmdl.
 44 45  0  0  0  0  0  0  0  0  2 V2000
  149.1026  135.4598  155.3524 C   0  0  0  0  0  0  0  0  0  0  0  0
  149.8420  136.5740  154.7209 N   0  3  2  0  0  0  0  0  0  0  0  0
  151.3099  136.3559  154.7323 C   0  0  0  0  0  0  0  0  0  0  0  0
  152.0412  137.4660  153.9554 C   0  0  0  0  0  0  0  0  0  0  0  0
  151.6854  138.8683  154.4808 C   0  0  2  0  0  0  0  0  0  0  0  0
  152.2674  139.0840  155.8062 N   0  0  0  0  0  0  0  0  0  0  0  0
  152.0942  140.1560  156.5939 C   0  0  0  0  0  0  0  0  0  0  0  0
  151.3879  141.1074  156.2474 O   0  0  0  0  0  0  0  0  0  0  0  0
  152.8110  139.9861  157.7733 N   0  0  0  0  0  0  0  0  0  0  0  0
  152.8903  140.9066  158.6904 C   0  0  0  0  0  0  0  0  0  0  0  0
  153.6586  140.6575  159.8985 C   0  0  0  0  0  0  0  0  0  0  0  0
  153.7578  141.5927  160.8651 C   0  0  0  0  0  0  0  0  0  0  0  0
  153.1023  142.8771  160.7322 C   0  0  0  0  0  0  0  0  0  0  0  0
  152.3817  143.1439  159.6266 C   0  0  0  0  0  0  0  0  0  0  0  0
  151.7581  144.3707  159.5042 N   0  0  0  0  0  0  0  0  0  0  0  0
  151.8644  145.3790  160.5452 C   0  0  0  0  0  0  0  0  0  0  0  0
  151.2243  144.8231  158.2306 C   0  0  0  0  0  0  0  0  0  0  0  0
  152.2815  142.1747  158.6300 N   0  0  0  0  0  0  0  0  0  0  0  0
  150.1568  139.0403  154.5264 C   0  0  0  0  0  0  0  0  0  0  0  0
  149.4695  137.8932  155.2900 C   0  0  0  0  0  0  0  0  0  0  0  0
  149.3519  135.3743  156.4111 H   0  0  0  0  0  0  0  0  0  0  0  0
  149.3428  134.5139  154.8660 H   0  0  0  0  0  0  0  0  0  0  0  0
  148.0264  135.6134  155.2650 H   0  0  0  0  0  0  0  0  0  0  0  0
  151.6663  136.3151  155.7627 H   0  0  0  0  0  0  0  0  0  0  0  0
  151.5383  135.3891  154.2821 H   0  0  0  0  0  0  0  0  0  0  0  0
  153.1198  137.3083  153.9999 H   0  0  0  0  0  0  0  0  0  0  0  0
  151.7691  137.4004  152.9009 H   0  0  0  0  0  0  0  0  0  0  0  0
  152.0845  139.6009  153.7778 H   0  0  0  0  0  0  0  0  0  0  0  0
  152.8602  138.3482  156.1621 H   0  0  0  0  0  0  0  0  0  0  0  0
  154.1697  139.7185  160.0548 H   0  0  0  0  0  0  0  0  0  0  0  0
  154.3352  141.3817  161.7531 H   0  0  0  0  0  0  0  0  0  0  0  0
  153.1952  143.6118  161.5191 H   0  0  0  0  0  0  0  0  0  0  0  0
  152.0417  144.9157  161.5162 H   0  0  0  0  0  0  0  0  0  0  0  0
  150.9473  145.9650  160.6132 H   0  0  0  0  0  0  0  0  0  0  0  0
  152.6924  146.0556  160.3328 H   0  0  0  0  0  0  0  0  0  0  0  0
  150.9590  143.9745  157.5990 H   0  0  0  0  0  0  0  0  0  0  0  0
  151.9651  145.4238  157.7025 H   0  0  0  0  0  0  0  0  0  0  0  0
  150.3292  145.4276  158.3774 H   0  0  0  0  0  0  0  0  0  0  0  0
  149.8979  139.9997  154.9765 H   0  0  0  0  0  0  0  0  0  0  0  0
  149.7703  139.0701  153.5068 H   0  0  0  0  0  0  0  0  0  0  0  0
  148.3877  138.0209  155.2370 H   0  0  0  0  0  0  0  0  0  0  0  0
  149.7385  137.9254  156.3471 H   0  0  0  0  0  0  0  0  0  0  0  0
  149.5608  136.5895  153.7509 H   0  0  0  0  0  0  0  0  0  0  0  0
  151.7276  142.4353  157.8267 H   0  0  0  0  0  0  0  0  0  0  0  0
  1  2  1  0  0  0  0
  1 21  1  0  0  0  0
  1 22  1  0  0  0  0
  1 23  1  0  0  0  0
  2 20  1  0  0  0  0
  2  3  1  0  0  0  0
  2 43  1  0  0  0  0
  3  4  1  0  0  0  0
  3 24  1  0  0  0  0
  3 25  1  0  0  0  0
  4  5  1  0  0  0  0
  4 26  1  0  0  0  0
  4 27  1  0  0  0  0
  5  6  1  0  0  0  0
  5 19  1  0  0  0  0
  5 28  1  0  0  0  0
  6  7  1  0  0  0  0
  6 29  1  0  0  0  0
  7  8  2  0  0  0  0
  7  9  1  0  0  0  0
  9 10  2  0  0  0  0
 10 18  1  0  0  0  0
 10 11  1  0  0  0  0
 11 12  2  0  0  0  0
 11 30  1  0  0  0  0
 12 13  1  0  0  0  0
 12 31  1  0  0  0  0
 13 14  2  0  0  0  0
 13 32  1  0  0  0  0
 14 15  1  0  0  0  0
 14 18  1  0  0  0  0
 15 16  1  0  0  0  0
 15 17  1  0  0  0  0
 16 33  1  0  0  0  0
 16 34  1  0  0  0  0
 16 35  1  0  0  0  0
 17 36  1  0  0  0  0
 17 37  1  0  0  0  0
 17 38  1  0  0  0  0
 18 44  1  0  0  0  0
 19 20  1  0  0  0  0
 19 39  1  0  0  0  0
 19 40  1  0  0  0  0
 20 41  1  0  0  0  0
 20 42  1  0  0  0  0
M  CHG  1   2   1
M  END
> <s_m_source_file>
AV-unprocessed.smi

> <i_m_source_file_index>
2547

> <i_lp_mmshare_version>
43012

> <i_f3d_flags>
0

> <s_epik_input>
W0NIM11OMVtDSDJdW0NIMl1bQ0hdKFtDSDJdW0NIMl0xKVtOSF1DKD1PKVtOSF1jMltjSF1bY0hdW2NIXWMobjIpTihbQ0gzXSlbQ0gzXQ==

> <s_epik_cmdline>
J2VwaWtfcHl0aG9uJywgJy1waCcsICc3LjAnLCAnLXRuJywgJzgnLCAnLW1hJywgJzIwMCcsICctbWV0YWxfYmluZGluZycsICctaW1hZScsICc8aW5maWxlLm1hZT4nLCAnLW9tYWUnLCAnPG91dGZpbGUubWFlPic=

> <r_lp_tautomer_probability>
0.999994

> <r_epik_Ionization_Penalty>
1.33208

> <r_epik_Ionization_Penalty_Charging>
1.33208

> <r_epik_Ionization_Penalty_Neutral>
6.0327e-08

> <r_epik_State_Penalty>
3.49719

> <r_epik_Charging_Adjusted_Penalty>
4.82927

> <i_epik_Tot_Q>
1

> <i_epik_Tot_abs_Q>
1

> <r_epik_Metal_State_Penalty>
3.51567

> <b_epik_Metal_Only>
1

> <s_lp_Force_Field>
OPLS_2005

> <r_lp_Energy>
40.5886

> <b_lp_Chiralities_Consistent>
1

> <s_lp_Variant>
AV-unprocessed.smi:2547-6

> <Gold.Version>
5.8.1

> <Gold.Id.Protein>
6NUR|6NUR_protein|mol2

> <Gold.PLP.Fitness>
48.3551

> <Gold.PLP.PLP>
-39.5940

> <Gold.PLP.part.hbond>
-2.0000

> <Gold.PLP.part.metal>
0.0000

> <Gold.PLP.part.buried>
-0.6153

> <Gold.PLP.part.nonpolar>
-36.2600

> <Gold.PLP.part.repulsive>
0.2881

> <Gold.PLP.ligand.clash>
0.0000

> <Gold.PLP.ligand.torsion>
0.0769

> <Gold.PLP.Chemscore.Hbond>
2.9425

> <Gold.PLP.Chemscore.CHOScore>
0.0000

> <Gold.PLP.Chemscore.Metal>
0.0000

> <Gold.Chemscore.Hbonds>
donor molecule, donor type, donor heavy atom, donor atom, acceptor molecule, acceptor atom, score
      L1  H     2    43       P1  7948  2.00
      P1  H  7997  8010       L1     9  0.80

> <Gold.PLP.Chemscore.Internal.Correction>
0.0873

> <Gold.Rescore>
     Score         DG    S(hbond)    S(metal)    S(lipo)     H(rot)  DE(clash)    DE(int)     intcor
     15.60     -16.60       0.97        0.00      89.16       1.00       0.93       0.06       ----

> <Gold.Chemscore.Fitness>
15.6012

> <Gold.Chemscore.DG>
-16.5977

> <Gold.Chemscore.ZeroCoef>
-5.4800

> <Gold.Chemscore.Hbond>
0.9718

> <Gold.Chemscore.Metal>
0.0000

> <Gold.Chemscore.Lipo>
89.1614

> <Gold.Chemscore.Internal_Hbond>
0.0000

> <Gold.Chemscore.DEClash>
0.9346

> <Gold.Chemscore.DEInternal>
0.0619

> <Gold.Chemscore.Rot>
1.0000

> <Gold.Chemscore.Internal.Correction>
   9.000000E+99

> <Gold.Chemscore.Hbonds>
donor molecule, donor type, donor heavy atom, donor atom, acceptor molecule, acceptor atom, score
      L1  H     2    43       P1  7948  0.72
      P1  H  7997  8010       L1     9  0.04

> <Gold.Chemscore.Hbond.Weighted>
-3.2458

> <Gold.Chemscore.Metal.Weighted>
-0.0000

> <Gold.Chemscore.Lipo.Weighted>
-10.4319

> <Gold.Chemscore.Internal_Hbond.Weighted>
0.0000

> <Gold.Chemscore.DEClash.Weighted>
0.9346

> <Gold.Chemscore.DEInternal.Weighted>
0.0619

> <Gold.Chemscore.Rot.Weighted>
2.5600

> <Gold.Chemscore.Internal.Correction.Weighted>
   9.000000E+99

> <Gold.Protein.RotatedTorsions>
[ 6907 6896 6895 6894 ] final   66.58 input  -60.11 | X-H torsion
[ 7974 7965 7964 7962 ] final  130.06 input  175.53 | X-H torsion
[ 8008 7997 7996 7995 ] final   38.16 input   59.86 | X-H torsion
[ 10167 10162 10161 10158 ] final   89.11 input  -65.29 | X-H torsion
[ 10718 10713 10712 10709 ] final -100.08 input   66.30 | X-H torsion
[ 10763 10752 10751 10750 ] final   33.51 input  -60.55 | X-H torsion
[ 11005 11000 10999 10996 ] final -166.32 input  -57.11 | X-H torsion

> <Gold.Protein.ActiveResidues>
 VAL166  LYS551  ARG553  GLY616  TRP617  ASP618  TYR619  PRO620  LYS621  CYS622 
 ASP623  PHE694  ASN695  SER759  ASP760  ASP761  ALA762  ILE779  LEU786  VAL792 
 PHE793  MET794  SER795  GLU796  ALA797  LYS798  CYS799  TRP800  GLU811  SER814 

> <Gold.Protein.RotatedAtoms>
  152.4491  134.5431  159.9844 H   0  0  0  0  0  0  0  0  0  0  0  0  # atno 6907 bound_to 6896
  151.5508  133.3412  159.2960 H   0  0  0  0  0  0  0  0  0  0  0  0  # atno 6908 bound_to 6896
  150.8415  134.7741  159.7000 H   0  0  0  0  0  0  0  0  0  0  0  0  # atno 6909 bound_to 6896
  145.0220  139.4123  143.5192 H   0  0  0  0  0  0  0  0  0  0  0  0  # atno 7974 bound_to 7965
  155.2156  140.3327  155.4322 H   0  0  0  0  0  0  0  0  0  0  0  0  # atno 8008 bound_to 7997
  156.2353  140.1869  156.7183 H   0  0  0  0  0  0  0  0  0  0  0  0  # atno 8009 bound_to 7997
  154.6049  140.0617  156.9403 H   0  0  0  0  0  0  0  0  0  0  0  0  # atno 8010 bound_to 7997
  139.8605  144.6546  150.9063 H   0  0  0  0  0  0  0  0  0  0  0  0  # atno 10167 bound_to 10162
  156.0152  130.5312  150.6765 H   0  0  0  0  0  0  0  0  0  0  0  0  # atno 10718 bound_to 10713
  153.0208  135.6385  154.1523 H   0  0  0  0  0  0  0  0  0  0  0  0  # atno 10763 bound_to 10752
  154.1258  135.2843  155.3199 H   0  0  0  0  0  0  0  0  0  0  0  0  # atno 10764 bound_to 10752
  154.6230  135.5518  153.7658 H   0  0  0  0  0  0  0  0  0  0  0  0  # atno 10765 bound_to 10752
  140.5658  134.5287  157.5152 H   0  0  0  0  0  0  0  0  0  0  0  0  # atno 11005 bound_to 11000
  146.3487  139.9723  142.8705 LP  0  0  0  0  0  0  0  0  0  0  0  0  # atno 17320 bound_to 7965
  145.1883  140.9800  143.4226 LP  0  0  0  0  0  0  0  0  0  0  0  0  # atno 17321 bound_to 7965
  140.7775  143.3748  151.1583 LP  0  0  0  0  0  0  0  0  0  0  0  0  # atno 17342 bound_to 10162
  139.7378  143.8972  152.3040 LP  0  0  0  0  0  0  0  0  0  0  0  0  # atno 17343 bound_to 10162
  157.4477  131.0869  151.0879 LP  0  0  0  0  0  0  0  0  0  0  0  0  # atno 17370 bound_to 10713
  157.1404  130.6140  149.5553 LP  0  0  0  0  0  0  0  0  0  0  0  0  # atno 17371 bound_to 10713
  139.9385  134.7830  156.0738 LP  0  0  0  0  0  0  0  0  0  0  0  0  # atno 17394 bound_to 11000
  141.1087  133.6651  156.2925 LP  0  0  0  0  0  0  0  0  0  0  0  0  # atno 17395 bound_to 11000

$$$$
