AV-unprocessed.smi:21|AV-procd|sdf|139|dock1
  -GOLD-   2262015343D 1   1.00000     0.00000
 Structure written by MMmdl.
 62 65  0  0  0  0  0  0  0  0  2 V2000
  143.9889  132.0259  150.4509 C   0  0  0  0  0  0  0  0  0  0  0  0
  144.0746  133.3173  151.0326 O   0  0  0  0  0  0  0  0  0  0  0  0
  145.1449  134.1038  150.5251 C   0  0  1  0  0  0  0  0  0  0  0  0
  144.9056  135.5543  150.9242 C   0  0  0  0  0  0  0  0  0  0  0  0
  145.4632  135.6356  152.3484 C   0  0  2  0  0  0  0  0  0  0  0  0
  145.8536  137.0622  152.7891 C   0  0  0  0  0  0  0  0  0  0  0  0
  146.1809  137.1434  154.2140 N   0  0  0  0  0  0  0  0  0  0  0  0
  145.2097  136.6290  155.1710 C   0  0  0  0  0  0  0  0  0  0  0  0
  147.1340  138.0241  154.6276 C   0  0  0  0  0  0  0  0  0  0  0  0
  147.6071  138.9202  153.7217 N   0  0  0  0  0  0  0  0  0  0  0  0
  148.5343  139.8163  154.0673 C   0  0  0  0  0  0  0  0  0  0  0  0
  149.1127  139.9984  155.2537 N   0  0  0  0  0  0  0  0  0  0  0  0
  148.6414  139.1143  156.1771 C   0  0  0  0  0  0  0  0  0  0  0  0
  147.6690  138.0961  155.9505 C   0  0  0  0  0  0  0  0  0  0  0  0
  147.4499  137.3972  157.1330 N   0  0  0  0  0  0  0  0  0  0  0  0
  148.2457  137.9609  157.9985 C   0  0  0  0  0  0  0  0  0  0  0  0
  148.9822  139.0180  157.5163 N   0  0  0  0  0  0  0  0  0  0  0  0
  149.9259  139.8308  158.2715 C   0  0  0  0  0  0  0  0  0  0  0  0
  150.6164  140.9495  157.4418 C   0  0  2  0  0  0  0  0  0  0  0  0
  151.8939  140.4515  156.7239 C   0  0  0  0  0  0  0  0  0  0  0  0
  151.6096  140.0546  155.3982 O   0  0  0  0  0  0  0  0  0  0  0  0
  150.9056  142.2149  158.2911 C   0  0  2  0  0  0  0  0  0  0  0  0
  151.4325  143.4005  157.4991 C   0  0  0  0  0  0  0  0  0  0  0  0
  152.0258  144.2814  158.5923 C   0  0  0  0  0  0  0  0  0  0  0  0
  152.4994  143.3848  159.5908 O   0  0  0  0  0  0  0  0  0  0  0  0
  152.0313  142.0674  159.3209 C   0  0  0  0  0  0  0  0  0  0  0  0
  146.6326  134.7268  152.3444 N   0  3  1  0  0  0  0  0  0  0  0  0
  146.9140  134.0943  153.6522 C   0  0  0  0  0  0  0  0  0  0  0  0
  146.4612  133.7543  151.2376 C   0  0  0  0  0  0  0  0  0  0  0  0
  145.2163  134.0064  149.4403 H   0  0  0  0  0  0  0  0  0  0  0  0
  144.7150  135.2269  153.0303 H   0  0  0  0  0  0  0  0  0  0  0  0
  143.1610  131.4786  150.9015 H   0  0  0  0  0  0  0  0  0  0  0  0
  144.8985  131.4466  150.6109 H   0  0  0  0  0  0  0  0  0  0  0  0
  143.8012  132.0913  149.3785 H   0  0  0  0  0  0  0  0  0  0  0  0
  145.4737  136.2090  150.2615 H   0  0  0  0  0  0  0  0  0  0  0  0
  143.8563  135.8445  150.8579 H   0  0  0  0  0  0  0  0  0  0  0  0
  146.7361  137.3817  152.2345 H   0  0  0  0  0  0  0  0  0  0  0  0
  145.0731  137.7711  152.5121 H   0  0  0  0  0  0  0  0  0  0  0  0
  145.6979  136.3241  156.0974 H   0  0  0  0  0  0  0  0  0  0  0  0
  144.6987  135.7549  154.7665 H   0  0  0  0  0  0  0  0  0  0  0  0
  144.4556  137.3823  155.4002 H   0  0  0  0  0  0  0  0  0  0  0  0
  148.8564  140.4850  153.2826 H   0  0  0  0  0  0  0  0  0  0  0  0
  148.3062  137.6277  159.0246 H   0  0  0  0  0  0  0  0  0  0  0  0
  149.3849  140.2756  159.1073 H   0  0  0  0  0  0  0  0  0  0  0  0
  150.6645  139.1717  158.7270 H   0  0  0  0  0  0  0  0  0  0  0  0
  149.9110  141.2448  156.6634 H   0  0  0  0  0  0  0  0  0  0  0  0
  152.6397  141.2435  156.6634 H   0  0  0  0  0  0  0  0  0  0  0  0
  152.3584  139.6257  157.2626 H   0  0  0  0  0  0  0  0  0  0  0  0
  150.9014  139.4289  155.4171 H   0  0  0  0  0  0  0  0  0  0  0  0
  150.0028  142.5164  158.8238 H   0  0  0  0  0  0  0  0  0  0  0  0
  152.2179  143.0808  156.8125 H   0  0  0  0  0  0  0  0  0  0  0  0
  150.6705  143.9190  156.9190 H   0  0  0  0  0  0  0  0  0  0  0  0
  152.8234  144.9256  158.2217 H   0  0  0  0  0  0  0  0  0  0  0  0
  151.2533  144.9143  159.0308 H   0  0  0  0  0  0  0  0  0  0  0  0
  151.6989  141.5798  160.2376 H   0  0  0  0  0  0  0  0  0  0  0  0
  152.8590  141.4877  158.9097 H   0  0  0  0  0  0  0  0  0  0  0  0
  146.0875  133.4545  153.9650 H   0  0  0  0  0  0  0  0  0  0  0  0
  147.0728  134.8497  154.4221 H   0  0  0  0  0  0  0  0  0  0  0  0
  147.8153  133.4837  153.5928 H   0  0  0  0  0  0  0  0  0  0  0  0
  146.4841  132.7195  151.5822 H   0  0  0  0  0  0  0  0  0  0  0  0
  147.3011  133.8825  150.5540 H   0  0  0  0  0  0  0  0  0  0  0  0
  147.4353  135.2902  152.1017 H   0  0  0  0  0  0  0  0  0  0  0  0
  1  2  1  0  0  0  0
  1 32  1  0  0  0  0
  1 33  1  0  0  0  0
  1 34  1  0  0  0  0
  2  3  1  0  0  0  0
  3 30  1  0  0  0  0
  3 29  1  0  0  0  0
  3  4  1  0  0  0  0
  4  5  1  0  0  0  0
  4 35  1  0  0  0  0
  4 36  1  0  0  0  0
  5 31  1  0  0  0  0
  5  6  1  0  0  0  0
  5 27  1  0  0  0  0
  6  7  1  0  0  0  0
  6 37  1  0  0  0  0
  6 38  1  0  0  0  0
  7  8  1  0  0  0  0
  7  9  1  0  0  0  0
  8 39  1  0  0  0  0
  8 40  1  0  0  0  0
  8 41  1  0  0  0  0
  9 14  1  0  0  0  0
  9 10  2  0  0  0  0
 10 11  1  0  0  0  0
 11 12  2  0  0  0  0
 11 42  1  0  0  0  0
 12 13  1  0  0  0  0
 13 17  1  0  0  0  0
 13 14  2  0  0  0  0
 14 15  1  0  0  0  0
 15 16  2  0  0  0  0
 16 17  1  0  0  0  0
 16 43  1  0  0  0  0
 17 18  1  0  0  0  0
 18 19  1  0  0  0  0
 18 44  1  0  0  0  0
 18 45  1  0  0  0  0
 19 20  1  0  0  0  0
 19 22  1  0  0  0  0
 19 46  1  0  0  0  0
 20 21  1  0  0  0  0
 20 47  1  0  0  0  0
 20 48  1  0  0  0  0
 21 49  1  0  0  0  0
 22 26  1  0  0  0  0
 22 23  1  0  0  0  0
 22 50  1  0  0  0  0
 23 24  1  0  0  0  0
 23 51  1  0  0  0  0
 23 52  1  0  0  0  0
 24 25  1  0  0  0  0
 24 53  1  0  0  0  0
 24 54  1  0  0  0  0
 25 26  1  0  0  0  0
 26 55  1  0  0  0  0
 26 56  1  0  0  0  0
 27 28  1  0  0  0  0
 27 29  1  0  0  0  0
 27 62  1  0  0  0  0
 28 57  1  0  0  0  0
 28 58  1  0  0  0  0
 28 59  1  0  0  0  0
 29 60  1  0  0  0  0
 29 61  1  0  0  0  0
M  CHG  1  27   1
M  END
> <s_m_source_file>
AV-unprocessed.smi

> <i_m_source_file_index>
21

> <i_lp_mmshare_version>
43012

> <i_f3d_flags>
0

> <s_epik_input>
W0NIM11PW0NASF0xW0NIMl1bQ0BIXShOKFtDSDNdKVtDSDJdMSlbQ0gyXU4oW0NIM10pYyhuW2NIXW4yKWMoYzIzKW5bY0hdbjNbQ0gyXVtDQEhdKFtDSDJdW09IXSlbQ0BASF00W0NIMl1bQ0gyXU9bQ0gyXTQ=

> <s_epik_cmdline>
J2VwaWtfcHl0aG9uJywgJy1waCcsICc3LjAnLCAnLXRuJywgJzgnLCAnLW1hJywgJzIwMCcsICctbWV0YWxfYmluZGluZycsICctaW1hZScsICc8aW5maWxlLm1hZT4nLCAnLW9tYWUnLCAnPG91dGZpbGUubWFlPic=

> <r_lp_tautomer_probability>
1

> <r_epik_Ionization_Penalty>
0.0157465

> <r_epik_Ionization_Penalty_Charging>
0.015354

> <r_epik_Ionization_Penalty_Neutral>
0.000392529

> <r_epik_State_Penalty>
0.0120612

> <r_epik_Charging_Adjusted_Penalty>
0.0274152

> <i_epik_Tot_Q>
1

> <i_epik_Tot_abs_Q>
1

> <r_epik_Metal_State_Penalty>
0.0121253

> <b_epik_Metal_Only>
0

> <s_lp_Force_Field>
OPLS_2005

> <r_lp_Energy>
57.752

> <b_lp_Chiralities_Consistent>
1

> <s_lp_Variant>
AV-unprocessed.smi:21-19

> <Gold.Version>
5.8.1

> <Gold.Id.Protein>
6NUR|6NUR_protein|mol2

> <Gold.PLP.Fitness>
48.5934

> <Gold.PLP.PLP>
-38.7888

> <Gold.PLP.part.hbond>
-2.0000

> <Gold.PLP.part.metal>
0.0000

> <Gold.PLP.part.buried>
-7.3594

> <Gold.PLP.part.nonpolar>
-30.0933

> <Gold.PLP.part.repulsive>
0.4307

> <Gold.PLP.ligand.clash>
0.0000

> <Gold.PLP.ligand.torsion>
1.5791

> <Gold.PLP.Chemscore.Hbond>
2.9920

> <Gold.PLP.Chemscore.CHOScore>
0.9293

> <Gold.PLP.Chemscore.Metal>
0.0000

> <Gold.Chemscore.Hbonds>
donor molecule, donor type, donor heavy atom, donor atom, acceptor molecule, acceptor atom, score
      L1  H    27    62       P1  7948  2.00
      P1  H  7989  7998       L1    21  0.90
      L1  C    11    42       P1  7957  1.00

> <Gold.PLP.Chemscore.Internal.Correction>
1.1989

> <Gold.Rescore>
     Score         DG    S(hbond)    S(metal)    S(lipo)     H(rot)  DE(clash)    DE(int)     intcor
     12.41     -15.31       1.94        0.00      96.10       3.08       0.10       2.80       ----

> <Gold.Chemscore.Fitness>
12.4118

> <Gold.Chemscore.DG>
-15.3134

> <Gold.Chemscore.ZeroCoef>
-5.4800

> <Gold.Chemscore.Hbond>
1.9352

> <Gold.Chemscore.Metal>
0.0000

> <Gold.Chemscore.Lipo>
96.1026

> <Gold.Chemscore.Internal_Hbond>
0.0000

> <Gold.Chemscore.DEClash>
0.0998

> <Gold.Chemscore.DEInternal>
2.8018

> <Gold.Chemscore.Rot>
3.0758

> <Gold.Chemscore.Internal.Correction>
   9.000000E+99

> <Gold.Chemscore.Hbonds>
donor molecule, donor type, donor heavy atom, donor atom, acceptor molecule, acceptor atom, score
      L1  H    27    62       P1  7948  1.00
      P1  H  7989  7998       L1    21  0.54

> <Gold.Chemscore.Hbond.Weighted>
-6.4635

> <Gold.Chemscore.Metal.Weighted>
-0.0000

> <Gold.Chemscore.Lipo.Weighted>
-11.2440

> <Gold.Chemscore.Internal_Hbond.Weighted>
0.0000

> <Gold.Chemscore.DEClash.Weighted>
0.0998

> <Gold.Chemscore.DEInternal.Weighted>
2.8018

> <Gold.Chemscore.Rot.Weighted>
7.8741

> <Gold.Chemscore.Internal.Correction.Weighted>
   9.000000E+99

> <Gold.Protein.RotatedTorsions>
[ 6907 6896 6895 6894 ] final  136.97 input  -60.11 | X-H torsion
[ 7974 7965 7964 7962 ] final  153.76 input  175.53 | X-H torsion
[ 8008 7997 7996 7995 ] final   10.27 input   59.86 | X-H torsion
[ 10167 10162 10161 10158 ] final -100.93 input  -65.29 | X-H torsion
[ 10718 10713 10712 10709 ] final  -43.16 input   66.30 | X-H torsion
[ 10763 10752 10751 10750 ] final  175.67 input  -60.55 | X-H torsion
[ 11005 11000 10999 10996 ] final  130.46 input  -57.11 | X-H torsion

> <Gold.Protein.ActiveResidues>
 VAL166  LYS551  ARG553  GLY616  TRP617  ASP618  TYR619  PRO620  LYS621  CYS622 
 ASP623  PHE694  ASN695  SER759  ASP760  ASP761  ALA762  ILE779  LEU786  VAL792 
 PHE793  MET794  SER795  GLU796  ALA797  LYS798  CYS799  TRP800  GLU811  SER814 

> <Gold.Protein.RotatedAtoms>
  152.2834  133.5492  159.5511 H   0  0  0  0  0  0  0  0  0  0  0  0  # atno 6907 bound_to 6896
  150.7205  134.0532  159.3814 H   0  0  0  0  0  0  0  0  0  0  0  0  # atno 6908 bound_to 6896
  151.8441  135.0580  160.0502 H   0  0  0  0  0  0  0  0  0  0  0  0  # atno 6909 bound_to 6896
  144.8133  139.6843  143.6132 H   0  0  0  0  0  0  0  0  0  0  0  0  # atno 7974 bound_to 7965
  154.7912  140.2836  155.5990 H   0  0  0  0  0  0  0  0  0  0  0  0  # atno 8008 bound_to 7997
  156.2964  140.2604  156.2688 H   0  0  0  0  0  0  0  0  0  0  0  0  # atno 8009 bound_to 7997
  154.9668  140.0376  157.2205 H   0  0  0  0  0  0  0  0  0  0  0  0  # atno 8010 bound_to 7997
  140.2467  143.3501  152.0752 H   0  0  0  0  0  0  0  0  0  0  0  0  # atno 10167 bound_to 10162
  156.2519  130.4189  149.8640 H   0  0  0  0  0  0  0  0  0  0  0  0  # atno 10718 bound_to 10713
  154.4707  135.2771  155.1644 H   0  0  0  0  0  0  0  0  0  0  0  0  # atno 10763 bound_to 10752
  154.3394  135.6173  153.5593 H   0  0  0  0  0  0  0  0  0  0  0  0  # atno 10764 bound_to 10752
  152.9864  135.5785  154.5088 H   0  0  0  0  0  0  0  0  0  0  0  0  # atno 10765 bound_to 10752
  139.9673  134.9587  156.9297 H   0  0  0  0  0  0  0  0  0  0  0  0  # atno 11005 bound_to 11000
  146.2434  139.6048  142.9476 LP  0  0  0  0  0  0  0  0  0  0  0  0  # atno 17320 bound_to 7965
  145.5272  141.0429  143.2403 LP  0  0  0  0  0  0  0  0  0  0  0  0  # atno 17321 bound_to 7965
  139.5059  144.6804  151.6022 LP  0  0  0  0  0  0  0  0  0  0  0  0  # atno 17342 bound_to 10162
  140.6072  143.9503  150.6427 LP  0  0  0  0  0  0  0  0  0  0  0  0  # atno 17343 bound_to 10162
  156.6186  130.8616  151.3470 LP  0  0  0  0  0  0  0  0  0  0  0  0  # atno 17370 bound_to 10713
  157.7217  130.9568  150.1468 LP  0  0  0  0  0  0  0  0  0  0  0  0  # atno 17371 bound_to 10713
  140.5368  134.0759  155.7330 LP  0  0  0  0  0  0  0  0  0  0  0  0  # atno 17394 bound_to 11000
  141.1353  133.9232  157.2447 LP  0  0  0  0  0  0  0  0  0  0  0  0  # atno 17395 bound_to 11000

$$$$
