#       Name:                AV-unprocessed.smi:718
#       Creating user name   scv26
#       Creation time:       Fri Mar 27 00:48:51 2020


#       File generated by GOLD software.
#

@<TRIPOS>MOLECULE
AV-unprocessed.smi:718
    34    35     1
SMALL
NO_CHARGES


@<TRIPOS>ATOM
      1 ****        -0.5815   1.7527  -0.9574 O.2            1 S1                 0.0000
      2 ****         0.0129   0.7412  -0.5824 C.2            1 S1                 0.0000
      3 ****        -0.5884  -0.4285  -0.2921 N.am           1 S1                 0.0000
      4 ****        -1.9737  -0.7394  -0.3185 C.ar           1 S1                 0.0000
      5 ****        -2.2933  -2.0734   0.0195 C.ar           1 S1                 0.0000
      6 ****        -3.6406  -2.4847   0.0263 C.ar           1 S1                 0.0000
      7 ****        -4.0413  -4.1135   0.4388 Cl             1 S1                 0.0000
      8 ****        -4.6373  -1.5455  -0.3067 C.ar           1 S1                 0.0000
      9 ****        -6.3125  -1.9672  -0.3214 Cl             1 S1                 0.0000
     10 ****        -4.2317  -0.2375  -0.6310 C.ar           1 S1                 0.0000
     11 ****        -2.9409   0.1564  -0.6376 N.ar           1 S1                 0.0000
     12 ****         1.5425   0.7500  -0.4465 C.3            1 S1                 0.0000
     13 ****         2.1410   2.1754  -0.4016 C.3            1 S1                 0.0000
     14 ****         3.5503   2.0883  -0.2351 O.3            1 S1                 0.0000
     15 ****         3.8889   1.4131   0.9682 C.3            1 S1                 0.0000
     16 ****         3.3063  -0.0087   0.9220 C.3            1 S1                 0.0000
     17 ****         1.8970   0.0730   0.7573 O.3            1 S1                 0.0000
     18 ****         0.0223  -1.1810  -0.0092 H              1 S1                 0.0000
     19 ****        -1.5145  -2.7786   0.2720 H              1 S1                 0.0000
     20 ****        -4.9615   0.5147  -0.8922 H              1 S1                 0.0000
     21 ****         1.9527   0.2067  -1.2996 H              1 S1                 0.0000
     22 ****         1.9380   2.7080  -1.3314 H              1 S1                 0.0000
     23 ****         1.7061   2.7638   0.4085 H              1 S1                 0.0000
     24 ****         4.9743   1.3754   1.0628 H              1 S1                 0.0000
     25 ****         3.5090   1.9630   1.8307 H              1 S1                 0.0000
     26 ****         3.7487  -0.5849   0.1079 H              1 S1                 0.0000
     27 ****         3.5263  -0.5390   1.8487 H              1 S1                 0.0000
     28 ****        -1.5757   1.7380  -1.0635 LP             1 S1                 0.0000
     29 ****        -0.0698   2.5887  -1.1558 LP             1 S1                 0.0000
     30 ****        -2.7003   1.0976  -0.8749 LP             1 S1                 0.0000
     31 ****         3.9326   3.0120  -0.2086 LP             1 S1                 0.0000
     32 ****         3.9392   1.5887  -1.0091 LP             1 S1                 0.0000
     33 ****         1.5201  -0.8529   0.7309 LP             1 S1                 0.0000
     34 ****         1.5087   0.5690   1.5339 LP             1 S1                 0.0000
@<TRIPOS>BOND
    1    1    2 2     
    2    2    3 am    
    3    2   12 1     
    4    3    4 1     
    5    3   18 1     
    6    4   11 ar    
    7    4    5 ar    
    8    5    6 ar    
    9    5   19 1     
   10    6    7 1     
   11    6    8 ar    
   12    8    9 1     
   13    8   10 ar    
   14   10   11 ar    
   15   10   20 1     
   16   12   17 1     
   17   12   13 1     
   18   12   21 1     
   19   13   14 1     
   20   13   22 1     
   21   13   23 1     
   22   14   15 1     
   23   15   16 1     
   24   15   24 1     
   25   15   25 1     
   26   16   17 1     
   27   16   26 1     
   28   16   27 1     
   29    1   28 1     
   30    1   29 1     
   31   11   30 1     
   32   14   31 1     
   33   14   32 1     
   34   17   33 1     
   35   17   34 1     
@<TRIPOS>SUBSTRUCTURE
      1 S1             1
@<TRIPOS>SET
LONE_PAIRS      STATIC     ATOMS    <user>   **** ""
7 28 29 30 31 32 33 34
DONOR_HYDROGENS      STATIC     ATOMS    <user>   **** ""
1 18
ATOM$BLUE        STATIC     ATOMS    COLORGROUP SYSTEM
7 28 29 30 31 32 33 34
ATOM$RED        STATIC     ATOMS    COLORGROUP SYSTEM
1 18
