AV-unprocessed.smi:1208|AV-procd|sdf|5065|dock5
  -GOLD-   22720 4103D 1   1.00000     0.00000
 Structure written by MMmdl.
 36 37  0  0  0  0  0  0  0  0  1 V2000
  148.3545  135.0710  155.9667 C   0  0  0  0  0  0  0  0  0  0  0  0
  149.6620  134.8225  155.1954 C   0  0  2  0  0  0  0  0  0  0  0  0
  150.1136  136.0715  154.5878 N   0  0  0  0  0  0  0  0  0  0  0  0
  151.1295  136.8299  155.0272 C   0  0  0  0  0  0  0  0  0  0  0  0
  151.7843  136.5661  156.0366 O   0  0  0  0  0  0  0  0  0  0  0  0
  151.4311  138.0941  154.2099 C   0  0  0  0  0  0  0  0  0  0  0  0
  151.1661  139.3338  154.9534 N   0  0  0  0  0  0  0  0  0  0  0  0
  150.1773  140.1309  154.3965 N   0  0  0  0  0  0  0  0  0  0  0  0
  149.8442  141.2383  154.9686 C   0  0  0  0  0  0  0  0  0  0  0  0
  148.8578  141.9950  154.3853 O   0  0  0  0  0  0  0  0  0  0  0  0
  150.4877  141.6746  156.1883 C   0  0  0  0  0  0  0  0  0  0  0  0
  151.4543  140.8944  156.7196 C   0  0  0  0  0  0  0  0  0  0  0  0
  151.8578  139.6330  156.0960 C   0  0  0  0  0  0  0  0  0  0  0  0
  152.7384  138.9056  156.5551 O   0  0  0  0  0  0  0  0  0  0  0  0
  149.5034  133.7549  154.0955 C   0  0  2  0  0  0  0  0  0  0  0  0
  148.0861  133.6274  153.5312 C   0  0  0  0  0  0  0  0  0  0  0  0
  148.0629  132.1897  153.0667 C   0  0  0  0  0  0  0  0  0  0  0  0
  148.8513  131.5027  154.1749 C   0  0  0  0  0  0  0  0  0  0  0  0
  149.8103  132.4600  154.6139 O   0  0  0  0  0  0  0  0  0  0  0  0
  148.9238  142.8466  154.7894 H   0  0  0  0  0  0  0  0  0  0  0  0
  148.0136  134.1675  156.4723 H   0  0  0  0  0  0  0  0  0  0  0  0
  147.5572  135.4005  155.2997 H   0  0  0  0  0  0  0  0  0  0  0  0
  148.4870  135.8377  156.7308 H   0  0  0  0  0  0  0  0  0  0  0  0
  150.4183  134.4701  155.8991 H   0  0  0  0  0  0  0  0  0  0  0  0
  149.6330  136.3654  153.7497 H   0  0  0  0  0  0  0  0  0  0  0  0
  152.4683  138.0794  153.8688 H   0  0  0  0  0  0  0  0  0  0  0  0
  150.8248  138.0593  153.3030 H   0  0  0  0  0  0  0  0  0  0  0  0
  150.1955  142.6034  156.6555 H   0  0  0  0  0  0  0  0  0  0  0  0
  151.9432  141.2076  157.6305 H   0  0  0  0  0  0  0  0  0  0  0  0
  150.1960  133.9509  153.2751 H   0  0  0  0  0  0  0  0  0  0  0  0
  147.3427  133.7739  154.3164 H   0  0  0  0  0  0  0  0  0  0  0  0
  147.8810  134.3377  152.7297 H   0  0  0  0  0  0  0  0  0  0  0  0
  147.0552  131.7907  152.9481 H   0  0  0  0  0  0  0  0  0  0  0  0
  148.5863  132.0931  152.1145 H   0  0  0  0  0  0  0  0  0  0  0  0
  148.1965  131.2608  155.0130 H   0  0  0  0  0  0  0  0  0  0  0  0
  149.3291  130.5817  153.8403 H   0  0  0  0  0  0  0  0  0  0  0  0
  1  2  1  0  0  0  0
  1 21  1  0  0  0  0
  1 22  1  0  0  0  0
  1 23  1  0  0  0  0
  2  3  1  0  0  0  0
  2 15  1  0  0  0  0
  2 24  1  0  0  0  0
  3  4  1  0  0  0  0
  3 25  1  0  0  0  0
  4  5  2  0  0  0  0
  4  6  1  0  0  0  0
  6 26  1  0  0  0  0
  6 27  1  0  0  0  0
  6  7  1  0  0  0  0
  7  8  1  0  0  0  0
  7 13  1  0  0  0  0
  8  9  2  0  0  0  0
  9 10  1  0  0  0  0
  9 11  1  0  0  0  0
 10 20  1  0  0  0  0
 11 28  1  0  0  0  0
 11 12  2  0  0  0  0
 12 29  1  0  0  0  0
 12 13  1  0  0  0  0
 13 14  2  0  0  0  0
 15 19  1  0  0  0  0
 15 16  1  0  0  0  0
 15 30  1  0  0  0  0
 16 17  1  0  0  0  0
 16 31  1  0  0  0  0
 16 32  1  0  0  0  0
 17 18  1  0  0  0  0
 17 33  1  0  0  0  0
 17 34  1  0  0  0  0
 18 19  1  0  0  0  0
 18 35  1  0  0  0  0
 18 36  1  0  0  0  0
M  END
> <s_m_source_file>
AV-unprocessed.smi

> <i_m_source_file_index>
1208

> <i_lp_mmshare_version>
43012

> <i_f3d_flags>
0

> <s_epik_input>
TzFbQ0gyXVtDSDJdW0NIMl1bQ0BIXTFbQ0BIXShbQ0gzXSlbTkhdQyg9TylbQ0gyXW4yW25IXWMoPU8pW2NIXVtjSF1jMj1P

> <s_epik_cmdline>
J2VwaWtfcHl0aG9uJywgJy1waCcsICc3LjAnLCAnLXRuJywgJzgnLCAnLW1hJywgJzIwMCcsICctbWV0YWxfYmluZGluZycsICctaW1hZScsICc8aW5maWxlLm1hZT4nLCAnLW9tYWUnLCAnPG91dGZpbGUubWFlPic=

> <r_lp_tautomer_probability>
0.9996

> <r_epik_Ionization_Penalty>
2.12735

> <r_epik_Ionization_Penalty_Charging>
3.86665e-08

> <r_epik_Ionization_Penalty_Neutral>
2.12735

> <r_epik_State_Penalty>
1.70441

> <r_epik_Charging_Adjusted_Penalty>
1.70441

> <i_epik_Tot_Q>
0

> <i_epik_Tot_abs_Q>
0

> <r_epik_Metal_State_Penalty>
1.70441

> <b_epik_Metal_Only>
0

> <s_lp_Force_Field>
OPLS_2005

> <r_lp_Energy>
29.6219

> <b_lp_Chiralities_Consistent>
1

> <s_lp_Variant>
AV-unprocessed.smi:1208-5

> <Gold.Version>
5.8.1

> <Gold.Id.Protein>
6NUR|6NUR_protein|mol2

> <Gold.PLP.Fitness>
47.0846

> <Gold.PLP.PLP>
-36.3508

> <Gold.PLP.part.hbond>
-6.2587

> <Gold.PLP.part.metal>
0.0000

> <Gold.PLP.part.buried>
-1.5735

> <Gold.PLP.part.nonpolar>
-27.6198

> <Gold.PLP.part.repulsive>
0.2214

> <Gold.PLP.ligand.clash>
0.0000

> <Gold.PLP.ligand.torsion>
1.0557

> <Gold.PLP.Chemscore.Hbond>
4.2755

> <Gold.PLP.Chemscore.CHOScore>
0.0000

> <Gold.PLP.Chemscore.Metal>
0.0000

> <Gold.Chemscore.Hbonds>
donor molecule, donor type, donor heavy atom, donor atom, acceptor molecule, acceptor atom, score
      L1  H     3    25       P1  7948  1.00
      L1  H    10    20       P1  8028  0.96
      P1  H  7989  7998       L1     8  0.11
      P1  H  7997  8009       L1    14  0.91
      P1  H  8011  8017       L1    10  0.13
      P1  H 10752 10764       L1     5  0.87

> <Gold.PLP.Chemscore.Internal.Correction>
0.0187

> <Gold.Rescore>
     Score         DG    S(hbond)    S(metal)    S(lipo)     H(rot)  DE(clash)    DE(int)     intcor
     11.88     -14.67       2.94        0.00      51.93       2.63       0.23       2.56       ----

> <Gold.Chemscore.Fitness>
11.8792

> <Gold.Chemscore.DG>
-14.6660

> <Gold.Chemscore.ZeroCoef>
-5.4800

> <Gold.Chemscore.Hbond>
2.9441

> <Gold.Chemscore.Metal>
0.0000

> <Gold.Chemscore.Lipo>
51.9345

> <Gold.Chemscore.Internal_Hbond>
0.0000

> <Gold.Chemscore.DEClash>
0.2306

> <Gold.Chemscore.DEInternal>
2.5562

> <Gold.Chemscore.Rot>
2.6264

> <Gold.Chemscore.Internal.Correction>
   9.000000E+99

> <Gold.Chemscore.Hbonds>
donor molecule, donor type, donor heavy atom, donor atom, acceptor molecule, acceptor atom, score
      L1  H     3    25       P1  7948  0.53
      L1  H    10    20       P1  8028  0.90
      P1  H  7997  8009       L1    14  0.56
      P1  H  8011  8017       L1    10  0.01
      P1  H 10752 10764       L1     5  0.18

> <Gold.Chemscore.Hbond.Weighted>
-9.8334

> <Gold.Chemscore.Metal.Weighted>
-0.0000

> <Gold.Chemscore.Lipo.Weighted>
-6.0763

> <Gold.Chemscore.Internal_Hbond.Weighted>
0.0000

> <Gold.Chemscore.DEClash.Weighted>
0.2306

> <Gold.Chemscore.DEInternal.Weighted>
2.5562

> <Gold.Chemscore.Rot.Weighted>
6.7237

> <Gold.Chemscore.Internal.Correction.Weighted>
   9.000000E+99

> <Gold.Protein.RotatedTorsions>
[ 6907 6896 6895 6894 ] final   19.62 input  -60.11 | X-H torsion
[ 7974 7965 7964 7962 ] final   30.17 input  175.53 | X-H torsion
[ 8008 7997 7996 7995 ] final  169.46 input   59.86 | X-H torsion
[ 10167 10162 10161 10158 ] final  -49.31 input  -65.29 | X-H torsion
[ 10718 10713 10712 10709 ] final   81.17 input   66.30 | X-H torsion
[ 10763 10752 10751 10750 ] final  -17.54 input  -60.55 | X-H torsion
[ 11005 11000 10999 10996 ] final  114.27 input  -57.11 | X-H torsion

> <Gold.Protein.ActiveResidues>
 VAL166  LYS551  ARG553  GLY616  TRP617  ASP618  TYR619  PRO620  LYS621  CYS622 
 ASP623  PHE694  ASN695  SER759  ASP760  ASP761  ALA762  ILE779  LEU786  VAL792 
 PHE793  MET794  SER795  GLU796  ALA797  LYS798  CYS799  TRP800  GLU811  SER814 

> <Gold.Protein.RotatedAtoms>
  151.8837  135.0443  160.0490 H   0  0  0  0  0  0  0  0  0  0  0  0  # atno 6907 bound_to 6896
  152.2492  133.5196  159.5323 H   0  0  0  0  0  0  0  0  0  0  0  0  # atno 6908 bound_to 6896
  150.7078  134.0900  159.3971 H   0  0  0  0  0  0  0  0  0  0  0  0  # atno 6909 bound_to 6896
  146.1628  139.6824  142.9022 H   0  0  0  0  0  0  0  0  0  0  0  0  # atno 7974 bound_to 7965
  156.1455  140.1563  156.8854 H   0  0  0  0  0  0  0  0  0  0  0  0  # atno 8008 bound_to 7997
  154.5024  140.0822  156.7863 H   0  0  0  0  0  0  0  0  0  0  0  0  # atno 8009 bound_to 7997
  155.3997  140.3414  155.4258 H   0  0  0  0  0  0  0  0  0  0  0  0  # atno 8010 bound_to 7997
  140.6691  143.2703  151.4196 H   0  0  0  0  0  0  0  0  0  0  0  0  # atno 10167 bound_to 10162
  157.6826  130.9992  150.2186 H   0  0  0  0  0  0  0  0  0  0  0  0  # atno 10718 bound_to 10713
  153.5754  135.7006  153.5486 H   0  0  0  0  0  0  0  0  0  0  0  0  # atno 10763 bound_to 10752
  153.3308  135.4048  155.1493 H   0  0  0  0  0  0  0  0  0  0  0  0  # atno 10764 bound_to 10752
  154.8626  135.3718  154.5279 H   0  0  0  0  0  0  0  0  0  0  0  0  # atno 10765 bound_to 10752
  139.8976  134.9565  156.6867 H   0  0  0  0  0  0  0  0  0  0  0  0  # atno 11005 bound_to 11000
  145.4545  141.0430  143.2786 LP  0  0  0  0  0  0  0  0  0  0  0  0  # atno 17320 bound_to 7965
  144.8050  139.6068  143.7055 LP  0  0  0  0  0  0  0  0  0  0  0  0  # atno 17321 bound_to 7965
  139.5952  144.1414  152.2135 LP  0  0  0  0  0  0  0  0  0  0  0  0  # atno 17342 bound_to 10162
  140.0780  144.5724  150.7143 LP  0  0  0  0  0  0  0  0  0  0  0  0  # atno 17343 bound_to 10162
  156.2843  130.3737  149.7904 LP  0  0  0  0  0  0  0  0  0  0  0  0  # atno 17370 bound_to 10713
  156.5583  130.8372  151.3321 LP  0  0  0  0  0  0  0  0  0  0  0  0  # atno 17371 bound_to 10713
  140.7257  133.9102  155.8177 LP  0  0  0  0  0  0  0  0  0  0  0  0  # atno 17394 bound_to 11000
  141.0193  134.0912  157.4138 LP  0  0  0  0  0  0  0  0  0  0  0  0  # atno 17395 bound_to 11000

$$$$
