AV-unprocessed.smi:90|AV-procd|sdf|831|dock8
  -GOLD-   2262017253D 1   1.00000     0.00000
 Structure written by MMmdl.
 64 67  0  0  0  0  0  0  0  0  2 V2000
  149.5495  131.0689  153.1558 C   0  0  0  0  0  0  0  0  0  0  0  0
  148.6375  131.9521  153.8773 N   0  0  0  0  0  0  0  0  0  0  0  0
  147.6198  132.7062  153.1485 C   0  0  0  0  0  0  0  0  0  0  0  0
  147.3590  132.1457  151.7373 C   0  0  0  0  0  0  0  0  0  0  0  0
  147.1791  133.2442  150.6544 C   0  0  2  0  0  0  0  0  0  0  0  0
  146.5363  134.5452  151.1907 C   0  0  0  0  0  0  0  0  0  0  0  0
  145.0469  134.3580  151.5215 C   0  0  0  0  0  0  0  0  0  0  0  0
  144.2981  133.8118  150.2980 C   0  0  0  0  0  0  0  0  0  0  0  0
  144.9675  132.5397  149.7510 C   0  0  0  0  0  0  0  0  0  0  0  0
  146.4050  132.7804  149.4641 N   0  3  2  0  0  0  0  0  0  0  0  0
  147.0366  131.6769  148.7052 C   0  0  0  0  0  0  0  0  0  0  0  0
  149.0707  132.3999  155.0844 C   0  0  0  0  0  0  0  0  0  0  0  0
  150.2751  131.9488  155.5228 N   0  0  0  0  0  0  0  0  0  0  0  0
  150.7594  132.3467  156.7021 C   0  0  0  0  0  0  0  0  0  0  0  0
  150.2171  133.1856  157.5852 N   0  0  0  0  0  0  0  0  0  0  0  0
  149.0148  133.6573  157.1488 C   0  0  0  0  0  0  0  0  0  0  0  0
  148.3689  133.3161  155.9249 C   0  0  0  0  0  0  0  0  0  0  0  0
  147.1612  133.9999  155.8309 N   0  0  0  0  0  0  0  0  0  0  0  0
  147.0921  134.6893  156.9357 C   0  0  0  0  0  0  0  0  0  0  0  0
  148.1734  134.5604  157.7773 N   0  0  0  0  0  0  0  0  0  0  0  0
  148.3586  135.2190  159.0639 C   0  0  0  0  0  0  0  0  0  0  0  0
  147.2792  134.8823  160.1367 C   0  0  0  0  0  0  0  0  0  0  0  0
  145.8767  135.3736  159.6767 C   0  0  0  0  0  0  0  0  0  0  0  0
  145.7948  136.7835  159.6205 O   0  0  0  0  0  0  0  0  0  0  0  0
  147.2356  133.3520  160.3822 C   0  0  0  0  0  0  0  0  0  0  0  0
  146.4468  132.9616  161.6463 C   0  0  0  0  0  0  0  0  0  0  0  0
  146.9712  133.6376  162.7811 O   0  0  0  0  0  0  0  0  0  0  0  0
  146.8689  135.0511  162.6736 C   0  0  0  0  0  0  0  0  0  0  0  0
  147.6988  135.5427  161.4749 C   0  0  0  0  0  0  0  0  0  0  0  0
  150.5846  131.2174  153.4669 H   0  0  0  0  0  0  0  0  0  0  0  0
  149.5056  131.2517  152.0824 H   0  0  0  0  0  0  0  0  0  0  0  0
  149.2836  130.0273  153.3366 H   0  0  0  0  0  0  0  0  0  0  0  0
  146.6876  132.6696  153.7093 H   0  0  0  0  0  0  0  0  0  0  0  0
  147.9240  133.7520  153.0926 H   0  0  0  0  0  0  0  0  0  0  0  0
  148.2005  131.5105  151.4680 H   0  0  0  0  0  0  0  0  0  0  0  0
  146.4898  131.4895  151.7696 H   0  0  0  0  0  0  0  0  0  0  0  0
  148.1749  133.5057  150.2930 H   0  0  0  0  0  0  0  0  0  0  0  0
  147.0702  134.9260  152.0601 H   0  0  0  0  0  0  0  0  0  0  0  0
  146.6298  135.3227  150.4313 H   0  0  0  0  0  0  0  0  0  0  0  0
  144.9296  133.6775  152.3653 H   0  0  0  0  0  0  0  0  0  0  0  0
  144.6107  135.3081  151.8313 H   0  0  0  0  0  0  0  0  0  0  0  0
  143.2590  133.6060  150.5569 H   0  0  0  0  0  0  0  0  0  0  0  0
  144.2762  134.5737  149.5178 H   0  0  0  0  0  0  0  0  0  0  0  0
  144.8562  131.7141  150.4545 H   0  0  0  0  0  0  0  0  0  0  0  0
  144.4615  132.2359  148.8337 H   0  0  0  0  0  0  0  0  0  0  0  0
  146.9530  130.7250  149.2297 H   0  0  0  0  0  0  0  0  0  0  0  0
  148.0917  131.8824  148.5226 H   0  0  0  0  0  0  0  0  0  0  0  0
  146.5503  131.5632  147.7359 H   0  0  0  0  0  0  0  0  0  0  0  0
  151.7196  131.9354  156.9769 H   0  0  0  0  0  0  0  0  0  0  0  0
  146.2489  135.3252  157.1630 H   0  0  0  0  0  0  0  0  0  0  0  0
  149.3480  134.9428  159.4312 H   0  0  0  0  0  0  0  0  0  0  0  0
  148.4024  136.2952  158.8931 H   0  0  0  0  0  0  0  0  0  0  0  0
  145.6287  134.9736  158.6934 H   0  0  0  0  0  0  0  0  0  0  0  0
  145.0897  135.0294  160.3455 H   0  0  0  0  0  0  0  0  0  0  0  0
  145.2320  137.0238  158.9005 H   0  0  0  0  0  0  0  0  0  0  0  0
  146.8080  132.8357  159.5223 H   0  0  0  0  0  0  0  0  0  0  0  0
  148.2530  132.9740  160.4897 H   0  0  0  0  0  0  0  0  0  0  0  0
  145.3831  133.1749  161.5395 H   0  0  0  0  0  0  0  0  0  0  0  0
  146.5300  131.8879  161.8149 H   0  0  0  0  0  0  0  0  0  0  0  0
  145.8241  135.3519  162.5905 H   0  0  0  0  0  0  0  0  0  0  0  0
  147.2487  135.4964  163.5932 H   0  0  0  0  0  0  0  0  0  0  0  0
  148.7461  135.3147  161.6782 H   0  0  0  0  0  0  0  0  0  0  0  0
  147.6429  136.6295  161.4065 H   0  0  0  0  0  0  0  0  0  0  0  0
  146.4173  133.5666  148.8300 H   0  0  0  0  0  0  0  0  0  0  0  0
  1  2  1  0  0  0  0
  1 30  1  0  0  0  0
  1 31  1  0  0  0  0
  1 32  1  0  0  0  0
  2  3  1  0  0  0  0
  2 12  1  0  0  0  0
  3  4  1  0  0  0  0
  3 33  1  0  0  0  0
  3 34  1  0  0  0  0
  4  5  1  0  0  0  0
  4 35  1  0  0  0  0
  4 36  1  0  0  0  0
  5 10  1  0  0  0  0
  5  6  1  0  0  0  0
  5 37  1  0  0  0  0
  6  7  1  0  0  0  0
  6 38  1  0  0  0  0
  6 39  1  0  0  0  0
  7  8  1  0  0  0  0
  7 40  1  0  0  0  0
  7 41  1  0  0  0  0
  8  9  1  0  0  0  0
  8 42  1  0  0  0  0
  8 43  1  0  0  0  0
  9 10  1  0  0  0  0
  9 44  1  0  0  0  0
  9 45  1  0  0  0  0
 10 11  1  0  0  0  0
 10 64  1  0  0  0  0
 11 46  1  0  0  0  0
 11 47  1  0  0  0  0
 11 48  1  0  0  0  0
 12 17  1  0  0  0  0
 12 13  2  0  0  0  0
 13 14  1  0  0  0  0
 14 15  2  0  0  0  0
 14 49  1  0  0  0  0
 15 16  1  0  0  0  0
 16 20  1  0  0  0  0
 16 17  2  0  0  0  0
 17 18  1  0  0  0  0
 18 19  2  0  0  0  0
 19 20  1  0  0  0  0
 19 50  1  0  0  0  0
 20 21  1  0  0  0  0
 21 22  1  0  0  0  0
 21 51  1  0  0  0  0
 21 52  1  0  0  0  0
 22 29  1  0  0  0  0
 22 23  1  0  0  0  0
 22 25  1  0  0  0  0
 23 24  1  0  0  0  0
 23 53  1  0  0  0  0
 23 54  1  0  0  0  0
 24 55  1  0  0  0  0
 25 26  1  0  0  0  0
 25 56  1  0  0  0  0
 25 57  1  0  0  0  0
 26 27  1  0  0  0  0
 26 58  1  0  0  0  0
 26 59  1  0  0  0  0
 27 28  1  0  0  0  0
 28 29  1  0  0  0  0
 28 60  1  0  0  0  0
 28 61  1  0  0  0  0
 29 62  1  0  0  0  0
 29 63  1  0  0  0  0
M  CHG  1  10   1
M  END
> <s_m_source_file>
AV-unprocessed.smi

> <i_m_source_file_index>
90

> <i_lp_mmshare_version>
43012

> <i_f3d_flags>
0

> <s_epik_input>
W0NIM11OMVtDSDJdW0NIMl1bQ0gyXVtDSDJdW0NASF0xW0NIMl1bQ0gyXU4oW0NIM10pYyhuW2NIXW4yKWMoYzIzKW5bY0hdbjNbQ0gyXUM0KFtDSDJdW09IXSlbQ0gyXVtDSDJdT1tDSDJdW0NIMl00

> <s_epik_cmdline>
J2VwaWtfcHl0aG9uJywgJy1waCcsICc3LjAnLCAnLXRuJywgJzgnLCAnLW1hJywgJzIwMCcsICctbWV0YWxfYmluZGluZycsICctaW1hZScsICc8aW5maWxlLm1hZT4nLCAnLW9tYWUnLCAnPG91dGZpbGUubWFlPic=

> <r_lp_tautomer_probability>
1

> <r_epik_Ionization_Penalty>
0.00234895

> <r_epik_Ionization_Penalty_Charging>
0.00106647

> <r_epik_Ionization_Penalty_Neutral>
0.00128248

> <r_epik_State_Penalty>
-0

> <r_epik_Charging_Adjusted_Penalty>
0.00106647

> <i_epik_Tot_Q>
1

> <i_epik_Tot_abs_Q>
1

> <r_epik_Metal_State_Penalty>
-0

> <b_epik_Metal_Only>
0

> <s_lp_Force_Field>
OPLS_2005

> <r_lp_Energy>
45.3808

> <b_lp_Chiralities_Consistent>
1

> <s_lp_Variant>
AV-unprocessed.smi:90-3

> <Gold.Version>
5.8.1

> <Gold.Id.Protein>
6NUR|6NUR_protein|mol2

> <Gold.PLP.Fitness>
50.8471

> <Gold.PLP.PLP>
-43.0009

> <Gold.PLP.part.hbond>
-3.4214

> <Gold.PLP.part.metal>
0.0000

> <Gold.PLP.part.buried>
-2.1921

> <Gold.PLP.part.nonpolar>
-37.0241

> <Gold.PLP.part.repulsive>
0.1480

> <Gold.PLP.ligand.clash>
0.0000

> <Gold.PLP.ligand.torsion>
0.8718

> <Gold.PLP.Chemscore.Hbond>
3.0000

> <Gold.PLP.Chemscore.CHOScore>
0.0000

> <Gold.PLP.Chemscore.Metal>
0.0000

> <Gold.Chemscore.Hbonds>
donor molecule, donor type, donor heavy atom, donor atom, acceptor molecule, acceptor atom, score
      P1  H  6896  6907       L1    15  1.00

> <Gold.PLP.Chemscore.Internal.Correction>
0.5897

> <Gold.Rescore>
     Score         DG    S(hbond)    S(metal)    S(lipo)     H(rot)  DE(clash)    DE(int)     intcor
     14.13     -17.78       1.92        0.00     110.11       2.73       1.91       1.74       ----

> <Gold.Chemscore.Fitness>
14.1342

> <Gold.Chemscore.DG>
-17.7794

> <Gold.Chemscore.ZeroCoef>
-5.4800

> <Gold.Chemscore.Hbond>
1.9214

> <Gold.Chemscore.Metal>
0.0000

> <Gold.Chemscore.Lipo>
110.1088

> <Gold.Chemscore.Internal_Hbond>
0.0000

> <Gold.Chemscore.DEClash>
1.9083

> <Gold.Chemscore.DEInternal>
1.7369

> <Gold.Chemscore.Rot>
2.7347

> <Gold.Chemscore.Internal.Correction>
   9.000000E+99

> <Gold.Chemscore.Hbonds>
donor molecule, donor type, donor heavy atom, donor atom, acceptor molecule, acceptor atom, score
      P1  H  6896  6907       L1    15  0.98

> <Gold.Chemscore.Hbond.Weighted>
-6.4176

> <Gold.Chemscore.Metal.Weighted>
-0.0000

> <Gold.Chemscore.Lipo.Weighted>
-12.8827

> <Gold.Chemscore.Internal_Hbond.Weighted>
0.0000

> <Gold.Chemscore.DEClash.Weighted>
1.9083

> <Gold.Chemscore.DEInternal.Weighted>
1.7369

> <Gold.Chemscore.Rot.Weighted>
7.0009

> <Gold.Chemscore.Internal.Correction.Weighted>
   9.000000E+99

> <Gold.Protein.RotatedTorsions>
[ 6907 6896 6895 6894 ] final -128.79 input  -60.11 | X-H torsion
[ 7974 7965 7964 7962 ] final  -38.29 input  175.53 | X-H torsion
[ 8008 7997 7996 7995 ] final -117.29 input   59.86 | X-H torsion
[ 10167 10162 10161 10158 ] final -168.41 input  -65.29 | X-H torsion
[ 10718 10713 10712 10709 ] final -106.60 input   66.30 | X-H torsion
[ 10763 10752 10751 10750 ] final -153.35 input  -60.55 | X-H torsion
[ 11005 11000 10999 10996 ] final  -32.98 input  -57.11 | X-H torsion

> <Gold.Protein.ActiveResidues>
 VAL166  LYS551  ARG553  GLY616  TRP617  ASP618  TYR619  PRO620  LYS621  CYS622 
 ASP623  PHE694  ASN695  SER759  ASP760  ASP761  ALA762  ILE779  LEU786  VAL792 
 PHE793  MET794  SER795  GLU796  ALA797  LYS798  CYS799  TRP800  GLU811  SER814 

> <Gold.Protein.RotatedAtoms>
  150.9216  133.6873  159.2830 H   0  0  0  0  0  0  0  0  0  0  0  0  # atno 6907 bound_to 6896
  151.4326  135.1010  159.9656 H   0  0  0  0  0  0  0  0  0  0  0  0  # atno 6908 bound_to 6896
  152.4982  133.8643  159.7321 H   0  0  0  0  0  0  0  0  0  0  0  0  # atno 6909 bound_to 6896
  146.0500  140.6494  142.9046 H   0  0  0  0  0  0  0  0  0  0  0  0  # atno 7974 bound_to 7965
  155.0813  140.0394  157.2640 H   0  0  0  0  0  0  0  0  0  0  0  0  # atno 8008 bound_to 7997
  154.6904  140.2652  155.6793 H   0  0  0  0  0  0  0  0  0  0  0  0  # atno 8009 bound_to 7997
  156.2727  140.2760  156.1480 H   0  0  0  0  0  0  0  0  0  0  0  0  # atno 8010 bound_to 7997
  139.5987  144.1057  152.1718 H   0  0  0  0  0  0  0  0  0  0  0  0  # atno 10167 bound_to 10162
  156.0397  130.5621  150.7703 H   0  0  0  0  0  0  0  0  0  0  0  0  # atno 10718 bound_to 10713
  154.7933  135.3215  154.7725 H   0  0  0  0  0  0  0  0  0  0  0  0  # atno 10763 bound_to 10752
  153.8409  135.6871  153.4807 H   0  0  0  0  0  0  0  0  0  0  0  0  # atno 10764 bound_to 10752
  153.1613  135.4659  154.9717 H   0  0  0  0  0  0  0  0  0  0  0  0  # atno 10765 bound_to 10752
  140.9597  133.7172  156.1350 H   0  0  0  0  0  0  0  0  0  0  0  0  # atno 11005 bound_to 11000
  144.7117  140.4064  143.7075 LP  0  0  0  0  0  0  0  0  0  0  0  0  # atno 17320 bound_to 7965
  145.6741  139.1605  143.2738 LP  0  0  0  0  0  0  0  0  0  0  0  0  # atno 17321 bound_to 7965
  140.0648  144.5827  150.7235 LP  0  0  0  0  0  0  0  0  0  0  0  0  # atno 17342 bound_to 10162
  140.7232  143.2609  151.4208 LP  0  0  0  0  0  0  0  0  0  0  0  0  # atno 17343 bound_to 10162
  157.5199  131.0931  151.0092 LP  0  0  0  0  0  0  0  0  0  0  0  0  # atno 17370 bound_to 10713
  157.0425  130.5755  149.5358 LP  0  0  0  0  0  0  0  0  0  0  0  0  # atno 17371 bound_to 10713
  140.7485  134.4071  157.5545 LP  0  0  0  0  0  0  0  0  0  0  0  0  # atno 17394 bound_to 11000
  139.8874  134.8884  156.2531 LP  0  0  0  0  0  0  0  0  0  0  0  0  # atno 17395 bound_to 11000

$$$$
