#       Name:                AV-unprocessed.smi:3270
#       Creating user name   scv26
#       Creation time:       Fri Mar 27 18:42:09 2020


#       File generated by GOLD software.
#

@<TRIPOS>MOLECULE
AV-unprocessed.smi:3270
    44    45     1
SMALL
NO_CHARGES


@<TRIPOS>ATOM
      1 ****        -3.0533  -2.4208  -1.8125 C.3            1 S1                 0.0000
      2 ****        -2.7551  -1.5862  -0.5496 C.3            1 S1                 0.0000
      3 ****        -1.2560  -1.3001  -0.3666 C.2            1 S1                 0.0000
      4 ****        -0.4084  -2.0653  -0.8282 O.2            1 S1                 0.0000
      5 ****        -0.9429  -0.1862   0.3145 N.am           1 S1                 0.0000
      6 ****         0.4115   0.2587   0.6181 C.3            1 S1                 0.0000
      7 ****         1.0571   0.9639  -0.5897 C.3            1 S1                 0.0000
      8 ****         2.4441   1.3814  -0.3907 N.3            1 S1                 0.0000
      9 ****         3.0425   1.8193  -1.6476 C.3            1 S1                 0.0000
     10 ****         4.5035   2.2659  -1.4663 C.3            1 S1                 0.0000
     11 ****         4.5672   3.3007  -0.4907 O.3            1 S1                 0.0000
     12 ****         4.0362   2.9000   0.7680 C.3            1 S1                 0.0000
     13 ****         2.5739   2.4525   0.5951 C.3            1 S1                 0.0000
     14 ****        -3.3048  -2.1917   0.6582 N.pl3          1 S1                 0.0000
     15 ****        -3.9813  -1.5673   1.6868 C.2            1 S1                 0.0000
     16 ****        -4.2711  -2.5160   2.6249 C.2            1 S1                 0.0000
     17 ****        -3.7131  -3.7069   2.0837 C.2            1 S1                 0.0000
     18 ****        -3.1288  -3.5093   0.9137 N.2            1 S1                 0.0000
     19 ****        -2.6818  -1.9229  -2.7087 H              1 S1                 0.0000
     20 ****        -4.1270  -2.5614  -1.9397 H              1 S1                 0.0000
     21 ****        -2.5940  -3.4096  -1.7710 H              1 S1                 0.0000
     22 ****        -3.2540  -0.6242  -0.6794 H              1 S1                 0.0000
     23 ****        -1.6987   0.3880   0.6584 H              1 S1                 0.0000
     24 ****         0.3437   0.9334   1.4706 H              1 S1                 0.0000
     25 ****         1.0210  -0.5885   0.9371 H              1 S1                 0.0000
     26 ****         1.0210   0.2769  -1.4362 H              1 S1                 0.0000
     27 ****         0.4512   1.8243  -0.8778 H              1 S1                 0.0000
     28 ****         3.0032   1.0100  -2.3776 H              1 S1                 0.0000
     29 ****         2.4638   2.6445  -2.0656 H              1 S1                 0.0000
     30 ****         5.1292   1.4266  -1.1593 H              1 S1                 0.0000
     31 ****         4.9062   2.6384  -2.4083 H              1 S1                 0.0000
     32 ****         4.6402   2.0922   1.1843 H              1 S1                 0.0000
     33 ****         4.0970   3.7368   1.4637 H              1 S1                 0.0000
     34 ****         1.9677   3.3084   0.2942 H              1 S1                 0.0000
     35 ****         2.1958   2.1254   1.5629 H              1 S1                 0.0000
     36 ****        -4.1978  -0.5095   1.6662 H              1 S1                 0.0000
     37 ****        -4.7973  -2.3794   3.5580 H              1 S1                 0.0000
     38 ****        -3.7111  -4.7011   2.5053 H              1 S1                 0.0000
     39 ****        -0.6926  -2.8832  -1.3284 LP             1 S1                 0.0000
     40 ****         0.5640  -1.8687  -0.7027 LP             1 S1                 0.0000
     41 ****         2.9277   0.5778  -0.0435 LP             1 S1                 0.0000
     42 ****         4.0456   4.0865  -0.8228 LP             1 S1                 0.0000
     43 ****         5.5237   3.5644  -0.3655 LP             1 S1                 0.0000
     44 ****        -2.6604  -4.1843   0.3437 LP             1 S1                 0.0000
@<TRIPOS>BOND
    1    1    2 1     
    2    1   19 1     
    3    1   20 1     
    4    1   21 1     
    5    2    3 1     
    6    2   14 1     
    7    2   22 1     
    8    3    4 2     
    9    3    5 am    
   10    5    6 1     
   11    5   23 1     
   12    6    7 1     
   13    6   24 1     
   14    6   25 1     
   15    7    8 1     
   16    7   26 1     
   17    7   27 1     
   18    8   13 1     
   19    8    9 1     
   20    9   10 1     
   21    9   28 1     
   22    9   29 1     
   23   10   11 1     
   24   10   30 1     
   25   10   31 1     
   26   11   12 1     
   27   12   13 1     
   28   12   32 1     
   29   12   33 1     
   30   13   34 1     
   31   13   35 1     
   32   14   18 1     
   33   14   15 1     
   34   15   16 2     
   35   15   36 1     
   36   16   17 1     
   37   16   37 1     
   38   17   18 2     
   39   17   38 1     
   40    4   39 1     
   41    4   40 1     
   42    8   41 1     
   43   11   42 1     
   44   11   43 1     
   45   18   44 1     
@<TRIPOS>SUBSTRUCTURE
      1 S1             1
@<TRIPOS>SET
LONE_PAIRS      STATIC     ATOMS    <user>   **** ""
6 39 40 41 42 43 44
DONOR_HYDROGENS      STATIC     ATOMS    <user>   **** ""
1 23
ATOM$BLUE        STATIC     ATOMS    COLORGROUP SYSTEM
6 39 40 41 42 43 44
ATOM$RED        STATIC     ATOMS    COLORGROUP SYSTEM
1 23
