AV-unprocessed.smi:3030|AV-procd|sdf|11537|dock7
  -GOLD-   2272016483D 1   1.00000     0.00000
 Structure written by MMmdl.
 52 53  0  0  0  0  0  0  0  0  1 V2000
  151.0200  145.5035  159.8141 C   0  0  0  0  0  0  0  0  0  0  0  0
  151.8393  144.6253  160.7662 C   0  0  0  0  0  0  0  0  0  0  0  0
  152.2908  143.4022  160.1184 N   0  0  0  0  0  0  0  0  0  0  0  0
  151.9564  143.1159  158.7987 C   0  0  0  0  0  0  0  0  0  0  0  0
  152.2929  141.9756  158.1651 C   0  0  0  0  0  0  0  0  0  0  0  0
  153.0618  140.9441  158.8908 C   0  0  0  0  0  0  0  0  0  0  0  0
  153.3826  139.8887  158.3445 O   0  0  0  0  0  0  0  0  0  0  0  0
  153.4204  141.2509  160.3007 C   0  0  0  0  0  0  0  0  0  0  0  0
  154.1405  140.2626  160.9910 N   0  0  0  0  0  0  0  0  0  0  0  0
  154.7038  140.3212  162.2115 C   0  0  0  0  0  0  0  0  0  0  0  0
  154.7245  141.3064  162.9488 O   0  0  0  0  0  0  0  0  0  0  0  0
  155.2686  139.1486  162.5318 N   0  0  0  0  0  0  0  0  0  0  0  0
  155.9803  138.8536  163.7767 C   0  0  2  0  0  0  0  0  0  0  0  0
  157.1640  139.8249  163.9673 C   0  0  0  0  0  0  0  0  0  0  0  0
  158.3050  139.5711  162.9659 C   0  0  1  0  0  0  0  0  0  0  0  0
  159.4731  140.5425  163.1868 C   0  0  0  0  0  0  0  0  0  0  0  0
  158.7626  138.1073  163.0577 C   0  0  0  0  0  0  0  0  0  0  0  0
  157.5962  137.1313  162.8369 C   0  0  0  0  0  0  0  0  0  0  0  0
  156.4298  137.3651  163.8303 C   0  0  2  0  0  0  0  0  0  0  0  0
  155.2599  136.3515  163.6324 C   0  0  0  0  0  0  0  0  0  0  0  0
  154.8764  136.1710  162.1505 C   0  0  0  0  0  0  0  0  0  0  0  0
  153.9974  136.7381  164.4266 C   0  0  0  0  0  0  0  0  0  0  0  0
  153.0111  142.4369  160.8189 C   0  0  0  0  0  0  0  0  0  0  0  0
  150.6892  146.4135  160.3145 H   0  0  0  0  0  0  0  0  0  0  0  0
  150.1336  144.9778  159.4579 H   0  0  0  0  0  0  0  0  0  0  0  0
  151.6088  145.7972  158.9446 H   0  0  0  0  0  0  0  0  0  0  0  0
  152.7024  145.1817  161.1335 H   0  0  0  0  0  0  0  0  0  0  0  0
  151.2425  144.3742  161.6439 H   0  0  0  0  0  0  0  0  0  0  0  0
  151.3971  143.8954  158.3019 H   0  0  0  0  0  0  0  0  0  0  0  0
  152.0129  141.7976  157.1371 H   0  0  0  0  0  0  0  0  0  0  0  0
  154.2633  139.4003  160.4801 H   0  0  0  0  0  0  0  0  0  0  0  0
  155.2044  138.3958  161.8622 H   0  0  0  0  0  0  0  0  0  0  0  0
  155.3050  139.0298  164.6146 H   0  0  0  0  0  0  0  0  0  0  0  0
  156.8162  140.8556  163.8852 H   0  0  0  0  0  0  0  0  0  0  0  0
  157.5476  139.7182  164.9831 H   0  0  0  0  0  0  0  0  0  0  0  0
  157.9243  139.7442  161.9583 H   0  0  0  0  0  0  0  0  0  0  0  0
  159.9038  140.4258  164.1819 H   0  0  0  0  0  0  0  0  0  0  0  0
  159.1462  141.5776  163.0844 H   0  0  0  0  0  0  0  0  0  0  0  0
  160.2670  140.3750  162.4586 H   0  0  0  0  0  0  0  0  0  0  0  0
  159.5423  137.9144  162.3199 H   0  0  0  0  0  0  0  0  0  0  0  0
  159.2113  137.9207  164.0345 H   0  0  0  0  0  0  0  0  0  0  0  0
  157.2351  137.2193  161.8114 H   0  0  0  0  0  0  0  0  0  0  0  0
  157.9912  136.1215  162.9371 H   0  0  0  0  0  0  0  0  0  0  0  0
  156.8299  137.1956  164.8315 H   0  0  0  0  0  0  0  0  0  0  0  0
  155.5792  135.3768  164.0034 H   0  0  0  0  0  0  0  0  0  0  0  0
  154.6193  137.1247  161.6887 H   0  0  0  0  0  0  0  0  0  0  0  0
  154.0161  135.5098  162.0436 H   0  0  0  0  0  0  0  0  0  0  0  0
  155.6829  135.7221  161.5712 H   0  0  0  0  0  0  0  0  0  0  0  0
  153.6692  137.7492  164.1839 H   0  0  0  0  0  0  0  0  0  0  0  0
  154.1578  136.6832  165.5025 H   0  0  0  0  0  0  0  0  0  0  0  0
  153.1714  136.0617  164.2051 H   0  0  0  0  0  0  0  0  0  0  0  0
  153.2077  142.7302  161.8379 H   0  0  0  0  0  0  0  0  0  0  0  0
  1  2  1  0  0  0  0
  1 24  1  0  0  0  0
  1 25  1  0  0  0  0
  1 26  1  0  0  0  0
  2  3  1  0  0  0  0
  2 27  1  0  0  0  0
  2 28  1  0  0  0  0
  3 23  1  0  0  0  0
  3  4  1  0  0  0  0
  4  5  2  0  0  0  0
  4 29  1  0  0  0  0
  5  6  1  0  0  0  0
  5 30  1  0  0  0  0
  6  7  2  0  0  0  0
  6  8  1  0  0  0  0
  8  9  1  0  0  0  0
  8 23  2  0  0  0  0
  9 10  1  0  0  0  0
  9 31  1  0  0  0  0
 10 11  2  0  0  0  0
 10 12  1  0  0  0  0
 12 13  1  0  0  0  0
 12 32  1  0  0  0  0
 13 19  1  0  0  0  0
 13 14  1  0  0  0  0
 13 33  1  0  0  0  0
 14 15  1  0  0  0  0
 14 34  1  0  0  0  0
 14 35  1  0  0  0  0
 15 16  1  0  0  0  0
 15 17  1  0  0  0  0
 15 36  1  0  0  0  0
 16 37  1  0  0  0  0
 16 38  1  0  0  0  0
 16 39  1  0  0  0  0
 17 18  1  0  0  0  0
 17 40  1  0  0  0  0
 17 41  1  0  0  0  0
 18 19  1  0  0  0  0
 18 42  1  0  0  0  0
 18 43  1  0  0  0  0
 19 20  1  0  0  0  0
 19 44  1  0  0  0  0
 20 21  1  0  0  0  0
 20 22  1  0  0  0  0
 20 45  1  0  0  0  0
 21 46  1  0  0  0  0
 21 47  1  0  0  0  0
 21 48  1  0  0  0  0
 22 49  1  0  0  0  0
 22 50  1  0  0  0  0
 22 51  1  0  0  0  0
 23 52  1  0  0  0  0
M  END
> <s_m_source_file>
AV-unprocessed.smi

> <i_m_source_file_index>
3030

> <i_lp_mmshare_version>
43012

> <i_f3d_flags>
0

> <s_epik_input>
W0NIM11bQ0gyXW4xW2NIXVtjSF1jKD1PKWMoW2NIXTEpW05IXUMoPU8pW05IXVtDQEBIXTJbQ0gyXVtDQEBIXShbQ0gzXSlbQ0gyXVtDSDJdW0NASF0yW0NIXShbQ0gzXSlbQ0gzXQ==

> <s_epik_cmdline>
J2VwaWtfcHl0aG9uJywgJy1waCcsICc3LjAnLCAnLXRuJywgJzgnLCAnLW1hJywgJzIwMCcsICctbWV0YWxfYmluZGluZycsICctaW1hZScsICc8aW5maWxlLm1hZT4nLCAnLW9tYWUnLCAnPG91dGZpbGUubWFlPic=

> <r_lp_tautomer_probability>
1

> <r_epik_Ionization_Penalty>
0.00147933

> <r_epik_Ionization_Penalty_Charging>
0.00145753

> <r_epik_Ionization_Penalty_Neutral>
2.17987e-05

> <r_epik_State_Penalty>
0.00097457

> <r_epik_Charging_Adjusted_Penalty>
0.0024321

> <i_epik_Tot_Q>
0

> <i_epik_Tot_abs_Q>
0

> <r_epik_Metal_State_Penalty>
-0

> <b_epik_Metal_Only>
0

> <s_lp_Force_Field>
OPLS_2005

> <r_lp_Energy>
9.06052

> <b_lp_Chiralities_Consistent>
1

> <s_lp_Variant>
AV-unprocessed.smi:3030-5

> <Gold.Version>
5.8.1

> <Gold.Id.Protein>
6NUR|6NUR_protein|mol2

> <Gold.PLP.Fitness>
43.5298

> <Gold.PLP.PLP>
-40.9841

> <Gold.PLP.part.hbond>
-2.0000

> <Gold.PLP.part.metal>
0.0000

> <Gold.PLP.part.buried>
-4.7277

> <Gold.PLP.part.nonpolar>
-33.0710

> <Gold.PLP.part.repulsive>
0.0206

> <Gold.PLP.ligand.clash>
0.0000

> <Gold.PLP.ligand.torsion>
0.2624

> <Gold.PLP.Chemscore.Hbond>
1.0000

> <Gold.PLP.Chemscore.CHOScore>
0.0000

> <Gold.PLP.Chemscore.Metal>
0.0000

> <Gold.Chemscore.Hbonds>
donor molecule, donor type, donor heavy atom, donor atom, acceptor molecule, acceptor atom, score
      P1  H  7997  8010       L1     7  1.00

> <Gold.PLP.Chemscore.Internal.Correction>
0.0704

> <Gold.Rescore>
     Score         DG    S(hbond)    S(metal)    S(lipo)     H(rot)  DE(clash)    DE(int)     intcor
     14.84     -16.81       0.97        0.00      96.90       1.27       0.38       1.59       ----

> <Gold.Chemscore.Fitness>
14.8420

> <Gold.Chemscore.DG>
-16.8126

> <Gold.Chemscore.ZeroCoef>
-5.4800

> <Gold.Chemscore.Hbond>
0.9710

> <Gold.Chemscore.Metal>
0.0000

> <Gold.Chemscore.Lipo>
96.8968

> <Gold.Chemscore.Internal_Hbond>
0.0000

> <Gold.Chemscore.DEClash>
0.3827

> <Gold.Chemscore.DEInternal>
1.5880

> <Gold.Chemscore.Rot>
1.2685

> <Gold.Chemscore.Internal.Correction>
   9.000000E+99

> <Gold.Chemscore.Hbonds>
donor molecule, donor type, donor heavy atom, donor atom, acceptor molecule, acceptor atom, score
      P1  H  7997  8010       L1     7  0.89

> <Gold.Chemscore.Hbond.Weighted>
-3.2431

> <Gold.Chemscore.Metal.Weighted>
-0.0000

> <Gold.Chemscore.Lipo.Weighted>
-11.3369

> <Gold.Chemscore.Internal_Hbond.Weighted>
0.0000

> <Gold.Chemscore.DEClash.Weighted>
0.3827

> <Gold.Chemscore.DEInternal.Weighted>
1.5880

> <Gold.Chemscore.Rot.Weighted>
3.2474

> <Gold.Chemscore.Internal.Correction.Weighted>
   9.000000E+99

> <Gold.Protein.RotatedTorsions>
[ 6907 6896 6895 6894 ] final  164.09 input  -60.11 | X-H torsion
[ 7974 7965 7964 7962 ] final  104.08 input  175.53 | X-H torsion
[ 8008 7997 7996 7995 ] final   24.62 input   59.86 | X-H torsion
[ 10167 10162 10161 10158 ] final    8.10 input  -65.29 | X-H torsion
[ 10718 10713 10712 10709 ] final  -31.93 input   66.30 | X-H torsion
[ 10763 10752 10751 10750 ] final   67.28 input  -60.55 | X-H torsion
[ 11005 11000 10999 10996 ] final -104.07 input  -57.11 | X-H torsion

> <Gold.Protein.ActiveResidues>
 VAL166  LYS551  ARG553  GLY616  TRP617  ASP618  TYR619  PRO620  LYS621  CYS622 
 ASP623  PHE694  ASN695  SER759  ASP760  ASP761  ALA762  ILE779  LEU786  VAL792 
 PHE793  MET794  SER795  GLU796  ALA797  LYS798  CYS799  TRP800  GLU811  SER814 

> <Gold.Protein.RotatedAtoms>
  151.9151  133.3571  159.3877 H   0  0  0  0  0  0  0  0  0  0  0  0  # atno 6907 bound_to 6896
  150.7049  134.4692  159.5426 H   0  0  0  0  0  0  0  0  0  0  0  0  # atno 6908 bound_to 6896
  152.2305  134.8326  160.0525 H   0  0  0  0  0  0  0  0  0  0  0  0  # atno 6909 bound_to 6896
  145.3374  139.2471  143.3628 H   0  0  0  0  0  0  0  0  0  0  0  0  # atno 7974 bound_to 7965
  154.9990  140.3123  155.4875 H   0  0  0  0  0  0  0  0  0  0  0  0  # atno 8008 bound_to 7997
  156.2928  140.2235  156.5040 H   0  0  0  0  0  0  0  0  0  0  0  0  # atno 8009 bound_to 7997
  154.7635  140.0457  157.0981 H   0  0  0  0  0  0  0  0  0  0  0  0  # atno 8010 bound_to 7997
  140.6334  143.7942  150.7326 H   0  0  0  0  0  0  0  0  0  0  0  0  # atno 10167 bound_to 10162
  156.3812  130.4356  149.7468 H   0  0  0  0  0  0  0  0  0  0  0  0  # atno 10718 bound_to 10713
  153.0179  135.5289  154.6955 H   0  0  0  0  0  0  0  0  0  0  0  0  # atno 10763 bound_to 10752
  154.6078  135.2875  155.0467 H   0  0  0  0  0  0  0  0  0  0  0  0  # atno 10764 bound_to 10752
  154.1500  135.6564  153.5014 H   0  0  0  0  0  0  0  0  0  0  0  0  # atno 10765 bound_to 10752
  141.1117  133.8692  157.1565 H   0  0  0  0  0  0  0  0  0  0  0  0  # atno 11005 bound_to 11000
  146.3021  140.3964  142.8700 LP  0  0  0  0  0  0  0  0  0  0  0  0  # atno 17320 bound_to 7965
  144.8817  140.7408  143.5983 LP  0  0  0  0  0  0  0  0  0  0  0  0  # atno 17321 bound_to 7965
  140.1558  143.4318  152.2100 LP  0  0  0  0  0  0  0  0  0  0  0  0  # atno 17342 bound_to 10162
  139.5546  144.7363  151.4333 LP  0  0  0  0  0  0  0  0  0  0  0  0  # atno 17343 bound_to 10162
  156.4558  130.7928  151.2949 LP  0  0  0  0  0  0  0  0  0  0  0  0  # atno 17370 bound_to 10713
  157.7492  131.0081  150.3216 LP  0  0  0  0  0  0  0  0  0  0  0  0  # atno 17371 bound_to 10713
  140.0015  135.0026  157.0200 LP  0  0  0  0  0  0  0  0  0  0  0  0  # atno 17394 bound_to 11000
  140.4756  134.1341  155.7209 LP  0  0  0  0  0  0  0  0  0  0  0  0  # atno 17395 bound_to 11000

$$$$
