AV-unprocessed.smi:1047|AV-procd|sdf|4589|dock9
  -GOLD-   22720 3 63D 1   1.00000     0.00000
 Structure written by MMmdl.
 57 59  0  0  0  0  0  0  0  0  3 V2000
  152.1775  144.7619  158.3686 C   0  0  0  0  0  0  0  0  0  0  0  0
  151.4655  143.9488  159.4589 C   0  0  0  0  0  0  0  0  0  0  0  0
  151.8476  142.5393  159.5261 N   0  0  0  0  0  0  0  0  0  0  0  0
  153.2504  142.3978  159.9013 C   0  0  0  0  0  0  0  0  0  0  0  0
  153.6798  140.9231  159.9756 C   0  0  0  0  0  0  0  0  0  0  0  0
  153.4159  140.2909  158.7275 O   0  0  0  0  0  0  0  0  0  0  0  0
  152.0425  140.3558  158.3520 C   0  0  2  0  0  0  0  0  0  0  0  0
  151.8694  139.6193  157.0170 C   0  0  0  0  0  0  0  0  0  0  0  0
  150.4472  139.5989  156.6317 N   0  3  0  0  0  0  0  0  0  0  0  0
  150.1461  140.1497  155.2963 C   0  0  0  0  0  0  0  0  0  0  0  0
  149.1152  139.2696  154.5581 C   0  0  2  0  0  0  0  0  0  0  0  0
  149.7595  138.6298  153.4774 O   0  0  0  0  0  0  0  0  0  0  0  0
  147.8822  140.0187  153.9930 C   0  0  0  0  0  0  0  0  0  0  0  0
  146.9791  139.1868  153.1840 N   0  0  0  0  0  0  0  0  0  0  0  0
  146.6557  139.2798  151.8646 C   0  0  0  0  0  0  0  0  0  0  0  0
  145.7598  138.2915  151.5911 N   0  3  0  0  0  0  0  0  0  0  0  0
  145.5192  137.5469  152.7477 C   0  0  0  0  0  0  0  0  0  0  0  0
  144.6858  136.4583  152.9724 C   0  0  0  0  0  0  0  0  0  0  0  0
  144.6638  135.9227  154.2797 C   0  0  0  0  0  0  0  0  0  0  0  0
  143.7557  134.7378  154.5621 C   0  0  0  0  0  0  0  0  0  0  0  0
  145.4700  136.4746  155.3091 C   0  0  0  0  0  0  0  0  0  0  0  0
  145.4393  135.8886  156.7104 C   0  0  0  0  0  0  0  0  0  0  0  0
  146.3154  137.5793  155.0592 C   0  0  0  0  0  0  0  0  0  0  0  0
  146.3138  138.1034  153.7691 C   0  0  0  0  0  0  0  0  0  0  0  0
  151.6195  141.8354  158.2663 C   0  0  0  0  0  0  0  0  0  0  0  0
  151.7624  145.7682  158.3114 H   0  0  0  0  0  0  0  0  0  0  0  0
  152.0555  144.2990  157.3891 H   0  0  0  0  0  0  0  0  0  0  0  0
  153.2443  144.8644  158.5653 H   0  0  0  0  0  0  0  0  0  0  0  0
  151.6231  144.4235  160.4284 H   0  0  0  0  0  0  0  0  0  0  0  0
  150.3938  144.0133  159.2654 H   0  0  0  0  0  0  0  0  0  0  0  0
  153.8808  142.9201  159.1798 H   0  0  0  0  0  0  0  0  0  0  0  0
  153.4254  142.8726  160.8674 H   0  0  0  0  0  0  0  0  0  0  0  0
  154.7447  140.8479  160.1955 H   0  0  0  0  0  0  0  0  0  0  0  0
  153.1493  140.4036  160.7753 H   0  0  0  0  0  0  0  0  0  0  0  0
  151.4411  139.8550  159.1135 H   0  0  0  0  0  0  0  0  0  0  0  0
  152.4404  140.1316  156.2415 H   0  0  0  0  0  0  0  0  0  0  0  0
  152.2494  138.5990  157.0821 H   0  0  0  0  0  0  0  0  0  0  0  0
  150.1167  138.6449  156.6728 H   0  0  0  0  0  0  0  0  0  0  0  0
  149.7842  141.1756  155.3770 H   0  0  0  0  0  0  0  0  0  0  0  0
  151.0833  140.1836  154.7385 H   0  0  0  0  0  0  0  0  0  0  0  0
  148.7860  138.4771  155.2304 H   0  0  0  0  0  0  0  0  0  0  0  0
  149.4153  138.9746  152.6673 H   0  0  0  0  0  0  0  0  0  0  0  0
  147.2832  140.4154  154.8146 H   0  0  0  0  0  0  0  0  0  0  0  0
  148.1887  140.8769  153.3932 H   0  0  0  0  0  0  0  0  0  0  0  0
  147.0315  140.0121  151.1640 H   0  0  0  0  0  0  0  0  0  0  0  0
  144.0786  136.0393  152.1831 H   0  0  0  0  0  0  0  0  0  0  0  0
  143.0223  134.9917  155.3277 H   0  0  0  0  0  0  0  0  0  0  0  0
  144.3369  133.8830  154.9084 H   0  0  0  0  0  0  0  0  0  0  0  0
  143.2113  134.4298  153.6688 H   0  0  0  0  0  0  0  0  0  0  0  0
  146.1100  136.4240  157.3830 H   0  0  0  0  0  0  0  0  0  0  0  0
  145.7479  134.8432  156.6957 H   0  0  0  0  0  0  0  0  0  0  0  0
  144.4337  135.9471  157.1272 H   0  0  0  0  0  0  0  0  0  0  0  0
  146.9307  137.9975  155.8423 H   0  0  0  0  0  0  0  0  0  0  0  0
  150.5650  141.8816  157.9961 H   0  0  0  0  0  0  0  0  0  0  0  0
  152.1705  142.3272  157.4629 H   0  0  0  0  0  0  0  0  0  0  0  0
  149.9342  140.1446  157.3090 H   0  0  0  0  0  0  0  0  0  0  0  0
  145.3505  138.1339  150.6785 H   0  0  0  0  0  0  0  0  0  0  0  0
  1  2  1  0  0  0  0
  1 26  1  0  0  0  0
  1 27  1  0  0  0  0
  1 28  1  0  0  0  0
  2  3  1  0  0  0  0
  2 29  1  0  0  0  0
  2 30  1  0  0  0  0
  3 25  1  0  0  0  0
  3  4  1  0  0  0  0
  4  5  1  0  0  0  0
  4 31  1  0  0  0  0
  4 32  1  0  0  0  0
  5  6  1  0  0  0  0
  5 33  1  0  0  0  0
  5 34  1  0  0  0  0
  6  7  1  0  0  0  0
  7  8  1  0  0  0  0
  7 25  1  0  0  0  0
  7 35  1  0  0  0  0
  8  9  1  0  0  0  0
  8 36  1  0  0  0  0
  8 37  1  0  0  0  0
  9 10  1  0  0  0  0
  9 38  1  0  0  0  0
  9 56  1  0  0  0  0
 10 11  1  0  0  0  0
 10 39  1  0  0  0  0
 10 40  1  0  0  0  0
 11 12  1  0  0  0  0
 11 13  1  0  0  0  0
 11 41  1  0  0  0  0
 12 42  1  0  0  0  0
 13 14  1  0  0  0  0
 13 43  1  0  0  0  0
 13 44  1  0  0  0  0
 14 24  1  0  0  0  0
 14 15  1  0  0  0  0
 15 16  2  0  0  0  0
 15 45  1  0  0  0  0
 16 17  1  0  0  0  0
 16 57  1  0  0  0  0
 17 24  2  0  0  0  0
 17 18  1  0  0  0  0
 18 19  2  0  0  0  0
 18 46  1  0  0  0  0
 19 20  1  0  0  0  0
 19 21  1  0  0  0  0
 20 47  1  0  0  0  0
 20 48  1  0  0  0  0
 20 49  1  0  0  0  0
 21 22  1  0  0  0  0
 21 23  2  0  0  0  0
 22 50  1  0  0  0  0
 22 51  1  0  0  0  0
 22 52  1  0  0  0  0
 23 24  1  0  0  0  0
 23 53  1  0  0  0  0
 25 54  1  0  0  0  0
 25 55  1  0  0  0  0
M  CHG  1   9   1
M  CHG  1  16   1
M  END
> <s_m_source_file>
AV-unprocessed.smi

> <i_m_source_file_index>
1047

> <i_lp_mmshare_version>
43012

> <i_f3d_flags>
0

> <s_epik_input>
W0NIM11bQ0gyXU4xW0NIMl1bQ0gyXU9bQ0BIXShbQ0gyXTEpW0NIMl1bTkhdW0NIMl1bQ0BIXShbT0hdKVtDSDJdbihbY0hdbjIpYyhjMjMpW2NIXWMoW0NIM10pYyhbY0hdMylbQ0gzXQ==

> <s_epik_cmdline>
J2VwaWtfcHl0aG9uJywgJy1waCcsICc3LjAnLCAnLXRuJywgJzgnLCAnLW1hJywgJzIwMCcsICctbWV0YWxfYmluZGluZycsICctaW1hZScsICc8aW5maWxlLm1hZT4nLCAnLW9tYWUnLCAnPG91dGZpbGUubWFlPic=

> <r_epik_Ionization_Penalty>
1.75732

> <r_epik_Ionization_Penalty_Charging>
1.18089

> <r_epik_Ionization_Penalty_Neutral>
0.576429

> <r_epik_State_Penalty>
1.69377

> <r_epik_Charging_Adjusted_Penalty>
2.87466

> <i_epik_Tot_Q>
2

> <i_epik_Tot_abs_Q>
2

> <r_epik_Metal_State_Penalty>
5.70174

> <b_epik_Metal_Only>
0

> <s_lp_Force_Field>
OPLS_2005

> <r_lp_Energy>
41.9229

> <b_lp_Chiralities_Consistent>
1

> <s_lp_Variant>
AV-unprocessed.smi:1047-30

> <Gold.Version>
5.8.1

> <Gold.Id.Protein>
6NUR|6NUR_protein|mol2

> <Gold.PLP.Fitness>
50.9350

> <Gold.PLP.PLP>
-43.5016

> <Gold.PLP.part.hbond>
-4.7930

> <Gold.PLP.part.metal>
0.0000

> <Gold.PLP.part.buried>
-2.9975

> <Gold.PLP.part.nonpolar>
-35.8221

> <Gold.PLP.part.repulsive>
0.0963

> <Gold.PLP.ligand.clash>
0.0000

> <Gold.PLP.ligand.torsion>
1.4270

> <Gold.PLP.Chemscore.Hbond>
2.6960

> <Gold.PLP.Chemscore.CHOScore>
0.6842

> <Gold.PLP.Chemscore.Metal>
0.0000

> <Gold.Chemscore.Hbonds>
donor molecule, donor type, donor heavy atom, donor atom, acceptor molecule, acceptor atom, score
      L1  H    12    42       P1  7957  1.00
      L1  H    16    57       P1 10171  0.75
      P1  H  7997  8009       L1     6  0.80
      L1  C    15    45       P1  7957  0.64

> <Gold.PLP.Chemscore.Internal.Correction>
0.1467

> <Gold.Rescore>
     Score         DG    S(hbond)    S(metal)    S(lipo)     H(rot)  DE(clash)    DE(int)     intcor
     18.11     -19.67       2.84        0.00      99.09       2.69       0.13       1.43       ----

> <Gold.Chemscore.Fitness>
18.1085

> <Gold.Chemscore.DG>
-19.6663

> <Gold.Chemscore.ZeroCoef>
-5.4800

> <Gold.Chemscore.Hbond>
2.8393

> <Gold.Chemscore.Metal>
0.0000

> <Gold.Chemscore.Lipo>
99.0910

> <Gold.Chemscore.Internal_Hbond>
0.0000

> <Gold.Chemscore.DEClash>
0.1316

> <Gold.Chemscore.DEInternal>
1.4261

> <Gold.Chemscore.Rot>
2.6917

> <Gold.Chemscore.Internal.Correction>
   9.000000E+99

> <Gold.Chemscore.Hbonds>
donor molecule, donor type, donor heavy atom, donor atom, acceptor molecule, acceptor atom, score
      L1  H    12    42       P1  7957  0.90
      L1  H    16    57       P1 10171  0.76
      P1  H  7997  8009       L1     6  0.72

> <Gold.Chemscore.Hbond.Weighted>
-9.4833

> <Gold.Chemscore.Metal.Weighted>
-0.0000

> <Gold.Chemscore.Lipo.Weighted>
-11.5936

> <Gold.Chemscore.Internal_Hbond.Weighted>
0.0000

> <Gold.Chemscore.DEClash.Weighted>
0.1316

> <Gold.Chemscore.DEInternal.Weighted>
1.4261

> <Gold.Chemscore.Rot.Weighted>
6.8907

> <Gold.Chemscore.Internal.Correction.Weighted>
   9.000000E+99

> <Gold.Protein.RotatedTorsions>
[ 6907 6896 6895 6894 ] final   -7.88 input  -60.11 | X-H torsion
[ 7974 7965 7964 7962 ] final  -59.31 input  175.53 | X-H torsion
[ 8008 7997 7996 7995 ] final  139.70 input   59.86 | X-H torsion
[ 10167 10162 10161 10158 ] final  -22.90 input  -65.29 | X-H torsion
[ 10718 10713 10712 10709 ] final  139.39 input   66.30 | X-H torsion
[ 10763 10752 10751 10750 ] final  -97.47 input  -60.55 | X-H torsion
[ 11005 11000 10999 10996 ] final  105.60 input  -57.11 | X-H torsion

> <Gold.Protein.ActiveResidues>
 VAL166  LYS551  ARG553  GLY616  TRP617  ASP618  TYR619  PRO620  LYS621  CYS622 
 ASP623  PHE694  ASN695  SER759  ASP760  ASP761  ALA762  ILE779  LEU786  VAL792 
 PHE793  MET794  SER795  GLU796  ALA797  LYS798  CYS799  TRP800  GLU811  SER814 

> <Gold.Protein.RotatedAtoms>
  151.4425  135.1021  159.9673 H   0  0  0  0  0  0  0  0  0  0  0  0  # atno 6907 bound_to 6896
  152.4917  133.8516  159.7215 H   0  0  0  0  0  0  0  0  0  0  0  0  # atno 6908 bound_to 6896
  150.9078  133.6976  159.2890 H   0  0  0  0  0  0  0  0  0  0  0  0  # atno 6909 bound_to 6896
  145.8290  140.8492  143.0093 H   0  0  0  0  0  0  0  0  0  0  0  0  # atno 7974 bound_to 7965
  156.2987  140.2361  156.4280 H   0  0  0  0  0  0  0  0  0  0  0  0  # atno 8008 bound_to 7997
  154.8296  140.0433  157.1488 H   0  0  0  0  0  0  0  0  0  0  0  0  # atno 8009 bound_to 7997
  154.9223  140.3005  155.5213 H   0  0  0  0  0  0  0  0  0  0  0  0  # atno 8010 bound_to 7997
  140.7287  143.4493  151.0541 H   0  0  0  0  0  0  0  0  0  0  0  0  # atno 10167 bound_to 10162
  157.4149  131.1032  151.0415 H   0  0  0  0  0  0  0  0  0  0  0  0  # atno 10718 bound_to 10713
  154.7331  135.5045  153.8997 H   0  0  0  0  0  0  0  0  0  0  0  0  # atno 10763 bound_to 10752
  153.0969  135.6674  153.9755 H   0  0  0  0  0  0  0  0  0  0  0  0  # atno 10764 bound_to 10752
  153.9551  135.3053  155.3416 H   0  0  0  0  0  0  0  0  0  0  0  0  # atno 10765 bound_to 10752
  139.8804  134.9341  156.5538 H   0  0  0  0  0  0  0  0  0  0  0  0  # atno 11005 bound_to 11000
  144.6741  140.0644  143.7475 LP  0  0  0  0  0  0  0  0  0  0  0  0  # atno 17320 bound_to 7965
  145.9592  139.2788  143.1166 LP  0  0  0  0  0  0  0  0  0  0  0  0  # atno 17321 bound_to 7965
  139.8167  143.7876  152.3174 LP  0  0  0  0  0  0  0  0  0  0  0  0  # atno 17342 bound_to 10162
  139.7944  144.7398  150.9910 LP  0  0  0  0  0  0  0  0  0  0  0  0  # atno 17343 bound_to 10162
  157.1366  130.6125  149.5544 LP  0  0  0  0  0  0  0  0  0  0  0  0  # atno 17370 bound_to 10713
  155.9862  130.4895  150.7067 LP  0  0  0  0  0  0  0  0  0  0  0  0  # atno 17371 bound_to 10713
  140.8220  133.8346  155.8904 LP  0  0  0  0  0  0  0  0  0  0  0  0  # atno 17394 bound_to 11000
  140.9409  134.1902  157.4798 LP  0  0  0  0  0  0  0  0  0  0  0  0  # atno 17395 bound_to 11000

$$$$
