AV-unprocessed.smi:1839|AV-procd|sdf|7486|dock9
  -GOLD-   22720 9183D 1   1.00000     0.00000
 Structure written by MMmdl.
 47 48  0  0  0  0  0  0  0  0  2 V2000
  154.9734  140.7904  160.7560 C   0  0  0  0  0  0  0  0  0  0  0  0
  153.7053  141.4342  160.4132 N   0  0  0  0  0  0  0  0  0  0  0  0
  153.0560  142.1173  161.5386 C   0  0  0  0  0  0  0  0  0  0  0  0
  153.0742  141.1243  159.2539 C   0  0  0  0  0  0  0  0  0  0  0  0
  153.3795  140.1306  158.5904 O   0  0  0  0  0  0  0  0  0  0  0  0
  152.0643  141.9482  158.8835 N   0  0  0  0  0  0  0  0  0  0  0  0
  152.1396  143.4136  158.9820 C   0  0  0  0  0  0  0  0  0  0  0  0
  150.7974  143.9676  159.4928 C   0  0  0  0  0  0  0  0  0  0  0  0
  149.6340  143.5043  158.5980 C   0  0  0  0  0  0  0  0  0  0  0  0
  149.6546  141.9723  158.4036 C   0  0  1  0  0  0  0  0  0  0  0  0
  148.5702  141.5044  157.4253 C   0  0  0  0  0  0  0  0  0  0  0  0
  147.7012  140.7116  157.7882 O   0  0  0  0  0  0  0  0  0  0  0  0
  148.6120  142.0348  156.1938 N   0  0  0  0  0  0  0  0  0  0  0  0
  147.6281  141.8019  155.1407 C   0  0  0  0  0  0  0  0  0  0  0  0
  148.1649  140.9416  153.9760 C   0  0  0  0  0  0  0  0  0  0  0  0
  147.2213  139.8321  153.5409 C   0  0  0  0  0  0  0  0  0  0  0  0
  146.3005  139.2390  154.4314 C   0  0  0  0  0  0  0  0  0  0  0  0
  145.4697  138.1966  153.9695 C   0  0  0  0  0  0  0  0  0  0  0  0
  145.5785  137.7674  152.6303 C   0  0  0  0  0  0  0  0  0  0  0  0
  146.5156  138.3941  151.7839 C   0  0  0  0  0  0  0  0  0  0  0  0
  147.2911  139.3911  152.2633 N   0  3  0  0  0  0  0  0  0  0  0  0
  151.0477  141.5170  157.9184 C   0  0  0  0  0  0  0  0  0  0  0  0
  155.6301  140.7136  159.8878 H   0  0  0  0  0  0  0  0  0  0  0  0
  154.7988  139.7859  161.1430 H   0  0  0  0  0  0  0  0  0  0  0  0
  155.5115  141.3588  161.5156 H   0  0  0  0  0  0  0  0  0  0  0  0
  151.9684  142.0425  161.4981 H   0  0  0  0  0  0  0  0  0  0  0  0
  153.3286  143.1725  161.5563 H   0  0  0  0  0  0  0  0  0  0  0  0
  153.3619  141.6824  162.4912 H   0  0  0  0  0  0  0  0  0  0  0  0
  152.9533  143.7512  159.6242 H   0  0  0  0  0  0  0  0  0  0  0  0
  152.3567  143.8234  157.9942 H   0  0  0  0  0  0  0  0  0  0  0  0
  150.6269  143.6327  160.5163 H   0  0  0  0  0  0  0  0  0  0  0  0
  150.8304  145.0568  159.5263 H   0  0  0  0  0  0  0  0  0  0  0  0
  148.6849  143.8199  159.0329 H   0  0  0  0  0  0  0  0  0  0  0  0
  149.7132  144.0055  157.6319 H   0  0  0  0  0  0  0  0  0  0  0  0
  149.4651  141.5082  159.3736 H   0  0  0  0  0  0  0  0  0  0  0  0
  149.3663  142.6715  155.9793 H   0  0  0  0  0  0  0  0  0  0  0  0
  146.7838  141.2895  155.6025 H   0  0  0  0  0  0  0  0  0  0  0  0
  147.2436  142.7521  154.7671 H   0  0  0  0  0  0  0  0  0  0  0  0
  148.3803  141.5804  153.1189 H   0  0  0  0  0  0  0  0  0  0  0  0
  149.1188  140.4948  154.2602 H   0  0  0  0  0  0  0  0  0  0  0  0
  146.2343  139.5739  155.4566 H   0  0  0  0  0  0  0  0  0  0  0  0
  144.7598  137.7290  154.6362 H   0  0  0  0  0  0  0  0  0  0  0  0
  144.9537  136.9686  152.2582 H   0  0  0  0  0  0  0  0  0  0  0  0
  146.6702  138.1286  150.7479 H   0  0  0  0  0  0  0  0  0  0  0  0
  151.2789  141.9341  156.9365 H   0  0  0  0  0  0  0  0  0  0  0  0
  151.0477  140.4319  157.8041 H   0  0  0  0  0  0  0  0  0  0  0  0
  147.9658  139.8282  151.6344 H   0  0  0  0  0  0  0  0  0  0  0  0
  1  2  1  0  0  0  0
  1 23  1  0  0  0  0
  1 24  1  0  0  0  0
  1 25  1  0  0  0  0
  2  3  1  0  0  0  0
  2  4  1  0  0  0  0
  3 26  1  0  0  0  0
  3 27  1  0  0  0  0
  3 28  1  0  0  0  0
  4  5  2  0  0  0  0
  4  6  1  0  0  0  0
  6 22  1  0  0  0  0
  6  7  1  0  0  0  0
  7  8  1  0  0  0  0
  7 29  1  0  0  0  0
  7 30  1  0  0  0  0
  8  9  1  0  0  0  0
  8 31  1  0  0  0  0
  8 32  1  0  0  0  0
  9 10  1  0  0  0  0
  9 33  1  0  0  0  0
  9 34  1  0  0  0  0
 10 11  1  0  0  0  0
 10 22  1  0  0  0  0
 10 35  1  0  0  0  0
 11 12  2  0  0  0  0
 11 13  1  0  0  0  0
 13 14  1  0  0  0  0
 13 36  1  0  0  0  0
 14 15  1  0  0  0  0
 14 37  1  0  0  0  0
 14 38  1  0  0  0  0
 15 16  1  0  0  0  0
 15 39  1  0  0  0  0
 15 40  1  0  0  0  0
 16 21  1  0  0  0  0
 16 17  2  0  0  0  0
 17 18  1  0  0  0  0
 17 41  1  0  0  0  0
 18 19  2  0  0  0  0
 18 42  1  0  0  0  0
 19 20  1  0  0  0  0
 19 43  1  0  0  0  0
 20 21  2  0  0  0  0
 20 44  1  0  0  0  0
 21 47  1  0  0  0  0
 22 45  1  0  0  0  0
 22 46  1  0  0  0  0
M  CHG  1  21   1
M  END
> <s_m_source_file>
AV-unprocessed.smi

> <i_m_source_file_index>
1839

> <i_lp_mmshare_version>
43012

> <i_f3d_flags>
0

> <s_epik_input>
W0NIM11OKFtDSDNdKUMoPU8pTjFbQ0gyXVtDSDJdW0NIMl1bQ0BIXShbQ0gyXTEpQyg9TylbTkhdW0NIMl1bQ0gyXWMyW2NIXVtjSF1bY0hdW2NIXW4y

> <s_epik_cmdline>
J2VwaWtfcHl0aG9uJywgJy1waCcsICc3LjAnLCAnLXRuJywgJzgnLCAnLW1hJywgJzIwMCcsICctbWV0YWxfYmluZGluZycsICctaW1hZScsICc8aW5maWxlLm1hZT4nLCAnLW9tYWUnLCAnPG91dGZpbGUubWFlPic=

> <r_epik_Ionization_Penalty>
1.8476

> <r_epik_Ionization_Penalty_Charging>
1.84754

> <r_epik_Ionization_Penalty_Neutral>
5.83857e-05

> <r_epik_State_Penalty>
1.96477

> <r_epik_Charging_Adjusted_Penalty>
3.81231

> <i_epik_Tot_Q>
1

> <i_epik_Tot_abs_Q>
1

> <r_epik_Metal_State_Penalty>
1.99061

> <b_epik_Metal_Only>
0

> <s_lp_Force_Field>
OPLS_2005

> <r_lp_Energy>
54.126

> <b_lp_Chiralities_Consistent>
1

> <s_lp_Variant>
AV-unprocessed.smi:1839-3

> <Gold.Version>
5.8.1

> <Gold.Id.Protein>
6NUR|6NUR_protein|mol2

> <Gold.PLP.Fitness>
47.1934

> <Gold.PLP.PLP>
-41.9811

> <Gold.PLP.part.hbond>
-3.0952

> <Gold.PLP.part.metal>
0.0000

> <Gold.PLP.part.buried>
-2.5838

> <Gold.PLP.part.nonpolar>
-36.9883

> <Gold.PLP.part.repulsive>
0.1305

> <Gold.PLP.ligand.clash>
0.0000

> <Gold.PLP.ligand.torsion>
1.4122

> <Gold.PLP.Chemscore.Hbond>
2.2426

> <Gold.PLP.Chemscore.CHOScore>
0.0000

> <Gold.PLP.Chemscore.Metal>
0.0000

> <Gold.Chemscore.Hbonds>
donor molecule, donor type, donor heavy atom, donor atom, acceptor molecule, acceptor atom, score
      L1  H    13    36       P1  8028  0.27
      L1  H    21    47       P1  7957  0.99
      P1  H  7997  8009       L1     5  0.98

> <Gold.PLP.Chemscore.Internal.Correction>
1.3090

> <Gold.Rescore>
     Score         DG    S(hbond)    S(metal)    S(lipo)     H(rot)  DE(clash)    DE(int)     intcor
     19.09     -21.54       2.57        0.00      98.93       1.60       0.11       2.34       ----

> <Gold.Chemscore.Fitness>
19.0920

> <Gold.Chemscore.DG>
-21.5379

> <Gold.Chemscore.ZeroCoef>
-5.4800

> <Gold.Chemscore.Hbond>
2.5724

> <Gold.Chemscore.Metal>
0.0000

> <Gold.Chemscore.Lipo>
98.9304

> <Gold.Chemscore.Internal_Hbond>
0.0000

> <Gold.Chemscore.DEClash>
0.1082

> <Gold.Chemscore.DEInternal>
2.3377

> <Gold.Chemscore.Rot>
1.6049

> <Gold.Chemscore.Internal.Correction>
   9.000000E+99

> <Gold.Chemscore.Hbonds>
donor molecule, donor type, donor heavy atom, donor atom, acceptor molecule, acceptor atom, score
      L1  H    13    36       P1  8028  0.27
      L1  H    21    47       P1  7957  0.94
      P1  H  7997  8009       L1     5  0.92

> <Gold.Chemscore.Hbond.Weighted>
-8.5917

> <Gold.Chemscore.Metal.Weighted>
-0.0000

> <Gold.Chemscore.Lipo.Weighted>
-11.5749

> <Gold.Chemscore.Internal_Hbond.Weighted>
0.0000

> <Gold.Chemscore.DEClash.Weighted>
0.1082

> <Gold.Chemscore.DEInternal.Weighted>
2.3377

> <Gold.Chemscore.Rot.Weighted>
4.1087

> <Gold.Chemscore.Internal.Correction.Weighted>
   9.000000E+99

> <Gold.Protein.RotatedTorsions>
[ 6907 6896 6895 6894 ] final  115.21 input  -60.11 | X-H torsion
[ 7974 7965 7964 7962 ] final -121.54 input  175.53 | X-H torsion
[ 8008 7997 7996 7995 ] final  151.61 input   59.86 | X-H torsion
[ 10167 10162 10161 10158 ] final -175.84 input  -65.29 | X-H torsion
[ 10718 10713 10712 10709 ] final  125.58 input   66.30 | X-H torsion
[ 10763 10752 10751 10750 ] final  -46.28 input  -60.55 | X-H torsion
[ 11005 11000 10999 10996 ] final  -49.98 input  -57.11 | X-H torsion

> <Gold.Protein.ActiveResidues>
 VAL166  LYS551  ARG553  GLY616  TRP617  ASP618  TYR619  PRO620  LYS621  CYS622 
 ASP623  PHE694  ASN695  SER759  ASP760  ASP761  ALA762  ILE779  LEU786  VAL792 
 PHE793  MET794  SER795  GLU796  ALA797  LYS798  CYS799  TRP800  GLU811  SER814 

> <Gold.Protein.RotatedAtoms>
  152.4755  133.8129  159.7012 H   0  0  0  0  0  0  0  0  0  0  0  0  # atno 6907 bound_to 6896
  150.8770  133.7415  159.2950 H   0  0  0  0  0  0  0  0  0  0  0  0  # atno 6908 bound_to 6896
  151.4932  135.1062  159.9861 H   0  0  0  0  0  0  0  0  0  0  0  0  # atno 6909 bound_to 6896
  145.0392  140.8131  143.4276 H   0  0  0  0  0  0  0  0  0  0  0  0  # atno 7974 bound_to 7965
  156.2666  140.2043  156.6203 H   0  0  0  0  0  0  0  0  0  0  0  0  # atno 8008 bound_to 7997
  154.6762  140.0545  157.0242 H   0  0  0  0  0  0  0  0  0  0  0  0  # atno 8009 bound_to 7997
  155.1066  140.3211  155.4535 H   0  0  0  0  0  0  0  0  0  0  0  0  # atno 8010 bound_to 7997
  139.5560  144.1988  152.1160 H   0  0  0  0  0  0  0  0  0  0  0  0  # atno 10167 bound_to 10162
  157.5491  131.1094  150.8732 H   0  0  0  0  0  0  0  0  0  0  0  0  # atno 10718 bound_to 10713
  154.0425  135.6642  153.4791 H   0  0  0  0  0  0  0  0  0  0  0  0  # atno 10763 bound_to 10752
  153.0496  135.5093  154.7829 H   0  0  0  0  0  0  0  0  0  0  0  0  # atno 10764 bound_to 10752
  154.6809  135.3045  154.9580 H   0  0  0  0  0  0  0  0  0  0  0  0  # atno 10765 bound_to 10752
  141.0790  133.6658  156.3664 H   0  0  0  0  0  0  0  0  0  0  0  0  # atno 11005 bound_to 11000
  145.1669  139.2426  143.5362 LP  0  0  0  0  0  0  0  0  0  0  0  0  # atno 17320 bound_to 7965
  146.3507  140.1411  142.8594 LP  0  0  0  0  0  0  0  0  0  0  0  0  # atno 17321 bound_to 7965
  140.1492  144.5130  150.6697 LP  0  0  0  0  0  0  0  0  0  0  0  0  # atno 17342 bound_to 10162
  140.6833  143.2337  151.5327 LP  0  0  0  0  0  0  0  0  0  0  0  0  # atno 17343 bound_to 10162
  156.9262  130.5333  149.5279 LP  0  0  0  0  0  0  0  0  0  0  0  0  # atno 17370 bound_to 10713
  156.0561  130.5622  150.9094 LP  0  0  0  0  0  0  0  0  0  0  0  0  # atno 17371 bound_to 10713
  140.5510  134.6027  157.5408 LP  0  0  0  0  0  0  0  0  0  0  0  0  # atno 17394 bound_to 11000
  139.9603  134.7464  156.0252 LP  0  0  0  0  0  0  0  0  0  0  0  0  # atno 17395 bound_to 11000

$$$$
