AV-unprocessed.smi:3046|AV-procd|sdf|11616|dock5
  -GOLD-   2272017 03D 1   1.00000     0.00000
 Structure written by MMmdl.
 38 38  0  0  0  0  0  0  0  0  2 V2000
  150.7029  137.2647  155.9640 C   0  0  0  0  0  0  0  0  0  0  0  0
  150.5704  137.5683  154.6642 C   0  0  0  0  0  0  0  0  0  0  0  0
  150.3040  138.9600  154.1330 C   0  0  0  0  0  0  0  0  0  0  0  0
  149.0908  138.9765  153.3294 N   0  0  0  0  0  0  0  0  0  0  0  0
  147.8571  138.7931  153.8207 C   0  0  0  0  0  0  0  0  0  0  0  0
  147.6295  138.5838  155.0128 O   0  0  0  0  0  0  0  0  0  0  0  0
  146.7022  138.8372  152.8114 C   0  0  1  0  0  0  0  0  0  0  0  0
  146.6997  140.1872  152.0784 C   0  0  0  0  0  0  0  0  0  0  0  0
  146.7912  137.7334  151.8262 N   0  3  0  0  0  0  0  0  0  0  0  0
  145.8888  136.5816  152.0621 C   0  0  1  0  0  0  0  0  0  0  0  0
  144.5213  137.0888  152.5474 C   0  0  0  0  0  0  0  0  0  0  0  0
  145.7799  135.7179  150.7874 C   0  0  0  0  0  0  0  0  0  0  0  0
  145.0013  134.5103  150.9916 N   0  0  0  0  0  0  0  0  0  0  0  0
  144.8704  133.4183  150.1594 C   0  0  0  0  0  0  0  0  0  0  0  0
  144.0420  132.5301  150.7838 C   0  0  0  0  0  0  0  0  0  0  0  0
  143.7185  133.1738  152.0110 C   0  0  0  0  0  0  0  0  0  0  0  0
  144.2955  134.3583  152.1329 N   0  0  0  0  0  0  0  0  0  0  0  0
  150.6200  138.0224  156.7294 H   0  0  0  0  0  0  0  0  0  0  0  0
  150.8969  136.2500  156.2795 H   0  0  0  0  0  0  0  0  0  0  0  0
  150.6640  136.7828  153.9282 H   0  0  0  0  0  0  0  0  0  0  0  0
  150.2134  139.6688  154.9577 H   0  0  0  0  0  0  0  0  0  0  0  0
  151.1542  139.2705  153.5239 H   0  0  0  0  0  0  0  0  0  0  0  0
  149.1989  139.1343  152.3377 H   0  0  0  0  0  0  0  0  0  0  0  0
  145.7524  138.7472  153.3419 H   0  0  0  0  0  0  0  0  0  0  0  0
  146.6005  141.0178  152.7786 H   0  0  0  0  0  0  0  0  0  0  0  0
  145.8657  140.2509  151.3785 H   0  0  0  0  0  0  0  0  0  0  0  0
  147.6192  140.3392  151.5112 H   0  0  0  0  0  0  0  0  0  0  0  0
  146.5520  138.1187  150.9238 H   0  0  0  0  0  0  0  0  0  0  0  0
  146.3038  135.9630  152.8597 H   0  0  0  0  0  0  0  0  0  0  0  0
  143.8569  136.2637  152.8050 H   0  0  0  0  0  0  0  0  0  0  0  0
  144.0261  137.6888  151.7831 H   0  0  0  0  0  0  0  0  0  0  0  0
  144.6278  137.7073  153.4392 H   0  0  0  0  0  0  0  0  0  0  0  0
  145.3245  136.2911  149.9788 H   0  0  0  0  0  0  0  0  0  0  0  0
  146.7687  135.4208  150.4372 H   0  0  0  0  0  0  0  0  0  0  0  0
  145.3690  133.3643  149.2029 H   0  0  0  0  0  0  0  0  0  0  0  0
  143.7183  131.5660  150.4206 H   0  0  0  0  0  0  0  0  0  0  0  0
  143.0865  132.8179  152.8113 H   0  0  0  0  0  0  0  0  0  0  0  0
  147.7462  137.4059  151.7893 H   0  0  0  0  0  0  0  0  0  0  0  0
  1  2  2  0  0  0  0
  1 18  1  0  0  0  0
  1 19  1  0  0  0  0
  2  3  1  0  0  0  0
  2 20  1  0  0  0  0
  3  4  1  0  0  0  0
  3 21  1  0  0  0  0
  3 22  1  0  0  0  0
  4  5  1  0  0  0  0
  4 23  1  0  0  0  0
  5  6  2  0  0  0  0
  5  7  1  0  0  0  0
  7  8  1  0  0  0  0
  7  9  1  0  0  0  0
  7 24  1  0  0  0  0
  8 25  1  0  0  0  0
  8 26  1  0  0  0  0
  8 27  1  0  0  0  0
  9 10  1  0  0  0  0
  9 28  1  0  0  0  0
  9 38  1  0  0  0  0
 10 11  1  0  0  0  0
 10 12  1  0  0  0  0
 10 29  1  0  0  0  0
 11 30  1  0  0  0  0
 11 31  1  0  0  0  0
 11 32  1  0  0  0  0
 12 13  1  0  0  0  0
 12 33  1  0  0  0  0
 12 34  1  0  0  0  0
 13 17  1  0  0  0  0
 13 14  1  0  0  0  0
 14 15  2  0  0  0  0
 14 35  1  0  0  0  0
 15 16  1  0  0  0  0
 15 36  1  0  0  0  0
 16 17  2  0  0  0  0
 16 37  1  0  0  0  0
M  CHG  1   9   1
M  END
> <s_m_source_file>
AV-unprocessed.smi

> <i_m_source_file_index>
3046

> <i_lp_mmshare_version>
43012

> <i_f3d_flags>
0

> <s_epik_input>
W0NIMl09W0NIXVtDSDJdW05IXUMoPU8pW0NASF0oW0NIM10pW05IXVtDQEhdKFtDSDNdKVtDSDJdbjFbY0hdW2NIXVtjSF1uMQ==

> <s_epik_cmdline>
J2VwaWtfcHl0aG9uJywgJy1waCcsICc3LjAnLCAnLXRuJywgJzgnLCAnLW1hJywgJzIwMCcsICctbWV0YWxfYmluZGluZycsICctaW1hZScsICc8aW5maWxlLm1hZT4nLCAnLW9tYWUnLCAnPG91dGZpbGUubWFlPic=

> <r_lp_tautomer_probability>
1

> <r_epik_Ionization_Penalty>
0.132961

> <r_epik_Ionization_Penalty_Charging>
0.132956

> <r_epik_Ionization_Penalty_Neutral>
5.00268e-06

> <r_epik_State_Penalty>
0.122332

> <r_epik_Charging_Adjusted_Penalty>
0.255288

> <i_epik_Tot_Q>
1

> <i_epik_Tot_abs_Q>
1

> <r_epik_Metal_State_Penalty>
0.122338

> <b_epik_Metal_Only>
0

> <s_lp_Force_Field>
OPLS_2005

> <r_lp_Energy>
6.90886

> <b_lp_Chiralities_Consistent>
1

> <s_lp_Variant>
AV-unprocessed.smi:3046-4

> <Gold.Version>
5.8.1

> <Gold.Id.Protein>
6NUR|6NUR_protein|mol2

> <Gold.PLP.Fitness>
43.8737

> <Gold.PLP.PLP>
-30.7009

> <Gold.PLP.part.hbond>
-2.9845

> <Gold.PLP.part.metal>
0.0000

> <Gold.PLP.part.buried>
-0.3600

> <Gold.PLP.part.nonpolar>
-28.5156

> <Gold.PLP.part.repulsive>
0.3590

> <Gold.PLP.ligand.clash>
0.0000

> <Gold.PLP.ligand.torsion>
0.9524

> <Gold.PLP.Chemscore.Hbond>
3.0000

> <Gold.PLP.Chemscore.CHOScore>
2.0000

> <Gold.PLP.Chemscore.Metal>
0.0000

> <Gold.Chemscore.Hbonds>
donor molecule, donor type, donor heavy atom, donor atom, acceptor molecule, acceptor atom, score
      L1  H     4    23       P1  7957  0.99
      L1  H     9    38       P1  7948  2.00
      L1  C    14    35       P1  7921  1.00
      L1  C    16    37       P1 10957  0.96

> <Gold.PLP.Chemscore.Internal.Correction>
0.0775

> <Gold.Rescore>
     Score         DG    S(hbond)    S(metal)    S(lipo)     H(rot)  DE(clash)    DE(int)     intcor
     13.28     -14.61       1.95        0.00      71.77       2.26       0.47       0.86       ----

> <Gold.Chemscore.Fitness>
13.2808

> <Gold.Chemscore.DG>
-14.6061

> <Gold.Chemscore.ZeroCoef>
-5.4800

> <Gold.Chemscore.Hbond>
1.9525

> <Gold.Chemscore.Metal>
0.0000

> <Gold.Chemscore.Lipo>
71.7669

> <Gold.Chemscore.Internal_Hbond>
0.0000

> <Gold.Chemscore.DEClash>
0.4701

> <Gold.Chemscore.DEInternal>
0.8552

> <Gold.Chemscore.Rot>
2.2626

> <Gold.Chemscore.Internal.Correction>
   9.000000E+99

> <Gold.Chemscore.Hbonds>
donor molecule, donor type, donor heavy atom, donor atom, acceptor molecule, acceptor atom, score
      L1  H     4    23       P1  7957  0.87
      L1  H     9    38       P1  7948  0.98

> <Gold.Chemscore.Hbond.Weighted>
-6.5215

> <Gold.Chemscore.Metal.Weighted>
-0.0000

> <Gold.Chemscore.Lipo.Weighted>
-8.3967

> <Gold.Chemscore.Internal_Hbond.Weighted>
0.0000

> <Gold.Chemscore.DEClash.Weighted>
0.4701

> <Gold.Chemscore.DEInternal.Weighted>
0.8552

> <Gold.Chemscore.Rot.Weighted>
5.7922

> <Gold.Chemscore.Internal.Correction.Weighted>
   9.000000E+99

> <Gold.Protein.RotatedTorsions>
[ 6907 6896 6895 6894 ] final  -90.67 input  -60.11 | X-H torsion
[ 7974 7965 7964 7962 ] final -164.32 input  175.53 | X-H torsion
[ 8008 7997 7996 7995 ] final  -22.06 input   59.86 | X-H torsion
[ 10167 10162 10161 10158 ] final -163.18 input  -65.29 | X-H torsion
[ 10718 10713 10712 10709 ] final  -27.48 input   66.30 | X-H torsion
[ 10763 10752 10751 10750 ] final    3.48 input  -60.55 | X-H torsion
[ 11005 11000 10999 10996 ] final    1.20 input  -57.11 | X-H torsion

> <Gold.Protein.ActiveResidues>
 VAL166  LYS551  ARG553  GLY616  TRP617  ASP618  TYR619  PRO620  LYS621  CYS622 
 ASP623  PHE694  ASN695  SER759  ASP760  ASP761  ALA762  ILE779  LEU786  VAL792 
 PHE793  MET794  SER795  GLU796  ALA797  LYS798  CYS799  TRP800  GLU811  SER814 

> <Gold.Protein.RotatedAtoms>
  150.6884  134.2396  159.4466 H   0  0  0  0  0  0  0  0  0  0  0  0  # atno 6907 bound_to 6896
  152.0341  134.9748  160.0582 H   0  0  0  0  0  0  0  0  0  0  0  0  # atno 6908 bound_to 6896
  152.1275  133.4354  159.4742 H   0  0  0  0  0  0  0  0  0  0  0  0  # atno 6909 bound_to 6896
  144.7300  140.2977  143.6210 H   0  0  0  0  0  0  0  0  0  0  0  0  # atno 7974 bound_to 7965
  154.4667  140.2018  156.0100 H   0  0  0  0  0  0  0  0  0  0  0  0  # atno 8008 bound_to 7997
  156.0939  140.3254  155.7823 H   0  0  0  0  0  0  0  0  0  0  0  0  # atno 8009 bound_to 7997
  155.4910  140.0546  157.2944 H   0  0  0  0  0  0  0  0  0  0  0  0  # atno 8010 bound_to 7997
  139.6339  144.0387  152.2038 H   0  0  0  0  0  0  0  0  0  0  0  0  # atno 10167 bound_to 10162
  156.4376  130.4458  149.7074 H   0  0  0  0  0  0  0  0  0  0  0  0  # atno 10718 bound_to 10713
  153.2828  135.6942  153.7369 H   0  0  0  0  0  0  0  0  0  0  0  0  # atno 10763 bound_to 10752
  153.6350  135.3403  155.3054 H   0  0  0  0  0  0  0  0  0  0  0  0  # atno 10764 bound_to 10752
  154.8500  135.4418  154.1886 H   0  0  0  0  0  0  0  0  0  0  0  0  # atno 10765 bound_to 10752
  140.6181  133.9687  155.8211 H   0  0  0  0  0  0  0  0  0  0  0  0  # atno 11005 bound_to 11000
  145.7791  139.1885  143.2168 LP  0  0  0  0  0  0  0  0  0  0  0  0  # atno 17320 bound_to 7965
  146.0848  140.7723  142.9624 LP  0  0  0  0  0  0  0  0  0  0  0  0  # atno 17321 bound_to 7965
  140.0060  144.6259  150.7689 LP  0  0  0  0  0  0  0  0  0  0  0  0  # atno 17342 bound_to 10162
  140.7454  143.2875  151.3421 LP  0  0  0  0  0  0  0  0  0  0  0  0  # atno 17343 bound_to 10162
  156.3952  130.7647  151.2651 LP  0  0  0  0  0  0  0  0  0  0  0  0  # atno 17370 bound_to 10713
  157.7507  131.0256  150.3926 LP  0  0  0  0  0  0  0  0  0  0  0  0  # atno 17371 bound_to 10713
  141.0762  134.0132  157.3455 LP  0  0  0  0  0  0  0  0  0  0  0  0  # atno 17394 bound_to 11000
  139.9164  135.0197  156.7899 LP  0  0  0  0  0  0  0  0  0  0  0  0  # atno 17395 bound_to 11000

$$$$
