#       Name:                AV-unprocessed.smi:2784
#       Creating user name   scv26
#       Creation time:       Fri Mar 27 15:17:11 2020


#       File generated by GOLD software.
#

@<TRIPOS>MOLECULE
AV-unprocessed.smi:2784
    38    39     1
SMALL
NO_CHARGES


@<TRIPOS>ATOM
      1 ****        -2.5643   3.3504   1.2423 C.3            1 S1                 0.0000
      2 ****        -1.9438   2.1069   1.5279 O.3            1 S1                 0.0000
      3 ****        -0.5931   2.0260   1.0932 C.3            1 S1                 0.0000
      4 ****         0.3496   2.8737   1.9574 C.3            1 S1                 0.0000
      5 ****         1.6845   2.1410   1.8900 C.3            1 S1                 0.0000
      6 ****         1.2940   0.6641   1.9156 C.3            1 S1                 0.0000
      7 ****        -0.0799   0.5755   1.2204 C.3            1 S1                 0.0000
      8 ****         0.0313  -0.0497  -0.0956 N.am           1 S1                 0.0000
      9 ****         0.0753  -1.3716  -0.3167 C.2            1 S1                 0.0000
     10 ****         0.0383  -2.2157   0.5791 O.2            1 S1                 0.0000
     11 ****         0.1665  -1.6517  -1.6256 N.am           1 S1                 0.0000
     12 ****         0.2357  -2.9467  -2.1888 C.2            1 S1                 0.0000
     13 ****         0.3299  -3.1869  -3.4956 N.pl3          1 S1                 1.0000
     14 ****         0.3764  -4.5449  -3.6918 C.2            1 S1                 0.0000
     15 ****         0.3049  -5.1060  -2.4393 C.2            1 S1                 0.0000
     16 ****         0.2163  -4.1135  -1.4836 O.3            1 S1                 0.0000
     17 ****        -3.6028   3.3224   1.5719 H              1 S1                 0.0000
     18 ****        -2.5589   3.5583   0.1717 H              1 S1                 0.0000
     19 ****        -2.0733   4.1738   1.7617 H              1 S1                 0.0000
     20 ****        -0.5133   2.3544   0.0545 H              1 S1                 0.0000
     21 ****         0.4201   3.9070   1.6164 H              1 S1                 0.0000
     22 ****        -0.0022   2.8866   2.9900 H              1 S1                 0.0000
     23 ****         2.1869   2.3747   0.9504 H              1 S1                 0.0000
     24 ****         2.3553   2.4126   2.7058 H              1 S1                 0.0000
     25 ****         2.0577   0.0322   1.4601 H              1 S1                 0.0000
     26 ****         1.1907   0.3395   2.9520 H              1 S1                 0.0000
     27 ****        -0.7606  -0.0058   1.8460 H              1 S1                 0.0000
     28 ****         0.0670   0.5734  -0.8892 H              1 S1                 0.0000
     29 ****         0.3647  -2.5118  -4.2492 H              1 S1                 0.0000
     30 ****         0.4534  -4.9688  -4.6830 H              1 S1                 0.0000
     31 ****         0.3048  -6.1236  -2.0761 H              1 S1                 0.0000
     32 ****         0.1891  -0.8762  -2.2709 H              1 S1                 0.0000
     33 ****        -2.4646   1.3834   1.0748 LP             1 S1                 0.0000
     34 ****        -1.9656   1.9637   2.5173 LP             1 S1                 0.0000
     35 ****        -0.0282  -1.9282   1.5345 LP             1 S1                 0.0000
     36 ****         0.0748  -3.1887   0.3511 LP             1 S1                 0.0000
     37 ****        -0.6352  -4.1980  -0.9661 LP             1 S1                 0.0000
     38 ****         0.9936  -4.1586  -0.8561 LP             1 S1                 0.0000
@<TRIPOS>BOND
    1    1    2 1     
    2    1   17 1     
    3    1   18 1     
    4    1   19 1     
    5    2    3 1     
    6    3    7 1     
    7    3    4 1     
    8    3   20 1     
    9    4    5 1     
   10    4   21 1     
   11    4   22 1     
   12    5    6 1     
   13    5   23 1     
   14    5   24 1     
   15    6    7 1     
   16    6   25 1     
   17    6   26 1     
   18    7    8 1     
   19    7   27 1     
   20    8   28 1     
   21    8    9 am    
   22    9   11 am    
   23    9   10 2     
   24   11   12 1     
   25   11   32 1     
   26   12   16 1     
   27   12   13 2     
   28   13   29 1     
   29   13   14 1     
   30   14   30 1     
   31   14   15 2     
   32   15   31 1     
   33   15   16 1     
   34    2   33 1     
   35    2   34 1     
   36   10   35 1     
   37   10   36 1     
   38   16   37 1     
   39   16   38 1     
@<TRIPOS>SUBSTRUCTURE
      1 S1             1
@<TRIPOS>SET
LONE_PAIRS      STATIC     ATOMS    <user>   **** ""
6 33 34 35 36 37 38
DONOR_HYDROGENS      STATIC     ATOMS    <user>   **** ""
3 28 32 29
ATOM$BLUE        STATIC     ATOMS    COLORGROUP SYSTEM
6 33 34 35 36 37 38
ATOM$RED        STATIC     ATOMS    COLORGROUP SYSTEM
3 28 32 29
