AV-unprocessed.smi:3027|AV-procd|sdf|11515|dock7
  -GOLD-   2272016453D 1   1.00000     0.00000
 Structure written by MMmdl.
 37 38  0  0  0  0  0  0  0  0  2 V2000
  150.7648  135.9772  154.7061 C   0  0  0  0  0  0  0  0  0  0  0  0
  150.8726  137.4720  154.7976 C   0  0  0  0  0  0  0  0  0  0  0  0
  150.4551  138.4390  153.8394 C   0  0  0  0  0  0  0  0  0  0  0  0
  150.6974  139.6818  154.2239 N   0  0  0  0  0  0  0  0  0  0  0  0
  151.2734  139.5527  155.4377 N   0  0  0  0  0  0  0  0  0  0  0  0
  151.6854  140.7335  156.1745 C   0  0  0  0  0  0  0  0  0  0  0  0
  150.4906  141.5749  156.6756 C   0  0  2  0  0  0  0  0  0  0  0  0
  149.2764  141.4905  155.7357 C   0  0  0  0  0  0  0  0  0  0  0  0
  150.8855  142.9933  156.8361 N   0  3  0  0  0  0  0  0  0  0  0  0
  151.1858  143.4291  158.2191 C   0  0  0  0  0  0  0  0  0  0  0  0
  151.4561  144.9317  158.3014 C   0  0  0  0  0  0  0  0  0  0  0  0
  152.2103  145.1199  159.6224 C   0  0  0  0  0  0  0  0  0  0  0  0
  152.8593  143.7638  159.9430 C   0  0  0  0  0  0  0  0  0  0  0  0
  152.4612  142.8178  158.8047 C   0  0  0  0  0  0  0  0  0  0  0  0
  151.3937  138.2301  155.8075 C   0  0  0  0  0  0  0  0  0  0  0  0
  149.9893  135.6691  154.0046 H   0  0  0  0  0  0  0  0  0  0  0  0
  150.5208  135.5303  155.6700 H   0  0  0  0  0  0  0  0  0  0  0  0
  151.6992  135.5277  154.3698 H   0  0  0  0  0  0  0  0  0  0  0  0
  149.9863  138.2747  152.8804 H   0  0  0  0  0  0  0  0  0  0  0  0
  152.3032  140.3994  157.0068 H   0  0  0  0  0  0  0  0  0  0  0  0
  152.3327  141.3392  155.5376 H   0  0  0  0  0  0  0  0  0  0  0  0
  150.1713  141.1888  157.6450 H   0  0  0  0  0  0  0  0  0  0  0  0
  148.8933  140.4723  155.6647 H   0  0  0  0  0  0  0  0  0  0  0  0
  149.5305  141.8212  154.7282 H   0  0  0  0  0  0  0  0  0  0  0  0
  148.4583  142.1160  156.0944 H   0  0  0  0  0  0  0  0  0  0  0  0
  151.6738  143.1910  156.2366 H   0  0  0  0  0  0  0  0  0  0  0  0
  150.3383  143.1942  158.8656 H   0  0  0  0  0  0  0  0  0  0  0  0
  152.0967  145.2419  157.4742 H   0  0  0  0  0  0  0  0  0  0  0  0
  150.5435  145.5272  158.2539 H   0  0  0  0  0  0  0  0  0  0  0  0
  152.9491  145.9186  159.5485 H   0  0  0  0  0  0  0  0  0  0  0  0
  151.5148  145.3921  160.4174 H   0  0  0  0  0  0  0  0  0  0  0  0
  153.9433  143.8409  160.0343 H   0  0  0  0  0  0  0  0  0  0  0  0
  152.4787  143.3891  160.8940 H   0  0  0  0  0  0  0  0  0  0  0  0
  152.3171  141.7942  159.1520 H   0  0  0  0  0  0  0  0  0  0  0  0
  153.2517  142.8082  158.0525 H   0  0  0  0  0  0  0  0  0  0  0  0
  151.8357  137.9405  156.7495 H   0  0  0  0  0  0  0  0  0  0  0  0
  150.1040  143.5518  156.5232 H   0  0  0  0  0  0  0  0  0  0  0  0
  1  2  1  0  0  0  0
  1 16  1  0  0  0  0
  1 17  1  0  0  0  0
  1 18  1  0  0  0  0
  2 15  2  0  0  0  0
  2  3  1  0  0  0  0
  3  4  2  0  0  0  0
  3 19  1  0  0  0  0
  4  5  1  0  0  0  0
  5  6  1  0  0  0  0
  5 15  1  0  0  0  0
  6  7  1  0  0  0  0
  6 20  1  0  0  0  0
  6 21  1  0  0  0  0
  7  8  1  0  0  0  0
  7  9  1  0  0  0  0
  7 22  1  0  0  0  0
  8 23  1  0  0  0  0
  8 24  1  0  0  0  0
  8 25  1  0  0  0  0
  9 10  1  0  0  0  0
  9 26  1  0  0  0  0
  9 37  1  0  0  0  0
 10 14  1  0  0  0  0
 10 11  1  0  0  0  0
 10 27  1  0  0  0  0
 11 12  1  0  0  0  0
 11 28  1  0  0  0  0
 11 29  1  0  0  0  0
 12 13  1  0  0  0  0
 12 30  1  0  0  0  0
 12 31  1  0  0  0  0
 13 14  1  0  0  0  0
 13 32  1  0  0  0  0
 13 33  1  0  0  0  0
 14 34  1  0  0  0  0
 14 35  1  0  0  0  0
 15 36  1  0  0  0  0
M  CHG  1   9   1
M  END
> <s_m_source_file>
AV-unprocessed.smi

> <i_m_source_file_index>
3027

> <i_lp_mmshare_version>
43012

> <i_f3d_flags>
0

> <s_epik_input>
W0NIM11jMVtjSF1ubihbY0hdMSlbQ0gyXVtDQEhdKFtDSDNdKVtOSF1bQ0hdMltDSDJdW0NIMl1bQ0gyXVtDSDJdMg==

> <s_epik_cmdline>
J2VwaWtfcHl0aG9uJywgJy1waCcsICc3LjAnLCAnLXRuJywgJzgnLCAnLW1hJywgJzIwMCcsICctbWV0YWxfYmluZGluZycsICctaW1hZScsICc8aW5maWxlLm1hZT4nLCAnLW9tYWUnLCAnPG91dGZpbGUubWFlPic=

> <r_lp_tautomer_probability>
1

> <r_epik_Ionization_Penalty>
0.00150056

> <r_epik_Ionization_Penalty_Charging>
0.00149132

> <r_epik_Ionization_Penalty_Neutral>
9.24096e-06

> <r_epik_State_Penalty>
0.00099871

> <r_epik_Charging_Adjusted_Penalty>
0.00249003

> <i_epik_Tot_Q>
1

> <i_epik_Tot_abs_Q>
1

> <r_epik_Metal_State_Penalty>
-0

> <b_epik_Metal_Only>
0

> <s_lp_Force_Field>
OPLS_2005

> <r_lp_Energy>
26.7441

> <b_lp_Chiralities_Consistent>
1

> <s_lp_Variant>
AV-unprocessed.smi:3027-1

> <Gold.Version>
5.8.1

> <Gold.Id.Protein>
6NUR|6NUR_protein|mol2

> <Gold.PLP.Fitness>
48.3741

> <Gold.PLP.PLP>
-35.6267

> <Gold.PLP.part.hbond>
-2.0000

> <Gold.PLP.part.metal>
0.0000

> <Gold.PLP.part.buried>
-2.2241

> <Gold.PLP.part.nonpolar>
-29.6406

> <Gold.PLP.part.repulsive>
0.1929

> <Gold.PLP.ligand.clash>
0.0000

> <Gold.PLP.ligand.torsion>
1.0347

> <Gold.PLP.Chemscore.Hbond>
3.0000

> <Gold.PLP.Chemscore.CHOScore>
1.9356

> <Gold.PLP.Chemscore.Metal>
0.0000

> <Gold.Chemscore.Hbonds>
donor molecule, donor type, donor heavy atom, donor atom, acceptor molecule, acceptor atom, score
      L1  H     9    37       P1  8028  2.00
      P1  H  7989  7998       L1     4  1.00
      L1  C     3    19       P1  7948  1.00
      L1  C     3    19       P1  7957  0.91

> <Gold.PLP.Chemscore.Internal.Correction>
0.0100

> <Gold.Rescore>
     Score         DG    S(hbond)    S(metal)    S(lipo)     H(rot)  DE(clash)    DE(int)     intcor
     18.47     -20.91       1.95        0.00     106.72       1.40       0.08       2.35       ----

> <Gold.Chemscore.Fitness>
18.4726

> <Gold.Chemscore.DG>
-20.9065

> <Gold.Chemscore.ZeroCoef>
-5.4800

> <Gold.Chemscore.Hbond>
1.9526

> <Gold.Chemscore.Metal>
0.0000

> <Gold.Chemscore.Lipo>
106.7246

> <Gold.Chemscore.Internal_Hbond>
0.0000

> <Gold.Chemscore.DEClash>
0.0835

> <Gold.Chemscore.DEInternal>
2.3505

> <Gold.Chemscore.Rot>
1.3991

> <Gold.Chemscore.Internal.Correction>
   9.000000E+99

> <Gold.Chemscore.Hbonds>
donor molecule, donor type, donor heavy atom, donor atom, acceptor molecule, acceptor atom, score
      L1  H     9    37       P1  8028  1.00
      P1  H  7989  7998       L1     4  0.40

> <Gold.Chemscore.Hbond.Weighted>
-6.5216

> <Gold.Chemscore.Metal.Weighted>
-0.0000

> <Gold.Chemscore.Lipo.Weighted>
-12.4868

> <Gold.Chemscore.Internal_Hbond.Weighted>
0.0000

> <Gold.Chemscore.DEClash.Weighted>
0.0835

> <Gold.Chemscore.DEInternal.Weighted>
2.3505

> <Gold.Chemscore.Rot.Weighted>
3.5818

> <Gold.Chemscore.Internal.Correction.Weighted>
   9.000000E+99

> <Gold.Protein.RotatedTorsions>
[ 6907 6896 6895 6894 ] final -102.15 input  -60.11 | X-H torsion
[ 7974 7965 7964 7962 ] final -158.66 input  175.53 | X-H torsion
[ 8008 7997 7996 7995 ] final   64.94 input   59.86 | X-H torsion
[ 10167 10162 10161 10158 ] final  150.49 input  -65.29 | X-H torsion
[ 10718 10713 10712 10709 ] final -102.65 input   66.30 | X-H torsion
[ 10763 10752 10751 10750 ] final  -79.91 input  -60.55 | X-H torsion
[ 11005 11000 10999 10996 ] final  174.99 input  -57.11 | X-H torsion

> <Gold.Protein.ActiveResidues>
 VAL166  LYS551  ARG553  GLY616  TRP617  ASP618  TYR619  PRO620  LYS621  CYS622 
 ASP623  PHE694  ASN695  SER759  ASP760  ASP761  ALA762  ILE779  LEU786  VAL792 
 PHE793  MET794  SER795  GLU796  ALA797  LYS798  CYS799  TRP800  GLU811  SER814 

> <Gold.Protein.RotatedAtoms>
  150.7184  134.0625  159.3835 H   0  0  0  0  0  0  0  0  0  0  0  0  # atno 6907 bound_to 6896
  151.8605  135.0523  160.0478 H   0  0  0  0  0  0  0  0  0  0  0  0  # atno 6908 bound_to 6896
  152.2721  133.5356  159.5482 H   0  0  0  0  0  0  0  0  0  0  0  0  # atno 6909 bound_to 6896
  144.7496  140.3796  143.6058 H   0  0  0  0  0  0  0  0  0  0  0  0  # atno 7974 bound_to 7965
  155.6539  140.3497  155.4758 H   0  0  0  0  0  0  0  0  0  0  0  0  # atno 8008 bound_to 7997
  155.9825  140.1177  157.0737 H   0  0  0  0  0  0  0  0  0  0  0  0  # atno 8009 bound_to 7997
  154.4195  140.1135  156.5440 H   0  0  0  0  0  0  0  0  0  0  0  0  # atno 8010 bound_to 7997
  139.4849  144.5518  151.7387 H   0  0  0  0  0  0  0  0  0  0  0  0  # atno 10167 bound_to 10162
  156.0236  130.5430  150.7139 H   0  0  0  0  0  0  0  0  0  0  0  0  # atno 10718 bound_to 10713
  154.5445  135.5679  153.6868 H   0  0  0  0  0  0  0  0  0  0  0  0  # atno 10763 bound_to 10752
  152.9972  135.6236  154.2457 H   0  0  0  0  0  0  0  0  0  0  0  0  # atno 10764 bound_to 10752
  154.2389  135.2863  155.2841 H   0  0  0  0  0  0  0  0  0  0  0  0  # atno 10765 bound_to 10752
  140.3573  134.7143  157.4308 H   0  0  0  0  0  0  0  0  0  0  0  0  # atno 11005 bound_to 11000
  145.6991  139.1657  143.2603 LP  0  0  0  0  0  0  0  0  0  0  0  0  # atno 17320 bound_to 7965
  146.1428  140.7034  142.9359 LP  0  0  0  0  0  0  0  0  0  0  0  0  # atno 17321 bound_to 7965
  140.5073  144.1078  150.5986 LP  0  0  0  0  0  0  0  0  0  0  0  0  # atno 17342 bound_to 10162
  140.3992  143.2712  151.9968 LP  0  0  0  0  0  0  0  0  0  0  0  0  # atno 17343 bound_to 10162
  157.4771  131.0899  151.0578 LP  0  0  0  0  0  0  0  0  0  0  0  0  # atno 17370 bound_to 10713
  157.1022  130.5986  149.5463 LP  0  0  0  0  0  0  0  0  0  0  0  0  # atno 17371 bound_to 10713
  140.0655  134.5936  155.8700 LP  0  0  0  0  0  0  0  0  0  0  0  0  # atno 17394 bound_to 11000
  141.1994  133.6607  156.5844 LP  0  0  0  0  0  0  0  0  0  0  0  0  # atno 17395 bound_to 11000

$$$$
