AV-unprocessed.smi:671|AV-procd|sdf|3282|dock3
  -GOLD-   22720 0243D 1   1.00000     0.00000
 Structure written by MMmdl.
 50 51  0  0  0  0  0  0  0  0  2 V2000
  148.8890  141.1105  154.4059 C   0  0  0  0  0  0  0  0  0  0  0  0
  149.8308  141.3228  155.5434 C   0  0  0  0  0  0  0  0  0  0  0  0
  150.0787  142.5306  156.1173 N   0  3  0  0  0  0  0  0  0  0  0  0
  150.9765  142.3994  157.1046 N   0  0  0  0  0  0  0  0  0  0  0  0
  151.3911  143.5849  157.8551 C   0  0  0  0  0  0  0  0  0  0  0  0
  151.3569  141.0964  157.2250 C   0  0  0  0  0  0  0  0  0  0  0  0
  152.3530  140.5951  158.2195 C   0  0  0  0  0  0  0  0  0  0  0  0
  150.6311  140.4109  156.2422 C   0  0  0  0  0  0  0  0  0  0  0  0
  150.7085  138.9342  155.9743 C   0  0  0  0  0  0  0  0  0  0  0  0
  151.0177  138.5939  154.4982 C   0  0  1  0  0  0  0  0  0  0  0  0
  152.5251  138.5405  154.2046 C   0  0  0  0  0  0  0  0  0  0  0  0
  150.4214  137.3046  154.1406 N   0  0  0  0  0  0  0  0  0  0  0  0
  150.6783  136.0927  154.6670 C   0  0  0  0  0  0  0  0  0  0  0  0
  151.4995  135.9378  155.5681 O   0  0  0  0  0  0  0  0  0  0  0  0
  149.9676  135.0878  154.1287 N   0  0  0  0  0  0  0  0  0  0  0  0
  150.0185  133.6904  154.5468 C   0  0  2  0  0  0  0  0  0  0  0  0
  149.3865  132.7922  153.4670 C   0  0  0  0  0  0  0  0  0  0  0  0
  148.0608  132.3012  154.0478 C   0  0  0  0  0  0  0  0  0  0  0  0
  148.3186  132.2368  155.5491 C   0  0  0  0  0  0  0  0  0  0  0  0
  149.1940  133.4615  155.8355 C   0  0  1  0  0  0  0  0  0  0  0  0
  150.0490  133.3116  157.1017 C   0  0  0  0  0  0  0  0  0  0  0  0
  149.4341  140.7642  153.5275 H   0  0  0  0  0  0  0  0  0  0  0  0
  148.3756  142.0385  154.1527 H   0  0  0  0  0  0  0  0  0  0  0  0
  148.1409  140.3628  154.6684 H   0  0  0  0  0  0  0  0  0  0  0  0
  152.4803  143.6326  157.8735 H   0  0  0  0  0  0  0  0  0  0  0  0
  151.0114  143.5108  158.8743 H   0  0  0  0  0  0  0  0  0  0  0  0
  150.9980  144.4872  157.3842 H   0  0  0  0  0  0  0  0  0  0  0  0
  152.2898  139.5127  158.3227 H   0  0  0  0  0  0  0  0  0  0  0  0
  152.1725  141.0425  159.1970 H   0  0  0  0  0  0  0  0  0  0  0  0
  153.3628  140.8521  157.8994 H   0  0  0  0  0  0  0  0  0  0  0  0
  151.4602  138.4733  156.6162 H   0  0  0  0  0  0  0  0  0  0  0  0
  149.7645  138.4744  156.2688 H   0  0  0  0  0  0  0  0  0  0  0  0
  150.5959  139.3671  153.8543 H   0  0  0  0  0  0  0  0  0  0  0  0
  153.0023  139.5027  154.3901 H   0  0  0  0  0  0  0  0  0  0  0  0
  152.7112  138.2848  153.1609 H   0  0  0  0  0  0  0  0  0  0  0  0
  153.0246  137.7945  154.8232 H   0  0  0  0  0  0  0  0  0  0  0  0
  149.7498  137.3285  153.3864 H   0  0  0  0  0  0  0  0  0  0  0  0
  149.3243  135.3126  153.3847 H   0  0  0  0  0  0  0  0  0  0  0  0
  151.0565  133.3822  154.6869 H   0  0  0  0  0  0  0  0  0  0  0  0
  149.2524  133.2935  152.5072 H   0  0  0  0  0  0  0  0  0  0  0  0
  150.0379  131.9353  153.2897 H   0  0  0  0  0  0  0  0  0  0  0  0
  147.2735  133.0265  153.8402 H   0  0  0  0  0  0  0  0  0  0  0  0
  147.7498  131.3424  153.6324 H   0  0  0  0  0  0  0  0  0  0  0  0
  147.3975  132.2350  156.1326 H   0  0  0  0  0  0  0  0  0  0  0  0
  148.8621  131.3203  155.7837 H   0  0  0  0  0  0  0  0  0  0  0  0
  148.5196  134.3080  155.9797 H   0  0  0  0  0  0  0  0  0  0  0  0
  150.7352  132.4680  157.0204 H   0  0  0  0  0  0  0  0  0  0  0  0
  149.4225  133.1489  157.9789 H   0  0  0  0  0  0  0  0  0  0  0  0
  150.6428  134.2077  157.2813 H   0  0  0  0  0  0  0  0  0  0  0  0
  149.6861  143.4338  155.8834 H   0  0  0  0  0  0  0  0  0  0  0  0
  1  2  1  0  0  0  0
  1 22  1  0  0  0  0
  1 23  1  0  0  0  0
  1 24  1  0  0  0  0
  2  8  1  0  0  0  0
  2  3  2  0  0  0  0
  3  4  1  0  0  0  0
  3 50  1  0  0  0  0
  4  5  1  0  0  0  0
  4  6  1  0  0  0  0
  5 25  1  0  0  0  0
  5 26  1  0  0  0  0
  5 27  1  0  0  0  0
  6  7  1  0  0  0  0
  6  8  2  0  0  0  0
  7 28  1  0  0  0  0
  7 29  1  0  0  0  0
  7 30  1  0  0  0  0
  8  9  1  0  0  0  0
  9 10  1  0  0  0  0
  9 31  1  0  0  0  0
  9 32  1  0  0  0  0
 10 11  1  0  0  0  0
 10 12  1  0  0  0  0
 10 33  1  0  0  0  0
 11 34  1  0  0  0  0
 11 35  1  0  0  0  0
 11 36  1  0  0  0  0
 12 13  1  0  0  0  0
 12 37  1  0  0  0  0
 13 14  2  0  0  0  0
 13 15  1  0  0  0  0
 15 16  1  0  0  0  0
 15 38  1  0  0  0  0
 16 20  1  0  0  0  0
 16 17  1  0  0  0  0
 16 39  1  0  0  0  0
 17 18  1  0  0  0  0
 17 40  1  0  0  0  0
 17 41  1  0  0  0  0
 18 19  1  0  0  0  0
 18 42  1  0  0  0  0
 18 43  1  0  0  0  0
 19 20  1  0  0  0  0
 19 44  1  0  0  0  0
 19 45  1  0  0  0  0
 20 21  1  0  0  0  0
 20 46  1  0  0  0  0
 21 47  1  0  0  0  0
 21 48  1  0  0  0  0
 21 49  1  0  0  0  0
M  CHG  1   3   1
M  END
> <s_m_source_file>
AV-unprocessed.smi

> <i_m_source_file_index>
671

> <i_lp_mmshare_version>
43012

> <i_f3d_flags>
0

> <s_epik_input>
W0NIM11jMW5uKFtDSDNdKWMoW0NIM10pYzFbQ0gyXVtDQEhdKFtDSDNdKVtOSF1DKD1PKVtOSF1bQ0BASF0yW0NIMl1bQ0gyXVtDSDJdW0NASF0yW0NIM10=

> <s_epik_cmdline>
J2VwaWtfcHl0aG9uJywgJy1waCcsICc3LjAnLCAnLXRuJywgJzgnLCAnLW1hJywgJzIwMCcsICctbWV0YWxfYmluZGluZycsICctaW1hZScsICc8aW5maWxlLm1hZT4nLCAnLW9tYWUnLCAnPG91dGZpbGUubWFlPic=

> <r_lp_tautomer_probability>
1

> <r_epik_Ionization_Penalty>
2.28705

> <r_epik_Ionization_Penalty_Charging>
2.28698

> <r_epik_Ionization_Penalty_Neutral>
6.23157e-05

> <r_epik_State_Penalty>
2.43671

> <r_epik_Charging_Adjusted_Penalty>
4.72369

> <i_epik_Tot_Q>
1

> <i_epik_Tot_abs_Q>
1

> <r_epik_Metal_State_Penalty>
2.44911

> <b_epik_Metal_Only>
0

> <s_lp_Force_Field>
OPLS_2005

> <r_lp_Energy>
34.579

> <b_lp_Chiralities_Consistent>
1

> <s_lp_Variant>
AV-unprocessed.smi:671-10

> <Gold.Version>
5.8.1

> <Gold.Id.Protein>
6NUR|6NUR_protein|mol2

> <Gold.PLP.Fitness>
52.1717

> <Gold.PLP.PLP>
-39.3232

> <Gold.PLP.part.hbond>
-5.7054

> <Gold.PLP.part.metal>
0.0000

> <Gold.PLP.part.buried>
-3.0619

> <Gold.PLP.part.nonpolar>
-31.1249

> <Gold.PLP.part.repulsive>
0.3004

> <Gold.PLP.ligand.clash>
0.0000

> <Gold.PLP.ligand.torsion>
0.6249

> <Gold.PLP.Chemscore.Hbond>
4.6760

> <Gold.PLP.Chemscore.CHOScore>
0.0000

> <Gold.PLP.Chemscore.Metal>
0.0000

> <Gold.Chemscore.Hbonds>
donor molecule, donor type, donor heavy atom, donor atom, acceptor molecule, acceptor atom, score
      L1  H     3    50       P1  8028  1.98
      L1  H    12    37       P1  7948  0.86
      L1  H    15    38       P1  7948  0.83
      P1  H 10752 10763       L1    14  1.00

> <Gold.PLP.Chemscore.Internal.Correction>
0.0702

> <Gold.Rescore>
     Score         DG    S(hbond)    S(metal)    S(lipo)     H(rot)  DE(clash)    DE(int)     intcor
     20.37     -22.00       2.87        0.00      92.30       1.51       0.47       1.15       ----

> <Gold.Chemscore.Fitness>
20.3740

> <Gold.Chemscore.DG>
-21.9974

> <Gold.Chemscore.ZeroCoef>
-5.4800

> <Gold.Chemscore.Hbond>
2.8663

> <Gold.Chemscore.Metal>
0.0000

> <Gold.Chemscore.Lipo>
92.2962

> <Gold.Chemscore.Internal_Hbond>
0.0000

> <Gold.Chemscore.DEClash>
0.4741

> <Gold.Chemscore.DEInternal>
1.1493

> <Gold.Chemscore.Rot>
1.5057

> <Gold.Chemscore.Internal.Correction>
   9.000000E+99

> <Gold.Chemscore.Hbonds>
donor molecule, donor type, donor heavy atom, donor atom, acceptor molecule, acceptor atom, score
      L1  H     3    50       P1  8028  0.93
      L1  H    12    37       P1  7948  0.53
      L1  H    15    38       P1  7948  0.14
      P1  H 10752 10763       L1    14  0.55

> <Gold.Chemscore.Hbond.Weighted>
-9.5735

> <Gold.Chemscore.Metal.Weighted>
-0.0000

> <Gold.Chemscore.Lipo.Weighted>
-10.7987

> <Gold.Chemscore.Internal_Hbond.Weighted>
0.0000

> <Gold.Chemscore.DEClash.Weighted>
0.4741

> <Gold.Chemscore.DEInternal.Weighted>
1.1493

> <Gold.Chemscore.Rot.Weighted>
3.8547

> <Gold.Chemscore.Internal.Correction.Weighted>
   9.000000E+99

> <Gold.Protein.RotatedTorsions>
[ 6907 6896 6895 6894 ] final  -86.20 input  -60.11 | X-H torsion
[ 7974 7965 7964 7962 ] final   29.17 input  175.53 | X-H torsion
[ 8008 7997 7996 7995 ] final  146.83 input   59.86 | X-H torsion
[ 10167 10162 10161 10158 ] final -161.98 input  -65.29 | X-H torsion
[ 10718 10713 10712 10709 ] final  -19.14 input   66.30 | X-H torsion
[ 10763 10752 10751 10750 ] final   71.47 input  -60.55 | X-H torsion
[ 11005 11000 10999 10996 ] final  152.03 input  -57.11 | X-H torsion

> <Gold.Protein.ActiveResidues>
 VAL166  LYS551  ARG553  GLY616  TRP617  ASP618  TYR619  PRO620  LYS621  CYS622 
 ASP623  PHE694  ASN695  SER759  ASP760  ASP761  ALA762  ILE779  LEU786  VAL792 
 PHE793  MET794  SER795  GLU796  ALA797  LYS798  CYS799  TRP800  GLU811  SER814 

> <Gold.Protein.RotatedAtoms>
  150.6867  134.3087  159.4736 H   0  0  0  0  0  0  0  0  0  0  0  0  # atno 6907 bound_to 6896
  152.0975  134.9362  160.0579 H   0  0  0  0  0  0  0  0  0  0  0  0  # atno 6908 bound_to 6896
  152.0654  133.4047  159.4473 H   0  0  0  0  0  0  0  0  0  0  0  0  # atno 6909 bound_to 6896
  146.1687  139.6958  142.8983 H   0  0  0  0  0  0  0  0  0  0  0  0  # atno 7974 bound_to 7965
  156.2843  140.2172  156.5440 H   0  0  0  0  0  0  0  0  0  0  0  0  # atno 8008 bound_to 7997
  154.7346  140.0492  157.0780 H   0  0  0  0  0  0  0  0  0  0  0  0  # atno 8009 bound_to 7997
  155.0309  140.3135  155.4762 H   0  0  0  0  0  0  0  0  0  0  0  0  # atno 8010 bound_to 7997
  139.6426  144.0232  152.2103 H   0  0  0  0  0  0  0  0  0  0  0  0  # atno 10167 bound_to 10162
  156.5498  130.4699  149.6458 H   0  0  0  0  0  0  0  0  0  0  0  0  # atno 10718 bound_to 10713
  153.0401  135.5135  154.7598 H   0  0  0  0  0  0  0  0  0  0  0  0  # atno 10763 bound_to 10752
  154.6543  135.2929  154.9950 H   0  0  0  0  0  0  0  0  0  0  0  0  # atno 10764 bound_to 10752
  154.0823  135.6662  153.4892 H   0  0  0  0  0  0  0  0  0  0  0  0  # atno 10765 bound_to 10752
  140.1272  134.8826  157.2153 H   0  0  0  0  0  0  0  0  0  0  0  0  # atno 11005 bound_to 11000
  145.4399  141.0421  143.2863 LP  0  0  0  0  0  0  0  0  0  0  0  0  # atno 17320 bound_to 7965
  144.8130  139.5927  143.7021 LP  0  0  0  0  0  0  0  0  0  0  0  0  # atno 17321 bound_to 7965
  139.9925  144.6351  150.7801 LP  0  0  0  0  0  0  0  0  0  0  0  0  # atno 17342 bound_to 10162
  140.7498  143.2945  151.3241 LP  0  0  0  0  0  0  0  0  0  0  0  0  # atno 17343 bound_to 10162
  156.2895  130.7116  151.1961 LP  0  0  0  0  0  0  0  0  0  0  0  0  # atno 17370 bound_to 10713
  157.7390  131.0535  150.5262 LP  0  0  0  0  0  0  0  0  0  0  0  0  # atno 17371 bound_to 10713
  140.2889  134.3263  155.7321 LP  0  0  0  0  0  0  0  0  0  0  0  0  # atno 17394 bound_to 11000
  141.2163  133.7523  156.9474 LP  0  0  0  0  0  0  0  0  0  0  0  0  # atno 17395 bound_to 11000

$$$$
