AV-unprocessed.smi:626|AV-procd|sdf|3110|dock10
  -GOLD-   22720 0 33D 1   1.00000     0.00000
 Structure written by MMmdl.
 34 36  0  0  0  0  0  0  0  0  1 V2000
  142.5215  143.8967  161.5306 C   0  0  0  0  0  0  0  0  0  0  0  0
  143.8864  143.6532  161.9708 N   0  0  0  0  0  0  0  0  0  0  0  0
  144.9658  144.2619  161.4574 C   0  0  0  0  0  0  0  0  0  0  0  0
  144.9053  145.0992  160.5570 O   0  0  0  0  0  0  0  0  0  0  0  0
  146.3207  143.8731  162.0523 C   0  0  0  0  0  0  0  0  0  0  0  0
  147.4193  144.6836  161.4420 C   0  0  0  0  0  0  0  0  0  0  0  0
  147.5100  145.9918  161.6498 N   0  0  0  0  0  0  0  0  0  0  0  0
  148.6379  146.3603  160.9033 O   0  0  0  0  0  0  0  0  0  0  0  0
  149.1176  145.2158  160.3582 C   0  0  0  0  0  0  0  0  0  0  0  0
  150.2773  145.3147  159.4105 C   0  0  1  0  0  0  0  0  0  0  0  0
  151.6335  145.6735  160.0591 C   0  0  0  0  0  0  0  0  0  0  0  0
  152.5682  144.5789  159.5085 C   0  0  1  0  0  0  0  0  0  0  0  0
  152.2401  143.2374  160.1923 C   0  0  0  0  0  0  0  0  0  0  0  0
  150.9025  142.8389  159.5397 C   0  0  0  0  0  0  0  0  0  0  0  0
  150.6108  144.0341  158.6093 C   0  0  2  0  0  0  0  0  0  0  0  0
  152.0139  144.3590  158.1051 C   0  0  0  0  0  0  0  0  0  0  0  0
  148.3685  144.1467  160.6275 N   0  0  0  0  0  0  0  0  0  0  0  0
  141.8305  143.2760  162.1011 H   0  0  0  0  0  0  0  0  0  0  0  0
  142.4050  143.6536  160.4737 H   0  0  0  0  0  0  0  0  0  0  0  0
  142.2457  144.9413  161.6809 H   0  0  0  0  0  0  0  0  0  0  0  0
  144.0208  142.9746  162.7065 H   0  0  0  0  0  0  0  0  0  0  0  0
  146.3078  144.0307  163.1318 H   0  0  0  0  0  0  0  0  0  0  0  0
  146.5079  142.8105  161.8906 H   0  0  0  0  0  0  0  0  0  0  0  0
  150.0320  146.1021  158.6957 H   0  0  0  0  0  0  0  0  0  0  0  0
  151.9583  146.6648  159.7413 H   0  0  0  0  0  0  0  0  0  0  0  0
  151.6146  145.6705  161.1495 H   0  0  0  0  0  0  0  0  0  0  0  0
  153.6249  144.8438  159.5517 H   0  0  0  0  0  0  0  0  0  0  0  0
  153.0068  142.4914  159.9795 H   0  0  0  0  0  0  0  0  0  0  0  0
  152.1605  143.3355  161.2756 H   0  0  0  0  0  0  0  0  0  0  0  0
  151.0262  141.9264  158.9553 H   0  0  0  0  0  0  0  0  0  0  0  0
  150.1143  142.6494  160.2671 H   0  0  0  0  0  0  0  0  0  0  0  0
  149.8826  143.8071  157.8301 H   0  0  0  0  0  0  0  0  0  0  0  0
  152.0558  145.2521  157.4786 H   0  0  0  0  0  0  0  0  0  0  0  0
  152.4886  143.5301  157.5768 H   0  0  0  0  0  0  0  0  0  0  0  0
  1  2  1  0  0  0  0
  1 18  1  0  0  0  0
  1 19  1  0  0  0  0
  1 20  1  0  0  0  0
  2  3  1  0  0  0  0
  2 21  1  0  0  0  0
  3  4  2  0  0  0  0
  3  5  1  0  0  0  0
  5  6  1  0  0  0  0
  5 22  1  0  0  0  0
  5 23  1  0  0  0  0
  6 17  1  0  0  0  0
  6  7  2  0  0  0  0
  7  8  1  0  0  0  0
  8  9  1  0  0  0  0
  9 10  1  0  0  0  0
  9 17  2  0  0  0  0
 10 15  1  0  0  0  0
 10 11  1  0  0  0  0
 10 24  1  0  0  0  0
 11 12  1  0  0  0  0
 11 25  1  0  0  0  0
 11 26  1  0  0  0  0
 12 16  1  0  0  0  0
 12 13  1  0  0  0  0
 12 27  1  0  0  0  0
 13 14  1  0  0  0  0
 13 28  1  0  0  0  0
 13 29  1  0  0  0  0
 14 15  1  0  0  0  0
 14 30  1  0  0  0  0
 14 31  1  0  0  0  0
 15 16  1  0  0  0  0
 15 32  1  0  0  0  0
 16 33  1  0  0  0  0
 16 34  1  0  0  0  0
M  END
> <s_m_source_file>
AV-unprocessed.smi

> <i_m_source_file_index>
626

> <i_lp_mmshare_version>
43012

> <i_f3d_flags>
0

> <s_epik_input>
W0NIM11bTkhdQyg9TylbQ0gyXWMxbm9jKG4xKVtDQEhdKFtDSDJdW0NAQEhdMjMpW0NAQEhdKFtDSDJdMylbQ0gyXVtDSDJdMg==

> <s_epik_cmdline>
J2VwaWtfcHl0aG9uJywgJy1waCcsICc3LjAnLCAnLXRuJywgJzgnLCAnLW1hJywgJzIwMCcsICctbWV0YWxfYmluZGluZycsICctaW1hZScsICc8aW5maWxlLm1hZT4nLCAnLW9tYWUnLCAnPG91dGZpbGUubWFlPic=

> <r_lp_tautomer_probability>
1

> <r_epik_Ionization_Penalty>
1.02916e-07

> <r_epik_Ionization_Penalty_Charging>
0

> <r_epik_Ionization_Penalty_Neutral>
1.02916e-07

> <r_epik_State_Penalty>
-0

> <r_epik_Charging_Adjusted_Penalty>
0

> <i_epik_Tot_Q>
0

> <i_epik_Tot_abs_Q>
0

> <r_epik_Metal_State_Penalty>
-0

> <b_epik_Metal_Only>
0

> <s_lp_Force_Field>
OPLS_2005

> <r_lp_Energy>
49.0627

> <b_lp_Chiralities_Consistent>
1

> <s_lp_Variant>
AV-unprocessed.smi:626-2

> <Gold.Version>
5.8.1

> <Gold.Id.Protein>
6NUR|6NUR_protein|mol2

> <Gold.PLP.Fitness>
41.5720

> <Gold.PLP.PLP>
-39.6150

> <Gold.PLP.part.hbond>
-4.5473

> <Gold.PLP.part.metal>
0.0000

> <Gold.PLP.part.buried>
-6.8603

> <Gold.PLP.part.nonpolar>
-31.4343

> <Gold.PLP.part.repulsive>
1.2719

> <Gold.PLP.ligand.clash>
0.0000

> <Gold.PLP.ligand.torsion>
0.1875

> <Gold.PLP.Chemscore.Hbond>
0.7500

> <Gold.PLP.Chemscore.CHOScore>
0.0000

> <Gold.PLP.Chemscore.Metal>
0.0000

> <Gold.Chemscore.Hbonds>
donor molecule, donor type, donor heavy atom, donor atom, acceptor molecule, acceptor atom, score
      P1  H  6933  6944       L1    17  0.95

> <Gold.PLP.Chemscore.Internal.Correction>
0.0820

> <Gold.Rescore>
     Score         DG    S(hbond)    S(metal)    S(lipo)     H(rot)  DE(clash)    DE(int)     intcor
      8.98     -11.65       0.01        0.00      87.59       1.61       1.37       1.30       ----

> <Gold.Chemscore.Fitness>
8.9827

> <Gold.Chemscore.DG>
-11.6502

> <Gold.Chemscore.ZeroCoef>
-5.4800

> <Gold.Chemscore.Hbond>
0.0147

> <Gold.Chemscore.Metal>
0.0000

> <Gold.Chemscore.Lipo>
87.5878

> <Gold.Chemscore.Internal_Hbond>
0.0000

> <Gold.Chemscore.DEClash>
1.3720

> <Gold.Chemscore.DEInternal>
1.2955

> <Gold.Chemscore.Rot>
1.6119

> <Gold.Chemscore.Internal.Correction>
   9.000000E+99

> <Gold.Chemscore.Hbonds>
donor molecule, donor type, donor heavy atom, donor atom, acceptor molecule, acceptor atom, score
      P1  H  6933  6944       L1    17  0.20

> <Gold.Chemscore.Hbond.Weighted>
-0.0490

> <Gold.Chemscore.Metal.Weighted>
-0.0000

> <Gold.Chemscore.Lipo.Weighted>
-10.2478

> <Gold.Chemscore.Internal_Hbond.Weighted>
0.0000

> <Gold.Chemscore.DEClash.Weighted>
1.3720

> <Gold.Chemscore.DEInternal.Weighted>
1.2955

> <Gold.Chemscore.Rot.Weighted>
4.1266

> <Gold.Chemscore.Internal.Correction.Weighted>
   9.000000E+99

> <Gold.Protein.RotatedTorsions>
[ 6907 6896 6895 6894 ] final   40.13 input  -60.11 | X-H torsion
[ 7974 7965 7964 7962 ] final  164.82 input  175.53 | X-H torsion
[ 8008 7997 7996 7995 ] final  -46.33 input   59.86 | X-H torsion
[ 10167 10162 10161 10158 ] final  -60.64 input  -65.29 | X-H torsion
[ 10718 10713 10712 10709 ] final -147.96 input   66.30 | X-H torsion
[ 10763 10752 10751 10750 ] final   66.78 input  -60.55 | X-H torsion
[ 11005 11000 10999 10996 ] final  -19.52 input  -57.11 | X-H torsion

> <Gold.Protein.ActiveResidues>
 VAL166  LYS551  ARG553  GLY616  TRP617  ASP618  TYR619  PRO620  LYS621  CYS622 
 ASP623  PHE694  ASN695  SER759  ASP760  ASP761  ALA762  ILE779  LEU786  VAL792 
 PHE793  MET794  SER795  GLU796  ALA797  LYS798  CYS799  TRP800  GLU811  SER814 

> <Gold.Protein.RotatedAtoms>
  152.1786  134.8774  160.0528 H   0  0  0  0  0  0  0  0  0  0  0  0  # atno 6907 bound_to 6896
  151.9707  133.3720  159.4078 H   0  0  0  0  0  0  0  0  0  0  0  0  # atno 6908 bound_to 6896
  150.6913  134.4066  159.5187 H   0  0  0  0  0  0  0  0  0  0  0  0  # atno 6909 bound_to 6896
  144.7529  139.8380  143.6360 H   0  0  0  0  0  0  0  0  0  0  0  0  # atno 7974 bound_to 7965
  154.4006  140.1374  156.3993 H   0  0  0  0  0  0  0  0  0  0  0  0  # atno 8008 bound_to 7997
  155.7839  140.3480  155.5292 H   0  0  0  0  0  0  0  0  0  0  0  0  # atno 8009 bound_to 7997
  155.8646  140.0962  157.1581 H   0  0  0  0  0  0  0  0  0  0  0  0  # atno 8010 bound_to 7997
  140.6058  143.2373  151.5824 H   0  0  0  0  0  0  0  0  0  0  0  0  # atno 10167 bound_to 10162
  156.4141  130.7996  151.2215 H   0  0  0  0  0  0  0  0  0  0  0  0  # atno 10718 bound_to 10713
  153.0155  135.5308  154.6877 H   0  0  0  0  0  0  0  0  0  0  0  0  # atno 10763 bound_to 10752
  154.6020  135.2869  155.0527 H   0  0  0  0  0  0  0  0  0  0  0  0  # atno 10764 bound_to 10752
  154.1581  135.6552  153.5032 H   0  0  0  0  0  0  0  0  0  0  0  0  # atno 10765 bound_to 10752
  140.8375  133.7951  155.9824 H   0  0  0  0  0  0  0  0  0  0  0  0  # atno 11005 bound_to 11000
  146.1502  139.4583  143.0053 LP  0  0  0  0  0  0  0  0  0  0  0  0  # atno 17320 bound_to 7965
  145.6881  141.0172  143.1570 LP  0  0  0  0  0  0  0  0  0  0  0  0  # atno 17321 bound_to 7965
  139.5324  144.2878  152.1177 LP  0  0  0  0  0  0  0  0  0  0  0  0  # atno 17342 bound_to 10162
  140.2068  144.4603  150.6405 LP  0  0  0  0  0  0  0  0  0  0  0  0  # atno 17343 bound_to 10162
  157.7507  131.0248  150.3893 LP  0  0  0  0  0  0  0  0  0  0  0  0  # atno 17370 bound_to 10713
  156.4197  130.3950  149.6833 LP  0  0  0  0  0  0  0  0  0  0  0  0  # atno 17371 bound_to 10713
  140.8932  134.2470  157.5083 LP  0  0  0  0  0  0  0  0  0  0  0  0  # atno 17394 bound_to 11000
  139.8704  134.9671  156.4586 LP  0  0  0  0  0  0  0  0  0  0  0  0  # atno 17395 bound_to 11000

$$$$
