AV-unprocessed.smi:3263|AV-procd|sdf|12487|dock4
  -GOLD-   2272018383D 1   1.00000     0.00000
 Structure written by MMmdl.
 41 43  0  0  0  0  0  0  0  0  1 V2000
  150.1468  139.7757  155.9048 O   0  0  0  0  0  0  0  0  0  0  0  0
  150.2803  140.9706  156.1712 C   0  0  0  0  0  0  0  0  0  0  0  0
  151.3939  141.4426  157.1134 C   0  0  0  0  0  0  0  0  0  0  0  0
  151.2481  142.9118  157.5714 C   0  0  1  0  0  0  0  0  0  0  0  0
  150.2090  143.1251  158.6990 C   0  0  0  0  0  0  0  0  0  0  0  0
  151.0205  143.8459  159.7901 C   0  0  2  0  0  0  0  0  0  0  0  0
  151.3670  145.2705  159.3188 C   0  0  0  0  0  0  0  0  0  0  0  0
  152.4403  145.0196  158.2426 C   0  0  0  0  0  0  0  0  0  0  0  0
  152.5354  143.4819  158.2106 C   0  0  1  0  0  0  0  0  0  0  0  0
  152.3664  143.1401  159.6882 C   0  0  0  0  0  0  0  0  0  0  0  0
  149.4751  141.9283  155.6846 N   0  0  0  0  0  0  0  0  0  0  0  0
  148.3372  141.7099  154.7943 C   0  0  0  0  0  0  0  0  0  0  0  0
  147.0308  141.4300  155.5629 C   0  0  0  0  0  0  0  0  0  0  0  0
  145.9504  142.4744  155.3376 C   0  0  0  0  0  0  0  0  0  0  0  0
  145.7325  143.0233  154.0553 C   0  0  0  0  0  0  0  0  0  0  0  0
  144.7368  144.0081  153.9077 C   0  0  0  0  0  0  0  0  0  0  0  0
  143.9995  144.4022  155.0408 C   0  0  0  0  0  0  0  0  0  0  0  0
  144.2911  143.7902  156.2761 C   0  0  0  0  0  0  0  0  0  0  0  0
  145.2423  142.8439  156.4286 N   0  0  0  0  0  0  0  0  0  0  0  0
  151.4311  140.7819  157.9805 H   0  0  0  0  0  0  0  0  0  0  0  0
  152.3429  141.3180  156.5907 H   0  0  0  0  0  0  0  0  0  0  0  0
  150.9846  143.5174  156.7024 H   0  0  0  0  0  0  0  0  0  0  0  0
  149.3502  143.7085  158.3652 H   0  0  0  0  0  0  0  0  0  0  0  0
  149.8328  142.1746  159.0804 H   0  0  0  0  0  0  0  0  0  0  0  0
  150.5547  143.8110  160.7752 H   0  0  0  0  0  0  0  0  0  0  0  0
  150.4970  145.7964  158.9237 H   0  0  0  0  0  0  0  0  0  0  0  0
  151.7756  145.8645  160.1373 H   0  0  0  0  0  0  0  0  0  0  0  0
  152.1698  145.4438  157.2750 H   0  0  0  0  0  0  0  0  0  0  0  0
  153.3922  145.4593  158.5429 H   0  0  0  0  0  0  0  0  0  0  0  0
  153.4565  143.1171  157.7550 H   0  0  0  0  0  0  0  0  0  0  0  0
  153.1351  143.5809  160.3256 H   0  0  0  0  0  0  0  0  0  0  0  0
  152.3104  142.0688  159.8873 H   0  0  0  0  0  0  0  0  0  0  0  0
  149.6599  142.8825  155.9584 H   0  0  0  0  0  0  0  0  0  0  0  0
  148.2127  142.6064  154.1866 H   0  0  0  0  0  0  0  0  0  0  0  0
  148.5450  140.8982  154.0951 H   0  0  0  0  0  0  0  0  0  0  0  0
  146.6435  140.4497  155.2827 H   0  0  0  0  0  0  0  0  0  0  0  0
  147.2431  141.3739  156.6312 H   0  0  0  0  0  0  0  0  0  0  0  0
  146.3212  142.7071  153.2069 H   0  0  0  0  0  0  0  0  0  0  0  0
  144.5443  144.4548  152.9436 H   0  0  0  0  0  0  0  0  0  0  0  0
  143.2297  145.1559  154.9653 H   0  0  0  0  0  0  0  0  0  0  0  0
  143.7453  144.0677  157.1657 H   0  0  0  0  0  0  0  0  0  0  0  0
  1  2  2  0  0  0  0
  2  3  1  0  0  0  0
  2 11  1  0  0  0  0
  3  4  1  0  0  0  0
  3 20  1  0  0  0  0
  3 21  1  0  0  0  0
  4  9  1  0  0  0  0
  4  5  1  0  0  0  0
  4 22  1  0  0  0  0
  5  6  1  0  0  0  0
  5 23  1  0  0  0  0
  5 24  1  0  0  0  0
  6 10  1  0  0  0  0
  6  7  1  0  0  0  0
  6 25  1  0  0  0  0
  7  8  1  0  0  0  0
  7 26  1  0  0  0  0
  7 27  1  0  0  0  0
  8  9  1  0  0  0  0
  8 28  1  0  0  0  0
  8 29  1  0  0  0  0
  9 10  1  0  0  0  0
  9 30  1  0  0  0  0
 10 31  1  0  0  0  0
 10 32  1  0  0  0  0
 11 12  1  0  0  0  0
 11 33  1  0  0  0  0
 12 13  1  0  0  0  0
 12 34  1  0  0  0  0
 12 35  1  0  0  0  0
 13 14  1  0  0  0  0
 13 36  1  0  0  0  0
 13 37  1  0  0  0  0
 14 19  1  0  0  0  0
 14 15  2  0  0  0  0
 15 16  1  0  0  0  0
 15 38  1  0  0  0  0
 16 17  2  0  0  0  0
 16 39  1  0  0  0  0
 17 18  1  0  0  0  0
 17 40  1  0  0  0  0
 18 19  2  0  0  0  0
 18 41  1  0  0  0  0
M  END
> <s_m_source_file>
AV-unprocessed.smi

> <i_m_source_file_index>
3263

> <i_lp_mmshare_version>
43012

> <i_f3d_flags>
0

> <s_epik_input>
W0NIMl0xW0NIMl1bQ0BASF0oW0NIMl0yKVtDQEBIXShbQ0gyXVtDQEhdMTIpW0NIMl1DKD1PKVtOSF1bQ0gyXVtDSDJdYzNbY0hdW2NIXVtjSF1bY0hdbjM=

> <s_epik_cmdline>
J2VwaWtfcHl0aG9uJywgJy1waCcsICc3LjAnLCAnLXRuJywgJzgnLCAnLW1hJywgJzIwMCcsICctbWV0YWxfYmluZGluZycsICctaW1hZScsICc8aW5maWxlLm1hZT4nLCAnLW9tYWUnLCAnPG91dGZpbGUubWFlPic=

> <r_epik_Ionization_Penalty>
0.0273541

> <r_epik_Ionization_Penalty_Charging>
0

> <r_epik_Ionization_Penalty_Neutral>
0.0273541

> <r_epik_State_Penalty>
0.0223838

> <r_epik_Charging_Adjusted_Penalty>
0.0223838

> <i_epik_Tot_Q>
0

> <i_epik_Tot_abs_Q>
0

> <r_epik_Metal_State_Penalty>
0.0213927

> <b_epik_Metal_Only>
0

> <s_lp_Force_Field>
OPLS_2005

> <r_lp_Energy>
47.5771

> <b_lp_Chiralities_Consistent>
1

> <s_lp_Variant>
AV-unprocessed.smi:3263-2

> <Gold.Version>
5.8.1

> <Gold.Id.Protein>
6NUR|6NUR_protein|mol2

> <Gold.PLP.Fitness>
44.7487

> <Gold.PLP.PLP>
-44.6971

> <Gold.PLP.part.hbond>
-1.0000

> <Gold.PLP.part.metal>
0.0000

> <Gold.PLP.part.buried>
-5.9431

> <Gold.PLP.part.nonpolar>
-37.5695

> <Gold.PLP.part.repulsive>
0.3306

> <Gold.PLP.ligand.clash>
0.0000

> <Gold.PLP.ligand.torsion>
1.0840

> <Gold.PLP.Chemscore.Hbond>
0.7137

> <Gold.PLP.Chemscore.CHOScore>
0.0000

> <Gold.PLP.Chemscore.Metal>
0.0000

> <Gold.Chemscore.Hbonds>
donor molecule, donor type, donor heavy atom, donor atom, acceptor molecule, acceptor atom, score
      L1  H    11    33       P1  8028  0.77

> <Gold.PLP.Chemscore.Internal.Correction>
0.0785

> <Gold.Rescore>
     Score         DG    S(hbond)    S(metal)    S(lipo)     H(rot)  DE(clash)    DE(int)     intcor
     17.93     -19.13       0.71        0.00     128.14       1.46       0.21       0.99       ----

> <Gold.Chemscore.Fitness>
17.9329

> <Gold.Chemscore.DG>
-19.1285

> <Gold.Chemscore.ZeroCoef>
-5.4800

> <Gold.Chemscore.Hbond>
0.7132

> <Gold.Chemscore.Metal>
0.0000

> <Gold.Chemscore.Lipo>
128.1415

> <Gold.Chemscore.Internal_Hbond>
0.0000

> <Gold.Chemscore.DEClash>
0.2068

> <Gold.Chemscore.DEInternal>
0.9888

> <Gold.Chemscore.Rot>
1.4555

> <Gold.Chemscore.Internal.Correction>
   9.000000E+99

> <Gold.Chemscore.Hbonds>
donor molecule, donor type, donor heavy atom, donor atom, acceptor molecule, acceptor atom, score
      L1  H    11    33       P1  8028  0.73

> <Gold.Chemscore.Hbond.Weighted>
-2.3820

> <Gold.Chemscore.Metal.Weighted>
-0.0000

> <Gold.Chemscore.Lipo.Weighted>
-14.9926

> <Gold.Chemscore.Internal_Hbond.Weighted>
0.0000

> <Gold.Chemscore.DEClash.Weighted>
0.2068

> <Gold.Chemscore.DEInternal.Weighted>
0.9888

> <Gold.Chemscore.Rot.Weighted>
3.7260

> <Gold.Chemscore.Internal.Correction.Weighted>
   9.000000E+99

> <Gold.Protein.RotatedTorsions>
[ 6907 6896 6895 6894 ] final    1.97 input  -60.11 | X-H torsion
[ 7974 7965 7964 7962 ] final   65.85 input  175.53 | X-H torsion
[ 8008 7997 7996 7995 ] final  141.48 input   59.86 | X-H torsion
[ 10167 10162 10161 10158 ] final   -0.09 input  -65.29 | X-H torsion
[ 10718 10713 10712 10709 ] final  -37.45 input   66.30 | X-H torsion
[ 10763 10752 10751 10750 ] final   17.06 input  -60.55 | X-H torsion
[ 11005 11000 10999 10996 ] final  -47.28 input  -57.11 | X-H torsion

> <Gold.Protein.ActiveResidues>
 VAL166  LYS551  ARG553  GLY616  TRP617  ASP618  TYR619  PRO620  LYS621  CYS622 
 ASP623  PHE694  ASN695  SER759  ASP760  ASP761  ALA762  ILE779  LEU786  VAL792 
 PHE793  MET794  SER795  GLU796  ALA797  LYS798  CYS799  TRP800  GLU811  SER814 

> <Gold.Protein.RotatedAtoms>
  151.6012  135.1047  160.0060 H   0  0  0  0  0  0  0  0  0  0  0  0  # atno 6907 bound_to 6896
  152.4256  133.7186  159.6531 H   0  0  0  0  0  0  0  0  0  0  0  0  # atno 6908 bound_to 6896
  150.8145  133.8289  159.3189 H   0  0  0  0  0  0  0  0  0  0  0  0  # atno 6909 bound_to 6896
  145.8336  139.3153  143.0973 H   0  0  0  0  0  0  0  0  0  0  0  0  # atno 7974 bound_to 7965
  156.2965  140.2314  156.4572 H   0  0  0  0  0  0  0  0  0  0  0  0  # atno 8008 bound_to 7997
  154.8050  140.0446  157.1321 H   0  0  0  0  0  0  0  0  0  0  0  0  # atno 8009 bound_to 7997
  154.9489  140.3039  155.5088 H   0  0  0  0  0  0  0  0  0  0  0  0  # atno 8010 bound_to 7997
  140.6752  143.6936  150.8008 H   0  0  0  0  0  0  0  0  0  0  0  0  # atno 10167 bound_to 10162
  156.3151  130.4258  149.8013 H   0  0  0  0  0  0  0  0  0  0  0  0  # atno 10718 bound_to 10713
  153.1373  135.6753  153.9082 H   0  0  0  0  0  0  0  0  0  0  0  0  # atno 10763 bound_to 10752
  153.8550  135.3088  155.3436 H   0  0  0  0  0  0  0  0  0  0  0  0  # atno 10764 bound_to 10752
  154.7758  135.4915  153.9825 H   0  0  0  0  0  0  0  0  0  0  0  0  # atno 10765 bound_to 10752
  141.0631  133.6702  156.3275 H   0  0  0  0  0  0  0  0  0  0  0  0  # atno 11005 bound_to 11000
  145.9544  140.8884  143.0243 LP  0  0  0  0  0  0  0  0  0  0  0  0  # atno 17320 bound_to 7965
  144.6738  140.1724  143.7413 LP  0  0  0  0  0  0  0  0  0  0  0  0  # atno 17321 bound_to 7965
  140.0627  143.5138  152.2619 LP  0  0  0  0  0  0  0  0  0  0  0  0  # atno 17342 bound_to 10162
  139.6041  144.7591  151.3103 LP  0  0  0  0  0  0  0  0  0  0  0  0  # atno 17343 bound_to 10162
  156.5342  130.8271  151.3247 LP  0  0  0  0  0  0  0  0  0  0  0  0  # atno 17370 bound_to 10713
  157.7400  130.9841  150.2347 LP  0  0  0  0  0  0  0  0  0  0  0  0  # atno 17371 bound_to 10713
  140.5828  134.5728  157.5483 LP  0  0  0  0  0  0  0  0  0  0  0  0  # atno 17394 bound_to 11000
  139.9451  134.7717  156.0582 LP  0  0  0  0  0  0  0  0  0  0  0  0  # atno 17395 bound_to 11000

$$$$
