AV-unprocessed.smi:1|AV-procd|sdf|10|dock9
  -GOLD-   2262015103D 1   1.00000     0.00000
 Structure written by MMmdl.
 57 62  0  0  0  0  0  0  0  0  1 V2000
  152.5150  139.5664  157.1903 O   0  0  0  0  0  0  0  0  0  0  0  0
  151.5583  140.3158  157.4046 C   0  0  0  0  0  0  0  0  0  0  0  0
  150.2162  140.1211  157.1075 N   0  0  0  0  0  0  0  0  0  0  0  0
  149.8357  139.0482  156.4831 C   0  0  0  0  0  0  0  0  0  0  0  0
  150.5368  137.9434  155.9833 N   0  0  0  0  0  0  0  0  0  0  0  0
  149.9732  136.8411  155.3224 C   0  0  0  0  0  0  0  0  0  0  0  0
  148.6986  136.6859  155.0821 N   0  0  0  0  0  0  0  0  0  0  0  0
  147.9544  137.7492  155.5735 C   0  0  0  0  0  0  0  0  0  0  0  0
  148.3894  138.8808  156.2280 C   0  0  0  0  0  0  0  0  0  0  0  0
  147.3170  139.6922  156.5749 N   0  0  0  0  0  0  0  0  0  0  0  0
  146.2739  139.0059  156.1176 C   0  0  0  0  0  0  0  0  0  0  0  0
  146.5671  137.8392  155.5029 N   0  0  0  0  0  0  0  0  0  0  0  0
  145.6507  136.8267  154.8721 C   0  0  1  0  0  0  0  0  0  0  0  0
  145.6960  135.6813  155.6714 O   0  0  0  0  0  0  0  0  0  0  0  0
  144.5280  135.5767  156.4854 C   0  0  1  0  0  0  0  0  0  0  0  0
  144.8583  135.2795  157.9572 C   0  0  0  0  0  0  0  0  0  0  0  0
  144.4568  133.9716  158.3471 O   0  0  0  0  0  0  0  0  0  0  0  0
  143.6182  133.7898  159.3926 C   0  0  0  0  0  0  0  0  0  0  0  0
  143.3256  134.6744  160.1994 O   0  0  0  0  0  0  0  0  0  0  0  0
  143.0739  132.4045  159.4683 C   0  0  0  0  0  0  0  0  0  0  0  0
  142.6410  131.8989  160.7162 C   0  0  0  0  0  0  0  0  0  0  0  0
  142.1080  130.5995  160.8178 C   0  0  0  0  0  0  0  0  0  0  0  0
  141.9974  129.7918  159.6711 C   0  0  0  0  0  0  0  0  0  0  0  0
  142.4249  130.2832  158.4242 C   0  0  0  0  0  0  0  0  0  0  0  0
  142.9638  131.5804  158.3217 C   0  0  0  0  0  0  0  0  0  0  0  0
  143.6805  136.8308  156.2324 C   0  0  2  0  0  0  0  0  0  0  0  0
  142.3009  136.5261  156.1004 O   0  0  0  0  0  0  0  0  0  0  0  0
  141.9753  136.2032  154.4908 S   0  0  0  0  0  0  0  0  0  0  0  0
  141.7796  134.7535  154.3371 O   0  0  0  0  0  0  0  0  0  0  0  0
  140.9948  137.1905  154.0144 O   0  0  0  0  0  0  0  0  0  0  0  0
  143.4696  136.6004  153.8595 O   0  0  0  0  0  0  0  0  0  0  0  0
  144.1914  137.2898  154.8626 C   0  0  2  0  0  0  0  0  0  0  0  0
  151.8258  141.6123  158.0964 C   0  0  0  0  0  0  0  0  0  0  0  0
  152.7845  141.6783  159.1296 C   0  0  0  0  0  0  0  0  0  0  0  0
  153.0441  142.9035  159.7743 C   0  0  0  0  0  0  0  0  0  0  0  0
  152.3501  144.0660  159.3855 C   0  0  0  0  0  0  0  0  0  0  0  0
  151.3941  144.0032  158.3530 C   0  0  0  0  0  0  0  0  0  0  0  0
  151.1314  142.7781  157.7095 C   0  0  0  0  0  0  0  0  0  0  0  0
  150.7017  136.0923  155.0088 H   0  0  0  0  0  0  0  0  0  0  0  0
  145.2695  139.3775  156.2490 H   0  0  0  0  0  0  0  0  0  0  0  0
  146.0739  136.6626  153.8805 H   0  0  0  0  0  0  0  0  0  0  0  0
  143.9883  134.7142  156.0932 H   0  0  0  0  0  0  0  0  0  0  0  0
  145.9365  135.3516  158.1001 H   0  0  0  0  0  0  0  0  0  0  0  0
  144.4199  136.0405  158.6043 H   0  0  0  0  0  0  0  0  0  0  0  0
  142.7071  132.5045  161.6085 H   0  0  0  0  0  0  0  0  0  0  0  0
  141.7756  130.2261  161.7751 H   0  0  0  0  0  0  0  0  0  0  0  0
  141.5827  128.7974  159.7471 H   0  0  0  0  0  0  0  0  0  0  0  0
  142.3371  129.6649  157.5428 H   0  0  0  0  0  0  0  0  0  0  0  0
  143.2754  131.9298  157.3485 H   0  0  0  0  0  0  0  0  0  0  0  0
  143.8494  137.5952  156.9911 H   0  0  0  0  0  0  0  0  0  0  0  0
  144.0879  138.3587  154.6776 H   0  0  0  0  0  0  0  0  0  0  0  0
  153.3237  140.7916  159.4307 H   0  0  0  0  0  0  0  0  0  0  0  0
  153.7770  142.9519  160.5661 H   0  0  0  0  0  0  0  0  0  0  0  0
  152.5513  145.0052  159.8792 H   0  0  0  0  0  0  0  0  0  0  0  0
  150.8624  144.8947  158.0545 H   0  0  0  0  0  0  0  0  0  0  0  0
  150.3972  142.7382  156.9181 H   0  0  0  0  0  0  0  0  0  0  0  0
  151.5388  137.9421  156.1085 H   0  0  0  0  0  0  0  0  0  0  0  0
  1  2  2  0  0  0  0
  2  3  1  0  0  0  0
  2 33  1  0  0  0  0
  3  4  2  0  0  0  0
  4  9  1  0  0  0  0
  4  5  1  0  0  0  0
  5  6  1  0  0  0  0
  5 57  1  0  0  0  0
  6  7  2  0  0  0  0
  6 39  1  0  0  0  0
  7  8  1  0  0  0  0
  8 12  1  0  0  0  0
  8  9  2  0  0  0  0
  9 10  1  0  0  0  0
 10 11  2  0  0  0  0
 11 12  1  0  0  0  0
 11 40  1  0  0  0  0
 12 13  1  0  0  0  0
 13 32  1  0  0  0  0
 13 14  1  0  0  0  0
 13 41  1  0  0  0  0
 14 15  1  0  0  0  0
 15 16  1  0  0  0  0
 15 26  1  0  0  0  0
 15 42  1  0  0  0  0
 16 17  1  0  0  0  0
 16 43  1  0  0  0  0
 16 44  1  0  0  0  0
 17 18  1  0  0  0  0
 18 19  2  0  0  0  0
 18 20  1  0  0  0  0
 20 25  1  0  0  0  0
 20 21  2  0  0  0  0
 21 22  1  0  0  0  0
 21 45  1  0  0  0  0
 22 23  2  0  0  0  0
 22 46  1  0  0  0  0
 23 24  1  0  0  0  0
 23 47  1  0  0  0  0
 24 25  2  0  0  0  0
 24 48  1  0  0  0  0
 25 49  1  0  0  0  0
 26 32  1  0  0  0  0
 26 27  1  0  0  0  0
 26 50  1  0  0  0  0
 27 28  1  0  0  0  0
 28 29  2  0  0  0  0
 28 30  2  0  0  0  0
 28 31  1  0  0  0  0
 31 32  1  0  0  0  0
 32 51  1  0  0  0  0
 33 38  1  0  0  0  0
 33 34  2  0  0  0  0
 34 35  1  0  0  0  0
 34 52  1  0  0  0  0
 35 36  2  0  0  0  0
 35 53  1  0  0  0  0
 36 37  1  0  0  0  0
 36 54  1  0  0  0  0
 37 38  2  0  0  0  0
 37 55  1  0  0  0  0
 38 56  1  0  0  0  0
M  END
> <s_m_source_file>
AV-unprocessed.smi

> <i_m_source_file_index>
1

> <i_lp_mmshare_version>
43012

> <i_f3d_flags>
0

> <s_epik_input>
W2NIXTFbY0hdW2NIXVtjSF1bY0hdYzFDKD1PKVtOSF1jKG5bY0hdbjIpYyhjMjMpbltjSF1uM1tDQEBIXShbQ0BIXShbQ0BIXTQ1KU9TKE81KSg9Tyk9TylPW0NASF00W0NIMl1PQyg9TyljNltjSF1bY0hdW2NIXVtjSF1bY0hdNg==

> <s_epik_cmdline>
J2VwaWtfcHl0aG9uJywgJy1waCcsICc3LjAnLCAnLXRuJywgJzgnLCAnLW1hJywgJzIwMCcsICctbWV0YWxfYmluZGluZycsICctaW1hZScsICc8aW5maWxlLm1hZT4nLCAnLW9tYWUnLCAnPG91dGZpbGUubWFlPic=

> <r_epik_Ionization_Penalty>
0.122545

> <r_epik_Ionization_Penalty_Charging>
0.122545

> <r_epik_Ionization_Penalty_Neutral>
7.8935e-16

> <r_epik_State_Penalty>
2.69178

> <r_epik_Charging_Adjusted_Penalty>
2.81433

> <i_epik_Tot_Q>
0

> <i_epik_Tot_abs_Q>
0

> <r_epik_Metal_State_Penalty>
3.02665

> <b_epik_Metal_Only>
0

> <s_epik_Chemistry_Notes>
This compound has an ester and may undergo hydrolysis at high or low pH. This compound contains an acetal/aminal-like group ( X-CH(R)-Y where X, Y are N, S, or O) that may be acid/base labile, releasing an aldehyde.

> <s_lp_Force_Field>
OPLS_2005

> <r_lp_Energy>
55.0636

> <b_lp_Chiralities_Consistent>
1

> <s_lp_Variant>
AV-unprocessed.smi:1-10

> <Gold.Version>
5.8.1

> <Gold.Id.Protein>
6NUR|6NUR_protein|mol2

> <Gold.PLP.Fitness>
42.0129

> <Gold.PLP.PLP>
-40.5795

> <Gold.PLP.part.hbond>
-2.5529

> <Gold.PLP.part.metal>
0.0000

> <Gold.PLP.part.buried>
-8.3541

> <Gold.PLP.part.nonpolar>
-31.1554

> <Gold.PLP.part.repulsive>
0.5003

> <Gold.PLP.ligand.clash>
0.0000

> <Gold.PLP.ligand.torsion>
2.1870

> <Gold.PLP.Chemscore.Hbond>
1.9120

> <Gold.PLP.Chemscore.CHOScore>
0.0000

> <Gold.PLP.Chemscore.Metal>
0.0000

> <Gold.Chemscore.Hbonds>
donor molecule, donor type, donor heavy atom, donor atom, acceptor molecule, acceptor atom, score
      P1  H  7997  8010       L1     1  1.00
      P1  H 11000 11005       L1    29  0.86

> <Gold.PLP.Chemscore.Internal.Correction>
0.0715

> <Gold.Rescore>
     Score         DG    S(hbond)    S(metal)    S(lipo)     H(rot)  DE(clash)    DE(int)     intcor
     15.59     -17.66       1.78        0.00     100.08       2.13       0.01       2.06       ----

> <Gold.Chemscore.Fitness>
15.5932

> <Gold.Chemscore.DG>
-17.6610

> <Gold.Chemscore.ZeroCoef>
-5.4800

> <Gold.Chemscore.Hbond>
1.7765

> <Gold.Chemscore.Metal>
0.0000

> <Gold.Chemscore.Lipo>
100.0759

> <Gold.Chemscore.Internal_Hbond>
0.0000

> <Gold.Chemscore.DEClash>
0.0102

> <Gold.Chemscore.DEInternal>
2.0576

> <Gold.Chemscore.Rot>
2.1333

> <Gold.Chemscore.Internal.Correction>
   9.000000E+99

> <Gold.Chemscore.Hbonds>
donor molecule, donor type, donor heavy atom, donor atom, acceptor molecule, acceptor atom, score
      P1  H  7997  8010       L1     1  0.95
      P1  H 11000 11005       L1    29  0.62

> <Gold.Chemscore.Hbond.Weighted>
-5.9335

> <Gold.Chemscore.Metal.Weighted>
-0.0000

> <Gold.Chemscore.Lipo.Weighted>
-11.7089

> <Gold.Chemscore.Internal_Hbond.Weighted>
0.0000

> <Gold.Chemscore.DEClash.Weighted>
0.0102

> <Gold.Chemscore.DEInternal.Weighted>
2.0576

> <Gold.Chemscore.Rot.Weighted>
5.4614

> <Gold.Chemscore.Internal.Correction.Weighted>
   9.000000E+99

> <Gold.Protein.RotatedTorsions>
[ 6907 6896 6895 6894 ] final   45.10 input  -60.11 | X-H torsion
[ 7974 7965 7964 7962 ] final -160.29 input  175.53 | X-H torsion
[ 8008 7997 7996 7995 ] final   56.56 input   59.86 | X-H torsion
[ 10167 10162 10161 10158 ] final   93.56 input  -65.29 | X-H torsion
[ 10718 10713 10712 10709 ] final   25.39 input   66.30 | X-H torsion
[ 10763 10752 10751 10750 ] final   78.43 input  -60.55 | X-H torsion
[ 11005 11000 10999 10996 ] final   12.32 input  -57.11 | X-H torsion

> <Gold.Protein.ActiveResidues>
 VAL166  LYS551  ARG553  GLY616  TRP617  ASP618  TYR619  PRO620  LYS621  CYS622 
 ASP623  PHE694  ASN695  SER759  ASP760  ASP761  ALA762  ILE779  LEU786  VAL792 
 PHE793  MET794  SER795  GLU796  ALA797  LYS798  CYS799  TRP800  GLU811  SER814 

> <Gold.Protein.RotatedAtoms>
  152.2405  134.8233  160.0460 H   0  0  0  0  0  0  0  0  0  0  0  0  # atno 6907 bound_to 6896
  151.8949  133.3519  159.3819 H   0  0  0  0  0  0  0  0  0  0  0  0  # atno 6908 bound_to 6896
  150.7052  134.4813  159.5516 H   0  0  0  0  0  0  0  0  0  0  0  0  # atno 6909 bound_to 6896
  144.7433  140.3563  143.6105 H   0  0  0  0  0  0  0  0  0  0  0  0  # atno 7974 bound_to 7965
  155.5194  140.3479  155.4404 H   0  0  0  0  0  0  0  0  0  0  0  0  # atno 8008 bound_to 7997
  156.0795  140.1383  156.9757 H   0  0  0  0  0  0  0  0  0  0  0  0  # atno 8009 bound_to 7997
  154.4571  140.0949  156.6766 H   0  0  0  0  0  0  0  0  0  0  0  0  # atno 8010 bound_to 7997
  139.8168  144.6749  150.9570 H   0  0  0  0  0  0  0  0  0  0  0  0  # atno 10167 bound_to 10162
  157.1927  130.6853  149.6156 H   0  0  0  0  0  0  0  0  0  0  0  0  # atno 10718 bound_to 10713
  153.0874  135.4877  154.8623 H   0  0  0  0  0  0  0  0  0  0  0  0  # atno 10763 bound_to 10752
  154.7227  135.3043  154.9023 H   0  0  0  0  0  0  0  0  0  0  0  0  # atno 10764 bound_to 10752
  153.9682  135.6804  153.4799 H   0  0  0  0  0  0  0  0  0  0  0  0  # atno 10765 bound_to 10752
  140.4933  134.0819  155.7776 H   0  0  0  0  0  0  0  0  0  0  0  0  # atno 11005 bound_to 11000
  145.7224  139.1713  143.2477 LP  0  0  0  0  0  0  0  0  0  0  0  0  # atno 17320 bound_to 7965
  146.1267  140.7238  142.9431 LP  0  0  0  0  0  0  0  0  0  0  0  0  # atno 17321 bound_to 7965
  140.7815  143.4131  151.0961 LP  0  0  0  0  0  0  0  0  0  0  0  0  # atno 17342 bound_to 10162
  139.7794  143.8377  152.3135 LP  0  0  0  0  0  0  0  0  0  0  0  0  # atno 17343 bound_to 10162
  155.9710  130.4609  150.6090 LP  0  0  0  0  0  0  0  0  0  0  0  0  # atno 17370 bound_to 10713
  157.3845  131.0786  151.1448 LP  0  0  0  0  0  0  0  0  0  0  0  0  # atno 17371 bound_to 10713
  141.1473  133.9032  157.2184 LP  0  0  0  0  0  0  0  0  0  0  0  0  # atno 17394 bound_to 11000
  139.9756  135.0115  156.9623 LP  0  0  0  0  0  0  0  0  0  0  0  0  # atno 17395 bound_to 11000

$$$$
