#       Name:                AV-unprocessed.smi:1674
#       Creating user name   scv26
#       Creation time:       Fri Mar 27 07:45:53 2020


#       File generated by GOLD software.
#

@<TRIPOS>MOLECULE
AV-unprocessed.smi:1674
    53    54     1
SMALL
NO_CHARGES


@<TRIPOS>ATOM
      1 ****        -3.5283   1.1362  -0.6433 C.3            1 S1                 0.0000
      2 ****        -3.0157   0.7560   0.7192 C.2            1 S1                 0.0000
      3 ****        -2.6705  -0.4780   0.8857 N.2            1 S1                 0.0000
      4 ****        -2.1715  -0.9291   2.0923 N.am           1 S1                 0.0000
      5 ****        -1.7682  -2.3426   2.0874 C.3            1 S1                 0.0000
      6 ****        -0.2378  -2.5291   1.9618 C.3            1 S1                 0.0000
      7 ****         0.0377  -3.9109   1.8568 O.3            1 S1                 0.0000
      8 ****         0.3623  -1.7324   0.8099 C.ar           1 S1                 0.0000
      9 ****         1.0704  -0.5399   1.0703 C.ar           1 S1                 0.0000
     10 ****         1.5976   0.2197   0.0087 C.ar           1 S1                 0.0000
     11 ****         1.4244  -0.2083  -1.3239 C.ar           1 S1                 0.0000
     12 ****         1.9929   0.6085  -2.4717 C.3            1 S1                 0.0000
     13 ****         3.2868   0.0158  -3.0669 C.3            1 S1                 0.0000
     14 ****         4.4378  -0.0234  -2.0472 C.3            1 S1                 0.0000
     15 ****         3.7048   0.7790  -4.3325 C.3            1 S1                 0.0000
     16 ****         0.7169  -1.3994  -1.5867 C.ar           1 S1                 0.0000
     17 ****         0.1876  -2.1576  -0.5250 C.ar           1 S1                 0.0000
     18 ****        -2.0178  -0.1581   3.2059 C.2            1 S1                 0.0000
     19 ****        -1.5719  -0.6046   4.2638 O.2            1 S1                 0.0000
     20 ****        -2.4183   1.2375   3.0129 C.2            1 S1                 0.0000
     21 ****        -2.2662   2.0826   4.1532 C.1            1 S1                 0.0000
     22 ****        -2.1505   2.7838   5.0671 N.1            1 S1                 0.0000
     23 ****        -2.8953   1.6961   1.8287 C.2            1 S1                 0.0000
     24 ****        -3.3185   3.1361   1.5738 C.3            1 S1                 0.0000
     25 ****        -4.5465   1.5201  -0.5803 H              1 S1                 0.0000
     26 ****        -3.5391   0.2852  -1.3263 H              1 S1                 0.0000
     27 ****        -2.9013   1.9079  -1.0901 H              1 S1                 0.0000
     28 ****        -2.1370  -2.8416   2.9854 H              1 S1                 0.0000
     29 ****        -2.2601  -2.8512   1.2554 H              1 S1                 0.0000
     30 ****         0.2331  -2.1932   2.8864 H              1 S1                 0.0000
     31 ****         0.9749  -4.0309   1.8811 H              1 S1                 0.0000
     32 ****         1.2027  -0.1970   2.0861 H              1 S1                 0.0000
     33 ****         2.1366   1.1313   0.2215 H              1 S1                 0.0000
     34 ****         1.2275   0.6740  -3.2462 H              1 S1                 0.0000
     35 ****         2.1700   1.6318  -2.1373 H              1 S1                 0.0000
     36 ****         3.0782  -1.0114  -3.3689 H              1 S1                 0.0000
     37 ****         4.6751   0.9757  -1.6801 H              1 S1                 0.0000
     38 ****         5.3426  -0.4374  -2.4931 H              1 S1                 0.0000
     39 ****         4.1901  -0.6448  -1.1865 H              1 S1                 0.0000
     40 ****         3.9266   1.8233  -4.1104 H              1 S1                 0.0000
     41 ****         2.9144   0.7590  -5.0835 H              1 S1                 0.0000
     42 ****         4.5947   0.3381  -4.7827 H              1 S1                 0.0000
     43 ****         0.5768  -1.7337  -2.6044 H              1 S1                 0.0000
     44 ****        -0.3610  -3.0631  -0.7393 H              1 S1                 0.0000
     45 ****        -3.2020   3.7638   2.4566 H              1 S1                 0.0000
     46 ****        -4.3668   3.1802   1.2771 H              1 S1                 0.0000
     47 ****        -2.7166   3.5760   0.7778 H              1 S1                 0.0000
     48 ****        -2.7666  -1.1200   0.1251 LP             1 S1                 0.0000
     49 ****        -0.3257  -4.2631   0.9943 LP             1 S1                 0.0000
     50 ****        -0.3852  -4.3986   2.6206 LP             1 S1                 0.0000
     51 ****        -1.3070  -1.5667   4.3283 LP             1 S1                 0.0000
     52 ****        -1.4749  -0.0050   5.0582 LP             1 S1                 0.0000
     53 ****        -2.0506   3.3895   5.8565 LP             1 S1                 0.0000
@<TRIPOS>BOND
    1    1    2 1     
    2    1   25 1     
    3    1   26 1     
    4    1   27 1     
    5    2   23 1     
    6    2    3 2     
    7    3    4 1     
    8    4    5 1     
    9    4   18 am    
   10    5    6 1     
   11    5   28 1     
   12    5   29 1     
   13    6    7 1     
   14    6    8 1     
   15    6   30 1     
   16    7   31 1     
   17    8   17 ar    
   18    8    9 ar    
   19    9   10 ar    
   20    9   32 1     
   21   10   11 ar    
   22   10   33 1     
   23   11   12 1     
   24   11   16 ar    
   25   12   13 1     
   26   12   34 1     
   27   12   35 1     
   28   13   14 1     
   29   13   15 1     
   30   13   36 1     
   31   14   37 1     
   32   14   38 1     
   33   14   39 1     
   34   15   40 1     
   35   15   41 1     
   36   15   42 1     
   37   16   17 ar    
   38   16   43 1     
   39   17   44 1     
   40   18   19 2     
   41   18   20 1     
   42   20   21 1     
   43   20   23 2     
   44   21   22 3     
   45   23   24 1     
   46   24   45 1     
   47   24   46 1     
   48   24   47 1     
   49    3   48 1     
   50    7   49 1     
   51    7   50 1     
   52   19   51 1     
   53   19   52 1     
   54   22   53 1     
@<TRIPOS>SUBSTRUCTURE
      1 S1             1
@<TRIPOS>SET
LONE_PAIRS      STATIC     ATOMS    <user>   **** ""
6 48 49 50 51 52 53
DONOR_HYDROGENS      STATIC     ATOMS    <user>   **** ""
1 31
ATOM$BLUE        STATIC     ATOMS    COLORGROUP SYSTEM
6 48 49 50 51 52 53
ATOM$RED        STATIC     ATOMS    COLORGROUP SYSTEM
1 31
