AV-unprocessed.smi:1165|AV-procd|sdf|4930|dock2
  -GOLD-   22720 3513D 1   1.00000     0.00000
 Structure written by MMmdl.
 41 42  0  0  0  0  0  0  0  0  1 V2000
  151.9964  139.0161  156.3876 C   0  0  0  0  0  0  0  0  0  0  0  0
  151.6704  138.7569  154.9052 C   0  0  1  0  0  0  0  0  0  0  0  0
  151.0624  137.3651  154.6477 C   0  0  0  0  0  0  0  0  0  0  0  0
  149.6509  137.3090  155.0641 N   0  0  0  0  0  0  0  0  0  0  0  0
  148.8991  135.7516  155.1715 S   0  0  0  0  0  0  0  0  0  0  0  0
  149.8521  134.7355  154.6992 O   0  0  0  0  0  0  0  0  0  0  0  0
  148.2547  135.6413  156.4889 O   0  0  0  0  0  0  0  0  0  0  0  0
  147.6711  135.9374  153.9733 N   0  0  0  0  0  0  0  0  0  0  0  0
  146.7292  134.8467  153.7268 C   0  0  0  0  0  0  0  0  0  0  0  0
  145.7436  135.2367  152.6190 C   0  0  0  0  0  0  0  0  0  0  0  0
  145.2877  134.0347  151.8163 C   0  0  0  0  0  0  0  0  0  0  0  0
  143.9190  133.7161  151.6994 C   0  0  0  0  0  0  0  0  0  0  0  0
  143.5488  132.5854  150.9459 C   0  0  0  0  0  0  0  0  0  0  0  0
  144.5656  131.8198  150.3409 C   0  0  0  0  0  0  0  0  0  0  0  0
  145.8792  132.1151  150.4476 N   0  0  0  0  0  0  0  0  0  0  0  0
  146.2258  133.2008  151.1715 C   0  0  0  0  0  0  0  0  0  0  0  0
  148.8461  138.4065  154.5108 C   0  0  0  0  0  0  0  0  0  0  0  0
  149.4979  139.7676  154.8114 C   0  0  2  0  0  0  0  0  0  0  0  0
  148.7555  140.9212  154.1275 C   0  0  0  0  0  0  0  0  0  0  0  0
  150.8437  139.7761  154.3478 O   0  0  0  0  0  0  0  0  0  0  0  0
  152.7306  138.2976  156.7529 H   0  0  0  0  0  0  0  0  0  0  0  0
  151.1187  138.9308  157.0272 H   0  0  0  0  0  0  0  0  0  0  0  0
  152.4153  140.0133  156.5243 H   0  0  0  0  0  0  0  0  0  0  0  0
  152.6155  138.8084  154.3643 H   0  0  0  0  0  0  0  0  0  0  0  0
  151.1170  137.1312  153.5836 H   0  0  0  0  0  0  0  0  0  0  0  0
  151.6436  136.6020  155.1645 H   0  0  0  0  0  0  0  0  0  0  0  0
  148.0077  136.3961  153.1271 H   0  0  0  0  0  0  0  0  0  0  0  0
  147.2822  133.9532  153.4375 H   0  0  0  0  0  0  0  0  0  0  0  0
  146.1977  134.6148  154.6503 H   0  0  0  0  0  0  0  0  0  0  0  0
  144.8729  135.7332  153.0493 H   0  0  0  0  0  0  0  0  0  0  0  0
  146.2061  135.9557  151.9411 H   0  0  0  0  0  0  0  0  0  0  0  0
  143.1657  134.3241  152.1784 H   0  0  0  0  0  0  0  0  0  0  0  0
  142.5102  132.3108  150.8342 H   0  0  0  0  0  0  0  0  0  0  0  0
  144.3173  130.9467  149.7561 H   0  0  0  0  0  0  0  0  0  0  0  0
  147.2836  133.4089  151.2405 H   0  0  0  0  0  0  0  0  0  0  0  0
  148.7429  138.2584  153.4350 H   0  0  0  0  0  0  0  0  0  0  0  0
  147.8426  138.3781  154.9355 H   0  0  0  0  0  0  0  0  0  0  0  0
  149.4777  139.9496  155.8860 H   0  0  0  0  0  0  0  0  0  0  0  0
  147.7186  140.9729  154.4607 H   0  0  0  0  0  0  0  0  0  0  0  0
  148.7541  140.8035  153.0435 H   0  0  0  0  0  0  0  0  0  0  0  0
  149.2254  141.8776  154.3578 H   0  0  0  0  0  0  0  0  0  0  0  0
  1  2  1  0  0  0  0
  1 21  1  0  0  0  0
  1 22  1  0  0  0  0
  1 23  1  0  0  0  0
  2 20  1  0  0  0  0
  2  3  1  0  0  0  0
  2 24  1  0  0  0  0
  3  4  1  0  0  0  0
  3 25  1  0  0  0  0
  3 26  1  0  0  0  0
  4  5  1  0  0  0  0
  4 17  1  0  0  0  0
  5  6  2  0  0  0  0
  5  7  2  0  0  0  0
  5  8  1  0  0  0  0
  8  9  1  0  0  0  0
  8 27  1  0  0  0  0
  9 10  1  0  0  0  0
  9 28  1  0  0  0  0
  9 29  1  0  0  0  0
 10 11  1  0  0  0  0
 10 30  1  0  0  0  0
 10 31  1  0  0  0  0
 11 16  1  0  0  0  0
 11 12  2  0  0  0  0
 12 13  1  0  0  0  0
 12 32  1  0  0  0  0
 13 14  2  0  0  0  0
 13 33  1  0  0  0  0
 14 15  1  0  0  0  0
 14 34  1  0  0  0  0
 15 16  2  0  0  0  0
 16 35  1  0  0  0  0
 17 18  1  0  0  0  0
 17 36  1  0  0  0  0
 17 37  1  0  0  0  0
 18 19  1  0  0  0  0
 18 20  1  0  0  0  0
 18 38  1  0  0  0  0
 19 39  1  0  0  0  0
 19 40  1  0  0  0  0
 19 41  1  0  0  0  0
M  END
> <s_m_source_file>
AV-unprocessed.smi

> <i_m_source_file_index>
1165

> <i_lp_mmshare_version>
43012

> <i_f3d_flags>
0

> <s_epik_input>
W0NIM11bQ0BASF0xW0NIMl1OKFtDSDJdW0NASF0oTzEpW0NIM10pUyg9TykoPU8pW05IXVtDSDJdW0NIMl1jMltjSF1bY0hdW2NIXW5bY0hdMg==

> <s_epik_cmdline>
J2VwaWtfcHl0aG9uJywgJy1waCcsICc3LjAnLCAnLXRuJywgJzgnLCAnLW1hJywgJzIwMCcsICctbWV0YWxfYmluZGluZycsICctaW1hZScsICc8aW5maWxlLm1hZT4nLCAnLW9tYWUnLCAnPG91dGZpbGUubWFlPic=

> <r_epik_Ionization_Penalty>
0.0861056

> <r_epik_Ionization_Penalty_Charging>
0

> <r_epik_Ionization_Penalty_Neutral>
0.0861056

> <r_epik_State_Penalty>
0.0574425

> <r_epik_Charging_Adjusted_Penalty>
0.0574425

> <i_epik_Tot_Q>
0

> <i_epik_Tot_abs_Q>
0

> <r_epik_Metal_State_Penalty>
0.317425

> <b_epik_Metal_Only>
0

> <s_lp_Force_Field>
OPLS_2005

> <r_lp_Energy>
8.11282

> <b_lp_Chiralities_Consistent>
1

> <s_lp_Variant>
AV-unprocessed.smi:1165-3

> <Gold.Version>
5.8.1

> <Gold.Id.Protein>
6NUR|6NUR_protein|mol2

> <Gold.PLP.Fitness>
37.1251

> <Gold.PLP.PLP>
-32.1137

> <Gold.PLP.part.hbond>
-2.0000

> <Gold.PLP.part.metal>
0.0000

> <Gold.PLP.part.buried>
-5.7289

> <Gold.PLP.part.nonpolar>
-26.0500

> <Gold.PLP.part.repulsive>
0.5616

> <Gold.PLP.ligand.clash>
0.0000

> <Gold.PLP.ligand.torsion>
0.7580

> <Gold.PLP.Chemscore.Hbond>
1.9120

> <Gold.PLP.Chemscore.CHOScore>
0.0000

> <Gold.PLP.Chemscore.Metal>
0.0000

> <Gold.Chemscore.Hbonds>
donor molecule, donor type, donor heavy atom, donor atom, acceptor molecule, acceptor atom, score
      L1  H     8    27       P1  7948  0.88
      P1  H  7989  7998       L1    20  1.00

> <Gold.PLP.Chemscore.Internal.Correction>
0.7914

> <Gold.Rescore>
     Score         DG    S(hbond)    S(metal)    S(lipo)     H(rot)  DE(clash)    DE(int)     intcor
     16.18     -16.91       1.95        0.00      79.39       1.71       0.01       0.73       ----

> <Gold.Chemscore.Fitness>
16.1798

> <Gold.Chemscore.DG>
-16.9139

> <Gold.Chemscore.ZeroCoef>
-5.4800

> <Gold.Chemscore.Hbond>
1.9497

> <Gold.Chemscore.Metal>
0.0000

> <Gold.Chemscore.Lipo>
79.3943

> <Gold.Chemscore.Internal_Hbond>
0.0000

> <Gold.Chemscore.DEClash>
0.0082

> <Gold.Chemscore.DEInternal>
0.7259

> <Gold.Chemscore.Rot>
1.7060

> <Gold.Chemscore.Internal.Correction>
   9.000000E+99

> <Gold.Chemscore.Hbonds>
donor molecule, donor type, donor heavy atom, donor atom, acceptor molecule, acceptor atom, score
      L1  H     8    27       P1  7948  0.85
      P1  H  7989  7998       L1    20  0.87

> <Gold.Chemscore.Hbond.Weighted>
-6.5121

> <Gold.Chemscore.Metal.Weighted>
-0.0000

> <Gold.Chemscore.Lipo.Weighted>
-9.2891

> <Gold.Chemscore.Internal_Hbond.Weighted>
0.0000

> <Gold.Chemscore.DEClash.Weighted>
0.0082

> <Gold.Chemscore.DEInternal.Weighted>
0.7259

> <Gold.Chemscore.Rot.Weighted>
4.3674

> <Gold.Chemscore.Internal.Correction.Weighted>
   9.000000E+99

> <Gold.Protein.RotatedTorsions>
[ 6907 6896 6895 6894 ] final   71.76 input  -60.11 | X-H torsion
[ 7974 7965 7964 7962 ] final  170.21 input  175.53 | X-H torsion
[ 8008 7997 7996 7995 ] final   61.99 input   59.86 | X-H torsion
[ 10167 10162 10161 10158 ] final -124.53 input  -65.29 | X-H torsion
[ 10718 10713 10712 10709 ] final -137.34 input   66.30 | X-H torsion
[ 10763 10752 10751 10750 ] final  146.14 input  -60.55 | X-H torsion
[ 11005 11000 10999 10996 ] final -139.28 input  -57.11 | X-H torsion

> <Gold.Protein.ActiveResidues>
 VAL166  LYS551  ARG553  GLY616  TRP617  ASP618  TYR619  PRO620  LYS621  CYS622 
 ASP623  PHE694  ASN695  SER759  ASP760  ASP761  ALA762  ILE779  LEU786  VAL792 
 PHE793  MET794  SER795  GLU796  ALA797  LYS798  CYS799  TRP800  GLU811  SER814 

> <Gold.Protein.RotatedAtoms>
  152.4829  134.4672  159.9623 H   0  0  0  0  0  0  0  0  0  0  0  0  # atno 6907 bound_to 6896
  151.4675  133.3571  159.2826 H   0  0  0  0  0  0  0  0  0  0  0  0  # atno 6908 bound_to 6896
  150.8915  134.8344  159.7357 H   0  0  0  0  0  0  0  0  0  0  0  0  # atno 6909 bound_to 6896
  144.7331  139.9168  143.6418 H   0  0  0  0  0  0  0  0  0  0  0  0  # atno 7974 bound_to 7965
  155.6071  140.3494  155.4611 H   0  0  0  0  0  0  0  0  0  0  0  0  # atno 8008 bound_to 7997
  156.0183  140.1248  157.0408 H   0  0  0  0  0  0  0  0  0  0  0  0  # atno 8009 bound_to 7997
  154.4305  140.1067  156.5913 H   0  0  0  0  0  0  0  0  0  0  0  0  # atno 8010 bound_to 7997
  139.9918  143.5633  152.2339 H   0  0  0  0  0  0  0  0  0  0  0  0  # atno 10167 bound_to 10162
  156.2871  130.7354  151.1368 H   0  0  0  0  0  0  0  0  0  0  0  0  # atno 10718 bound_to 10713
  154.0169  135.2909  155.3385 H   0  0  0  0  0  0  0  0  0  0  0  0  # atno 10763 bound_to 10752
  154.7069  135.5165  153.8612 H   0  0  0  0  0  0  0  0  0  0  0  0  # atno 10764 bound_to 10752
  153.0698  135.6644  154.0395 H   0  0  0  0  0  0  0  0  0  0  0  0  # atno 10765 bound_to 10752
  140.8535  134.2257  157.4747 H   0  0  0  0  0  0  0  0  0  0  0  0  # atno 11005 bound_to 11000
  146.0959  139.3952  143.0376 LP  0  0  0  0  0  0  0  0  0  0  0  0  # atno 17320 bound_to 7965
  145.7646  140.9921  143.1182 LP  0  0  0  0  0  0  0  0  0  0  0  0  # atno 17321 bound_to 7965
  139.6334  144.7647  151.2488 LP  0  0  0  0  0  0  0  0  0  0  0  0  # atno 17342 bound_to 10162
  140.7452  143.6439  150.8309 LP  0  0  0  0  0  0  0  0  0  0  0  0  # atno 17343 bound_to 10162
  157.7332  131.0593  150.5591 LP  0  0  0  0  0  0  0  0  0  0  0  0  # atno 17370 bound_to 10713
  156.5703  130.4278  149.6022 LP  0  0  0  0  0  0  0  0  0  0  0  0  # atno 17371 bound_to 10713
  139.8704  134.9695  156.4667 LP  0  0  0  0  0  0  0  0  0  0  0  0  # atno 17394 bound_to 11000
  140.8764  133.7950  155.9419 LP  0  0  0  0  0  0  0  0  0  0  0  0  # atno 17395 bound_to 11000

$$$$
