AV-unprocessed.smi:3165|AV-procd|sdf|12092|dock4
  -GOLD-   2272017523D 1   1.00000     0.00000
 Structure written by MMmdl.
 37 38  0  0  0  0  0  0  0  0  1 V2000
  150.6375  142.0095  156.4280 C   0  0  0  0  0  0  0  0  0  0  0  0
  150.7200  142.6813  157.8079 C   0  0  1  0  0  0  0  0  0  0  0  0
  152.0684  143.4134  158.0290 C   0  0  0  0  0  0  0  0  0  0  0  0
  152.4370  143.5621  159.4283 N   0  0  0  0  0  0  0  0  0  0  0  0
  153.0610  142.6486  160.2525 C   0  0  0  0  0  0  0  0  0  0  0  0
  153.1959  143.2320  161.4795 C   0  0  0  0  0  0  0  0  0  0  0  0
  152.6116  144.5178  161.3075 C   0  0  0  0  0  0  0  0  0  0  0  0
  152.1543  144.7104  160.0811 N   0  0  0  0  0  0  0  0  0  0  0  0
  149.5536  143.5516  157.9923 N   0  0  0  0  0  0  0  0  0  0  0  0
  148.3823  142.9219  158.6022 C   0  0  0  0  0  0  0  0  0  0  0  0
  147.5863  143.9312  159.4427 C   0  0  1  0  0  0  0  0  0  0  0  0
  146.2655  143.3442  159.9829 C   0  0  0  0  0  0  0  0  0  0  0  0
  145.5549  144.3588  160.8858 C   0  0  0  0  0  0  0  0  0  0  0  0
  146.5162  144.8426  161.9762 C   0  0  0  0  0  0  0  0  0  0  0  0
  147.8278  145.3410  161.3489 C   0  0  0  0  0  0  0  0  0  0  0  0
  148.4040  144.3146  160.5461 O   0  0  0  0  0  0  0  0  0  0  0  0
  151.4900  141.3507  156.2607 H   0  0  0  0  0  0  0  0  0  0  0  0
  150.6191  142.7430  155.6210 H   0  0  0  0  0  0  0  0  0  0  0  0
  149.7342  141.4048  156.3416 H   0  0  0  0  0  0  0  0  0  0  0  0
  150.6663  141.8829  158.5491 H   0  0  0  0  0  0  0  0  0  0  0  0
  152.8849  142.9248  157.4969 H   0  0  0  0  0  0  0  0  0  0  0  0
  152.0036  144.4134  157.5984 H   0  0  0  0  0  0  0  0  0  0  0  0
  153.3573  141.6718  159.8994 H   0  0  0  0  0  0  0  0  0  0  0  0
  153.6436  142.8057  162.3647 H   0  0  0  0  0  0  0  0  0  0  0  0
  152.5054  145.3112  162.0326 H   0  0  0  0  0  0  0  0  0  0  0  0
  149.2918  143.9614  157.1015 H   0  0  0  0  0  0  0  0  0  0  0  0
  147.7385  142.4860  157.8372 H   0  0  0  0  0  0  0  0  0  0  0  0
  148.6968  142.1049  159.2512 H   0  0  0  0  0  0  0  0  0  0  0  0
  147.3838  144.8166  158.8365 H   0  0  0  0  0  0  0  0  0  0  0  0
  145.6087  143.0591  159.1605 H   0  0  0  0  0  0  0  0  0  0  0  0
  146.4708  142.4344  160.5487 H   0  0  0  0  0  0  0  0  0  0  0  0
  145.2184  145.2078  160.2895 H   0  0  0  0  0  0  0  0  0  0  0  0
  144.6647  143.9149  161.3320 H   0  0  0  0  0  0  0  0  0  0  0  0
  146.0527  145.6350  162.5645 H   0  0  0  0  0  0  0  0  0  0  0  0
  146.7303  144.0246  162.6651 H   0  0  0  0  0  0  0  0  0  0  0  0
  147.6569  146.2353  160.7478 H   0  0  0  0  0  0  0  0  0  0  0  0
  148.5361  145.6152  162.1309 H   0  0  0  0  0  0  0  0  0  0  0  0
  1  2  1  0  0  0  0
  1 17  1  0  0  0  0
  1 18  1  0  0  0  0
  1 19  1  0  0  0  0
  2  3  1  0  0  0  0
  2  9  1  0  0  0  0
  2 20  1  0  0  0  0
  3  4  1  0  0  0  0
  3 21  1  0  0  0  0
  3 22  1  0  0  0  0
  4  8  1  0  0  0  0
  4  5  1  0  0  0  0
  5  6  2  0  0  0  0
  5 23  1  0  0  0  0
  6  7  1  0  0  0  0
  6 24  1  0  0  0  0
  7  8  2  0  0  0  0
  7 25  1  0  0  0  0
  9 10  1  0  0  0  0
  9 26  1  0  0  0  0
 10 11  1  0  0  0  0
 10 27  1  0  0  0  0
 10 28  1  0  0  0  0
 11 16  1  0  0  0  0
 11 12  1  0  0  0  0
 11 29  1  0  0  0  0
 12 13  1  0  0  0  0
 12 30  1  0  0  0  0
 12 31  1  0  0  0  0
 13 14  1  0  0  0  0
 13 32  1  0  0  0  0
 13 33  1  0  0  0  0
 14 15  1  0  0  0  0
 14 34  1  0  0  0  0
 14 35  1  0  0  0  0
 15 16  1  0  0  0  0
 15 36  1  0  0  0  0
 15 37  1  0  0  0  0
M  END
> <s_m_source_file>
AV-unprocessed.smi

> <i_m_source_file_index>
3165

> <i_lp_mmshare_version>
43012

> <i_f3d_flags>
0

> <s_epik_input>
bjFbY0hdW2NIXVtjSF1uMVtDSDJdW0NAQEhdKFtDSDNdKVtOSF1bQ0gyXVtDQEBIXTJbQ0gyXVtDSDJdW0NIMl1bQ0gyXU8y

> <s_epik_cmdline>
J2VwaWtfcHl0aG9uJywgJy1waCcsICc3LjAnLCAnLXRuJywgJzgnLCAnLW1hJywgJzIwMCcsICctbWV0YWxfYmluZGluZycsICctaW1hZScsICc8aW5maWxlLm1hZT4nLCAnLW9tYWUnLCAnPG91dGZpbGUubWFlPic=

> <r_lp_tautomer_probability>
1

> <r_epik_Ionization_Penalty>
2.51982

> <r_epik_Ionization_Penalty_Charging>
0

> <r_epik_Ionization_Penalty_Neutral>
2.51982

> <r_epik_State_Penalty>
2.68614

> <r_epik_Charging_Adjusted_Penalty>
2.68614

> <i_epik_Tot_Q>
0

> <i_epik_Tot_abs_Q>
0

> <r_epik_Metal_State_Penalty>
2.6861

> <b_epik_Metal_Only>
0

> <s_lp_Force_Field>
OPLS_2005

> <r_lp_Energy>
14.4807

> <b_lp_Chiralities_Consistent>
1

> <s_lp_Variant>
AV-unprocessed.smi:3165-8

> <Gold.Version>
5.8.1

> <Gold.Id.Protein>
6NUR|6NUR_protein|mol2

> <Gold.PLP.Fitness>
43.1265

> <Gold.PLP.PLP>
-39.5508

> <Gold.PLP.part.hbond>
-2.7849

> <Gold.PLP.part.metal>
0.0000

> <Gold.PLP.part.buried>
-5.7657

> <Gold.PLP.part.nonpolar>
-31.4085

> <Gold.PLP.part.repulsive>
0.1949

> <Gold.PLP.ligand.clash>
0.0000

> <Gold.PLP.ligand.torsion>
1.2227

> <Gold.PLP.Chemscore.Hbond>
2.0000

> <Gold.PLP.Chemscore.CHOScore>
0.0000

> <Gold.PLP.Chemscore.Metal>
0.0000

> <Gold.Chemscore.Hbonds>
donor molecule, donor type, donor heavy atom, donor atom, acceptor molecule, acceptor atom, score
      L1  H     9    26       P1  8028  1.00
      P1  H  6933  6944       L1    16  0.61

> <Gold.PLP.Chemscore.Internal.Correction>
0.0211

> <Gold.Rescore>
     Score         DG    S(hbond)    S(metal)    S(lipo)     H(rot)  DE(clash)    DE(int)     intcor
     14.95     -16.20       1.64        0.00      79.36       1.57       0.16       1.09       ----

> <Gold.Chemscore.Fitness>
14.9520

> <Gold.Chemscore.DG>
-16.1995

> <Gold.Chemscore.ZeroCoef>
-5.4800

> <Gold.Chemscore.Hbond>
1.6353

> <Gold.Chemscore.Metal>
0.0000

> <Gold.Chemscore.Lipo>
79.3570

> <Gold.Chemscore.Internal_Hbond>
0.0000

> <Gold.Chemscore.DEClash>
0.1572

> <Gold.Chemscore.DEInternal>
1.0903

> <Gold.Chemscore.Rot>
1.5731

> <Gold.Chemscore.Internal.Correction>
   9.000000E+99

> <Gold.Chemscore.Hbonds>
donor molecule, donor type, donor heavy atom, donor atom, acceptor molecule, acceptor atom, score
      L1  H     9    26       P1  8028  0.40
      P1  H  6933  6944       L1    16  0.09

> <Gold.Chemscore.Hbond.Weighted>
-5.4620

> <Gold.Chemscore.Metal.Weighted>
-0.0000

> <Gold.Chemscore.Lipo.Weighted>
-9.2848

> <Gold.Chemscore.Internal_Hbond.Weighted>
0.0000

> <Gold.Chemscore.DEClash.Weighted>
0.1572

> <Gold.Chemscore.DEInternal.Weighted>
1.0903

> <Gold.Chemscore.Rot.Weighted>
4.0273

> <Gold.Chemscore.Internal.Correction.Weighted>
   9.000000E+99

> <Gold.Protein.RotatedTorsions>
[ 6907 6896 6895 6894 ] final -114.23 input  -60.11 | X-H torsion
[ 7974 7965 7964 7962 ] final  -81.03 input  175.53 | X-H torsion
[ 8008 7997 7996 7995 ] final  -39.08 input   59.86 | X-H torsion
[ 10167 10162 10161 10158 ] final -133.98 input  -65.29 | X-H torsion
[ 10718 10713 10712 10709 ] final  -85.00 input   66.30 | X-H torsion
[ 10763 10752 10751 10750 ] final   58.24 input  -60.55 | X-H torsion
[ 11005 11000 10999 10996 ] final   76.17 input  -57.11 | X-H torsion

> <Gold.Protein.ActiveResidues>
 VAL166  LYS551  ARG553  GLY616  TRP617  ASP618  TYR619  PRO620  LYS621  CYS622 
 ASP623  PHE694  ASN695  SER759  ASP760  ASP761  ALA762  ILE779  LEU786  VAL792 
 PHE793  MET794  SER795  GLU796  ALA797  LYS798  CYS799  TRP800  GLU811  SER814 

> <Gold.Protein.RotatedAtoms>
  150.7887  133.8831  159.3291 H   0  0  0  0  0  0  0  0  0  0  0  0  # atno 6907 bound_to 6896
  151.6675  135.0979  160.0201 H   0  0  0  0  0  0  0  0  0  0  0  0  # atno 6908 bound_to 6896
  152.3956  133.6703  159.6309 H   0  0  0  0  0  0  0  0  0  0  0  0  # atno 6909 bound_to 6896
  145.5520  140.9495  143.1494 H   0  0  0  0  0  0  0  0  0  0  0  0  # atno 7974 bound_to 7965
  154.4028  140.1561  156.2805 H   0  0  0  0  0  0  0  0  0  0  0  0  # atno 8008 bound_to 7997
  155.8874  140.3440  155.5909 H   0  0  0  0  0  0  0  0  0  0  0  0  # atno 8009 bound_to 7997
  155.7598  140.0816  157.2151 H   0  0  0  0  0  0  0  0  0  0  0  0  # atno 8010 bound_to 7997
  139.8928  143.6702  152.2609 H   0  0  0  0  0  0  0  0  0  0  0  0  # atno 10167 bound_to 10162
  156.0001  130.4716  150.4495 H   0  0  0  0  0  0  0  0  0  0  0  0  # atno 10718 bound_to 10713
  152.9866  135.5614  154.5519 H   0  0  0  0  0  0  0  0  0  0  0  0  # atno 10763 bound_to 10752
  154.4955  135.2795  155.1465 H   0  0  0  0  0  0  0  0  0  0  0  0  # atno 10764 bound_to 10752
  154.2917  135.6325  153.5441 H   0  0  0  0  0  0  0  0  0  0  0  0  # atno 10765 bound_to 10752
  139.9310  134.7579  156.1362 H   0  0  0  0  0  0  0  0  0  0  0  0  # atno 11005 bound_to 11000
  144.7525  139.7158  143.7267 LP  0  0  0  0  0  0  0  0  0  0  0  0  # atno 17320 bound_to 7965
  146.1910  139.5150  142.9805 LP  0  0  0  0  0  0  0  0  0  0  0  0  # atno 17321 bound_to 7965
  139.7095  144.7622  151.1137 LP  0  0  0  0  0  0  0  0  0  0  0  0  # atno 17342 bound_to 10162
  140.7723  143.5350  150.9379 LP  0  0  0  0  0  0  0  0  0  0  0  0  # atno 17343 bound_to 10162
  157.2529  131.0550  151.2368 LP  0  0  0  0  0  0  0  0  0  0  0  0  # atno 17370 bound_to 10713
  157.3511  130.7082  149.6441 LP  0  0  0  0  0  0  0  0  0  0  0  0  # atno 17371 bound_to 10713
  141.0899  133.6719  156.2517 LP  0  0  0  0  0  0  0  0  0  0  0  0  # atno 17394 bound_to 11000
  140.6202  134.5369  157.5546 LP  0  0  0  0  0  0  0  0  0  0  0  0  # atno 17395 bound_to 11000

$$$$
