AV-unprocessed.smi:2032|AV-procd|sdf|8250|dock7
  -GOLD-   2272010523D 1   1.00000     0.00000
 Structure written by MMmdl.
 41 42  0  0  0  0  0  0  0  0  2 V2000
  153.4530  141.6941  160.8867 C   0  0  0  0  0  0  0  0  0  0  0  0
  153.2847  142.2631  159.4672 C   0  0  1  0  0  0  0  0  0  0  0  0
  152.2742  141.4762  158.6089 C   0  0  0  0  0  0  0  0  0  0  0  0
  150.8753  141.7024  158.9900 N   0  0  0  0  0  0  0  0  0  0  0  0
  149.9245  140.9494  158.1371 C   0  0  1  0  0  0  0  0  0  0  0  0
  149.7865  141.5551  156.7164 C   0  0  0  0  0  0  0  0  0  0  0  0
  150.2756  139.4411  158.0059 C   0  0  0  0  0  0  0  0  0  0  0  0
  149.1630  138.5738  158.3794 N   0  0  0  0  0  0  0  0  0  0  0  0
  149.2495  137.5076  159.1857 C   0  0  0  0  0  0  0  0  0  0  0  0
  150.3358  137.2006  159.6826 O   0  0  0  0  0  0  0  0  0  0  0  0
  148.0735  136.8640  159.3671 N   0  5  0  0  0  0  0  0  0  0  0  0
  147.7105  136.4640  160.5967 C   0  0  0  0  0  0  0  0  0  0  0  0
  147.8369  137.2365  161.6821 N   0  0  0  0  0  0  0  0  0  0  0  0
  147.4001  136.6200  162.8561 C   0  0  0  0  0  0  0  0  0  0  0  0
  146.9410  135.3442  162.6620 C   0  0  0  0  0  0  0  0  0  0  0  0
  147.0428  134.8765  160.9886 S   0  0  0  0  0  0  0  0  0  0  0  0
  150.6331  143.1481  158.9731 C   0  0  0  0  0  0  0  0  0  0  0  0
  151.6076  143.9293  159.8732 C   0  0  2  0  0  0  0  0  0  0  0  0
  151.3942  145.4435  159.7740 C   0  0  0  0  0  0  0  0  0  0  0  0
  152.9479  143.6481  159.4852 O   0  0  0  0  0  0  0  0  0  0  0  0
  153.8322  140.6727  160.8520 H   0  0  0  0  0  0  0  0  0  0  0  0
  152.5115  141.6719  161.4352 H   0  0  0  0  0  0  0  0  0  0  0  0
  154.1623  142.2891  161.4625 H   0  0  0  0  0  0  0  0  0  0  0  0
  154.2588  142.1945  158.9819 H   0  0  0  0  0  0  0  0  0  0  0  0
  152.4110  141.7505  157.5618 H   0  0  0  0  0  0  0  0  0  0  0  0
  152.5338  140.4224  158.6907 H   0  0  0  0  0  0  0  0  0  0  0  0
  148.9394  141.0054  158.6032 H   0  0  0  0  0  0  0  0  0  0  0  0
  149.1371  140.9650  156.0707 H   0  0  0  0  0  0  0  0  0  0  0  0
  150.7566  141.6274  156.2237 H   0  0  0  0  0  0  0  0  0  0  0  0
  149.3403  142.5482  156.7319 H   0  0  0  0  0  0  0  0  0  0  0  0
  150.5851  139.2179  156.9836 H   0  0  0  0  0  0  0  0  0  0  0  0
  151.0992  139.1620  158.6610 H   0  0  0  0  0  0  0  0  0  0  0  0
  148.2578  138.7938  157.9908 H   0  0  0  0  0  0  0  0  0  0  0  0
  147.4538  137.1643  163.7874 H   0  0  0  0  0  0  0  0  0  0  0  0
  146.5518  134.6547  163.3957 H   0  0  0  0  0  0  0  0  0  0  0  0
  150.6975  143.5202  157.9493 H   0  0  0  0  0  0  0  0  0  0  0  0
  149.6312  143.3754  159.3301 H   0  0  0  0  0  0  0  0  0  0  0  0
  151.4597  143.6324  160.9118 H   0  0  0  0  0  0  0  0  0  0  0  0
  150.3827  145.7179  160.0746 H   0  0  0  0  0  0  0  0  0  0  0  0
  151.5484  145.7977  158.7544 H   0  0  0  0  0  0  0  0  0  0  0  0
  152.0898  145.9779  160.4214 H   0  0  0  0  0  0  0  0  0  0  0  0
  1  2  1  0  0  0  0
  1 21  1  0  0  0  0
  1 22  1  0  0  0  0
  1 23  1  0  0  0  0
  2 20  1  0  0  0  0
  2  3  1  0  0  0  0
  2 24  1  0  0  0  0
  3  4  1  0  0  0  0
  3 25  1  0  0  0  0
  3 26  1  0  0  0  0
  4  5  1  0  0  0  0
  4 17  1  0  0  0  0
  5  6  1  0  0  0  0
  5  7  1  0  0  0  0
  5 27  1  0  0  0  0
  6 28  1  0  0  0  0
  6 29  1  0  0  0  0
  6 30  1  0  0  0  0
  7  8  1  0  0  0  0
  7 31  1  0  0  0  0
  7 32  1  0  0  0  0
  8  9  1  0  0  0  0
  8 33  1  0  0  0  0
  9 10  2  0  0  0  0
  9 11  1  0  0  0  0
 11 12  1  0  0  0  0
 12 16  1  0  0  0  0
 12 13  2  0  0  0  0
 13 14  1  0  0  0  0
 14 15  2  0  0  0  0
 14 34  1  0  0  0  0
 15 16  1  0  0  0  0
 15 35  1  0  0  0  0
 17 18  1  0  0  0  0
 17 36  1  0  0  0  0
 17 37  1  0  0  0  0
 18 19  1  0  0  0  0
 18 20  1  0  0  0  0
 18 38  1  0  0  0  0
 19 39  1  0  0  0  0
 19 40  1  0  0  0  0
 19 41  1  0  0  0  0
M  CHG  1  11  -1
M  END
> <s_m_source_file>
AV-unprocessed.smi

> <i_m_source_file_index>
2032

> <i_lp_mmshare_version>
43012

> <i_f3d_flags>
0

> <s_epik_input>
W0NIM11bQ0BASF0xW0NIMl1OKFtDSDJdW0NASF0oTzEpW0NIM10pW0NASF0oW0NIM10pW0NIMl1bTkhdQyg9TylbTkhdYzJuW2NIXVtjSF1zMg==

> <s_epik_cmdline>
J2VwaWtfcHl0aG9uJywgJy1waCcsICc3LjAnLCAnLXRuJywgJzgnLCAnLW1hJywgJzIwMCcsICctbWV0YWxfYmluZGluZycsICctaW1hZScsICc8aW5maWxlLm1hZT4nLCAnLW9tYWUnLCAnPG91dGZpbGUubWFlPic=

> <r_lp_tautomer_probability>
0.999

> <r_epik_Ionization_Penalty>
7.22375

> <r_epik_Ionization_Penalty_Charging>
5.82415

> <r_epik_Ionization_Penalty_Neutral>
1.39959

> <r_epik_State_Penalty>
6.03347

> <r_epik_Charging_Adjusted_Penalty>
11.8576

> <i_epik_Tot_Q>
-1

> <i_epik_Tot_abs_Q>
1

> <r_epik_Metal_State_Penalty>
2.01024

> <b_epik_Metal_Only>
1

> <s_lp_Force_Field>
OPLS_2005

> <r_lp_Energy>
26.7829

> <b_lp_Chiralities_Consistent>
1

> <s_lp_Variant>
AV-unprocessed.smi:2032-20

> <Gold.Version>
5.8.1

> <Gold.Id.Protein>
6NUR|6NUR_protein|mol2

> <Gold.PLP.Fitness>
46.5564

> <Gold.PLP.PLP>
-42.5323

> <Gold.PLP.part.hbond>
-3.1657

> <Gold.PLP.part.metal>
0.0000

> <Gold.PLP.part.buried>
-6.7828

> <Gold.PLP.part.nonpolar>
-33.2094

> <Gold.PLP.part.repulsive>
0.1483

> <Gold.PLP.ligand.clash>
0.0000

> <Gold.PLP.ligand.torsion>
1.6283

> <Gold.PLP.Chemscore.Hbond>
2.4073

> <Gold.PLP.Chemscore.CHOScore>
0.0000

> <Gold.PLP.Chemscore.Metal>
0.0000

> <Gold.Chemscore.Hbonds>
donor molecule, donor type, donor heavy atom, donor atom, acceptor molecule, acceptor atom, score
      P1  H  6896  6908       L1    10  0.34
      P1  H  6931  6943       L1    13  1.00
      P1  H  6934  6947       L1    13  0.65

> <Gold.PLP.Chemscore.Internal.Correction>
0.0589

> <Gold.Rescore>
     Score         DG    S(hbond)    S(metal)    S(lipo)     H(rot)  DE(clash)    DE(int)     intcor
     19.33     -20.87       2.46        0.00      95.08       1.54       0.00       1.54       ----

> <Gold.Chemscore.Fitness>
19.3270

> <Gold.Chemscore.DG>
-20.8712

> <Gold.Chemscore.ZeroCoef>
-5.4800

> <Gold.Chemscore.Hbond>
2.4604

> <Gold.Chemscore.Metal>
0.0000

> <Gold.Chemscore.Lipo>
95.0755

> <Gold.Chemscore.Internal_Hbond>
0.0000

> <Gold.Chemscore.DEClash>
0.0048

> <Gold.Chemscore.DEInternal>
1.5394

> <Gold.Chemscore.Rot>
1.5431

> <Gold.Chemscore.Internal.Correction>
   9.000000E+99

> <Gold.Chemscore.Hbonds>
donor molecule, donor type, donor heavy atom, donor atom, acceptor molecule, acceptor atom, score
      P1  H  6896  6908       L1    10  0.35
      P1  H  6931  6943       L1    13  0.81
      P1  H  6934  6947       L1    13  0.18

> <Gold.Chemscore.Hbond.Weighted>
-8.2176

> <Gold.Chemscore.Metal.Weighted>
-0.0000

> <Gold.Chemscore.Lipo.Weighted>
-11.1238

> <Gold.Chemscore.Internal_Hbond.Weighted>
0.0000

> <Gold.Chemscore.DEClash.Weighted>
0.0048

> <Gold.Chemscore.DEInternal.Weighted>
1.5394

> <Gold.Chemscore.Rot.Weighted>
3.9503

> <Gold.Chemscore.Internal.Correction.Weighted>
   9.000000E+99

> <Gold.Protein.RotatedTorsions>
[ 6907 6896 6895 6894 ] final -132.79 input  -60.11 | X-H torsion
[ 7974 7965 7964 7962 ] final -156.79 input  175.53 | X-H torsion
[ 8008 7997 7996 7995 ] final   27.50 input   59.86 | X-H torsion
[ 10167 10162 10161 10158 ] final -171.54 input  -65.29 | X-H torsion
[ 10718 10713 10712 10709 ] final  153.37 input   66.30 | X-H torsion
[ 10763 10752 10751 10750 ] final  101.91 input  -60.55 | X-H torsion
[ 11005 11000 10999 10996 ] final   86.46 input  -57.11 | X-H torsion

> <Gold.Protein.ActiveResidues>
 VAL166  LYS551  ARG553  GLY616  TRP617  ASP618  TYR619  PRO620  LYS621  CYS622 
 ASP623  PHE694  ASN695  SER759  ASP760  ASP761  ALA762  ILE779  LEU786  VAL792 
 PHE793  MET794  SER795  GLU796  ALA797  LYS798  CYS799  TRP800  GLU811  SER814 

> <Gold.Protein.RotatedAtoms>
  150.9664  133.6390  159.2745 H   0  0  0  0  0  0  0  0  0  0  0  0  # atno 6907 bound_to 6896
  151.3694  135.0918  159.9470 H   0  0  0  0  0  0  0  0  0  0  0  0  # atno 6908 bound_to 6896
  152.5167  133.9222  159.7594 H   0  0  0  0  0  0  0  0  0  0  0  0  # atno 6909 bound_to 6896
  144.7577  140.4061  143.6000 H   0  0  0  0  0  0  0  0  0  0  0  0  # atno 7974 bound_to 7965
  155.0439  140.3172  155.4715 H   0  0  0  0  0  0  0  0  0  0  0  0  # atno 8008 bound_to 7997
  156.2849  140.2158  156.5507 H   0  0  0  0  0  0  0  0  0  0  0  0  # atno 8009 bound_to 7997
  154.7267  140.0485  157.0676 H   0  0  0  0  0  0  0  0  0  0  0  0  # atno 8010 bound_to 7997
  139.5797  144.1452  152.1498 H   0  0  0  0  0  0  0  0  0  0  0  0  # atno 10167 bound_to 10162
  157.2456  131.0768  151.1763 H   0  0  0  0  0  0  0  0  0  0  0  0  # atno 10718 bound_to 10713
  153.3328  135.4028  155.1509 H   0  0  0  0  0  0  0  0  0  0  0  0  # atno 10763 bound_to 10752
  154.8627  135.3614  154.5448 H   0  0  0  0  0  0  0  0  0  0  0  0  # atno 10764 bound_to 10752
  153.5888  135.7074  153.5491 H   0  0  0  0  0  0  0  0  0  0  0  0  # atno 10765 bound_to 10752
  139.8944  134.8357  156.2724 H   0  0  0  0  0  0  0  0  0  0  0  0  # atno 11005 bound_to 11000
  145.6723  139.1601  143.2748 LP  0  0  0  0  0  0  0  0  0  0  0  0  # atno 17320 bound_to 7965
  146.1606  140.6793  142.9279 LP  0  0  0  0  0  0  0  0  0  0  0  0  # atno 17321 bound_to 7965
  140.1003  144.5545  150.6994 LP  0  0  0  0  0  0  0  0  0  0  0  0  # atno 17342 bound_to 10162
  140.7076  143.2480  151.4679 LP  0  0  0  0  0  0  0  0  0  0  0  0  # atno 17343 bound_to 10162
  157.3332  130.6995  149.6337 LP  0  0  0  0  0  0  0  0  0  0  0  0  # atno 17370 bound_to 10713
  155.9668  130.4301  150.4863 LP  0  0  0  0  0  0  0  0  0  0  0  0  # atno 17371 bound_to 10713
  141.0092  133.7106  156.1084 LP  0  0  0  0  0  0  0  0  0  0  0  0  # atno 17394 bound_to 11000
  140.7391  134.4170  157.5557 LP  0  0  0  0  0  0  0  0  0  0  0  0  # atno 17395 bound_to 11000

$$$$
