AV-unprocessed.smi:72|AV-procd|sdf|753|dock10
  -GOLD-   2262017 93D 1   1.00000     0.00000
 Structure written by MMmdl.
 29 30  0  0  0  0  0  0  0  0  1 V2000
  152.9662  141.2102  159.0642 N   0  0  0  0  0  0  0  0  0  0  0  0
  152.2117  141.0697  157.9182 C   0  0  0  0  0  0  0  0  0  0  0  0
  151.2090  142.0269  157.7111 N   0  0  0  0  0  0  0  0  0  0  0  0
  150.4997  141.9012  156.6345 C   0  0  0  0  0  0  0  0  0  0  0  0
  150.7376  140.8175  155.6957 N   0  0  0  0  0  0  0  0  0  0  0  0
  149.9253  140.6455  154.4231 C   0  0  2  0  0  0  0  0  0  0  0  0
  149.0610  141.7325  154.2541 O   0  0  0  0  0  0  0  0  0  0  0  0
  147.7145  141.3326  154.4928 C   0  0  1  0  0  0  0  0  0  0  0  0
  146.7196  142.2861  153.8086 C   0  0  0  0  0  0  0  0  0  0  0  0
  145.4145  142.0563  154.2954 O   0  0  0  0  0  0  0  0  0  0  0  0
  147.6941  139.8831  153.9921 C   0  0  1  0  0  0  0  0  0  0  0  0
  147.5569  139.8298  152.5834 O   0  0  0  0  0  0  0  0  0  0  0  0
  149.0610  139.3602  154.4139 C   0  0  2  0  0  0  0  0  0  0  0  0
  148.9579  138.7270  155.6778 O   0  0  0  0  0  0  0  0  0  0  0  0
  151.7699  139.8794  155.9727 C   0  0  0  0  0  0  0  0  0  0  0  0
  151.9796  138.9465  155.1973 O   0  0  0  0  0  0  0  0  0  0  0  0
  152.5084  140.0630  157.1475 N   0  0  0  0  0  0  0  0  0  0  0  0
  150.6501  140.6805  153.6081 H   0  0  0  0  0  0  0  0  0  0  0  0
  147.5329  141.3159  155.5689 H   0  0  0  0  0  0  0  0  0  0  0  0
  146.8727  139.3144  154.4303 H   0  0  0  0  0  0  0  0  0  0  0  0
  149.4728  138.6429  153.7026 H   0  0  0  0  0  0  0  0  0  0  0  0
  153.7143  140.5805  159.3159 H   0  0  0  0  0  0  0  0  0  0  0  0
  152.8257  141.9503  159.7364 H   0  0  0  0  0  0  0  0  0  0  0  0
  149.6961  142.5899  156.3744 H   0  0  0  0  0  0  0  0  0  0  0  0
  147.0000  143.3292  153.9582 H   0  0  0  0  0  0  0  0  0  0  0  0
  146.7026  142.1027  152.7339 H   0  0  0  0  0  0  0  0  0  0  0  0
  144.9851  141.4370  153.7252 H   0  0  0  0  0  0  0  0  0  0  0  0
  148.4196  139.8205  152.1981 H   0  0  0  0  0  0  0  0  0  0  0  0
  148.8085  139.3914  156.3331 H   0  0  0  0  0  0  0  0  0  0  0  0
  1  2  1  0  0  0  0
  1 22  1  0  0  0  0
  1 23  1  0  0  0  0
  2 17  2  0  0  0  0
  2  3  1  0  0  0  0
  3  4  2  0  0  0  0
  4  5  1  0  0  0  0
  4 24  1  0  0  0  0
  5  6  1  0  0  0  0
  5 15  1  0  0  0  0
  6 18  1  0  0  0  0
  6 13  1  0  0  0  0
  6  7  1  0  0  0  0
  7  8  1  0  0  0  0
  8 19  1  0  0  0  0
  8  9  1  0  0  0  0
  8 11  1  0  0  0  0
  9 10  1  0  0  0  0
  9 25  1  0  0  0  0
  9 26  1  0  0  0  0
 10 27  1  0  0  0  0
 11 20  1  0  0  0  0
 11 12  1  0  0  0  0
 11 13  1  0  0  0  0
 12 28  1  0  0  0  0
 13 21  1  0  0  0  0
 13 14  1  0  0  0  0
 14 29  1  0  0  0  0
 15 16  2  0  0  0  0
 15 17  1  0  0  0  0
M  END
> <s_m_source_file>
AV-unprocessed.smi

> <i_m_source_file_index>
72

> <i_lp_mmshare_version>
43012

> <i_f3d_flags>
0

> <s_epik_input>
W05IMl1jMW5bY0hdbihjKD1PKW4xKVtDQEBIXTJPW0NASF0oW0NIMl1bT0hdKVtDQEBIXShbT0hdKVtDQEhdMltPSF0=

> <s_epik_cmdline>
J2VwaWtfcHl0aG9uJywgJy1waCcsICc3LjAnLCAnLXRuJywgJzgnLCAnLW1hJywgJzIwMCcsICctbWV0YWxfYmluZGluZycsICctaW1hZScsICc8aW5maWxlLm1hZT4nLCAnLW9tYWUnLCAnPG91dGZpbGUubWFlPic=

> <r_lp_tautomer_probability>
4.77166e-05

> <r_epik_Ionization_Penalty>
1.3546

> <r_epik_Ionization_Penalty_Charging>
1.46833e-10

> <r_epik_Ionization_Penalty_Neutral>
1.3546

> <r_epik_State_Penalty>
3.51908

> <r_epik_Charging_Adjusted_Penalty>
3.51908

> <i_epik_Tot_Q>
0

> <i_epik_Tot_abs_Q>
0

> <r_epik_Metal_State_Penalty>
3.44088

> <b_epik_Metal_Only>
1

> <s_epik_Chemistry_Notes>
This compound contains an acetal/aminal-like group ( X-CH(R)-Y where X, Y are N, S, or O) that may be acid/base labile, releasing an aldehyde.

> <s_lp_Force_Field>
OPLS_2005

> <r_lp_Energy>
33.7938

> <b_lp_Chiralities_Consistent>
1

> <s_lp_Variant>
AV-unprocessed.smi:72-91

> <Gold.Version>
5.8.1

> <Gold.Id.Protein>
6NUR|6NUR_protein|mol2

> <Gold.PLP.Fitness>
39.4060

> <Gold.PLP.PLP>
-26.7923

> <Gold.PLP.part.hbond>
-3.9153

> <Gold.PLP.part.metal>
0.0000

> <Gold.PLP.part.buried>
-3.0078

> <Gold.PLP.part.nonpolar>
-19.5658

> <Gold.PLP.part.repulsive>
0.3417

> <Gold.PLP.ligand.clash>
0.0000

> <Gold.PLP.ligand.torsion>
0.1775

> <Gold.PLP.Chemscore.Hbond>
3.3070

> <Gold.PLP.Chemscore.CHOScore>
1.0000

> <Gold.PLP.Chemscore.Metal>
0.0000

> <Gold.Chemscore.Hbonds>
donor molecule, donor type, donor heavy atom, donor atom, acceptor molecule, acceptor atom, score
      L1  H    10    27       P1 10175  0.95
      L1  H    12    28       P1  7957  1.00
      P1  H  7997  8008       L1    17  1.00
      P1  H  8011  8017       L1     7  0.32
      L1  C     4    24       P1  8028  1.00

> <Gold.PLP.Chemscore.Internal.Correction>
0.0477

> <Gold.Rescore>
     Score         DG    S(hbond)    S(metal)    S(lipo)     H(rot)  DE(clash)    DE(int)     intcor
      5.42      -6.08       2.53        0.00      21.78       4.06       0.38       0.27       ----

> <Gold.Chemscore.Fitness>
5.4181

> <Gold.Chemscore.DG>
-6.0769

> <Gold.Chemscore.ZeroCoef>
-5.4800

> <Gold.Chemscore.Hbond>
2.5276

> <Gold.Chemscore.Metal>
0.0000

> <Gold.Chemscore.Lipo>
21.7810

> <Gold.Chemscore.Internal_Hbond>
0.0000

> <Gold.Chemscore.DEClash>
0.3839

> <Gold.Chemscore.DEInternal>
0.2748

> <Gold.Chemscore.Rot>
4.0600

> <Gold.Chemscore.Internal.Correction>
   9.000000E+99

> <Gold.Chemscore.Hbonds>
donor molecule, donor type, donor heavy atom, donor atom, acceptor molecule, acceptor atom, score
      L1  H    10    27       P1 10175  0.20
      L1  H    12    28       P1  7957  0.97
      P1  H  7997  8008       L1    17  0.42
      P1  H  8011  8017       L1     7  0.07

> <Gold.Chemscore.Hbond.Weighted>
-8.4421

> <Gold.Chemscore.Metal.Weighted>
-0.0000

> <Gold.Chemscore.Lipo.Weighted>
-2.5484

> <Gold.Chemscore.Internal_Hbond.Weighted>
0.0000

> <Gold.Chemscore.DEClash.Weighted>
0.3839

> <Gold.Chemscore.DEInternal.Weighted>
0.2748

> <Gold.Chemscore.Rot.Weighted>
10.3936

> <Gold.Chemscore.Internal.Correction.Weighted>
   9.000000E+99

> <Gold.Protein.RotatedTorsions>
[ 6907 6896 6895 6894 ] final  144.77 input  -60.11 | X-H torsion
[ 7974 7965 7964 7962 ] final  -72.69 input  175.53 | X-H torsion
[ 8008 7997 7996 7995 ] final  -58.24 input   59.86 | X-H torsion
[ 10167 10162 10161 10158 ] final -129.50 input  -65.29 | X-H torsion
[ 10718 10713 10712 10709 ] final  -34.80 input   66.30 | X-H torsion
[ 10763 10752 10751 10750 ] final    5.37 input  -60.55 | X-H torsion
[ 11005 11000 10999 10996 ] final  116.62 input  -57.11 | X-H torsion

> <Gold.Protein.ActiveResidues>
 VAL166  LYS551  ARG553  GLY616  TRP617  ASP618  TYR619  PRO620  LYS621  CYS622 
 ASP623  PHE694  ASN695  SER759  ASP760  ASP761  ALA762  ILE779  LEU786  VAL792 
 PHE793  MET794  SER795  GLU796  ALA797  LYS798  CYS799  TRP800  GLU811  SER814 

> <Gold.Protein.RotatedAtoms>
  152.1894  133.4762  159.4999 H   0  0  0  0  0  0  0  0  0  0  0  0  # atno 6907 bound_to 6896
  150.6948  134.1732  159.4229 H   0  0  0  0  0  0  0  0  0  0  0  0  # atno 6908 bound_to 6896
  151.9646  135.0106  160.0600 H   0  0  0  0  0  0  0  0  0  0  0  0  # atno 6909 bound_to 6896
  145.6618  140.9250  143.0929 H   0  0  0  0  0  0  0  0  0  0  0  0  # atno 7974 bound_to 7965
  154.4300  140.1088  156.5925 H   0  0  0  0  0  0  0  0  0  0  0  0  # atno 8008 bound_to 7997
  155.5997  140.3493  155.4571 H   0  0  0  0  0  0  0  0  0  0  0  0  # atno 8009 bound_to 7997
  156.0183  140.1234  157.0373 H   0  0  0  0  0  0  0  0  0  0  0  0  # atno 8010 bound_to 7997
  139.9392  143.6183  152.2508 H   0  0  0  0  0  0  0  0  0  0  0  0  # atno 10167 bound_to 10162
  156.3462  130.4301  149.7744 H   0  0  0  0  0  0  0  0  0  0  0  0  # atno 10718 bound_to 10713
  153.2602  135.6922  153.7587 H   0  0  0  0  0  0  0  0  0  0  0  0  # atno 10763 bound_to 10752
  153.6649  135.3354  155.3138 H   0  0  0  0  0  0  0  0  0  0  0  0  # atno 10764 bound_to 10752
  154.8427  135.4486  154.1589 H   0  0  0  0  0  0  0  0  0  0  0  0  # atno 10765 bound_to 10752
  139.9047  134.9600  156.7226 H   0  0  0  0  0  0  0  0  0  0  0  0  # atno 11005 bound_to 11000
  144.7086  139.8459  143.7422 LP  0  0  0  0  0  0  0  0  0  0  0  0  # atno 17320 bound_to 7965
  146.1119  139.4124  143.0282 LP  0  0  0  0  0  0  0  0  0  0  0  0  # atno 17321 bound_to 7965
  139.6719  144.7660  151.1768 LP  0  0  0  0  0  0  0  0  0  0  0  0  # atno 17342 bound_to 10162
  140.7616  143.5853  150.8852 LP  0  0  0  0  0  0  0  0  0  0  0  0  # atno 17343 bound_to 10162
  156.4961  130.8107  151.3114 LP  0  0  0  0  0  0  0  0  0  0  0  0  # atno 17370 bound_to 10713
  157.7454  130.9960  150.2763 LP  0  0  0  0  0  0  0  0  0  0  0  0  # atno 17371 bound_to 10713
  140.6989  133.9324  155.8012 LP  0  0  0  0  0  0  0  0  0  0  0  0  # atno 17394 bound_to 11000
  141.0387  134.0653  157.3929 LP  0  0  0  0  0  0  0  0  0  0  0  0  # atno 17395 bound_to 11000

$$$$
