#       Name:                AV-unprocessed.smi:1198
#       Creating user name   scv26
#       Creation time:       Fri Mar 27 04:02:59 2020


#       File generated by GOLD software.
#

@<TRIPOS>MOLECULE
AV-unprocessed.smi:1198
    45    46     1
SMALL
NO_CHARGES


@<TRIPOS>ATOM
      1 ****        -7.0707   0.3681  -1.1906 C.3            1 S1                 0.0000
      2 ****        -6.3899  -0.8506  -1.4704 O.3            1 S1                 0.0000
      3 ****        -5.0112  -0.8325  -1.5252 C.ar           1 S1                 0.0000
      4 ****        -4.3304  -2.0339  -1.8050 C.ar           1 S1                 0.0000
      5 ****        -2.9238  -2.0196  -1.8593 C.ar           1 S1                 0.0000
      6 ****        -2.2377  -0.8108  -1.6246 C.ar           1 S1                 0.0000
      7 ****        -0.8183  -0.8226  -1.7022 N.am           1 S1                 0.0000
      8 ****         0.0538   0.0676  -1.1982 C.2            1 S1                 0.0000
      9 ****        -0.2439   1.0502  -0.5196 O.2            1 S1                 0.0000
     10 ****         1.3172  -0.2603  -1.5058 N.am           1 S1                 0.0000
     11 ****         2.5030   0.5075  -1.1365 C.3            1 S1                 0.0000
     12 ****         3.1228   0.0282   0.1908 C.3            1 S1                 0.0000
     13 ****         4.4050   0.7690   0.5707 C.3            1 S1                 0.0000
     14 ****         4.5242   0.5863   2.0894 C.3            1 S1                 0.0000
     15 ****         3.1898   0.1625   2.5728 N.4            1 S1                 1.0000
     16 ****         2.7248   0.8603   3.7895 C.3            1 S1                 0.0000
     17 ****         2.2551   0.2416   1.4333 C.3            1 S1                 0.0000
     18 ****        -3.0133   0.3459  -1.3654 C.ar           1 S1                 0.0000
     19 ****        -4.3620   0.3386  -1.3127 N.ar           1 S1                 0.0000
     20 ****        -8.1455   0.1879  -1.1808 H              1 S1                 0.0000
     21 ****        -6.8692   1.1218  -1.9531 H              1 S1                 0.0000
     22 ****        -6.7934   0.7647  -0.2128 H              1 S1                 0.0000
     23 ****        -4.8778  -2.9494  -1.9750 H              1 S1                 0.0000
     24 ****        -2.3814  -2.9287  -2.0749 H              1 S1                 0.0000
     25 ****        -0.4181  -1.6255  -2.1653 H              1 S1                 0.0000
     26 ****         1.4692  -1.0889  -2.0626 H              1 S1                 0.0000
     27 ****         3.2318   0.3907  -1.9389 H              1 S1                 0.0000
     28 ****         2.2719   1.5734  -1.0914 H              1 S1                 0.0000
     29 ****         3.3554  -1.0353   0.1117 H              1 S1                 0.0000
     30 ****         5.2788   0.3983   0.0340 H              1 S1                 0.0000
     31 ****         4.3036   1.8310   0.3419 H              1 S1                 0.0000
     32 ****         5.2463  -0.1930   2.3346 H              1 S1                 0.0000
     33 ****         4.8611   1.5100   2.5627 H              1 S1                 0.0000
     34 ****         2.6277   1.9329   3.6155 H              1 S1                 0.0000
     35 ****         3.4285   0.7073   4.6083 H              1 S1                 0.0000
     36 ****         1.7541   0.4741   4.1018 H              1 S1                 0.0000
     37 ****         1.7982   1.2324   1.4024 H              1 S1                 0.0000
     38 ****         1.4572  -0.4962   1.5229 H              1 S1                 0.0000
     39 ****        -2.5651   1.3150  -1.2136 H              1 S1                 0.0000
     40 ****         3.2727  -0.8178   2.8016 H              1 S1                 0.0000
     41 ****        -6.7172  -1.1755  -2.3577 LP             1 S1                 0.0000
     42 ****        -6.6493  -1.5045  -0.7597 LP             1 S1                 0.0000
     43 ****        -1.2023   1.2367  -0.3033 LP             1 S1                 0.0000
     44 ****         0.4725   1.6621  -0.1845 LP             1 S1                 0.0000
     45 ****        -4.8708   1.1779  -1.1213 LP             1 S1                 0.0000
@<TRIPOS>BOND
    1    1    2 1     
    2    1   20 1     
    3    1   21 1     
    4    1   22 1     
    5    2    3 1     
    6    3   19 ar    
    7    3    4 ar    
    8    4    5 ar    
    9    4   23 1     
   10    5    6 ar    
   11    5   24 1     
   12    6    7 1     
   13    6   18 ar    
   14    7    8 am    
   15    7   25 1     
   16    8    9 2     
   17    8   10 am    
   18   10   11 1     
   19   10   26 1     
   20   11   12 1     
   21   11   27 1     
   22   11   28 1     
   23   12   17 1     
   24   12   13 1     
   25   12   29 1     
   26   13   14 1     
   27   13   30 1     
   28   13   31 1     
   29   14   15 1     
   30   14   32 1     
   31   14   33 1     
   32   15   16 1     
   33   15   17 1     
   34   15   40 1     
   35   16   34 1     
   36   16   35 1     
   37   16   36 1     
   38   17   37 1     
   39   17   38 1     
   40   18   19 ar    
   41   18   39 1     
   42    2   41 1     
   43    2   42 1     
   44    9   43 1     
   45    9   44 1     
   46   19   45 1     
@<TRIPOS>SUBSTRUCTURE
      1 S1             1
@<TRIPOS>SET
LONE_PAIRS      STATIC     ATOMS    <user>   **** ""
5 41 42 43 44 45
DONOR_HYDROGENS      STATIC     ATOMS    <user>   **** ""
3 25 26 40
ATOM$BLUE        STATIC     ATOMS    COLORGROUP SYSTEM
5 41 42 43 44 45
ATOM$RED        STATIC     ATOMS    COLORGROUP SYSTEM
3 25 26 40
