AV-unprocessed.smi:3185|AV-procd|sdf|12170|dock10
  -GOLD-   2272018 03D 1   1.00000     0.00000
 Structure written by MMmdl.
 37 38  0  0  0  0  0  0  0  0  1 V2000
  152.9320  142.4458  161.2750 N   0  0  0  0  0  0  0  0  0  0  0  0
  152.9911  142.9414  160.2313 C   0  0  0  0  0  0  0  0  0  0  0  0
  153.0667  143.5715  158.9047 C   0  0  0  0  0  0  0  0  0  0  0  0
  151.9387  144.5801  158.6625 C   0  0  0  0  0  0  0  0  0  0  0  0
  150.5537  143.9362  158.7976 C   0  0  0  0  0  0  0  0  0  0  0  0
  150.2090  143.2625  157.5543 N   0  0  0  0  0  0  0  0  0  0  0  0
  151.0073  142.0587  157.3324 C   0  0  1  0  0  0  0  0  0  0  0  0
  150.7426  140.9816  158.4103 C   0  0  0  0  0  0  0  0  0  0  0  0
  151.5784  139.7186  158.1465 C   0  0  0  0  0  0  0  0  0  0  0  0
  151.3331  139.1515  156.7401 C   0  0  0  0  0  0  0  0  0  0  0  0
  151.5685  140.2171  155.6533 C   0  0  0  0  0  0  0  0  0  0  0  0
  150.7822  141.5280  155.8881 C   0  0  1  0  0  0  0  0  0  0  0  0
  149.3757  141.4204  155.4880 N   0  0  0  0  0  0  0  0  0  0  0  0
  148.8865  141.0973  154.2379 C   0  0  0  0  0  0  0  0  0  0  0  0
  147.5231  141.1116  154.3072 C   0  0  0  0  0  0  0  0  0  0  0  0
  147.2601  141.4598  155.6600 C   0  0  0  0  0  0  0  0  0  0  0  0
  148.3663  141.6431  156.3603 N   0  0  0  0  0  0  0  0  0  0  0  0
  154.0380  144.0595  158.8228 H   0  0  0  0  0  0  0  0  0  0  0  0
  153.0371  142.7791  158.1566 H   0  0  0  0  0  0  0  0  0  0  0  0
  152.0333  145.4035  159.3719 H   0  0  0  0  0  0  0  0  0  0  0  0
  152.0495  145.0122  157.6670 H   0  0  0  0  0  0  0  0  0  0  0  0
  150.5591  143.2173  159.6180 H   0  0  0  0  0  0  0  0  0  0  0  0
  149.8156  144.7018  159.0348 H   0  0  0  0  0  0  0  0  0  0  0  0
  150.3579  143.9019  156.7869 H   0  0  0  0  0  0  0  0  0  0  0  0
  152.0592  142.3419  157.3962 H   0  0  0  0  0  0  0  0  0  0  0  0
  150.9965  141.3580  159.4007 H   0  0  0  0  0  0  0  0  0  0  0  0
  149.6844  140.7249  158.4513 H   0  0  0  0  0  0  0  0  0  0  0  0
  152.6368  139.9560  158.2602 H   0  0  0  0  0  0  0  0  0  0  0  0
  151.3512  138.9601  158.8960 H   0  0  0  0  0  0  0  0  0  0  0  0
  151.9959  138.3033  156.5677 H   0  0  0  0  0  0  0  0  0  0  0  0
  150.3212  138.7537  156.6740 H   0  0  0  0  0  0  0  0  0  0  0  0
  152.6335  140.4515  155.6301 H   0  0  0  0  0  0  0  0  0  0  0  0
  151.3321  139.8069  154.6708 H   0  0  0  0  0  0  0  0  0  0  0  0
  151.2188  142.2673  155.2147 H   0  0  0  0  0  0  0  0  0  0  0  0
  149.5440  140.8858  153.4075 H   0  0  0  0  0  0  0  0  0  0  0  0
  146.8213  140.9050  153.5129 H   0  0  0  0  0  0  0  0  0  0  0  0
  146.3062  141.5836  156.1508 H   0  0  0  0  0  0  0  0  0  0  0  0
  1  2  3  0  0  0  0
  2  3  1  0  0  0  0
  3  4  1  0  0  0  0
  3 18  1  0  0  0  0
  3 19  1  0  0  0  0
  4  5  1  0  0  0  0
  4 20  1  0  0  0  0
  4 21  1  0  0  0  0
  5  6  1  0  0  0  0
  5 22  1  0  0  0  0
  5 23  1  0  0  0  0
  6  7  1  0  0  0  0
  6 24  1  0  0  0  0
  7 12  1  0  0  0  0
  7  8  1  0  0  0  0
  7 25  1  0  0  0  0
  8  9  1  0  0  0  0
  8 26  1  0  0  0  0
  8 27  1  0  0  0  0
  9 10  1  0  0  0  0
  9 28  1  0  0  0  0
  9 29  1  0  0  0  0
 10 11  1  0  0  0  0
 10 30  1  0  0  0  0
 10 31  1  0  0  0  0
 11 12  1  0  0  0  0
 11 32  1  0  0  0  0
 11 33  1  0  0  0  0
 12 13  1  0  0  0  0
 12 34  1  0  0  0  0
 13 17  1  0  0  0  0
 13 14  1  0  0  0  0
 14 15  2  0  0  0  0
 14 35  1  0  0  0  0
 15 16  1  0  0  0  0
 15 36  1  0  0  0  0
 16 17  2  0  0  0  0
 16 37  1  0  0  0  0
M  END
> <s_m_source_file>
AV-unprocessed.smi

> <i_m_source_file_index>
3185

> <i_lp_mmshare_version>
43012

> <i_f3d_flags>
0

> <s_epik_input>
TiNDW0NIMl1bQ0gyXVtDSDJdW05IXVtDQEBIXTFbQ0gyXVtDSDJdW0NIMl1bQ0gyXVtDQEhdMW4yW2NIXVtjSF1bY0hdbjI=

> <s_epik_cmdline>
J2VwaWtfcHl0aG9uJywgJy1waCcsICc3LjAnLCAnLXRuJywgJzgnLCAnLW1hJywgJzIwMCcsICctbWV0YWxfYmluZGluZycsICctaW1hZScsICc8aW5maWxlLm1hZT4nLCAnLW9tYWUnLCAnPG91dGZpbGUubWFlPic=

> <r_lp_tautomer_probability>
1

> <r_epik_Ionization_Penalty>
2.21326

> <r_epik_Ionization_Penalty_Charging>
0

> <r_epik_Ionization_Penalty_Neutral>
2.21326

> <r_epik_State_Penalty>
2.35651

> <r_epik_Charging_Adjusted_Penalty>
2.35651

> <i_epik_Tot_Q>
0

> <i_epik_Tot_abs_Q>
0

> <r_epik_Metal_State_Penalty>
2.3555

> <b_epik_Metal_Only>
0

> <s_lp_Force_Field>
OPLS_2005

> <r_lp_Energy>
19.4285

> <b_lp_Chiralities_Consistent>
1

> <s_lp_Variant>
AV-unprocessed.smi:3185-6

> <Gold.Version>
5.8.1

> <Gold.Id.Protein>
6NUR|6NUR_protein|mol2

> <Gold.PLP.Fitness>
41.9146

> <Gold.PLP.PLP>
-37.7215

> <Gold.PLP.part.hbond>
-1.0000

> <Gold.PLP.part.metal>
0.0000

> <Gold.PLP.part.buried>
-4.8484

> <Gold.PLP.part.nonpolar>
-32.7919

> <Gold.PLP.part.repulsive>
0.1630

> <Gold.PLP.ligand.clash>
0.0000

> <Gold.PLP.ligand.torsion>
0.2132

> <Gold.PLP.Chemscore.Hbond>
0.5120

> <Gold.PLP.Chemscore.CHOScore>
1.0000

> <Gold.PLP.Chemscore.Metal>
0.0000

> <Gold.Chemscore.Hbonds>
donor molecule, donor type, donor heavy atom, donor atom, acceptor molecule, acceptor atom, score
      L1  H     6    24       P1  8028  0.51
      L1  C    14    35       P1  7957  1.00

> <Gold.PLP.Chemscore.Internal.Correction>
0.0835

> <Gold.Rescore>
     Score         DG    S(hbond)    S(metal)    S(lipo)     H(rot)  DE(clash)    DE(int)     intcor
     12.05     -13.83       0.91        0.00      85.11       1.81       0.00       1.77       ----

> <Gold.Chemscore.Fitness>
12.0497

> <Gold.Chemscore.DG>
-13.8254

> <Gold.Chemscore.ZeroCoef>
-5.4800

> <Gold.Chemscore.Hbond>
0.9052

> <Gold.Chemscore.Metal>
0.0000

> <Gold.Chemscore.Lipo>
85.1141

> <Gold.Chemscore.Internal_Hbond>
0.0000

> <Gold.Chemscore.DEClash>
0.0030

> <Gold.Chemscore.DEInternal>
1.7727

> <Gold.Chemscore.Rot>
1.8110

> <Gold.Chemscore.Internal.Correction>
   9.000000E+99

> <Gold.Chemscore.Hbonds>
donor molecule, donor type, donor heavy atom, donor atom, acceptor molecule, acceptor atom, score
      L1  H     6    24       P1  8028  0.49

> <Gold.Chemscore.Hbond.Weighted>
-3.0233

> <Gold.Chemscore.Metal.Weighted>
-0.0000

> <Gold.Chemscore.Lipo.Weighted>
-9.9584

> <Gold.Chemscore.Internal_Hbond.Weighted>
0.0000

> <Gold.Chemscore.DEClash.Weighted>
0.0030

> <Gold.Chemscore.DEInternal.Weighted>
1.7727

> <Gold.Chemscore.Rot.Weighted>
4.6362

> <Gold.Chemscore.Internal.Correction.Weighted>
   9.000000E+99

> <Gold.Protein.RotatedTorsions>
[ 6907 6896 6895 6894 ] final -121.97 input  -60.11 | X-H torsion
[ 7974 7965 7964 7962 ] final  132.20 input  175.53 | X-H torsion
[ 8008 7997 7996 7995 ] final   95.18 input   59.86 | X-H torsion
[ 10167 10162 10161 10158 ] final   59.56 input  -65.29 | X-H torsion
[ 10718 10713 10712 10709 ] final -138.98 input   66.30 | X-H torsion
[ 10763 10752 10751 10750 ] final -172.38 input  -60.55 | X-H torsion
[ 11005 11000 10999 10996 ] final  -48.03 input  -57.11 | X-H torsion

> <Gold.Protein.ActiveResidues>
 VAL166  LYS551  ARG553  GLY616  TRP617  ASP618  TYR619  PRO620  LYS621  CYS622 
 ASP623  PHE694  ASN695  SER759  ASP760  ASP761  ALA762  ILE779  LEU786  VAL792 
 PHE793  MET794  SER795  GLU796  ALA797  LYS798  CYS799  TRP800  GLU811  SER814 

> <Gold.Protein.RotatedAtoms>
  150.8532  133.7754  159.3017 H   0  0  0  0  0  0  0  0  0  0  0  0  # atno 6907 bound_to 6896
  151.5420  135.1067  159.9938 H   0  0  0  0  0  0  0  0  0  0  0  0  # atno 6908 bound_to 6896
  152.4569  133.7699  159.6849 H   0  0  0  0  0  0  0  0  0  0  0  0  # atno 6909 bound_to 6896
  144.9993  139.4328  143.5300 H   0  0  0  0  0  0  0  0  0  0  0  0  # atno 7974 bound_to 7965
  156.0661  140.3290  155.7519 H   0  0  0  0  0  0  0  0  0  0  0  0  # atno 8008 bound_to 7997
  155.5379  140.0599  157.2893 H   0  0  0  0  0  0  0  0  0  0  0  0  # atno 8009 bound_to 7997
  154.4506  140.1916  156.0549 H   0  0  0  0  0  0  0  0  0  0  0  0  # atno 8010 bound_to 7997
  140.1751  144.4238  150.6642 H   0  0  0  0  0  0  0  0  0  0  0  0  # atno 10167 bound_to 10162
  156.3055  130.7452  151.1515 H   0  0  0  0  0  0  0  0  0  0  0  0  # atno 10718 bound_to 10713
  154.6200  135.2874  155.0337 H   0  0  0  0  0  0  0  0  0  0  0  0  # atno 10763 bound_to 10752
  154.1536  135.6499  153.4973 H   0  0  0  0  0  0  0  0  0  0  0  0  # atno 10764 bound_to 10752
  153.0231  135.5361  154.6986 H   0  0  0  0  0  0  0  0  0  0  0  0  # atno 10765 bound_to 10752
  141.0676  133.6689  156.3382 H   0  0  0  0  0  0  0  0  0  0  0  0  # atno 11005 bound_to 11000
  146.3448  139.9372  142.8746 LP  0  0  0  0  0  0  0  0  0  0  0  0  # atno 17320 bound_to 7965
  145.2175  140.9921  143.4064 LP  0  0  0  0  0  0  0  0  0  0  0  0  # atno 17321 bound_to 7965
  140.6556  143.2237  151.5976 LP  0  0  0  0  0  0  0  0  0  0  0  0  # atno 17342 bound_to 10162
  139.5320  144.2887  152.1170 LP  0  0  0  0  0  0  0  0  0  0  0  0  # atno 17343 bound_to 10162
  157.7378  131.0547  150.5331 LP  0  0  0  0  0  0  0  0  0  0  0  0  # atno 17370 bound_to 10713
  156.5464  130.4220  149.6129 LP  0  0  0  0  0  0  0  0  0  0  0  0  # atno 17371 bound_to 10713
  140.5741  134.5811  157.5464 LP  0  0  0  0  0  0  0  0  0  0  0  0  # atno 17394 bound_to 11000
  139.9491  134.7648  156.0490 LP  0  0  0  0  0  0  0  0  0  0  0  0  # atno 17395 bound_to 11000

$$$$
