AV-unprocessed.smi:102|AV-procd|sdf|948|dock2
  -GOLD-   2262017473D 1   1.00000     0.00000
 Structure written by MMmdl.
 44 45  0  0  0  0  0  0  0  0  1 V2000
  148.4807  133.3895  155.6244 C   0  0  0  0  0  0  0  0  0  0  0  0
  148.5862  133.4987  157.1403 C   0  0  0  0  0  0  0  0  0  0  0  0
  149.4083  132.8374  157.7748 O   0  0  0  0  0  0  0  0  0  0  0  0
  147.7059  134.3682  157.6590 O   0  0  0  0  0  0  0  0  0  0  0  0
  147.7284  134.6374  159.0506 C   0  0  0  0  0  0  0  0  0  0  0  0
  148.7744  135.7301  159.3439 C   0  0  1  0  0  0  0  0  0  0  0  0
  149.6380  135.8672  158.2204 O   0  0  0  0  0  0  0  0  0  0  0  0
  149.0628  136.7393  157.2948 C   0  0  2  0  0  0  0  0  0  0  0  0
  150.1628  137.5251  156.6172 N   0  0  0  0  0  0  0  0  0  0  0  0
  150.1701  138.9122  156.6799 C   0  0  0  0  0  0  0  0  0  0  0  0
  151.1062  139.6747  156.0669 C   0  0  0  0  0  0  0  0  0  0  0  0
  151.0494  141.0127  156.1792 F   0  0  0  0  0  0  0  0  0  0  0  0
  152.1715  139.0583  155.2820 C   0  0  0  0  0  0  0  0  0  0  0  0
  153.0682  139.6630  154.6975 O   0  0  0  0  0  0  0  0  0  0  0  0
  152.1100  137.6632  155.2237 N   0  0  0  0  0  0  0  0  0  0  0  0
  151.1469  136.8659  155.8448 C   0  0  0  0  0  0  0  0  0  0  0  0
  151.1810  135.6455  155.7009 O   0  0  0  0  0  0  0  0  0  0  0  0
  148.0546  137.6330  158.0432 C   0  0  1  0  0  0  0  0  0  0  0  0
  146.7532  137.3993  157.5106 O   0  0  0  0  0  0  0  0  0  0  0  0
  146.4831  137.6704  156.2215 C   0  0  0  0  0  0  0  0  0  0  0  0
  145.0464  137.3317  155.8482 C   0  0  0  0  0  0  0  0  0  0  0  0
  147.2659  138.1463  155.3996 O   0  0  0  0  0  0  0  0  0  0  0  0
  148.1923  137.1433  159.4850 C   0  0  1  0  0  0  0  0  0  0  0  0
  146.9696  137.2070  160.2129 O   0  0  0  0  0  0  0  0  0  0  0  0
  146.9221  136.8201  161.4986 C   0  0  0  0  0  0  0  0  0  0  0  0
  145.5113  136.8788  162.0688 C   0  0  0  0  0  0  0  0  0  0  0  0
  147.8767  136.4439  162.1782 O   0  0  0  0  0  0  0  0  0  0  0  0
  152.8188  137.1924  154.6801 H   0  0  0  0  0  0  0  0  0  0  0  0
  147.7952  134.1377  155.2255 H   0  0  0  0  0  0  0  0  0  0  0  0
  148.1164  132.4014  155.3431 H   0  0  0  0  0  0  0  0  0  0  0  0
  149.4584  133.5404  155.1665 H   0  0  0  0  0  0  0  0  0  0  0  0
  146.7379  134.9324  159.3987 H   0  0  0  0  0  0  0  0  0  0  0  0
  147.9947  133.7172  159.5720 H   0  0  0  0  0  0  0  0  0  0  0  0
  149.3458  135.4637  160.2337 H   0  0  0  0  0  0  0  0  0  0  0  0
  148.5888  136.1469  156.5104 H   0  0  0  0  0  0  0  0  0  0  0  0
  149.4022  139.4219  157.2442 H   0  0  0  0  0  0  0  0  0  0  0  0
  148.3394  138.6817  157.9509 H   0  0  0  0  0  0  0  0  0  0  0  0
  144.8027  136.3149  156.1567 H   0  0  0  0  0  0  0  0  0  0  0  0
  144.9019  137.4092  154.7702 H   0  0  0  0  0  0  0  0  0  0  0  0
  144.3569  138.0186  156.3392 H   0  0  0  0  0  0  0  0  0  0  0  0
  148.9360  137.7734  159.9740 H   0  0  0  0  0  0  0  0  0  0  0  0
  145.0113  137.7952  161.7546 H   0  0  0  0  0  0  0  0  0  0  0  0
  145.5376  136.8552  163.1585 H   0  0  0  0  0  0  0  0  0  0  0  0
  144.9281  136.0274  161.7177 H   0  0  0  0  0  0  0  0  0  0  0  0
  1  2  1  0  0  0  0
  1 29  1  0  0  0  0
  1 30  1  0  0  0  0
  1 31  1  0  0  0  0
  2  3  2  0  0  0  0
  2  4  1  0  0  0  0
  4  5  1  0  0  0  0
  5  6  1  0  0  0  0
  5 32  1  0  0  0  0
  5 33  1  0  0  0  0
  6 23  1  0  0  0  0
  6  7  1  0  0  0  0
  6 34  1  0  0  0  0
  7  8  1  0  0  0  0
  8  9  1  0  0  0  0
  8 18  1  0  0  0  0
  8 35  1  0  0  0  0
  9 16  1  0  0  0  0
  9 10  1  0  0  0  0
 10 11  2  0  0  0  0
 10 36  1  0  0  0  0
 11 12  1  0  0  0  0
 11 13  1  0  0  0  0
 13 14  2  0  0  0  0
 13 15  1  0  0  0  0
 15 28  1  0  0  0  0
 15 16  1  0  0  0  0
 16 17  2  0  0  0  0
 18 19  1  0  0  0  0
 18 23  1  0  0  0  0
 18 37  1  0  0  0  0
 19 20  1  0  0  0  0
 20 21  1  0  0  0  0
 20 22  2  0  0  0  0
 21 38  1  0  0  0  0
 21 39  1  0  0  0  0
 21 40  1  0  0  0  0
 23 24  1  0  0  0  0
 23 41  1  0  0  0  0
 24 25  1  0  0  0  0
 25 26  1  0  0  0  0
 25 27  2  0  0  0  0
 26 42  1  0  0  0  0
 26 43  1  0  0  0  0
 26 44  1  0  0  0  0
M  END
> <s_m_source_file>
AV-unprocessed.smi

> <i_m_source_file_index>
102

> <i_lp_mmshare_version>
43012

> <i_f3d_flags>
0

> <s_epik_input>
W0NIM11DKD1PKU9bQ0gyXVtDQEBIXTFPW0NASF0oW0NAQEhdKE9DKD1PKVtDSDNdKVtDQEhdMU9DKD1PKVtDSDNdKW4yW2NIXWMoRiljKD1PKVtuSF1jMj1P

> <s_epik_cmdline>
J2VwaWtfcHl0aG9uJywgJy1waCcsICc3LjAnLCAnLXRuJywgJzgnLCAnLW1hJywgJzIwMCcsICctbWV0YWxfYmluZGluZycsICctaW1hZScsICc8aW5maWxlLm1hZT4nLCAnLW9tYWUnLCAnPG91dGZpbGUubWFlPic=

> <r_lp_tautomer_probability>
0.999537

> <r_epik_Ionization_Penalty>
0.058267

> <r_epik_Ionization_Penalty_Charging>
0.058267

> <r_epik_Ionization_Penalty_Neutral>
6.57791e-16

> <r_epik_State_Penalty>
0.0503774

> <r_epik_Charging_Adjusted_Penalty>
0.108644

> <i_epik_Tot_Q>
0

> <i_epik_Tot_abs_Q>
0

> <r_epik_Metal_State_Penalty>
2.6644

> <b_epik_Metal_Only>
0

> <s_epik_Chemistry_Notes>
This compound has an ester and may undergo hydrolysis at high or low pH. This compound contains an acetal/aminal-like group ( X-CH(R)-Y where X, Y are N, S, or O) that may be acid/base labile, releasing an aldehyde.

> <s_lp_Force_Field>
OPLS_2005

> <r_lp_Energy>
11.7279

> <b_lp_Chiralities_Consistent>
1

> <s_lp_Variant>
AV-unprocessed.smi:102-4

> <Gold.Version>
5.8.1

> <Gold.Id.Protein>
6NUR|6NUR_protein|mol2

> <Gold.PLP.Fitness>
37.0516

> <Gold.PLP.PLP>
-25.8057

> <Gold.PLP.part.hbond>
-7.0000

> <Gold.PLP.part.metal>
0.0000

> <Gold.PLP.part.buried>
-2.2584

> <Gold.PLP.part.nonpolar>
-17.3500

> <Gold.PLP.part.repulsive>
0.4982

> <Gold.PLP.ligand.clash>
0.0000

> <Gold.PLP.ligand.torsion>
0.7586

> <Gold.PLP.Chemscore.Hbond>
4.1988

> <Gold.PLP.Chemscore.CHOScore>
0.0000

> <Gold.PLP.Chemscore.Metal>
0.0000

> <Gold.Chemscore.Hbonds>
donor molecule, donor type, donor heavy atom, donor atom, acceptor molecule, acceptor atom, score
      P1  H  6896  6909       L1     3  0.46
      P1  H  6931  6943       L1    27  0.56
      P1  H  7989  7998       L1    14  0.16
      P1  H  7997  8008       L1    14  1.00
      P1  H 10752 10765       L1    17  0.66

> <Gold.PLP.Chemscore.Internal.Correction>
0.1666

> <Gold.Rescore>
     Score         DG    S(hbond)    S(metal)    S(lipo)     H(rot)  DE(clash)    DE(int)     intcor
      5.14     -10.05       3.44        0.00      29.46       4.05       0.04       4.87       ----

> <Gold.Chemscore.Fitness>
5.1355

> <Gold.Chemscore.DG>
-10.0512

> <Gold.Chemscore.ZeroCoef>
-5.4800

> <Gold.Chemscore.Hbond>
3.4423

> <Gold.Chemscore.Metal>
0.0000

> <Gold.Chemscore.Lipo>
29.4632

> <Gold.Chemscore.Internal_Hbond>
0.0000

> <Gold.Chemscore.DEClash>
0.0425

> <Gold.Chemscore.DEInternal>
4.8732

> <Gold.Chemscore.Rot>
4.0520

> <Gold.Chemscore.Internal.Correction>
   9.000000E+99

> <Gold.Chemscore.Hbonds>
donor molecule, donor type, donor heavy atom, donor atom, acceptor molecule, acceptor atom, score
      P1  H  6896  6909       L1     3  0.46
      P1  H  6931  6943       L1    27  0.08
      P1  H  7989  7998       L1    14  0.02
      P1  H  7997  8008       L1    14  0.88
      P1  H 10752 10765       L1    17  0.15

> <Gold.Chemscore.Hbond.Weighted>
-11.4972

> <Gold.Chemscore.Metal.Weighted>
-0.0000

> <Gold.Chemscore.Lipo.Weighted>
-3.4472

> <Gold.Chemscore.Internal_Hbond.Weighted>
0.0000

> <Gold.Chemscore.DEClash.Weighted>
0.0425

> <Gold.Chemscore.DEInternal.Weighted>
4.8732

> <Gold.Chemscore.Rot.Weighted>
10.3732

> <Gold.Chemscore.Internal.Correction.Weighted>
   9.000000E+99

> <Gold.Protein.RotatedTorsions>
[ 6907 6896 6895 6894 ] final  -16.63 input  -60.11 | X-H torsion
[ 7974 7965 7964 7962 ] final  133.19 input  175.53 | X-H torsion
[ 8008 7997 7996 7995 ] final  -12.50 input   59.86 | X-H torsion
[ 10167 10162 10161 10158 ] final   43.19 input  -65.29 | X-H torsion
[ 10718 10713 10712 10709 ] final -122.56 input   66.30 | X-H torsion
[ 10763 10752 10751 10750 ] final -142.88 input  -60.55 | X-H torsion
[ 11005 11000 10999 10996 ] final   90.03 input  -57.11 | X-H torsion

> <Gold.Protein.ActiveResidues>
 VAL166  LYS551  ARG553  GLY616  TRP617  ASP618  TYR619  PRO620  LYS621  CYS622 
 ASP623  PHE694  ASN695  SER759  ASP760  ASP761  ALA762  ILE779  LEU786  VAL792 
 PHE793  MET794  SER795  GLU796  ALA797  LYS798  CYS799  TRP800  GLU811  SER814 

> <Gold.Protein.RotatedAtoms>
  151.3056  135.0780  159.9253 H   0  0  0  0  0  0  0  0  0  0  0  0  # atno 6907 bound_to 6896
  152.5288  133.9788  159.7807 H   0  0  0  0  0  0  0  0  0  0  0  0  # atno 6908 bound_to 6896
  151.0082  133.5938  159.2716 H   0  0  0  0  0  0  0  0  0  0  0  0  # atno 6909 bound_to 6896
  144.9891  139.4425  143.5348 H   0  0  0  0  0  0  0  0  0  0  0  0  # atno 7974 bound_to 7965
  154.5372  140.2274  155.8703 H   0  0  0  0  0  0  0  0  0  0  0  0  # atno 8008 bound_to 7997
  156.1823  140.3097  155.9134 H   0  0  0  0  0  0  0  0  0  0  0  0  # atno 8009 bound_to 7997
  155.3331  140.0446  157.3034 H   0  0  0  0  0  0  0  0  0  0  0  0  # atno 8010 bound_to 7997
  140.3468  144.2401  150.6149 H   0  0  0  0  0  0  0  0  0  0  0  0  # atno 10167 bound_to 10162
  156.1429  130.6479  150.9798 H   0  0  0  0  0  0  0  0  0  0  0  0  # atno 10718 bound_to 10713
  154.8492  135.3483  154.6099 H   0  0  0  0  0  0  0  0  0  0  0  0  # atno 10763 bound_to 10752
  153.6707  135.6985  153.5152 H   0  0  0  0  0  0  0  0  0  0  0  0  # atno 10764 bound_to 10752
  153.2744  135.4283  155.0976 H   0  0  0  0  0  0  0  0  0  0  0  0  # atno 10765 bound_to 10752
  139.8864  134.8588  156.3226 H   0  0  0  0  0  0  0  0  0  0  0  0  # atno 11005 bound_to 11000
  146.3427  139.9212  142.8766 LP  0  0  0  0  0  0  0  0  0  0  0  0  # atno 17320 bound_to 7965
  145.2311  140.9973  143.3990 LP  0  0  0  0  0  0  0  0  0  0  0  0  # atno 17321 bound_to 7965
  140.5257  143.2255  151.8319 LP  0  0  0  0  0  0  0  0  0  0  0  0  # atno 17342 bound_to 10162
  139.4832  144.4783  151.9339 LP  0  0  0  0  0  0  0  0  0  0  0  0  # atno 17343 bound_to 10162
  157.6591  131.0884  150.7879 LP  0  0  0  0  0  0  0  0  0  0  0  0  # atno 17370 bound_to 10713
  156.7953  130.4903  149.5378 LP  0  0  0  0  0  0  0  0  0  0  0  0  # atno 17371 bound_to 10713
  140.9776  133.7287  156.0625 LP  0  0  0  0  0  0  0  0  0  0  0  0  # atno 17394 bound_to 11000
  140.7790  134.3747  157.5491 LP  0  0  0  0  0  0  0  0  0  0  0  0  # atno 17395 bound_to 11000

$$$$
