AV-unprocessed.smi:3185|AV-procd|sdf|12167|dock1
  -GOLD-   2272018 03D 1   1.00000     0.00000
 Structure written by MMmdl.
 38 39  0  0  0  0  0  0  0  0  2 V2000
  146.6149  142.3248  153.9395 N   0  0  0  0  0  0  0  0  0  0  0  0
  147.6735  141.9002  154.1314 C   0  0  0  0  0  0  0  0  0  0  0  0
  149.0196  141.3613  154.3764 C   0  0  0  0  0  0  0  0  0  0  0  0
  149.4958  141.5969  155.8142 C   0  0  0  0  0  0  0  0  0  0  0  0
  151.0085  141.4001  155.9645 C   0  0  0  0  0  0  0  0  0  0  0  0
  151.4098  141.4696  157.3849 N   0  3  0  0  0  0  0  0  0  0  0  0
  151.1889  142.7744  158.0520 C   0  0  2  0  0  0  0  0  0  0  0  0
  152.1169  143.8435  157.4322 C   0  0  0  0  0  0  0  0  0  0  0  0
  151.9670  145.2078  158.1215 C   0  0  0  0  0  0  0  0  0  0  0  0
  152.1890  145.0962  159.6362 C   0  0  0  0  0  0  0  0  0  0  0  0
  151.2161  144.0815  160.2571 C   0  0  0  0  0  0  0  0  0  0  0  0
  151.3058  142.6848  159.6050 C   0  0  2  0  0  0  0  0  0  0  0  0
  152.4606  141.9295  160.0942 N   0  0  0  0  0  0  0  0  0  0  0  0
  153.3752  142.3304  161.0479 C   0  0  0  0  0  0  0  0  0  0  0  0
  154.2977  141.3334  161.1839 C   0  0  0  0  0  0  0  0  0  0  0  0
  153.8741  140.3534  160.2454 C   0  0  0  0  0  0  0  0  0  0  0  0
  152.7816  140.7151  159.5937 N   0  0  0  0  0  0  0  0  0  0  0  0
  148.9992  140.2950  154.1498 H   0  0  0  0  0  0  0  0  0  0  0  0
  149.7003  141.8315  153.6663 H   0  0  0  0  0  0  0  0  0  0  0  0
  149.2265  142.6088  156.1198 H   0  0  0  0  0  0  0  0  0  0  0  0
  148.9680  140.9186  156.4858 H   0  0  0  0  0  0  0  0  0  0  0  0
  151.3021  140.4345  155.5509 H   0  0  0  0  0  0  0  0  0  0  0  0
  151.5290  142.1695  155.3944 H   0  0  0  0  0  0  0  0  0  0  0  0
  150.9071  140.7617  157.9020 H   0  0  0  0  0  0  0  0  0  0  0  0
  150.1681  143.0822  157.8193 H   0  0  0  0  0  0  0  0  0  0  0  0
  153.1591  143.5295  157.4790 H   0  0  0  0  0  0  0  0  0  0  0  0
  151.8912  143.9524  156.3709 H   0  0  0  0  0  0  0  0  0  0  0  0
  152.6747  145.9189  157.6938 H   0  0  0  0  0  0  0  0  0  0  0  0
  150.9715  145.6088  157.9267 H   0  0  0  0  0  0  0  0  0  0  0  0
  153.2196  144.8061  159.8415 H   0  0  0  0  0  0  0  0  0  0  0  0
  152.0487  146.0725  160.1012 H   0  0  0  0  0  0  0  0  0  0  0  0
  151.3883  144.0088  161.3317 H   0  0  0  0  0  0  0  0  0  0  0  0
  150.1998  144.4602  160.1423 H   0  0  0  0  0  0  0  0  0  0  0  0
  150.4316  142.1370  159.9590 H   0  0  0  0  0  0  0  0  0  0  0  0
  153.2935  143.2836  161.5498 H   0  0  0  0  0  0  0  0  0  0  0  0
  155.1499  141.3112  161.8468 H   0  0  0  0  0  0  0  0  0  0  0  0
  154.3251  139.3988  160.0181 H   0  0  0  0  0  0  0  0  0  0  0  0
  152.3967  141.2611  157.4359 H   0  0  0  0  0  0  0  0  0  0  0  0
  1  2  3  0  0  0  0
  2  3  1  0  0  0  0
  3  4  1  0  0  0  0
  3 18  1  0  0  0  0
  3 19  1  0  0  0  0
  4  5  1  0  0  0  0
  4 20  1  0  0  0  0
  4 21  1  0  0  0  0
  5  6  1  0  0  0  0
  5 22  1  0  0  0  0
  5 23  1  0  0  0  0
  6  7  1  0  0  0  0
  6 24  1  0  0  0  0
  6 38  1  0  0  0  0
  7 12  1  0  0  0  0
  7  8  1  0  0  0  0
  7 25  1  0  0  0  0
  8  9  1  0  0  0  0
  8 26  1  0  0  0  0
  8 27  1  0  0  0  0
  9 10  1  0  0  0  0
  9 28  1  0  0  0  0
  9 29  1  0  0  0  0
 10 11  1  0  0  0  0
 10 30  1  0  0  0  0
 10 31  1  0  0  0  0
 11 12  1  0  0  0  0
 11 32  1  0  0  0  0
 11 33  1  0  0  0  0
 12 13  1  0  0  0  0
 12 34  1  0  0  0  0
 13 17  1  0  0  0  0
 13 14  1  0  0  0  0
 14 15  2  0  0  0  0
 14 35  1  0  0  0  0
 15 16  1  0  0  0  0
 15 36  1  0  0  0  0
 16 17  2  0  0  0  0
 16 37  1  0  0  0  0
M  CHG  1   6   1
M  END
> <s_m_source_file>
AV-unprocessed.smi

> <i_m_source_file_index>
3185

> <i_lp_mmshare_version>
43012

> <i_f3d_flags>
0

> <s_epik_input>
TiNDW0NIMl1bQ0gyXVtDSDJdW05IXVtDQEBIXTFbQ0gyXVtDSDJdW0NIMl1bQ0gyXVtDQEhdMW4yW2NIXVtjSF1bY0hdbjI=

> <s_epik_cmdline>
J2VwaWtfcHl0aG9uJywgJy1waCcsICc3LjAnLCAnLXRuJywgJzgnLCAnLW1hJywgJzIwMCcsICctbWV0YWxfYmluZGluZycsICctaW1hZScsICc8aW5maWxlLm1hZT4nLCAnLW9tYWUnLCAnPG91dGZpbGUubWFlPic=

> <r_lp_tautomer_probability>
1

> <r_epik_Ionization_Penalty>
0.0143465

> <r_epik_Ionization_Penalty_Charging>
0.0143338

> <r_epik_Ionization_Penalty_Neutral>
1.27047e-05

> <r_epik_State_Penalty>
0.0112058

> <r_epik_Charging_Adjusted_Penalty>
0.0255397

> <i_epik_Tot_Q>
1

> <i_epik_Tot_abs_Q>
1

> <r_epik_Metal_State_Penalty>
0.0112253

> <b_epik_Metal_Only>
0

> <s_lp_Force_Field>
OPLS_2005

> <r_lp_Energy>
17.7884

> <b_lp_Chiralities_Consistent>
1

> <s_lp_Variant>
AV-unprocessed.smi:3185-3

> <Gold.Version>
5.8.1

> <Gold.Id.Protein>
6NUR|6NUR_protein|mol2

> <Gold.PLP.Fitness>
38.7105

> <Gold.PLP.PLP>
-39.0693

> <Gold.PLP.part.hbond>
0.0000

> <Gold.PLP.part.metal>
0.0000

> <Gold.PLP.part.buried>
-3.6095

> <Gold.PLP.part.nonpolar>
-34.4520

> <Gold.PLP.part.repulsive>
0.2528

> <Gold.PLP.ligand.clash>
0.0000

> <Gold.PLP.ligand.torsion>
0.2644

> <Gold.PLP.Chemscore.Hbond>
0.0000

> <Gold.PLP.Chemscore.CHOScore>
0.0000

> <Gold.PLP.Chemscore.Metal>
0.0000

> <Gold.PLP.Chemscore.Internal.Correction>
0.1700

> <Gold.Rescore>
     Score         DG    S(hbond)    S(metal)    S(lipo)     H(rot)  DE(clash)    DE(int)     intcor
     12.11     -14.72       0.00        0.00     120.03       1.88       0.99       1.62       ----

> <Gold.Chemscore.Fitness>
12.1065

> <Gold.Chemscore.DG>
-14.7181

> <Gold.Chemscore.ZeroCoef>
-5.4800

> <Gold.Chemscore.Hbond>
0.0000

> <Gold.Chemscore.Metal>
0.0000

> <Gold.Chemscore.Lipo>
120.0260

> <Gold.Chemscore.Internal_Hbond>
0.0000

> <Gold.Chemscore.DEClash>
0.9916

> <Gold.Chemscore.DEInternal>
1.6200

> <Gold.Chemscore.Rot>
1.8769

> <Gold.Chemscore.Internal.Correction>
   9.000000E+99

> <Gold.Chemscore.Hbond.Weighted>
-0.0000

> <Gold.Chemscore.Metal.Weighted>
-0.0000

> <Gold.Chemscore.Lipo.Weighted>
-14.0430

> <Gold.Chemscore.Internal_Hbond.Weighted>
0.0000

> <Gold.Chemscore.DEClash.Weighted>
0.9916

> <Gold.Chemscore.DEInternal.Weighted>
1.6200

> <Gold.Chemscore.Rot.Weighted>
4.8049

> <Gold.Chemscore.Internal.Correction.Weighted>
   9.000000E+99

> <Gold.Protein.RotatedTorsions>
[ 6907 6896 6895 6894 ] final  -85.26 input  -60.11 | X-H torsion
[ 7974 7965 7964 7962 ] final   30.55 input  175.53 | X-H torsion
[ 8008 7997 7996 7995 ] final -158.59 input   59.86 | X-H torsion
[ 10167 10162 10161 10158 ] final  119.32 input  -65.29 | X-H torsion
[ 10718 10713 10712 10709 ] final   75.45 input   66.30 | X-H torsion
[ 10763 10752 10751 10750 ] final   24.06 input  -60.55 | X-H torsion
[ 11005 11000 10999 10996 ] final   25.16 input  -57.11 | X-H torsion

> <Gold.Protein.ActiveResidues>
 VAL166  LYS551  ARG553  GLY616  TRP617  ASP618  TYR619  PRO620  LYS621  CYS622 
 ASP623  PHE694  ASN695  SER759  ASP760  ASP761  ALA762  ILE779  LEU786  VAL792 
 PHE793  MET794  SER795  GLU796  ALA797  LYS798  CYS799  TRP800  GLU811  SER814 

> <Gold.Protein.RotatedAtoms>
  150.6871  134.3231  159.4794 H   0  0  0  0  0  0  0  0  0  0  0  0  # atno 6907 bound_to 6896
  152.1104  134.9275  160.0576 H   0  0  0  0  0  0  0  0  0  0  0  0  # atno 6908 bound_to 6896
  152.0520  133.3988  159.4418 H   0  0  0  0  0  0  0  0  0  0  0  0  # atno 6909 bound_to 6896
  146.1605  139.6774  142.9037 H   0  0  0  0  0  0  0  0  0  0  0  0  # atno 7974 bound_to 7965
  155.7499  140.0825  157.2206 H   0  0  0  0  0  0  0  0  0  0  0  0  # atno 8008 bound_to 7997
  154.4013  140.1562  156.2768 H   0  0  0  0  0  0  0  0  0  0  0  0  # atno 8009 bound_to 7997
  155.8940  140.3413  155.5980 H   0  0  0  0  0  0  0  0  0  0  0  0  # atno 8010 bound_to 7997
  139.6054  144.7068  151.2966 H   0  0  0  0  0  0  0  0  0  0  0  0  # atno 10167 bound_to 10162
  157.6634  130.9727  150.1355 H   0  0  0  0  0  0  0  0  0  0  0  0  # atno 10718 bound_to 10713
  153.0791  135.6613  154.0082 H   0  0  0  0  0  0  0  0  0  0  0  0  # atno 10763 bound_to 10752
  153.9708  135.2964  155.3429 H   0  0  0  0  0  0  0  0  0  0  0  0  # atno 10764 bound_to 10752
  154.7187  135.5174  153.8849 H   0  0  0  0  0  0  0  0  0  0  0  0  # atno 10765 bound_to 10752
  140.3508  134.2231  155.7680 H   0  0  0  0  0  0  0  0  0  0  0  0  # atno 11005 bound_to 11000
  145.4600  141.0432  143.2756 LP  0  0  0  0  0  0  0  0  0  0  0  0  # atno 17320 bound_to 7965
  144.8020  139.6122  143.7067 LP  0  0  0  0  0  0  0  0  0  0  0  0  # atno 17321 bound_to 7965
  140.7281  143.6945  150.7895 LP  0  0  0  0  0  0  0  0  0  0  0  0  # atno 17342 bound_to 10162
  140.0530  143.5231  152.2664 LP  0  0  0  0  0  0  0  0  0  0  0  0  # atno 17343 bound_to 10162
  156.2191  130.3672  149.8578 LP  0  0  0  0  0  0  0  0  0  0  0  0  # atno 17370 bound_to 10713
  156.6436  130.8715  151.3518 LP  0  0  0  0  0  0  0  0  0  0  0  0  # atno 17371 bound_to 10713
  141.2012  133.7967  157.0450 LP  0  0  0  0  0  0  0  0  0  0  0  0  # atno 17394 bound_to 11000
  140.0704  134.9705  157.1458 LP  0  0  0  0  0  0  0  0  0  0  0  0  # atno 17395 bound_to 11000

$$$$
