AV-unprocessed.smi:3250|AV-procd|sdf|12428|dock2
  -GOLD-   2272018313D 1   1.00000     0.00000
 Structure written by MMmdl.
 39 40  0  0  0  0  0  0  0  0  2 V2000
  145.8677  133.0034  150.2055 C   0  0  0  0  0  0  0  0  0  0  0  0
  144.5517  133.5628  150.7646 C   0  0  0  0  0  0  0  0  0  0  0  0
  144.7654  134.6555  151.7465 N   0  3  2  0  0  0  0  0  0  0  0  0
  143.4915  135.1460  152.3236 C   0  0  0  0  0  0  0  0  0  0  0  0
  143.7579  136.2468  153.3623 C   0  0  0  0  0  0  0  0  0  0  0  0
  144.4947  137.2995  152.7548 O   0  0  0  0  0  0  0  0  0  0  0  0
  145.7706  136.8683  152.2919 C   0  0  2  0  0  0  0  0  0  0  0  0
  146.5161  138.0886  151.7352 C   0  0  0  0  0  0  0  0  0  0  0  0
  146.2804  139.2767  152.5413 N   0  0  0  0  0  0  0  0  0  0  0  0
  147.2766  139.9692  153.2028 C   0  0  0  0  0  0  0  0  0  0  0  0
  147.0473  141.2441  153.5374 N   0  0  0  0  0  0  0  0  0  0  0  0
  148.0390  141.8957  154.1825 C   0  0  0  0  0  0  0  0  0  0  0  0
  149.2608  141.2663  154.4930 C   0  0  0  0  0  0  0  0  0  0  0  0
  149.3938  139.9203  154.0964 C   0  0  0  0  0  0  0  0  0  0  0  0
  150.5635  139.2446  154.3751 O   0  0  0  0  0  0  0  0  0  0  0  0
  151.5240  139.8814  155.2099 C   0  0  0  0  0  0  0  0  0  0  0  0
  148.3913  139.2767  153.4462 N   0  0  0  0  0  0  0  0  0  0  0  0
  145.5605  135.7890  151.2111 C   0  0  0  0  0  0  0  0  0  0  0  0
  145.6749  132.1429  149.5641 H   0  0  0  0  0  0  0  0  0  0  0  0
  146.5293  132.6744  151.0074 H   0  0  0  0  0  0  0  0  0  0  0  0
  146.4031  133.7380  149.6048 H   0  0  0  0  0  0  0  0  0  0  0  0
  143.9061  133.9068  149.9551 H   0  0  0  0  0  0  0  0  0  0  0  0
  144.0230  132.7443  151.2550 H   0  0  0  0  0  0  0  0  0  0  0  0
  142.8538  135.5327  151.5267 H   0  0  0  0  0  0  0  0  0  0  0  0
  142.9543  134.3216  152.7938 H   0  0  0  0  0  0  0  0  0  0  0  0
  142.8154  136.6464  153.7368 H   0  0  0  0  0  0  0  0  0  0  0  0
  144.3012  135.8516  154.2222 H   0  0  0  0  0  0  0  0  0  0  0  0
  146.3420  136.4465  153.1214 H   0  0  0  0  0  0  0  0  0  0  0  0
  147.5882  137.8894  151.7225 H   0  0  0  0  0  0  0  0  0  0  0  0
  146.2124  138.2806  150.7053 H   0  0  0  0  0  0  0  0  0  0  0  0
  145.3657  139.7032  152.5117 H   0  0  0  0  0  0  0  0  0  0  0  0
  147.8565  142.9252  154.4533 H   0  0  0  0  0  0  0  0  0  0  0  0
  150.0530  141.7880  155.0094 H   0  0  0  0  0  0  0  0  0  0  0  0
  152.3905  139.2304  155.3248 H   0  0  0  0  0  0  0  0  0  0  0  0
  151.1214  140.0756  156.2050 H   0  0  0  0  0  0  0  0  0  0  0  0
  151.8713  140.8198  154.7750 H   0  0  0  0  0  0  0  0  0  0  0  0
  146.5315  135.4369  150.8638 H   0  0  0  0  0  0  0  0  0  0  0  0
  145.0479  136.2172  150.3480 H   0  0  0  0  0  0  0  0  0  0  0  0
  145.2909  134.2588  152.5128 H   0  0  0  0  0  0  0  0  0  0  0  0
  1  2  1  0  0  0  0
  1 19  1  0  0  0  0
  1 20  1  0  0  0  0
  1 21  1  0  0  0  0
  2  3  1  0  0  0  0
  2 22  1  0  0  0  0
  2 23  1  0  0  0  0
  3 18  1  0  0  0  0
  3  4  1  0  0  0  0
  3 39  1  0  0  0  0
  4  5  1  0  0  0  0
  4 24  1  0  0  0  0
  4 25  1  0  0  0  0
  5  6  1  0  0  0  0
  5 26  1  0  0  0  0
  5 27  1  0  0  0  0
  6  7  1  0  0  0  0
  7  8  1  0  0  0  0
  7 18  1  0  0  0  0
  7 28  1  0  0  0  0
  8  9  1  0  0  0  0
  8 29  1  0  0  0  0
  8 30  1  0  0  0  0
  9 10  1  0  0  0  0
  9 31  1  0  0  0  0
 10 17  1  0  0  0  0
 10 11  2  0  0  0  0
 11 12  1  0  0  0  0
 12 13  2  0  0  0  0
 12 32  1  0  0  0  0
 13 14  1  0  0  0  0
 13 33  1  0  0  0  0
 14 15  1  0  0  0  0
 14 17  2  0  0  0  0
 15 16  1  0  0  0  0
 16 34  1  0  0  0  0
 16 35  1  0  0  0  0
 16 36  1  0  0  0  0
 18 37  1  0  0  0  0
 18 38  1  0  0  0  0
M  CHG  1   3   1
M  END
> <s_m_source_file>
AV-unprocessed.smi

> <i_m_source_file_index>
3250

> <i_lp_mmshare_version>
43012

> <i_f3d_flags>
0

> <s_epik_input>
W0NIM11bQ0gyXU4xW0NIMl1bQ0gyXU9bQ0BIXShbQ0gyXTEpW0NIMl1bTkhdYzJuW2NIXVtjSF1jKG4yKU9bQ0gzXQ==

> <s_epik_cmdline>
J2VwaWtfcHl0aG9uJywgJy1waCcsICc3LjAnLCAnLXRuJywgJzgnLCAnLW1hJywgJzIwMCcsICctbWV0YWxfYmluZGluZycsICctaW1hZScsICc8aW5maWxlLm1hZT4nLCAnLW9tYWUnLCAnPG91dGZpbGUubWFlPic=

> <r_lp_tautomer_probability>
1

> <r_epik_Ionization_Penalty>
0.19684

> <r_epik_Ionization_Penalty_Charging>
0.178504

> <r_epik_Ionization_Penalty_Neutral>
0.0183356

> <r_epik_State_Penalty>
0.162939

> <r_epik_Charging_Adjusted_Penalty>
0.341443

> <i_epik_Tot_Q>
1

> <i_epik_Tot_abs_Q>
1

> <r_epik_Metal_State_Penalty>
0.1608

> <b_epik_Metal_Only>
0

> <s_lp_Force_Field>
OPLS_2005

> <r_lp_Energy>
8.82404

> <b_lp_Chiralities_Consistent>
1

> <s_lp_Variant>
AV-unprocessed.smi:3250-4

> <Gold.Version>
5.8.1

> <Gold.Id.Protein>
6NUR|6NUR_protein|mol2

> <Gold.PLP.Fitness>
37.8153

> <Gold.PLP.PLP>
-32.6042

> <Gold.PLP.part.hbond>
-1.0000

> <Gold.PLP.part.metal>
0.0000

> <Gold.PLP.part.buried>
-3.2954

> <Gold.PLP.part.nonpolar>
-30.0052

> <Gold.PLP.part.repulsive>
2.5734

> <Gold.PLP.ligand.clash>
0.0558

> <Gold.PLP.ligand.torsion>
0.3862

> <Gold.PLP.Chemscore.Hbond>
1.0000

> <Gold.PLP.Chemscore.CHOScore>
1.0000

> <Gold.PLP.Chemscore.Metal>
0.0000

> <Gold.Chemscore.Hbonds>
donor molecule, donor type, donor heavy atom, donor atom, acceptor molecule, acceptor atom, score
      L1  H     9    31       P1 10175  1.00
      L1  C    12    32       P1  8028  1.00

> <Gold.PLP.Chemscore.Internal.Correction>
0.0393

> <Gold.Rescore>
     Score         DG    S(hbond)    S(metal)    S(lipo)     H(rot)  DE(clash)    DE(int)     intcor
     10.98     -11.67       1.00        0.00      61.84       1.71       0.41       0.27       ----

> <Gold.Chemscore.Fitness>
10.9791

> <Gold.Chemscore.DG>
-11.6652

> <Gold.Chemscore.ZeroCoef>
-5.4800

> <Gold.Chemscore.Hbond>
0.9985

> <Gold.Chemscore.Metal>
0.0000

> <Gold.Chemscore.Lipo>
61.8370

> <Gold.Chemscore.Internal_Hbond>
0.0000

> <Gold.Chemscore.DEClash>
0.4131

> <Gold.Chemscore.DEInternal>
0.2729

> <Gold.Chemscore.Rot>
1.7127

> <Gold.Chemscore.Internal.Correction>
   9.000000E+99

> <Gold.Chemscore.Hbonds>
donor molecule, donor type, donor heavy atom, donor atom, acceptor molecule, acceptor atom, score
      L1  H     9    31       P1 10175  1.00

> <Gold.Chemscore.Hbond.Weighted>
-3.3348

> <Gold.Chemscore.Metal.Weighted>
-0.0000

> <Gold.Chemscore.Lipo.Weighted>
-7.2349

> <Gold.Chemscore.Internal_Hbond.Weighted>
0.0000

> <Gold.Chemscore.DEClash.Weighted>
0.4131

> <Gold.Chemscore.DEInternal.Weighted>
0.2729

> <Gold.Chemscore.Rot.Weighted>
4.3846

> <Gold.Chemscore.Internal.Correction.Weighted>
   9.000000E+99

> <Gold.Protein.RotatedTorsions>
[ 6907 6896 6895 6894 ] final  -56.27 input  -60.11 | X-H torsion
[ 7974 7965 7964 7962 ] final   73.25 input  175.53 | X-H torsion
[ 8008 7997 7996 7995 ] final   62.37 input   59.86 | X-H torsion
[ 10167 10162 10161 10158 ] final  118.56 input  -65.29 | X-H torsion
[ 10718 10713 10712 10709 ] final  -24.15 input   66.30 | X-H torsion
[ 10763 10752 10751 10750 ] final  -22.14 input  -60.55 | X-H torsion
[ 11005 11000 10999 10996 ] final -152.20 input  -57.11 | X-H torsion

> <Gold.Protein.ActiveResidues>
 VAL166  LYS551  ARG553  GLY616  TRP617  ASP618  TYR619  PRO620  LYS621  CYS622 
 ASP623  PHE694  ASN695  SER759  ASP760  ASP761  ALA762  ILE779  LEU786  VAL792 
 PHE793  MET794  SER795  GLU796  ALA797  LYS798  CYS799  TRP800  GLU811  SER814 

> <Gold.Protein.RotatedAtoms>
  150.8182  134.7375  159.6748 H   0  0  0  0  0  0  0  0  0  0  0  0  # atno 6907 bound_to 6896
  152.4299  134.5794  159.9953 H   0  0  0  0  0  0  0  0  0  0  0  0  # atno 6908 bound_to 6896
  151.5985  133.3321  159.3078 H   0  0  0  0  0  0  0  0  0  0  0  0  # atno 6909 bound_to 6896
  145.7432  139.2729  143.1474 H   0  0  0  0  0  0  0  0  0  0  0  0  # atno 7974 bound_to 7965
  155.6133  140.3495  155.4629 H   0  0  0  0  0  0  0  0  0  0  0  0  # atno 8008 bound_to 7997
  156.0137  140.1238  157.0452 H   0  0  0  0  0  0  0  0  0  0  0  0  # atno 8009 bound_to 7997
  154.4290  140.1076  156.5852 H   0  0  0  0  0  0  0  0  0  0  0  0  # atno 8010 bound_to 7997
  139.6103  144.7080  151.2858 H   0  0  0  0  0  0  0  0  0  0  0  0  # atno 10167 bound_to 10162
  156.4815  130.4546  149.6809 H   0  0  0  0  0  0  0  0  0  0  0  0  # atno 10718 bound_to 10713
  153.6472  135.6982  153.5221 H   0  0  0  0  0  0  0  0  0  0  0  0  # atno 10763 bound_to 10752
  153.2736  135.4207  155.1010 H   0  0  0  0  0  0  0  0  0  0  0  0  # atno 10764 bound_to 10752
  154.8485  135.3584  154.6016 H   0  0  0  0  0  0  0  0  0  0  0  0  # atno 10765 bound_to 10752
  140.7214  134.3723  157.5182 H   0  0  0  0  0  0  0  0  0  0  0  0  # atno 11005 bound_to 11000
  146.0428  140.8148  142.9820 LP  0  0  0  0  0  0  0  0  0  0  0  0  # atno 17320 bound_to 7965
  144.6866  140.2935  143.7274 LP  0  0  0  0  0  0  0  0  0  0  0  0  # atno 17321 bound_to 7965
  140.7314  143.6851  150.7968 LP  0  0  0  0  0  0  0  0  0  0  0  0  # atno 17342 bound_to 10162
  140.0445  143.5312  152.2703 LP  0  0  0  0  0  0  0  0  0  0  0  0  # atno 17343 bound_to 10162
  156.3517  130.7435  151.2396 LP  0  0  0  0  0  0  0  0  0  0  0  0  # atno 17370 bound_to 10713
  157.7483  131.0375  150.4460 LP  0  0  0  0  0  0  0  0  0  0  0  0  # atno 17371 bound_to 10713
  139.8847  134.8957  156.2686 LP  0  0  0  0  0  0  0  0  0  0  0  0  # atno 17394 bound_to 11000
  141.0000  133.7157  156.0946 LP  0  0  0  0  0  0  0  0  0  0  0  0  # atno 17395 bound_to 11000

$$$$
