#       Name:                AV-unprocessed.smi:1222
#       Creating user name   scv26
#       Creation time:       Fri Mar 27 04:18:01 2020


#       File generated by GOLD software.
#

@<TRIPOS>MOLECULE
AV-unprocessed.smi:1222
    40    42     1
SMALL
NO_CHARGES


@<TRIPOS>ATOM
      1 ****        -1.3963   2.5665  -0.6063 O.2            1 S1                 0.0000
      2 ****        -1.8595   1.6405   0.0602 C.2            1 S1                 0.0000
      3 ****        -3.1555   1.4859   0.3834 N.am           1 S1                 0.0000
      4 ****        -4.2502   2.3230   0.0421 C.2            1 S1                 0.0000
      5 ****        -4.1470   3.4412  -0.6857 N.2            1 S1                 0.0000
      6 ****        -5.3839   4.0652  -0.8668 C.2            1 S1                 0.0000
      7 ****        -6.4258   3.4036  -0.2658 C.2            1 S1                 0.0000
      8 ****        -5.8915   1.9620   0.5565 S.3            1 S1                 0.0000
      9 ****        -1.1110   0.6450   0.5579 N.am           1 S1                 0.0000
     10 ****         0.3348   0.5218   0.3948 C.3            1 S1                 0.0000
     11 ****         0.6861  -0.0736  -0.9821 C.3            1 S1                 0.0000
     12 ****         2.2038  -0.2983  -1.1207 C.3            1 S1                 0.0000
     13 ****         2.7492  -1.1364  -0.0220 N.4            1 S1                 1.0000
     14 ****         2.4132  -2.5731  -0.1587 C.3            1 S1                 0.0000
     15 ****         3.4592  -3.4990   0.4171 C.3            1 S1                 0.0000
     16 ****         3.3435  -3.3261  -1.0808 C.3            1 S1                 0.0000
     17 ****         2.4273  -0.5808   1.3179 C.3            1 S1                 0.0000
     18 ****         0.9138  -0.3658   1.5087 C.3            1 S1                 0.0000
     19 ****        -3.3878   0.6754   0.9379 H              1 S1                 0.0000
     20 ****        -5.4316   4.9803  -1.4386 H              1 S1                 0.0000
     21 ****        -7.4705   3.6763  -0.2569 H              1 S1                 0.0000
     22 ****        -1.5737  -0.0746   1.0940 H              1 S1                 0.0000
     23 ****         0.7870   1.5121   0.4795 H              1 S1                 0.0000
     24 ****         0.1566  -1.0160  -1.1274 H              1 S1                 0.0000
     25 ****         0.3459   0.5913  -1.7768 H              1 S1                 0.0000
     26 ****         2.4346  -0.7518  -2.0853 H              1 S1                 0.0000
     27 ****         2.7156   0.6647  -1.1044 H              1 S1                 0.0000
     28 ****         1.3592  -2.8390  -0.1067 H              1 S1                 0.0000
     29 ****         4.3254  -3.0588   0.9078 H              1 S1                 0.0000
     30 ****         3.1172  -4.4425   0.8375 H              1 S1                 0.0000
     31 ****         2.9256  -4.1557  -1.6474 H              1 S1                 0.0000
     32 ****         4.1333  -2.7710  -1.5840 H              1 S1                 0.0000
     33 ****         2.8203  -1.2345   2.0972 H              1 S1                 0.0000
     34 ****         2.9459   0.3724   1.4277 H              1 S1                 0.0000
     35 ****         0.7303   0.0916   2.4817 H              1 S1                 0.0000
     36 ****         0.4023  -1.3293   1.5239 H              1 S1                 0.0000
     37 ****         3.7546  -1.0910  -0.1091 H              1 S1                 0.0000
     38 ****        -2.0007   3.2830  -0.9546 LP             1 S1                 0.0000
     39 ****        -0.4157   2.6020  -0.7993 LP             1 S1                 0.0000
     40 ****        -3.2859   3.7892  -1.0564 LP             1 S1                 0.0000
@<TRIPOS>BOND
    1    1    2 2     
    2    2    3 am    
    3    2    9 am    
    4    3    4 1     
    5    3   19 1     
    6    4    8 1     
    7    4    5 2     
    8    5    6 1     
    9    6    7 2     
   10    6   20 1     
   11    7    8 1     
   12    7   21 1     
   13    9   10 1     
   14    9   22 1     
   15   10   18 1     
   16   10   11 1     
   17   10   23 1     
   18   11   12 1     
   19   11   24 1     
   20   11   25 1     
   21   12   13 1     
   22   12   26 1     
   23   12   27 1     
   24   13   14 1     
   25   13   17 1     
   26   13   37 1     
   27   14   16 1     
   28   14   15 1     
   29   14   28 1     
   30   15   16 1     
   31   15   29 1     
   32   15   30 1     
   33   16   31 1     
   34   16   32 1     
   35   17   18 1     
   36   17   33 1     
   37   17   34 1     
   38   18   35 1     
   39   18   36 1     
   40    1   38 1     
   41    1   39 1     
   42    5   40 1     
@<TRIPOS>SUBSTRUCTURE
      1 S1             1
@<TRIPOS>SET
LONE_PAIRS      STATIC     ATOMS    <user>   **** ""
3 38 39 40
DONOR_HYDROGENS      STATIC     ATOMS    <user>   **** ""
3 19 22 37
ATOM$BLUE        STATIC     ATOMS    COLORGROUP SYSTEM
3 38 39 40
ATOM$RED        STATIC     ATOMS    COLORGROUP SYSTEM
3 19 22 37
