#       Name:                AV-unprocessed.smi:2032
#       Creating user name   scv26
#       Creation time:       Fri Mar 27 10:50:35 2020


#       File generated by GOLD software.
#

@<TRIPOS>MOLECULE
AV-unprocessed.smi:2032
    48    49     1
SMALL
NO_CHARGES


@<TRIPOS>ATOM
      1 ****        -4.0990   3.4330   0.5924 C.3            1 S1                 0.0000
      2 ****        -3.5848   1.9938   0.4812 C.3            1 S1                 0.0000
      3 ****        -2.0471   1.9280   0.4519 C.3            1 S1                 0.0000
      4 ****        -1.5350   0.5544   0.4254 N.3            1 S1                 0.0000
      5 ****        -0.0543   0.4934   0.3747 C.3            1 S1                 0.0000
      6 ****         0.5388   1.2826  -0.8206 C.3            1 S1                 0.0000
      7 ****         0.4916  -0.9632   0.3471 C.3            1 S1                 0.0000
      8 ****         1.9515  -1.0344   0.3412 N.am           1 S1                 0.0000
      9 ****         2.7061  -1.4908  -0.6696 C.2            1 S1                 0.0000
     10 ****         2.2439  -1.8965  -1.7362 O.2            1 S1                 0.0000
     11 ****         4.0138  -1.4390  -0.3610 N.am           1 S1                 0.0000
     12 ****         5.1201  -1.8323  -1.1594 C.2            1 S1                 0.0000
     13 ****         5.0187  -2.3273  -2.3987 N.2            1 S1                 0.0000
     14 ****         6.2677  -2.6293  -2.9469 C.2            1 S1                 0.0000
     15 ****         7.3172  -2.3549  -2.1057 C.2            1 S1                 0.0000
     16 ****         6.7751  -1.7034  -0.5818 S.3            1 S1                 0.0000
     17 ****        -2.0924  -0.1579   1.5815 C.3            1 S1                 0.0000
     18 ****        -3.6298  -0.0877   1.6711 C.3            1 S1                 0.0000
     19 ****        -4.3418  -0.9770   0.6370 C.3            1 S1                 0.0000
     20 ****        -4.0709   1.2660   1.6033 O.3            1 S1                 0.0000
     21 ****        -3.7644   4.0365  -0.2517 H              1 S1                 0.0000
     22 ****        -3.7441   3.9093   1.5068 H              1 S1                 0.0000
     23 ****        -5.1889   3.4570   0.6062 H              1 S1                 0.0000
     24 ****        -3.9853   1.5600  -0.4354 H              1 S1                 0.0000
     25 ****        -1.7283   2.4736  -0.4341 H              1 S1                 0.0000
     26 ****        -1.6391   2.4570   1.3145 H              1 S1                 0.0000
     27 ****         0.3314   0.9601   1.2826 H              1 S1                 0.0000
     28 ****         1.6240   1.2095  -0.8703 H              1 S1                 0.0000
     29 ****         0.3371   2.3506  -0.7558 H              1 S1                 0.0000
     30 ****         0.1423   0.9187  -1.7690 H              1 S1                 0.0000
     31 ****         0.2003  -1.5083   1.2428 H              1 S1                 0.0000
     32 ****         0.0607  -1.5068  -0.4957 H              1 S1                 0.0000
     33 ****         2.4207  -0.7182   1.1770 H              1 S1                 0.0000
     34 ****         4.2454  -1.0795   0.5532 H              1 S1                 0.0000
     35 ****         6.3174  -3.0377  -3.9453 H              1 S1                 0.0000
     36 ****         8.3716  -2.4968  -2.2896 H              1 S1                 0.0000
     37 ****        -1.8235  -1.2119   1.5579 H              1 S1                 0.0000
     38 ****        -1.6655   0.2530   2.4977 H              1 S1                 0.0000
     39 ****        -3.9228  -0.4520   2.6561 H              1 S1                 0.0000
     40 ****        -4.0927  -2.0269   0.7925 H              1 S1                 0.0000
     41 ****        -4.0601  -0.7252  -0.3852 H              1 S1                 0.0000
     42 ****        -5.4242  -0.8792   0.7198 H              1 S1                 0.0000
     43 ****        -1.8298   0.1056  -0.4183 LP             1 S1                 0.0000
     44 ****         1.2549  -1.8972  -1.8846 LP             1 S1                 0.0000
     45 ****         2.8574  -2.2254  -2.4542 LP             1 S1                 0.0000
     46 ****         4.1509  -2.4648  -2.8762 LP             1 S1                 0.0000
     47 ****        -5.0702   1.2666   1.5659 LP             1 S1                 0.0000
     48 ****        -3.7682   1.7343   2.4333 LP             1 S1                 0.0000
@<TRIPOS>BOND
    1    1    2 1     
    2    1   21 1     
    3    1   22 1     
    4    1   23 1     
    5    2   20 1     
    6    2    3 1     
    7    2   24 1     
    8    3    4 1     
    9    3   25 1     
   10    3   26 1     
   11    4    5 1     
   12    4   17 1     
   13    5    6 1     
   14    5    7 1     
   15    5   27 1     
   16    6   28 1     
   17    6   29 1     
   18    6   30 1     
   19    7    8 1     
   20    7   31 1     
   21    7   32 1     
   22    8    9 am    
   23    8   33 1     
   24    9   10 2     
   25    9   11 am    
   26   11   12 1     
   27   11   34 1     
   28   12   16 1     
   29   12   13 2     
   30   13   14 1     
   31   14   15 2     
   32   14   35 1     
   33   15   16 1     
   34   15   36 1     
   35   17   18 1     
   36   17   37 1     
   37   17   38 1     
   38   18   19 1     
   39   18   20 1     
   40   18   39 1     
   41   19   40 1     
   42   19   41 1     
   43   19   42 1     
   44    4   43 1     
   45   10   44 1     
   46   10   45 1     
   47   13   46 1     
   48   20   47 1     
   49   20   48 1     
@<TRIPOS>SUBSTRUCTURE
      1 S1             1
@<TRIPOS>SET
LONE_PAIRS      STATIC     ATOMS    <user>   **** ""
6 43 44 45 46 47 48
DONOR_HYDROGENS      STATIC     ATOMS    <user>   **** ""
2 33 34
ATOM$BLUE        STATIC     ATOMS    COLORGROUP SYSTEM
6 43 44 45 46 47 48
ATOM$RED        STATIC     ATOMS    COLORGROUP SYSTEM
2 33 34
