AV-unprocessed.smi:975|AV-procd|sdf|4301|dock2
  -GOLD-   22720 2203D 1   1.00000     0.00000
 Structure written by MMmdl.
 44 45  0  0  0  0  0  0  0  0  1 V2000
  144.5995  143.7801  154.8196 C   0  0  0  0  0  0  0  0  0  0  0  0
  145.7407  142.8056  155.0264 C   0  0  0  0  0  0  0  0  0  0  0  0
  146.5102  142.3164  153.9014 C   0  0  0  0  0  0  0  0  0  0  0  0
  147.5111  141.4501  154.1218 C   0  0  0  0  0  0  0  0  0  0  0  0
  147.8373  141.0042  155.4153 N   0  0  0  0  0  0  0  0  0  0  0  0
  148.9668  140.0641  155.5346 C   0  0  0  0  0  0  0  0  0  0  0  0
  150.2974  140.7034  155.9693 C   0  0  0  0  0  0  0  0  0  0  0  0
  151.2704  140.6239  155.2205 O   0  0  0  0  0  0  0  0  0  0  0  0
  150.3403  141.3330  157.1564 N   0  0  0  0  0  0  0  0  0  0  0  0
  151.5012  142.0019  157.7372 C   0  0  0  0  0  0  0  0  0  0  0  0
  151.8912  141.2517  159.0316 C   0  0  0  0  0  0  0  0  0  0  0  0
  153.0147  141.8816  159.8748 C   0  0  0  0  0  0  0  0  0  0  0  0
  152.5415  142.8042  161.0211 C   0  0  0  0  0  0  0  0  0  0  0  0
  152.3510  144.2851  160.6447 C   0  0  0  0  0  0  0  0  0  0  0  0
  150.9373  144.7034  160.1867 C   0  0  0  0  0  0  0  0  0  0  0  0
  150.2830  143.8634  159.0747 C   0  0  0  0  0  0  0  0  0  0  0  0
  151.2171  143.5117  157.9001 C   0  0  0  0  0  0  0  0  0  0  0  0
  147.1564  141.4339  156.5204 C   0  0  0  0  0  0  0  0  0  0  0  0
  147.4490  141.0613  157.6565 O   0  0  0  0  0  0  0  0  0  0  0  0
  146.0601  142.3760  156.2672 C   0  0  0  0  0  0  0  0  0  0  0  0
  144.4862  144.0375  153.7660 H   0  0  0  0  0  0  0  0  0  0  0  0
  144.7801  144.6995  155.3770 H   0  0  0  0  0  0  0  0  0  0  0  0
  143.6619  143.3451  155.1667 H   0  0  0  0  0  0  0  0  0  0  0  0
  146.2865  142.6438  152.8964 H   0  0  0  0  0  0  0  0  0  0  0  0
  148.1277  141.0514  153.3289 H   0  0  0  0  0  0  0  0  0  0  0  0
  148.7238  139.2631  156.2351 H   0  0  0  0  0  0  0  0  0  0  0  0
  149.1317  139.5598  154.5812 H   0  0  0  0  0  0  0  0  0  0  0  0
  149.4926  141.3519  157.7046 H   0  0  0  0  0  0  0  0  0  0  0  0
  152.3376  141.9014  157.0427 H   0  0  0  0  0  0  0  0  0  0  0  0
  151.0192  141.0704  159.6608 H   0  0  0  0  0  0  0  0  0  0  0  0
  152.2218  140.2558  158.7327 H   0  0  0  0  0  0  0  0  0  0  0  0
  153.5536  141.0565  160.3426 H   0  0  0  0  0  0  0  0  0  0  0  0
  153.7511  142.3774  159.2412 H   0  0  0  0  0  0  0  0  0  0  0  0
  151.6512  142.4074  161.5104 H   0  0  0  0  0  0  0  0  0  0  0  0
  153.3206  142.7752  161.7839 H   0  0  0  0  0  0  0  0  0  0  0  0
  152.5841  144.8850  161.5254 H   0  0  0  0  0  0  0  0  0  0  0  0
  153.1001  144.5810  159.9105 H   0  0  0  0  0  0  0  0  0  0  0  0
  150.2705  144.7064  161.0497 H   0  0  0  0  0  0  0  0  0  0  0  0
  150.9879  145.7409  159.8543 H   0  0  0  0  0  0  0  0  0  0  0  0
  149.8454  142.9654  159.5085 H   0  0  0  0  0  0  0  0  0  0  0  0
  149.4277  144.4192  158.6887 H   0  0  0  0  0  0  0  0  0  0  0  0
  152.1602  144.0497  157.9773 H   0  0  0  0  0  0  0  0  0  0  0  0
  150.7781  143.8925  156.9769 H   0  0  0  0  0  0  0  0  0  0  0  0
  145.4899  142.7373  157.1109 H   0  0  0  0  0  0  0  0  0  0  0  0
  1  2  1  0  0  0  0
  1 21  1  0  0  0  0
  1 22  1  0  0  0  0
  1 23  1  0  0  0  0
  2 20  2  0  0  0  0
  2  3  1  0  0  0  0
  3  4  2  0  0  0  0
  3 24  1  0  0  0  0
  4  5  1  0  0  0  0
  4 25  1  0  0  0  0
  5  6  1  0  0  0  0
  5 18  1  0  0  0  0
  6  7  1  0  0  0  0
  6 26  1  0  0  0  0
  6 27  1  0  0  0  0
  7  8  2  0  0  0  0
  7  9  1  0  0  0  0
  9 10  1  0  0  0  0
  9 28  1  0  0  0  0
 10 17  1  0  0  0  0
 10 11  1  0  0  0  0
 10 29  1  0  0  0  0
 11 12  1  0  0  0  0
 11 30  1  0  0  0  0
 11 31  1  0  0  0  0
 12 13  1  0  0  0  0
 12 32  1  0  0  0  0
 12 33  1  0  0  0  0
 13 14  1  0  0  0  0
 13 34  1  0  0  0  0
 13 35  1  0  0  0  0
 14 15  1  0  0  0  0
 14 36  1  0  0  0  0
 14 37  1  0  0  0  0
 15 16  1  0  0  0  0
 15 38  1  0  0  0  0
 15 39  1  0  0  0  0
 16 17  1  0  0  0  0
 16 40  1  0  0  0  0
 16 41  1  0  0  0  0
 17 42  1  0  0  0  0
 17 43  1  0  0  0  0
 18 19  2  0  0  0  0
 18 20  1  0  0  0  0
 20 44  1  0  0  0  0
M  END
> <s_m_source_file>
AV-unprocessed.smi

> <i_m_source_file_index>
975

> <i_lp_mmshare_version>
43012

> <i_f3d_flags>
0

> <s_epik_input>
W0NIM11jMVtjSF1bY0hdbihjKD1PKVtjSF0xKVtDSDJdQyg9TylbTkhdW0NIXTJbQ0gyXVtDSDJdW0NIMl1bQ0gyXVtDSDJdW0NIMl1bQ0gyXTI=

> <s_epik_cmdline>
J2VwaWtfcHl0aG9uJywgJy1waCcsICc3LjAnLCAnLXRuJywgJzgnLCAnLW1hJywgJzIwMCcsICctbWV0YWxfYmluZGluZycsICctaW1hZScsICc8aW5maWxlLm1hZT4nLCAnLW9tYWUnLCAnPG91dGZpbGUubWFlPic=

> <r_lp_tautomer_probability>
1

> <r_epik_Ionization_Penalty>
5.54847e-07

> <r_epik_Ionization_Penalty_Charging>
5.34632e-07

> <r_epik_Ionization_Penalty_Neutral>
2.02148e-08

> <r_epik_State_Penalty>
-0

> <r_epik_Charging_Adjusted_Penalty>
5.34632e-07

> <i_epik_Tot_Q>
0

> <i_epik_Tot_abs_Q>
0

> <r_epik_Metal_State_Penalty>
-0

> <b_epik_Metal_Only>
0

> <s_lp_Force_Field>
OPLS_2005

> <r_lp_Energy>
31.8723

> <b_lp_Chiralities_Consistent>
1

> <s_lp_Variant>
AV-unprocessed.smi:975-1

> <Gold.Version>
5.8.1

> <Gold.Id.Protein>
6NUR|6NUR_protein|mol2

> <Gold.PLP.Fitness>
47.9910

> <Gold.PLP.PLP>
-42.8033

> <Gold.PLP.part.hbond>
-1.0000

> <Gold.PLP.part.metal>
0.0000

> <Gold.PLP.part.buried>
-8.1778

> <Gold.PLP.part.nonpolar>
-34.1906

> <Gold.PLP.part.repulsive>
0.1349

> <Gold.PLP.ligand.clash>
0.0000

> <Gold.PLP.ligand.torsion>
0.2875

> <Gold.PLP.Chemscore.Hbond>
0.9120

> <Gold.PLP.Chemscore.CHOScore>
1.0000

> <Gold.PLP.Chemscore.Metal>
0.0000

> <Gold.Chemscore.Hbonds>
donor molecule, donor type, donor heavy atom, donor atom, acceptor molecule, acceptor atom, score
      P1  H  7989  7998       L1     8  0.86
      L1  C     4    25       P1  7957  0.31

> <Gold.PLP.Chemscore.Internal.Correction>
0.0268

> <Gold.Rescore>
     Score         DG    S(hbond)    S(metal)    S(lipo)     H(rot)  DE(clash)    DE(int)     intcor
     17.58     -18.39       0.92        0.00     113.22       1.34       0.38       0.43       ----

> <Gold.Chemscore.Fitness>
17.5845

> <Gold.Chemscore.DG>
-18.3887

> <Gold.Chemscore.ZeroCoef>
-5.4800

> <Gold.Chemscore.Hbond>
0.9220

> <Gold.Chemscore.Metal>
0.0000

> <Gold.Chemscore.Lipo>
113.2249

> <Gold.Chemscore.Internal_Hbond>
0.0000

> <Gold.Chemscore.DEClash>
0.3770

> <Gold.Chemscore.DEInternal>
0.4272

> <Gold.Chemscore.Rot>
1.3352

> <Gold.Chemscore.Internal.Correction>
   9.000000E+99

> <Gold.Chemscore.Hbonds>
donor molecule, donor type, donor heavy atom, donor atom, acceptor molecule, acceptor atom, score
      P1  H  7989  7998       L1     8  0.85

> <Gold.Chemscore.Hbond.Weighted>
-3.0795

> <Gold.Chemscore.Metal.Weighted>
-0.0000

> <Gold.Chemscore.Lipo.Weighted>
-13.2473

> <Gold.Chemscore.Internal_Hbond.Weighted>
0.0000

> <Gold.Chemscore.DEClash.Weighted>
0.3770

> <Gold.Chemscore.DEInternal.Weighted>
0.4272

> <Gold.Chemscore.Rot.Weighted>
3.4181

> <Gold.Chemscore.Internal.Correction.Weighted>
   9.000000E+99

> <Gold.Protein.RotatedTorsions>
[ 6907 6896 6895 6894 ] final   46.90 input  -60.11 | X-H torsion
[ 7974 7965 7964 7962 ] final   84.56 input  175.53 | X-H torsion
[ 8008 7997 7996 7995 ] final   48.56 input   59.86 | X-H torsion
[ 10167 10162 10161 10158 ] final   -8.17 input  -65.29 | X-H torsion
[ 10718 10713 10712 10709 ] final   -7.22 input   66.30 | X-H torsion
[ 10763 10752 10751 10750 ] final -142.02 input  -60.55 | X-H torsion
[ 11005 11000 10999 10996 ] final  176.15 input  -57.11 | X-H torsion

> <Gold.Protein.ActiveResidues>
 VAL166  LYS551  ARG553  GLY616  TRP617  ASP618  TYR619  PRO620  LYS621  CYS622 
 ASP623  PHE694  ASN695  SER759  ASP760  ASP761  ALA762  ILE779  LEU786  VAL792 
 PHE793  MET794  SER795  GLU796  ALA797  LYS798  CYS799  TRP800  GLU811  SER814 

> <Gold.Protein.RotatedAtoms>
  152.2618  134.8026  160.0429 H   0  0  0  0  0  0  0  0  0  0  0  0  # atno 6907 bound_to 6896
  151.8669  133.3463  159.3730 H   0  0  0  0  0  0  0  0  0  0  0  0  # atno 6908 bound_to 6896
  150.7119  134.5078  159.5637 H   0  0  0  0  0  0  0  0  0  0  0  0  # atno 6909 bound_to 6896
  145.5971  139.2346  143.2266 H   0  0  0  0  0  0  0  0  0  0  0  0  # atno 7974 bound_to 7965
  155.3877  140.3432  155.4250 H   0  0  0  0  0  0  0  0  0  0  0  0  # atno 8008 bound_to 7997
  156.1575  140.1590  156.8701 H   0  0  0  0  0  0  0  0  0  0  0  0  # atno 8009 bound_to 7997
  154.5108  140.0790  156.7968 H   0  0  0  0  0  0  0  0  0  0  0  0  # atno 8010 bound_to 7997
  140.7051  143.5999  150.8808 H   0  0  0  0  0  0  0  0  0  0  0  0  # atno 10167 bound_to 10162
  156.7204  130.5149  149.5869 H   0  0  0  0  0  0  0  0  0  0  0  0  # atno 10718 bound_to 10713
  154.8524  135.3508  154.5961 H   0  0  0  0  0  0  0  0  0  0  0  0  # atno 10763 bound_to 10752
  153.6570  135.6991  153.5194 H   0  0  0  0  0  0  0  0  0  0  0  0  # atno 10764 bound_to 10752
  153.2848  135.4252  155.1070 H   0  0  0  0  0  0  0  0  0  0  0  0  # atno 10765 bound_to 10752
  140.3700  134.7038  157.4386 H   0  0  0  0  0  0  0  0  0  0  0  0  # atno 11005 bound_to 11000
  146.1604  140.6797  142.9280 LP  0  0  0  0  0  0  0  0  0  0  0  0  # atno 17320 bound_to 7965
  144.7326  140.4715  143.6927 LP  0  0  0  0  0  0  0  0  0  0  0  0  # atno 17321 bound_to 7965
  139.9723  143.6043  152.2969 LP  0  0  0  0  0  0  0  0  0  0  0  0  # atno 17342 bound_to 10162
  139.6634  144.7662  151.1919 LP  0  0  0  0  0  0  0  0  0  0  0  0  # atno 17343 bound_to 10162
  156.1598  130.6366  151.0704 LP  0  0  0  0  0  0  0  0  0  0  0  0  # atno 17370 bound_to 10713
  157.6900  131.0813  150.7134 LP  0  0  0  0  0  0  0  0  0  0  0  0  # atno 17371 bound_to 10713
  140.0559  134.6064  155.8805 LP  0  0  0  0  0  0  0  0  0  0  0  0  # atno 17394 bound_to 11000
  141.1957  133.6588  156.5658 LP  0  0  0  0  0  0  0  0  0  0  0  0  # atno 17395 bound_to 11000

$$$$
