AV-unprocessed.smi:3348|AV-procd|sdf|12918|dock8
  -GOLD-   2272019333D 1   1.00000     0.00000
 Structure written by MMmdl.
 47 48  0  0  0  0  0  0  0  0  2 V2000
  144.6920  135.5395  153.0705 C   0  0  0  0  0  0  0  0  0  0  0  0
  145.5302  135.8894  151.8251 C   0  0  1  0  0  0  0  0  0  0  0  0
  144.9279  135.3066  150.5297 C   0  0  0  0  0  0  0  0  0  0  0  0
  144.9558  133.8556  150.4918 N   0  0  0  0  0  0  0  0  0  0  0  0
  143.8984  132.9728  150.5602 C   0  0  0  0  0  0  0  0  0  0  0  0
  144.4166  131.7120  150.4801 C   0  0  0  0  0  0  0  0  0  0  0  0
  145.8172  131.9291  150.3564 C   0  0  0  0  0  0  0  0  0  0  0  0
  146.1363  133.2135  150.3622 N   0  0  0  0  0  0  0  0  0  0  0  0
  145.6807  137.3540  151.6744 N   0  3  0  0  0  0  0  0  0  0  0  0
  146.0488  138.0860  152.9050 C   0  0  0  0  0  0  0  0  0  0  0  0
  146.8641  139.3385  152.5706 C   0  0  0  0  0  0  0  0  0  0  0  0
  147.6168  139.7009  153.7182 O   0  0  0  0  0  0  0  0  0  0  0  0
  148.0631  141.0531  153.7386 C   0  0  1  0  0  0  0  0  0  0  0  0
  146.8638  142.0216  153.8247 C   0  0  0  0  0  0  0  0  0  0  0  0
  146.0978  141.8611  155.1479 C   0  0  0  0  0  0  0  0  0  0  0  0
  147.0313  142.0372  156.3552 C   0  0  0  0  0  0  0  0  0  0  0  0
  148.2305  141.0785  156.2801 C   0  0  0  0  0  0  0  0  0  0  0  0
  149.0005  141.2373  154.9533 C   0  0  1  0  0  0  0  0  0  0  0  0
  150.2225  140.3076  154.8865 C   0  0  0  0  0  0  0  0  0  0  0  0
  144.5995  134.4609  153.1992 H   0  0  0  0  0  0  0  0  0  0  0  0
  143.6848  135.9511  152.9973 H   0  0  0  0  0  0  0  0  0  0  0  0
  145.1435  135.9235  153.9847 H   0  0  0  0  0  0  0  0  0  0  0  0
  146.5279  135.4647  151.9487 H   0  0  0  0  0  0  0  0  0  0  0  0
  143.8933  135.6335  150.4135 H   0  0  0  0  0  0  0  0  0  0  0  0
  145.4706  135.6784  149.6591 H   0  0  0  0  0  0  0  0  0  0  0  0
  142.8774  133.3099  150.6621 H   0  0  0  0  0  0  0  0  0  0  0  0
  143.8773  130.7765  150.5039 H   0  0  0  0  0  0  0  0  0  0  0  0
  146.6056  131.1970  150.2625 H   0  0  0  0  0  0  0  0  0  0  0  0
  146.4217  137.5144  151.0064 H   0  0  0  0  0  0  0  0  0  0  0  0
  145.1451  138.3790  153.4386 H   0  0  0  0  0  0  0  0  0  0  0  0
  146.6213  137.4375  153.5697 H   0  0  0  0  0  0  0  0  0  0  0  0
  147.5206  139.1488  151.7198 H   0  0  0  0  0  0  0  0  0  0  0  0
  146.1880  140.1458  152.2900 H   0  0  0  0  0  0  0  0  0  0  0  0
  148.6336  141.2638  152.8323 H   0  0  0  0  0  0  0  0  0  0  0  0
  147.2273  143.0470  153.7465 H   0  0  0  0  0  0  0  0  0  0  0  0
  146.1858  141.8833  152.9832 H   0  0  0  0  0  0  0  0  0  0  0  0
  145.2866  142.5879  155.1976 H   0  0  0  0  0  0  0  0  0  0  0  0
  145.6316  140.8759  155.1855 H   0  0  0  0  0  0  0  0  0  0  0  0
  147.3892  143.0670  156.3922 H   0  0  0  0  0  0  0  0  0  0  0  0
  146.4783  141.8695  157.2799 H   0  0  0  0  0  0  0  0  0  0  0  0
  148.8975  141.2653  157.1224 H   0  0  0  0  0  0  0  0  0  0  0  0
  147.8825  140.0502  156.3871 H   0  0  0  0  0  0  0  0  0  0  0  0
  149.3801  142.2596  154.9182 H   0  0  0  0  0  0  0  0  0  0  0  0
  149.9312  139.2584  154.9428 H   0  0  0  0  0  0  0  0  0  0  0  0
  150.9086  140.5044  155.7105 H   0  0  0  0  0  0  0  0  0  0  0  0
  150.7749  140.4512  153.9577 H   0  0  0  0  0  0  0  0  0  0  0  0
  144.8251  137.7372  151.2988 H   0  0  0  0  0  0  0  0  0  0  0  0
  1  2  1  0  0  0  0
  1 20  1  0  0  0  0
  1 21  1  0  0  0  0
  1 22  1  0  0  0  0
  2  3  1  0  0  0  0
  2  9  1  0  0  0  0
  2 23  1  0  0  0  0
  3  4  1  0  0  0  0
  3 24  1  0  0  0  0
  3 25  1  0  0  0  0
  4  8  1  0  0  0  0
  4  5  1  0  0  0  0
  5  6  2  0  0  0  0
  5 26  1  0  0  0  0
  6  7  1  0  0  0  0
  6 27  1  0  0  0  0
  7  8  2  0  0  0  0
  7 28  1  0  0  0  0
  9 10  1  0  0  0  0
  9 29  1  0  0  0  0
  9 47  1  0  0  0  0
 10 11  1  0  0  0  0
 10 30  1  0  0  0  0
 10 31  1  0  0  0  0
 11 12  1  0  0  0  0
 11 32  1  0  0  0  0
 11 33  1  0  0  0  0
 12 13  1  0  0  0  0
 13 18  1  0  0  0  0
 13 14  1  0  0  0  0
 13 34  1  0  0  0  0
 14 15  1  0  0  0  0
 14 35  1  0  0  0  0
 14 36  1  0  0  0  0
 15 16  1  0  0  0  0
 15 37  1  0  0  0  0
 15 38  1  0  0  0  0
 16 17  1  0  0  0  0
 16 39  1  0  0  0  0
 16 40  1  0  0  0  0
 17 18  1  0  0  0  0
 17 41  1  0  0  0  0
 17 42  1  0  0  0  0
 18 19  1  0  0  0  0
 18 43  1  0  0  0  0
 19 44  1  0  0  0  0
 19 45  1  0  0  0  0
 19 46  1  0  0  0  0
M  CHG  1   9   1
M  END
> <s_m_source_file>
AV-unprocessed.smi

> <i_m_source_file_index>
3348

> <i_lp_mmshare_version>
43012

> <i_f3d_flags>
0

> <s_epik_input>
bjFbY0hdW2NIXVtjSF1uMVtDSDJdW0NAQEhdKFtDSDNdKVtOSF1bQ0gyXVtDSDJdT1tDQEBIXTJbQ0gyXVtDSDJdW0NIMl1bQ0gyXVtDQEhdMltDSDNd

> <s_epik_cmdline>
J2VwaWtfcHl0aG9uJywgJy1waCcsICc3LjAnLCAnLXRuJywgJzgnLCAnLW1hJywgJzIwMCcsICctbWV0YWxfYmluZGluZycsICctaW1hZScsICc8aW5maWxlLm1hZT4nLCAnLW9tYWUnLCAnPG91dGZpbGUubWFlPic=

> <r_lp_tautomer_probability>
1

> <r_epik_Ionization_Penalty>
0.00925088

> <r_epik_Ionization_Penalty_Charging>
0.00924645

> <r_epik_Ionization_Penalty_Neutral>
4.42413e-06

> <r_epik_State_Penalty>
0.0070118

> <r_epik_Charging_Adjusted_Penalty>
0.0162583

> <i_epik_Tot_Q>
1

> <i_epik_Tot_abs_Q>
1

> <r_epik_Metal_State_Penalty>
0.00701222

> <b_epik_Metal_Only>
0

> <s_lp_Force_Field>
OPLS_2005

> <r_lp_Energy>
16.697

> <b_lp_Chiralities_Consistent>
1

> <s_lp_Variant>
AV-unprocessed.smi:3348-4

> <Gold.Version>
5.8.1

> <Gold.Id.Protein>
6NUR|6NUR_protein|mol2

> <Gold.PLP.Fitness>
46.0350

> <Gold.PLP.PLP>
-38.0586

> <Gold.PLP.part.hbond>
-1.0000

> <Gold.PLP.part.metal>
0.0000

> <Gold.PLP.part.buried>
-4.4469

> <Gold.PLP.part.nonpolar>
-32.8705

> <Gold.PLP.part.repulsive>
0.4150

> <Gold.PLP.ligand.clash>
0.0000

> <Gold.PLP.ligand.torsion>
0.6018

> <Gold.PLP.Chemscore.Hbond>
1.0000

> <Gold.PLP.Chemscore.CHOScore>
2.0000

> <Gold.PLP.Chemscore.Metal>
0.0000

> <Gold.Chemscore.Hbonds>
donor molecule, donor type, donor heavy atom, donor atom, acceptor molecule, acceptor atom, score
      L1  H     9    47       P1 10171  0.98
      L1  C     5    26       P1 10186  1.00
      L1  C     7    28       P1 10747  1.00

> <Gold.PLP.Chemscore.Internal.Correction>
0.1799

> <Gold.Rescore>
     Score         DG    S(hbond)    S(metal)    S(lipo)     H(rot)  DE(clash)    DE(int)     intcor
     15.15     -15.81       0.99        0.00      99.81       1.82       0.16       0.50       ----

> <Gold.Chemscore.Fitness>
15.1529

> <Gold.Chemscore.DG>
-15.8101

> <Gold.Chemscore.ZeroCoef>
-5.4800

> <Gold.Chemscore.Hbond>
0.9886

> <Gold.Chemscore.Metal>
0.0000

> <Gold.Chemscore.Lipo>
99.8119

> <Gold.Chemscore.Internal_Hbond>
0.0000

> <Gold.Chemscore.DEClash>
0.1621

> <Gold.Chemscore.DEInternal>
0.4951

> <Gold.Chemscore.Rot>
1.8163

> <Gold.Chemscore.Internal.Correction>
   9.000000E+99

> <Gold.Chemscore.Hbonds>
donor molecule, donor type, donor heavy atom, donor atom, acceptor molecule, acceptor atom, score
      L1  H     9    47       P1 10171  0.92

> <Gold.Chemscore.Hbond.Weighted>
-3.3019

> <Gold.Chemscore.Metal.Weighted>
-0.0000

> <Gold.Chemscore.Lipo.Weighted>
-11.6780

> <Gold.Chemscore.Internal_Hbond.Weighted>
0.0000

> <Gold.Chemscore.DEClash.Weighted>
0.1621

> <Gold.Chemscore.DEInternal.Weighted>
0.4951

> <Gold.Chemscore.Rot.Weighted>
4.6497

> <Gold.Chemscore.Internal.Correction.Weighted>
   9.000000E+99

> <Gold.Protein.RotatedTorsions>
[ 6907 6896 6895 6894 ] final -116.45 input  -60.11 | X-H torsion
[ 7974 7965 7964 7962 ] final  -66.51 input  175.53 | X-H torsion
[ 8008 7997 7996 7995 ] final  -82.05 input   59.86 | X-H torsion
[ 10167 10162 10161 10158 ] final    3.13 input  -65.29 | X-H torsion
[ 10718 10713 10712 10709 ] final   53.17 input   66.30 | X-H torsion
[ 10763 10752 10751 10750 ] final  -37.13 input  -60.55 | X-H torsion
[ 11005 11000 10999 10996 ] final -147.49 input  -57.11 | X-H torsion

> <Gold.Protein.ActiveResidues>
 VAL166  LYS551  ARG553  GLY616  TRP617  ASP618  TYR619  PRO620  LYS621  CYS622 
 ASP623  PHE694  ASN695  SER759  ASP760  ASP761  ALA762  ILE779  LEU786  VAL792 
 PHE793  MET794  SER795  GLU796  ALA797  LYS798  CYS799  TRP800  GLU811  SER814 

> <Gold.Protein.RotatedAtoms>
  150.8057  133.8515  159.3206 H   0  0  0  0  0  0  0  0  0  0  0  0  # atno 6907 bound_to 6896
  151.6315  135.1020  160.0132 H   0  0  0  0  0  0  0  0  0  0  0  0  # atno 6908 bound_to 6896
  152.4147  133.6979  159.6464 H   0  0  0  0  0  0  0  0  0  0  0  0  # atno 6909 bound_to 6896
  145.7408  140.8954  143.0531 H   0  0  0  0  0  0  0  0  0  0  0  0  # atno 7974 bound_to 7965
  154.6046  140.0639  156.9414 H   0  0  0  0  0  0  0  0  0  0  0  0  # atno 8008 bound_to 7997
  155.2075  140.3320  155.4315 H   0  0  0  0  0  0  0  0  0  0  0  0  # atno 8009 bound_to 7997
  156.2339  140.1854  156.7153 H   0  0  0  0  0  0  0  0  0  0  0  0  # atno 8010 bound_to 7997
  140.6601  143.7326  150.7723 H   0  0  0  0  0  0  0  0  0  0  0  0  # atno 10167 bound_to 10162
  157.5142  130.8521  149.8474 H   0  0  0  0  0  0  0  0  0  0  0  0  # atno 10718 bound_to 10713
  153.8912  135.6812  153.4760 H   0  0  0  0  0  0  0  0  0  0  0  0  # atno 10763 bound_to 10752
  153.1180  135.4752  154.9146 H   0  0  0  0  0  0  0  0  0  0  0  0  # atno 10764 bound_to 10752
  154.7621  135.3214  154.8310 H   0  0  0  0  0  0  0  0  0  0  0  0  # atno 10765 bound_to 10752
  140.7710  134.3188  157.5074 H   0  0  0  0  0  0  0  0  0  0  0  0  # atno 11005 bound_to 11000
  144.6871  139.9458  143.7476 LP  0  0  0  0  0  0  0  0  0  0  0  0  # atno 17320 bound_to 7965
  146.0449  139.3456  143.0674 LP  0  0  0  0  0  0  0  0  0  0  0  0  # atno 17321 bound_to 7965
  140.0993  143.4803  152.2434 LP  0  0  0  0  0  0  0  0  0  0  0  0  # atno 17342 bound_to 10162
  139.5833  144.7520  151.3585 LP  0  0  0  0  0  0  0  0  0  0  0  0  # atno 17343 bound_to 10162
  156.0309  130.3765  150.1690 LP  0  0  0  0  0  0  0  0  0  0  0  0  # atno 17370 bound_to 10713
  156.9879  130.9884  151.3422 LP  0  0  0  0  0  0  0  0  0  0  0  0  # atno 17371 bound_to 10713
  139.8756  134.9261  156.3391 LP  0  0  0  0  0  0  0  0  0  0  0  0  # atno 17394 bound_to 11000
  140.9573  133.7411  156.0353 LP  0  0  0  0  0  0  0  0  0  0  0  0  # atno 17395 bound_to 11000

$$$$
