AV-unprocessed.smi:2062|AV-procd|sdf|8403|dock2
  -GOLD-   2272011 93D 1   1.00000     0.00000
 Structure written by MMmdl.
 42 43  0  0  0  0  0  0  0  0  3 V2000
  145.2191  131.6800  150.4743 C   0  0  0  0  0  0  0  0  0  0  0  0
  144.5466  132.2333  151.7393 C   0  0  0  0  0  0  0  0  0  0  0  0
  143.3827  133.1654  151.3626 C   0  0  0  0  0  0  0  0  0  0  0  0
  145.5834  132.9386  152.6410 C   0  0  0  0  0  0  0  0  0  0  0  0
  145.0140  133.3951  153.9381 N   0  3  2  0  0  0  0  0  0  0  0  0
  144.5145  134.7912  153.9075 C   0  0  0  0  0  0  0  0  0  0  0  0
  145.6730  135.7975  154.0155 C   0  0  0  0  0  0  0  0  0  0  0  0
  146.4046  135.5350  155.2044 O   0  0  0  0  0  0  0  0  0  0  0  0
  147.0093  134.2454  155.2045 C   0  0  1  0  0  0  0  0  0  0  0  0
  147.8462  134.0872  156.4863 C   0  0  0  0  0  0  0  0  0  0  0  0
  147.4825  135.0823  157.4894 N   0  0  0  0  0  0  0  0  0  0  0  0
  148.2581  135.5038  158.4978 C   0  0  0  0  0  0  0  0  0  0  0  0
  149.4040  135.0647  158.6199 O   0  0  0  0  0  0  0  0  0  0  0  0
  147.6547  136.4049  159.3048 N   0  5  0  0  0  0  0  0  0  0  0  0
  147.5126  136.1428  160.6144 C   0  0  0  0  0  0  0  0  0  0  0  0
  147.5092  137.0960  161.5538 N   0  0  0  0  0  0  0  0  0  0  0  0
  147.3523  136.5981  162.8486 C   0  0  0  0  0  0  0  0  0  0  0  0
  147.2434  135.2335  162.8971 C   0  0  0  0  0  0  0  0  0  0  0  0
  147.3335  134.5290  161.3080 S   0  0  0  0  0  0  0  0  0  0  0  0
  145.8916  133.1823  155.1188 C   0  0  0  0  0  0  0  0  0  0  0  0
  145.6515  132.4796  149.8717 H   0  0  0  0  0  0  0  0  0  0  0  0
  144.5032  131.1444  149.8501 H   0  0  0  0  0  0  0  0  0  0  0  0
  146.0188  130.9826  150.7259 H   0  0  0  0  0  0  0  0  0  0  0  0
  144.1312  131.3778  152.2712 H   0  0  0  0  0  0  0  0  0  0  0  0
  143.7361  134.0440  150.8219 H   0  0  0  0  0  0  0  0  0  0  0  0
  142.8443  133.5115  152.2451 H   0  0  0  0  0  0  0  0  0  0  0  0
  142.6615  132.6529  150.7251 H   0  0  0  0  0  0  0  0  0  0  0  0
  146.4396  132.2876  152.8176 H   0  0  0  0  0  0  0  0  0  0  0  0
  145.9722  133.7995  152.0955 H   0  0  0  0  0  0  0  0  0  0  0  0
  143.9230  134.9730  153.0096 H   0  0  0  0  0  0  0  0  0  0  0  0
  143.8383  134.9317  154.7518 H   0  0  0  0  0  0  0  0  0  0  0  0
  146.3290  135.7481  153.1452 H   0  0  0  0  0  0  0  0  0  0  0  0
  145.2829  136.8143  154.0614 H   0  0  0  0  0  0  0  0  0  0  0  0
  147.6760  134.1573  154.3454 H   0  0  0  0  0  0  0  0  0  0  0  0
  147.7586  133.0760  156.8874 H   0  0  0  0  0  0  0  0  0  0  0  0
  148.9014  134.2348  156.2553 H   0  0  0  0  0  0  0  0  0  0  0  0
  146.5557  135.4773  157.4262 H   0  0  0  0  0  0  0  0  0  0  0  0
  147.3305  137.2888  163.6783 H   0  0  0  0  0  0  0  0  0  0  0  0
  147.1173  134.6030  163.7641 H   0  0  0  0  0  0  0  0  0  0  0  0
  145.2692  133.2441  156.0126 H   0  0  0  0  0  0  0  0  0  0  0  0
  146.3154  132.1791  155.1175 H   0  0  0  0  0  0  0  0  0  0  0  0
  144.1977  132.8173  154.0797 H   0  0  0  0  0  0  0  0  0  0  0  0
  1  2  1  0  0  0  0
  1 21  1  0  0  0  0
  1 22  1  0  0  0  0
  1 23  1  0  0  0  0
  2  3  1  0  0  0  0
  2  4  1  0  0  0  0
  2 24  1  0  0  0  0
  3 25  1  0  0  0  0
  3 26  1  0  0  0  0
  3 27  1  0  0  0  0
  4  5  1  0  0  0  0
  4 28  1  0  0  0  0
  4 29  1  0  0  0  0
  5 20  1  0  0  0  0
  5  6  1  0  0  0  0
  5 42  1  0  0  0  0
  6  7  1  0  0  0  0
  6 30  1  0  0  0  0
  6 31  1  0  0  0  0
  7  8  1  0  0  0  0
  7 32  1  0  0  0  0
  7 33  1  0  0  0  0
  8  9  1  0  0  0  0
  9 10  1  0  0  0  0
  9 20  1  0  0  0  0
  9 34  1  0  0  0  0
 10 11  1  0  0  0  0
 10 35  1  0  0  0  0
 10 36  1  0  0  0  0
 11 12  1  0  0  0  0
 11 37  1  0  0  0  0
 12 13  2  0  0  0  0
 12 14  1  0  0  0  0
 14 15  1  0  0  0  0
 15 19  1  0  0  0  0
 15 16  2  0  0  0  0
 16 17  1  0  0  0  0
 17 18  2  0  0  0  0
 17 38  1  0  0  0  0
 18 19  1  0  0  0  0
 18 39  1  0  0  0  0
 20 40  1  0  0  0  0
 20 41  1  0  0  0  0
M  CHG  1   5   1
M  CHG  1  14  -1
M  END
> <s_m_source_file>
AV-unprocessed.smi

> <i_m_source_file_index>
2062

> <i_lp_mmshare_version>
43012

> <i_f3d_flags>
0

> <s_epik_input>
W0NIM11bQ0hdKFtDSDNdKVtDSDJdTjFbQ0gyXVtDSDJdT1tDQEhdKFtDSDJdMSlbQ0gyXVtOSF1DKD1PKVtOSF1jMm5bY0hdW2NIXXMy

> <s_epik_cmdline>
J2VwaWtfcHl0aG9uJywgJy1waCcsICc3LjAnLCAnLXRuJywgJzgnLCAnLW1hJywgJzIwMCcsICctbWV0YWxfYmluZGluZycsICctaW1hZScsICc8aW5maWxlLm1hZT4nLCAnLW9tYWUnLCAnPG91dGZpbGUubWFlPic=

> <r_lp_tautomer_probability>
0.999

> <r_epik_Ionization_Penalty>
6.35835

> <r_epik_Ionization_Penalty_Charging>
5.49938

> <r_epik_Ionization_Penalty_Neutral>
0.858963

> <r_epik_State_Penalty>
5.49328

> <r_epik_Charging_Adjusted_Penalty>
10.9927

> <i_epik_Tot_Q>
0

> <i_epik_Tot_abs_Q>
2

> <r_epik_Metal_State_Penalty>
1.51523

> <b_epik_Metal_Only>
1

> <s_lp_Force_Field>
OPLS_2005

> <r_lp_Energy>
10.4353

> <b_lp_Chiralities_Consistent>
1

> <s_lp_Variant>
AV-unprocessed.smi:2062-8

> <Gold.Version>
5.8.1

> <Gold.Id.Protein>
6NUR|6NUR_protein|mol2

> <Gold.PLP.Fitness>
39.5213

> <Gold.PLP.PLP>
-29.3383

> <Gold.PLP.part.hbond>
-4.0000

> <Gold.PLP.part.metal>
0.0000

> <Gold.PLP.part.buried>
-4.4761

> <Gold.PLP.part.nonpolar>
-21.4928

> <Gold.PLP.part.repulsive>
0.0388

> <Gold.PLP.ligand.clash>
0.0000

> <Gold.PLP.ligand.torsion>
2.0215

> <Gold.PLP.Chemscore.Hbond>
4.6960

> <Gold.PLP.Chemscore.CHOScore>
0.0000

> <Gold.PLP.Chemscore.Metal>
0.0000

> <Gold.Chemscore.Hbonds>
donor molecule, donor type, donor heavy atom, donor atom, acceptor molecule, acceptor atom, score
      L1  H     5    42       P1 10957  2.00
      P1  H  6896  6908       L1    13  1.00
      P1  H  6931  6943       L1    16  0.84
      P1  H  6934  6947       L1    16  0.81

> <Gold.PLP.Chemscore.Internal.Correction>
0.1380

> <Gold.Rescore>
     Score         DG    S(hbond)    S(metal)    S(lipo)     H(rot)  DE(clash)    DE(int)     intcor
     17.10     -19.26       3.41        0.00      57.99       1.72       0.01       2.15       ----

> <Gold.Chemscore.Fitness>
17.1013

> <Gold.Chemscore.DG>
-19.2609

> <Gold.Chemscore.ZeroCoef>
-5.4800

> <Gold.Chemscore.Hbond>
3.4124

> <Gold.Chemscore.Metal>
0.0000

> <Gold.Chemscore.Lipo>
57.9929

> <Gold.Chemscore.Internal_Hbond>
0.0000

> <Gold.Chemscore.DEClash>
0.0126

> <Gold.Chemscore.DEInternal>
2.1470

> <Gold.Chemscore.Rot>
1.7194

> <Gold.Chemscore.Internal.Correction>
   9.000000E+99

> <Gold.Chemscore.Hbonds>
donor molecule, donor type, donor heavy atom, donor atom, acceptor molecule, acceptor atom, score
      L1  H     5    42       P1 10957  0.90
      P1  H  6896  6908       L1    13  1.00
      P1  H  6931  6943       L1    16  0.14
      P1  H  6934  6947       L1    16  0.74

> <Gold.Chemscore.Hbond.Weighted>
-11.3975

> <Gold.Chemscore.Metal.Weighted>
-0.0000

> <Gold.Chemscore.Lipo.Weighted>
-6.7852

> <Gold.Chemscore.Internal_Hbond.Weighted>
0.0000

> <Gold.Chemscore.DEClash.Weighted>
0.0126

> <Gold.Chemscore.DEInternal.Weighted>
2.1470

> <Gold.Chemscore.Rot.Weighted>
4.4017

> <Gold.Chemscore.Internal.Correction.Weighted>
   9.000000E+99

> <Gold.Protein.RotatedTorsions>
[ 6907 6896 6895 6894 ] final  173.50 input  -60.11 | X-H torsion
[ 7974 7965 7964 7962 ] final  -67.52 input  175.53 | X-H torsion
[ 8008 7997 7996 7995 ] final   67.74 input   59.86 | X-H torsion
[ 10167 10162 10161 10158 ] final  116.80 input  -65.29 | X-H torsion
[ 10718 10713 10712 10709 ] final -141.52 input   66.30 | X-H torsion
[ 10763 10752 10751 10750 ] final  -17.33 input  -60.55 | X-H torsion
[ 11005 11000 10999 10996 ] final  -53.82 input  -57.11 | X-H torsion

> <Gold.Protein.ActiveResidues>
 VAL166  LYS551  ARG553  GLY616  TRP617  ASP618  TYR619  PRO620  LYS621  CYS622 
 ASP623  PHE694  ASN695  SER759  ASP760  ASP761  ALA762  ILE779  LEU786  VAL792 
 PHE793  MET794  SER795  GLU796  ALA797  LYS798  CYS799  TRP800  GLU811  SER814 

> <Gold.Protein.RotatedAtoms>
  151.7673  133.3338  159.3434 H   0  0  0  0  0  0  0  0  0  0  0  0  # atno 6907 bound_to 6896
  150.7475  134.6050  159.6066 H   0  0  0  0  0  0  0  0  0  0  0  0  # atno 6908 bound_to 6896
  152.3365  134.7193  160.0327 H   0  0  0  0  0  0  0  0  0  0  0  0  # atno 6909 bound_to 6896
  145.7281  140.9009  143.0594 H   0  0  0  0  0  0  0  0  0  0  0  0  # atno 7974 bound_to 7965
  155.6976  140.3495  155.4919 H   0  0  0  0  0  0  0  0  0  0  0  0  # atno 8008 bound_to 7997
  155.9469  140.1112  157.1031 H   0  0  0  0  0  0  0  0  0  0  0  0  # atno 8009 bound_to 7997
  154.4114  140.1202  156.4987 H   0  0  0  0  0  0  0  0  0  0  0  0  # atno 8010 bound_to 7997
  139.6222  144.7103  151.2610 H   0  0  0  0  0  0  0  0  0  0  0  0  # atno 10167 bound_to 10162
  156.3351  130.7607  151.1732 H   0  0  0  0  0  0  0  0  0  0  0  0  # atno 10718 bound_to 10713
  153.5722  135.7007  153.5499 H   0  0  0  0  0  0  0  0  0  0  0  0  # atno 10763 bound_to 10752
  153.3334  135.4041  155.1514 H   0  0  0  0  0  0  0  0  0  0  0  0  # atno 10764 bound_to 10752
  154.8631  135.3724  154.5245 H   0  0  0  0  0  0  0  0  0  0  0  0  # atno 10765 bound_to 10752
  141.0995  133.6620  156.4229 H   0  0  0  0  0  0  0  0  0  0  0  0  # atno 11005 bound_to 11000
  144.6899  139.9294  143.7471 LP  0  0  0  0  0  0  0  0  0  0  0  0  # atno 17320 bound_to 7965
  146.0563  139.3559  143.0609 LP  0  0  0  0  0  0  0  0  0  0  0  0  # atno 17321 bound_to 7965
  140.7389  143.6634  150.8144 LP  0  0  0  0  0  0  0  0  0  0  0  0  # atno 17342 bound_to 10162
  140.0247  143.5506  152.2786 LP  0  0  0  0  0  0  0  0  0  0  0  0  # atno 17343 bound_to 10162
  157.7437  131.0470  150.4924 LP  0  0  0  0  0  0  0  0  0  0  0  0  # atno 17370 bound_to 10713
  156.5095  130.4136  149.6309 LP  0  0  0  0  0  0  0  0  0  0  0  0  # atno 17371 bound_to 10713
  140.5057  134.6443  157.5265 LP  0  0  0  0  0  0  0  0  0  0  0  0  # atno 17394 bound_to 11000
  139.9842  134.7088  155.9804 LP  0  0  0  0  0  0  0  0  0  0  0  0  # atno 17395 bound_to 11000

$$$$
