#       Name:                AV-unprocessed.smi:2751
#       Creating user name   scv26
#       Creation time:       Fri Mar 27 15:05:44 2020


#       File generated by GOLD software.
#

@<TRIPOS>MOLECULE
AV-unprocessed.smi:2751
    41    42     1
SMALL
NO_CHARGES


@<TRIPOS>ATOM
      1 ****        -1.8492   1.8274  -0.7618 O.2            1 S1                 0.0000
      2 ****        -2.3178   0.7720  -1.1951 C.2            1 S1                 0.0000
      3 ****        -1.5051  -0.2619  -1.4585 N.am           1 S1                 0.0000
      4 ****        -0.0570  -0.2783  -1.2791 C.3            1 S1                 0.0000
      5 ****         0.3293  -0.5470   0.1857 C.3            1 S1                 0.0000
      6 ****         1.8497  -0.5656   0.4091 C.3            1 S1                 0.0000
      7 ****         2.2109  -0.6947   1.9019 C.3            1 S1                 0.0000
      8 ****         3.7304  -0.7842   2.0839 C.3            1 S1                 0.0000
      9 ****         4.2910  -1.9059   1.2032 C.3            1 S1                 0.0000
     10 ****         3.8239  -1.7275  -0.2502 C.3            1 S1                 0.0000
     11 ****         2.4014  -1.6742  -0.2997 O.3            1 S1                 0.0000
     12 ****        -3.6220   0.5186  -1.4477 N.pl3          1 S1                -1.0000
     13 ****        -4.5433   1.4691  -1.2221 C.2            1 S1                 0.0000
     14 ****        -5.1195   2.2461  -2.1409 N.2            1 S1                 0.0000
     15 ****        -5.9998   3.0632  -1.4486 C.2            1 S1                 0.0000
     16 ****        -5.9234   2.7341  -0.1229 C.2            1 S1                 0.0000
     17 ****        -5.0105   1.7278   0.0322 O.3            1 S1                 0.0000
     18 ****        -1.9300  -1.1063  -1.8125 H              1 S1                 0.0000
     19 ****         0.3504  -1.0589  -1.9217 H              1 S1                 0.0000
     20 ****         0.3745   0.6627  -1.6243 H              1 S1                 0.0000
     21 ****        -0.1112   0.2249   0.8181 H              1 S1                 0.0000
     22 ****        -0.1018  -1.4940   0.5133 H              1 S1                 0.0000
     23 ****         2.2729   0.3602   0.0148 H              1 S1                 0.0000
     24 ****         1.8187   0.1551   2.4615 H              1 S1                 0.0000
     25 ****         1.7410  -1.5868   2.3183 H              1 S1                 0.0000
     26 ****         4.1899   0.1654   1.8066 H              1 S1                 0.0000
     27 ****         3.9792  -0.9604   3.1306 H              1 S1                 0.0000
     28 ****         5.3801  -1.9166   1.2522 H              1 S1                 0.0000
     29 ****         3.9504  -2.8716   1.5787 H              1 S1                 0.0000
     30 ****         4.2476  -0.8222  -0.6875 H              1 S1                 0.0000
     31 ****         4.1656  -2.5644  -0.8592 H              1 S1                 0.0000
     32 ****        -6.6053   3.8043  -1.9488 H              1 S1                 0.0000
     33 ****        -6.4125   3.0907   0.7710 H              1 S1                 0.0000
     34 ****        -2.4539   2.5987  -0.5632 LP             1 S1                 0.0000
     35 ****        -0.8645   1.9118  -0.6091 LP             1 S1                 0.0000
     36 ****         2.1200  -1.6098  -1.2571 LP             1 S1                 0.0000
     37 ****         2.0388  -2.5169   0.0984 LP             1 S1                 0.0000
     38 ****        -3.8996  -0.3745  -1.8017 LP             1 S1                 0.0000
     39 ****        -4.9509   2.2403  -3.1266 LP             1 S1                 0.0000
     40 ****        -4.2645   2.0207   0.6303 LP             1 S1                 0.0000
     41 ****        -5.4472   0.9150   0.4178 LP             1 S1                 0.0000
@<TRIPOS>BOND
    1    1    2 2     
    2    2   12 1     
    3    2    3 am    
    4    3    4 1     
    5    3   18 1     
    6    4    5 1     
    7    4   19 1     
    8    4   20 1     
    9    5    6 1     
   10    5   21 1     
   11    5   22 1     
   12    6   11 1     
   13    6    7 1     
   14    6   23 1     
   15    7    8 1     
   16    7   24 1     
   17    7   25 1     
   18    8    9 1     
   19    8   26 1     
   20    8   27 1     
   21    9   10 1     
   22    9   28 1     
   23    9   29 1     
   24   10   11 1     
   25   10   30 1     
   26   10   31 1     
   27   12   13 1     
   28   13   17 1     
   29   13   14 2     
   30   14   15 1     
   31   15   32 1     
   32   15   16 2     
   33   16   33 1     
   34   16   17 1     
   35    1   34 1     
   36    1   35 1     
   37   11   36 1     
   38   11   37 1     
   39   12   38 1     
   40   14   39 1     
   41   17   40 1     
   42   17   41 1     
@<TRIPOS>SUBSTRUCTURE
      1 S1             1
@<TRIPOS>SET
LONE_PAIRS      STATIC     ATOMS    <user>   **** ""
8 34 35 36 37 38 39 40 41
DONOR_HYDROGENS      STATIC     ATOMS    <user>   **** ""
1 18
ATOM$BLUE        STATIC     ATOMS    COLORGROUP SYSTEM
8 34 35 36 37 38 39 40 41
ATOM$RED        STATIC     ATOMS    COLORGROUP SYSTEM
1 18
