#       Name:                AV-unprocessed.smi:2547
#       Creating user name   scv26
#       Creation time:       Fri Mar 27 14:05:16 2020


#       File generated by GOLD software.
#

@<TRIPOS>MOLECULE
AV-unprocessed.smi:2547
    47    48     1
SMALL
NO_CHARGES


@<TRIPOS>ATOM
      1 ****        -5.4850  -0.5848  -0.9053 C.3            1 S1                 0.0000
      2 ****        -4.7100   0.5203  -0.3014 N.4            1 S1                 1.0000
      3 ****        -3.6196   0.9964  -1.1882 C.3            1 S1                 0.0000
      4 ****        -2.9226   2.2321  -0.5920 C.3            1 S1                 0.0000
      5 ****        -2.3976   1.9687   0.8341 C.3            1 S1                 0.0000
      6 ****        -1.2450   1.0675   0.8331 N.am           1 S1                 0.0000
      7 ****         0.0142   1.4238   0.5390 C.2            1 S1                 0.0000
      8 ****         0.3364   2.5656   0.2117 O.2            1 S1                 0.0000
      9 ****         0.8528   0.3767   0.6289 N.am           1 S1                 0.0000
     10 ****         2.2554   0.3532   0.4045 C.ar           1 S1                 0.0000
     11 ****         3.1013   1.4818   0.5268 C.ar           1 S1                 0.0000
     12 ****         4.4829   1.3376   0.2966 C.ar           1 S1                 0.0000
     13 ****         5.0019   0.0730  -0.0434 C.ar           1 S1                 0.0000
     14 ****         4.1301  -1.0382  -0.1445 C.ar           1 S1                 0.0000
     15 ****         4.5708  -2.3383  -0.4747 N.pl3          1 S1                 0.0000
     16 ****         5.9766  -2.5689  -0.7815 C.3            1 S1                 0.0000
     17 ****         3.5939  -3.4037  -0.6715 C.3            1 S1                 0.0000
     18 ****         2.8086  -0.8400   0.0899 N.pl3          1 S1                 1.0000
     19 ****        -3.5283   1.4010   1.7110 C.3            1 S1                 0.0000
     20 ****        -4.2165   0.1879   1.0580 C.3            1 S1                 0.0000
     21 ****        -4.8601  -1.4666  -1.0525 H              1 S1                 0.0000
     22 ****        -5.8903  -0.2872  -1.8729 H              1 S1                 0.0000
     23 ****        -6.3236  -0.8615  -0.2655 H              1 S1                 0.0000
     24 ****        -2.8981   0.1934  -1.3470 H              1 S1                 0.0000
     25 ****        -4.0298   1.2501  -2.1665 H              1 S1                 0.0000
     26 ****        -2.1143   2.5586  -1.2475 H              1 S1                 0.0000
     27 ****        -3.6340   3.0585  -0.5613 H              1 S1                 0.0000
     28 ****        -2.0800   2.9176   1.2709 H              1 S1                 0.0000
     29 ****        -1.4173   0.1070   1.0916 H              1 S1                 0.0000
     30 ****         0.4286  -0.5176   0.8264 H              1 S1                 0.0000
     31 ****         2.7196   2.4525   0.8046 H              1 S1                 0.0000
     32 ****         5.1400   2.1902   0.3846 H              1 S1                 0.0000
     33 ****         6.0634  -0.0225  -0.2170 H              1 S1                 0.0000
     34 ****         6.6068  -2.2898   0.0635 H              1 S1                 0.0000
     35 ****         6.2786  -1.9845  -1.6512 H              1 S1                 0.0000
     36 ****         6.1666  -3.6193  -1.0024 H              1 S1                 0.0000
     37 ****         3.0542  -3.6036   0.2547 H              1 S1                 0.0000
     38 ****         4.0750  -4.3309  -0.9833 H              1 S1                 0.0000
     39 ****         2.8731  -3.1275  -1.4420 H              1 S1                 0.0000
     40 ****        -3.1455   1.1307   2.6959 H              1 S1                 0.0000
     41 ****        -4.2724   2.1805   1.8807 H              1 S1                 0.0000
     42 ****        -5.0524  -0.1322   1.6811 H              1 S1                 0.0000
     43 ****        -3.5256  -0.6548   1.0008 H              1 S1                 0.0000
     44 ****        -5.3513   1.2934  -0.1943 H              1 S1                 0.0000
     45 ****         2.1898  -1.6473   0.0170 H              1 S1                 0.0000
     46 ****        -0.3571   3.2838   0.1543 LP             1 S1                 0.0000
     47 ****         1.2917   2.7752   0.0032 LP             1 S1                 0.0000
@<TRIPOS>BOND
    1    1    2 1     
    2    1   21 1     
    3    1   22 1     
    4    1   23 1     
    5    2   20 1     
    6    2    3 1     
    7    2   44 1     
    8    3    4 1     
    9    3   24 1     
   10    3   25 1     
   11    4    5 1     
   12    4   26 1     
   13    4   27 1     
   14    5    6 1     
   15    5   19 1     
   16    5   28 1     
   17    6    7 am    
   18    6   29 1     
   19    7    8 2     
   20    7    9 am    
   21    9   10 1     
   22    9   30 1     
   23   10   18 ar    
   24   10   11 ar    
   25   11   12 ar    
   26   11   31 1     
   27   12   13 ar    
   28   12   32 1     
   29   13   14 ar    
   30   13   33 1     
   31   14   15 1     
   32   14   18 ar    
   33   15   16 1     
   34   15   17 1     
   35   16   34 1     
   36   16   35 1     
   37   16   36 1     
   38   17   37 1     
   39   17   38 1     
   40   17   39 1     
   41   18   45 1     
   42   19   20 1     
   43   19   40 1     
   44   19   41 1     
   45   20   42 1     
   46   20   43 1     
   47    8   46 1     
   48    8   47 1     
@<TRIPOS>SUBSTRUCTURE
      1 S1             1
@<TRIPOS>SET
LONE_PAIRS      STATIC     ATOMS    <user>   **** ""
2 46 47
DONOR_HYDROGENS      STATIC     ATOMS    <user>   **** ""
4 44 29 30 45
ATOM$BLUE        STATIC     ATOMS    COLORGROUP SYSTEM
2 46 47
ATOM$RED        STATIC     ATOMS    COLORGROUP SYSTEM
4 44 29 30 45
