AV-unprocessed.smi:45|AV-procd|sdf|409|dock5
  -GOLD-   2262016263D 1   1.00000     0.00000
 Structure written by MMmdl.
 61 64  0  0  0  0  0  0  0  0  2 V2000
  146.7420  142.1777  154.1788 C   0  0  0  0  0  0  0  0  0  0  0  0
  147.1086  140.8068  154.1256 O   0  0  0  0  0  0  0  0  0  0  0  0
  148.3186  140.4335  154.6728 C   0  0  0  0  0  0  0  0  0  0  0  0
  149.2877  141.3536  155.1461 C   0  0  0  0  0  0  0  0  0  0  0  0
  150.5096  140.8969  155.6755 C   0  0  0  0  0  0  0  0  0  0  0  0
  150.7875  139.5182  155.7459 C   0  0  0  0  0  0  0  0  0  0  0  0
  152.1253  139.0607  156.3132 C   0  0  0  0  0  0  0  0  0  0  0  0
  152.0972  138.4439  157.6360 N   0  0  0  0  0  0  0  0  0  0  0  0
  152.9225  138.8885  158.6854 C   0  0  0  0  0  0  0  0  0  0  0  0
  152.7220  140.1361  159.1683 N   0  0  0  0  0  0  0  0  0  0  0  0
  153.4709  140.6022  160.1768 C   0  0  0  0  0  0  0  0  0  0  0  0
  153.2538  141.8929  160.6517 N   0  0  0  0  0  0  0  0  0  0  0  0
  153.5759  142.2633  162.0242 C   0  0  0  0  0  0  0  0  0  0  0  0
  152.5581  143.3328  162.4169 C   0  0  0  0  0  0  0  0  0  0  0  0
  152.2350  144.0008  161.0861 C   0  0  0  0  0  0  0  0  0  0  0  0
  152.3027  142.8444  160.0775 C   0  0  1  0  0  0  0  0  0  0  0  0
  152.7031  143.3120  158.6634 C   0  0  0  0  0  0  0  0  0  0  0  0
  151.7026  144.1533  158.1313 O   0  0  0  0  0  0  0  0  0  0  0  0
  154.4259  139.8587  160.7559 N   0  3  0  0  0  0  0  0  0  0  0  0
  154.6700  138.6041  160.3095 C   0  0  0  0  0  0  0  0  0  0  0  0
  153.9209  138.0537  159.2477 C   0  0  0  0  0  0  0  0  0  0  0  0
  154.2319  136.6725  158.7354 C   0  0  0  0  0  0  0  0  0  0  0  0
  153.3470  135.8288  158.5919 O   0  0  0  0  0  0  0  0  0  0  0  0
  155.5280  136.4369  158.4765 N   0  0  0  0  0  0  0  0  0  0  0  0
  156.0545  135.1907  157.9319 C   0  0  0  0  0  0  0  0  0  0  0  0
  156.9519  135.4121  156.7261 C   0  0  0  0  0  0  0  0  0  0  0  0
  156.3792  135.9276  155.6340 N   0  0  0  0  0  0  0  0  0  0  0  0
  157.1782  136.1347  154.5649 C   0  0  0  0  0  0  0  0  0  0  0  0
  158.5524  135.8231  154.5955 C   0  0  0  0  0  0  0  0  0  0  0  0
  159.0436  135.2847  155.8018 C   0  0  0  0  0  0  0  0  0  0  0  0
  158.2399  135.0796  156.8680 N   0  0  0  0  0  0  0  0  0  0  0  0
  149.8157  138.5971  155.2992 C   0  0  0  0  0  0  0  0  0  0  0  0
  148.5970  139.0516  154.7602 C   0  0  0  0  0  0  0  0  0  0  0  0
  147.4447  137.8941  154.1991 Cl  0  0  0  0  0  0  0  0  0  0  0  0
  151.3301  142.3513  160.0387 H   0  0  0  0  0  0  0  0  0  0  0  0
  145.7715  142.3086  153.7004 H   0  0  0  0  0  0  0  0  0  0  0  0
  147.4595  142.8031  153.6458 H   0  0  0  0  0  0  0  0  0  0  0  0
  146.6512  142.5267  155.2084 H   0  0  0  0  0  0  0  0  0  0  0  0
  149.1223  142.4195  155.1066 H   0  0  0  0  0  0  0  0  0  0  0  0
  151.2395  141.6139  156.0221 H   0  0  0  0  0  0  0  0  0  0  0  0
  152.5918  138.3654  155.6141 H   0  0  0  0  0  0  0  0  0  0  0  0
  152.7829  139.9287  156.3635 H   0  0  0  0  0  0  0  0  0  0  0  0
  151.6827  137.5255  157.7133 H   0  0  0  0  0  0  0  0  0  0  0  0
  153.5318  141.4110  162.7036 H   0  0  0  0  0  0  0  0  0  0  0  0
  154.5887  142.6666  162.0493 H   0  0  0  0  0  0  0  0  0  0  0  0
  151.6603  142.8613  162.8194 H   0  0  0  0  0  0  0  0  0  0  0  0
  152.9395  144.0288  163.1646 H   0  0  0  0  0  0  0  0  0  0  0  0
  151.2675  144.5040  161.0872 H   0  0  0  0  0  0  0  0  0  0  0  0
  152.9993  144.7475  160.8645 H   0  0  0  0  0  0  0  0  0  0  0  0
  153.6518  143.8493  158.6836 H   0  0  0  0  0  0  0  0  0  0  0  0
  152.8321  142.4696  157.9858 H   0  0  0  0  0  0  0  0  0  0  0  0
  151.4244  144.7544  158.8059 H   0  0  0  0  0  0  0  0  0  0  0  0
  155.4700  138.0838  160.8167 H   0  0  0  0  0  0  0  0  0  0  0  0
  156.1938  137.1788  158.6348 H   0  0  0  0  0  0  0  0  0  0  0  0
  156.6315  134.6911  158.7107 H   0  0  0  0  0  0  0  0  0  0  0  0
  155.2321  134.5178  157.6806 H   0  0  0  0  0  0  0  0  0  0  0  0
  156.7186  136.5500  153.6804 H   0  0  0  0  0  0  0  0  0  0  0  0
  159.1932  135.9879  153.7420 H   0  0  0  0  0  0  0  0  0  0  0  0
  160.0843  135.0182  155.9118 H   0  0  0  0  0  0  0  0  0  0  0  0
  149.9997  137.5343  155.3572 H   0  0  0  0  0  0  0  0  0  0  0  0
  154.9845  140.2354  161.5221 H   0  0  0  0  0  0  0  0  0  0  0  0
  1  2  1  0  0  0  0
  1 36  1  0  0  0  0
  1 37  1  0  0  0  0
  1 38  1  0  0  0  0
  2  3  1  0  0  0  0
  3 33  1  0  0  0  0
  3  4  2  0  0  0  0
  4  5  1  0  0  0  0
  4 39  1  0  0  0  0
  5  6  2  0  0  0  0
  5 40  1  0  0  0  0
  6  7  1  0  0  0  0
  6 32  1  0  0  0  0
  7  8  1  0  0  0  0
  7 41  1  0  0  0  0
  7 42  1  0  0  0  0
  8  9  1  0  0  0  0
  8 43  1  0  0  0  0
  9 21  1  0  0  0  0
  9 10  2  0  0  0  0
 10 11  1  0  0  0  0
 11 12  1  0  0  0  0
 11 19  2  0  0  0  0
 12 16  1  0  0  0  0
 12 13  1  0  0  0  0
 13 14  1  0  0  0  0
 13 44  1  0  0  0  0
 13 45  1  0  0  0  0
 14 15  1  0  0  0  0
 14 46  1  0  0  0  0
 14 47  1  0  0  0  0
 15 16  1  0  0  0  0
 15 48  1  0  0  0  0
 15 49  1  0  0  0  0
 16 35  1  0  0  0  0
 16 17  1  0  0  0  0
 17 18  1  0  0  0  0
 17 50  1  0  0  0  0
 17 51  1  0  0  0  0
 18 52  1  0  0  0  0
 19 20  1  0  0  0  0
 19 61  1  0  0  0  0
 20 21  2  0  0  0  0
 20 53  1  0  0  0  0
 21 22  1  0  0  0  0
 22 23  2  0  0  0  0
 22 24  1  0  0  0  0
 24 25  1  0  0  0  0
 24 54  1  0  0  0  0
 25 26  1  0  0  0  0
 25 55  1  0  0  0  0
 25 56  1  0  0  0  0
 26 31  1  0  0  0  0
 26 27  2  0  0  0  0
 27 28  1  0  0  0  0
 28 29  2  0  0  0  0
 28 57  1  0  0  0  0
 29 30  1  0  0  0  0
 29 58  1  0  0  0  0
 30 31  2  0  0  0  0
 30 59  1  0  0  0  0
 32 33  2  0  0  0  0
 32 60  1  0  0  0  0
 33 34  1  0  0  0  0
M  CHG  1  19   1
M  END
> <s_m_source_file>
AV-unprocessed.smi

> <i_m_source_file_index>
45

> <i_lp_mmshare_version>
43012

> <i_f3d_flags>
0

> <s_epik_input>
W0NIM11PYzFbY0hdW2NIXWMoW2NIXWMxQ2wpW0NIMl1bTkhdYzJuYyhOM1tDSDJdW0NIMl1bQ0gyXVtDQEhdM1tDSDJdW09IXSluW2NIXWMyQyg9TylbTkhdW0NIMl1jNG5bY0hdW2NIXVtjSF1uNA==

> <s_epik_cmdline>
J2VwaWtfcHl0aG9uJywgJy1waCcsICc3LjAnLCAnLXRuJywgJzgnLCAnLW1hJywgJzIwMCcsICctbWV0YWxfYmluZGluZycsICctaW1hZScsICc8aW5maWxlLm1hZT4nLCAnLW9tYWUnLCAnPG91dGZpbGUubWFlPic=

> <r_lp_tautomer_probability>
0.575011

> <r_epik_Ionization_Penalty>
1.61454

> <r_epik_Ionization_Penalty_Charging>
1.61448

> <r_epik_Ionization_Penalty_Neutral>
6.30284e-05

> <r_epik_State_Penalty>
1.91123

> <r_epik_Charging_Adjusted_Penalty>
3.52572

> <i_epik_Tot_Q>
1

> <i_epik_Tot_abs_Q>
1

> <r_epik_Metal_State_Penalty>
1.95488

> <b_epik_Metal_Only>
0

> <s_epik_Chemistry_Notes>
This compound contains an electron-poor aromatic ring that is susceptible to covalent hydrolysis at low pH, typically resulting in measured values for nitrogen ring protonation that are around two units higher than predicted values.

> <s_lp_Force_Field>
OPLS_2005

> <r_lp_Energy>
32.8606

> <b_lp_Chiralities_Consistent>
1

> <s_lp_Variant>
AV-unprocessed.smi:45-3

> <Gold.Version>
5.8.1

> <Gold.Id.Protein>
6NUR|6NUR_protein|mol2

> <Gold.PLP.Fitness>
57.9246

> <Gold.PLP.PLP>
-56.4162

> <Gold.PLP.part.hbond>
-2.0000

> <Gold.PLP.part.metal>
0.0000

> <Gold.PLP.part.buried>
-5.8166

> <Gold.PLP.part.nonpolar>
-49.3320

> <Gold.PLP.part.repulsive>
0.3434

> <Gold.PLP.ligand.clash>
0.0000

> <Gold.PLP.ligand.torsion>
1.9477

> <Gold.PLP.Chemscore.Hbond>
1.6136

> <Gold.PLP.Chemscore.CHOScore>
0.0000

> <Gold.PLP.Chemscore.Metal>
0.0000

> <Gold.Chemscore.Hbonds>
donor molecule, donor type, donor heavy atom, donor atom, acceptor molecule, acceptor atom, score
      P1  H  6896  6908       L1    23  0.64
      P1  H 10752 10763       L1    27  1.00

> <Gold.PLP.Chemscore.Internal.Correction>
0.5630

> <Gold.Rescore>
     Score         DG    S(hbond)    S(metal)    S(lipo)     H(rot)  DE(clash)    DE(int)     intcor
     16.83     -19.12       1.44        0.00     139.73       2.94       0.16       2.13       ----

> <Gold.Chemscore.Fitness>
16.8321

> <Gold.Chemscore.DG>
-19.1168

> <Gold.Chemscore.ZeroCoef>
-5.4800

> <Gold.Chemscore.Hbond>
1.4412

> <Gold.Chemscore.Metal>
0.0000

> <Gold.Chemscore.Lipo>
139.7304

> <Gold.Chemscore.Internal_Hbond>
0.0000

> <Gold.Chemscore.DEClash>
0.1586

> <Gold.Chemscore.DEInternal>
2.1261

> <Gold.Chemscore.Rot>
2.9395

> <Gold.Chemscore.Internal.Correction>
   9.000000E+99

> <Gold.Chemscore.Hbonds>
donor molecule, donor type, donor heavy atom, donor atom, acceptor molecule, acceptor atom, score
      P1  H  6896  6908       L1    23  0.61
      P1  H 10752 10763       L1    27  0.70

> <Gold.Chemscore.Hbond.Weighted>
-4.8135

> <Gold.Chemscore.Metal.Weighted>
-0.0000

> <Gold.Chemscore.Lipo.Weighted>
-16.3485

> <Gold.Chemscore.Internal_Hbond.Weighted>
0.0000

> <Gold.Chemscore.DEClash.Weighted>
0.1586

> <Gold.Chemscore.DEInternal.Weighted>
2.1261

> <Gold.Chemscore.Rot.Weighted>
7.5251

> <Gold.Chemscore.Internal.Correction.Weighted>
   9.000000E+99

> <Gold.Protein.RotatedTorsions>
[ 6907 6896 6895 6894 ] final  -71.43 input  -60.11 | X-H torsion
[ 7974 7965 7964 7962 ] final   74.81 input  175.53 | X-H torsion
[ 8008 7997 7996 7995 ] final    3.80 input   59.86 | X-H torsion
[ 10167 10162 10161 10158 ] final  -25.20 input  -65.29 | X-H torsion
[ 10718 10713 10712 10709 ] final  170.94 input   66.30 | X-H torsion
[ 10763 10752 10751 10750 ] final -173.59 input  -60.55 | X-H torsion
[ 11005 11000 10999 10996 ] final  -70.13 input  -57.11 | X-H torsion

> <Gold.Protein.ActiveResidues>
 VAL166  LYS551  ARG553  GLY616  TRP617  ASP618  TYR619  PRO620  LYS621  CYS622 
 ASP623  PHE694  ASN695  SER759  ASP760  ASP761  ALA762  ILE779  LEU786  VAL792 
 PHE793  MET794  SER795  GLU796  ALA797  LYS798  CYS799  TRP800  GLU811  SER814 

> <Gold.Protein.RotatedAtoms>
  150.7213  134.5310  159.5699 H   0  0  0  0  0  0  0  0  0  0  0  0  # atno 6907 bound_to 6896
  152.2843  134.7791  160.0399 H   0  0  0  0  0  0  0  0  0  0  0  0  # atno 6908 bound_to 6896
  151.8426  133.3391  159.3684 H   0  0  0  0  0  0  0  0  0  0  0  0  # atno 6909 bound_to 6896
  145.7235  139.2657  143.1582 H   0  0  0  0  0  0  0  0  0  0  0  0  # atno 7974 bound_to 7965
  154.7080  140.2687  155.6656 H   0  0  0  0  0  0  0  0  0  0  0  0  # atno 8008 bound_to 7997
  156.2786  140.2759  156.1637 H   0  0  0  0  0  0  0  0  0  0  0  0  # atno 8009 bound_to 7997
  155.0673  140.0372  157.2587 H   0  0  0  0  0  0  0  0  0  0  0  0  # atno 8010 bound_to 7997
  140.7287  143.4285  151.0838 H   0  0  0  0  0  0  0  0  0  0  0  0  # atno 10167 bound_to 10162
  157.0008  131.0175  151.2831 H   0  0  0  0  0  0  0  0  0  0  0  0  # atno 10718 bound_to 10713
  154.6061  135.2859  155.0483 H   0  0  0  0  0  0  0  0  0  0  0  0  # atno 10763 bound_to 10752
  154.1730  135.6469  153.5018 H   0  0  0  0  0  0  0  0  0  0  0  0  # atno 10764 bound_to 10752
  153.0176  135.5405  154.6797 H   0  0  0  0  0  0  0  0  0  0  0  0  # atno 10765 bound_to 10752
  141.1568  133.6782  156.6706 H   0  0  0  0  0  0  0  0  0  0  0  0  # atno 11005 bound_to 11000
  146.0604  140.7977  142.9738 LP  0  0  0  0  0  0  0  0  0  0  0  0  # atno 17320 bound_to 7965
  144.6910  140.3187  143.7236 LP  0  0  0  0  0  0  0  0  0  0  0  0  # atno 17321 bound_to 7965
  139.7940  143.8178  152.3155 LP  0  0  0  0  0  0  0  0  0  0  0  0  # atno 17342 bound_to 10162
  139.8172  144.7311  150.9620 LP  0  0  0  0  0  0  0  0  0  0  0  0  # atno 17343 bound_to 10162
  157.5391  130.8108  149.8007 LP  0  0  0  0  0  0  0  0  0  0  0  0  # atno 17370 bound_to 10713
  156.0172  130.3809  150.2075 LP  0  0  0  0  0  0  0  0  0  0  0  0  # atno 17371 bound_to 10713
  140.3178  134.8033  157.4228 LP  0  0  0  0  0  0  0  0  0  0  0  0  # atno 17394 bound_to 11000
  140.1123  134.5329  155.8255 LP  0  0  0  0  0  0  0  0  0  0  0  0  # atno 17395 bound_to 11000

$$$$
