AV-unprocessed.smi:587|AV-procd|sdf|3003|dock10
  -GOLD-   2262023513D 1   1.00000     0.00000
 Structure written by MMmdl.
 47 49  0  0  0  0  0  0  0  0  2 V2000
  147.3286  140.2458  153.7568 C   0  0  0  0  0  0  0  0  0  0  0  0
  148.5689  140.3249  154.4997 N   0  0  0  0  0  0  0  0  0  0  0  0
  148.9482  141.4018  155.2990 C   0  0  0  0  0  0  0  0  0  0  0  0
  148.0869  142.4846  155.4048 N   0  0  0  0  0  0  0  0  0  0  0  0
  150.1320  141.3997  155.9690 C   0  0  0  0  0  0  0  0  0  0  0  0
  150.4621  142.5892  156.8132 N   0  3  0  0  0  0  0  0  0  0  0  0
  151.8866  143.0082  156.7766 C   0  0  0  0  0  0  0  0  0  0  0  0
  152.0667  144.3865  157.4344 C   0  0  0  0  0  0  0  0  0  0  0  0
  151.5243  144.3846  158.8709 C   0  0  0  0  0  0  0  0  0  0  0  0
  150.0641  143.9108  158.8841 C   0  0  0  0  0  0  0  0  0  0  0  0
  149.9238  142.5423  158.1970 C   0  0  0  0  0  0  0  0  0  0  0  0
  151.0580  140.2666  155.8740 C   0  0  0  0  0  0  0  0  0  0  0  0
  152.1364  140.2186  156.4679 O   0  0  0  0  0  0  0  0  0  0  0  0
  150.6429  139.1938  155.0542 N   0  0  0  0  0  0  0  0  0  0  0  0
  151.5194  138.0056  154.9408 C   0  0  0  0  0  0  0  0  0  0  0  0
  150.8682  136.7119  155.4547 C   0  0  0  0  0  0  0  0  0  0  0  0
  151.0976  136.2941  156.5911 O   0  0  0  0  0  0  0  0  0  0  0  0
  150.0561  136.0872  154.5900 N   0  0  0  0  0  0  0  0  0  0  0  0
  149.3421  134.8787  154.8477 C   0  0  0  0  0  0  0  0  0  0  0  0
  150.1339  133.6803  155.3247 C   0  0  0  0  0  0  0  0  0  0  0  0
  149.5920  133.7075  153.9221 C   0  0  0  0  0  0  0  0  0  0  0  0
  149.4083  139.1929  154.3720 C   0  0  0  0  0  0  0  0  0  0  0  0
  149.0726  138.2231  153.6859 O   0  0  0  0  0  0  0  0  0  0  0  0
  146.7530  141.1612  153.8746 H   0  0  0  0  0  0  0  0  0  0  0  0
  146.7648  139.3985  154.1514 H   0  0  0  0  0  0  0  0  0  0  0  0
  147.5830  140.1080  152.7042 H   0  0  0  0  0  0  0  0  0  0  0  0
  147.1982  142.5259  154.9280 H   0  0  0  0  0  0  0  0  0  0  0  0
  148.3210  143.2891  155.9700 H   0  0  0  0  0  0  0  0  0  0  0  0
  152.5101  142.2709  157.2834 H   0  0  0  0  0  0  0  0  0  0  0  0
  152.2230  143.0508  155.7399 H   0  0  0  0  0  0  0  0  0  0  0  0
  153.1207  144.6660  157.4334 H   0  0  0  0  0  0  0  0  0  0  0  0
  151.5452  145.1433  156.8466 H   0  0  0  0  0  0  0  0  0  0  0  0
  152.1311  143.7254  159.4931 H   0  0  0  0  0  0  0  0  0  0  0  0
  151.6011  145.3822  159.3044 H   0  0  0  0  0  0  0  0  0  0  0  0
  149.6999  143.8523  159.9103 H   0  0  0  0  0  0  0  0  0  0  0  0
  149.4364  144.6428  158.3741 H   0  0  0  0  0  0  0  0  0  0  0  0
  148.8720  142.2549  158.1653 H   0  0  0  0  0  0  0  0  0  0  0  0
  150.4442  141.7804  158.7782 H   0  0  0  0  0  0  0  0  0  0  0  0
  151.8348  137.8485  153.9079 H   0  0  0  0  0  0  0  0  0  0  0  0
  152.4567  138.1571  155.4784 H   0  0  0  0  0  0  0  0  0  0  0  0
  149.9269  136.5034  153.6791 H   0  0  0  0  0  0  0  0  0  0  0  0
  148.3295  134.9690  155.2384 H   0  0  0  0  0  0  0  0  0  0  0  0
  151.2086  133.7969  155.4504 H   0  0  0  0  0  0  0  0  0  0  0  0
  149.6522  133.0126  156.0363 H   0  0  0  0  0  0  0  0  0  0  0  0
  148.7480  133.0589  153.6965 H   0  0  0  0  0  0  0  0  0  0  0  0
  150.3057  133.8416  153.1114 H   0  0  0  0  0  0  0  0  0  0  0  0
  149.9725  143.3643  156.3912 H   0  0  0  0  0  0  0  0  0  0  0  0
  1  2  1  0  0  0  0
  1 24  1  0  0  0  0
  1 25  1  0  0  0  0
  1 26  1  0  0  0  0
  2 22  1  0  0  0  0
  2  3  1  0  0  0  0
  3  4  1  0  0  0  0
  3  5  2  0  0  0  0
  4 27  1  0  0  0  0
  4 28  1  0  0  0  0
  5  6  1  0  0  0  0
  5 12  1  0  0  0  0
  6 11  1  0  0  0  0
  6  7  1  0  0  0  0
  6 47  1  0  0  0  0
  7  8  1  0  0  0  0
  7 29  1  0  0  0  0
  7 30  1  0  0  0  0
  8  9  1  0  0  0  0
  8 31  1  0  0  0  0
  8 32  1  0  0  0  0
  9 10  1  0  0  0  0
  9 33  1  0  0  0  0
  9 34  1  0  0  0  0
 10 11  1  0  0  0  0
 10 35  1  0  0  0  0
 10 36  1  0  0  0  0
 11 37  1  0  0  0  0
 11 38  1  0  0  0  0
 12 13  2  0  0  0  0
 12 14  1  0  0  0  0
 14 15  1  0  0  0  0
 14 22  1  0  0  0  0
 15 16  1  0  0  0  0
 15 39  1  0  0  0  0
 15 40  1  0  0  0  0
 16 17  2  0  0  0  0
 16 18  1  0  0  0  0
 18 19  1  0  0  0  0
 18 41  1  0  0  0  0
 19 21  1  0  0  0  0
 19 20  1  0  0  0  0
 19 42  1  0  0  0  0
 20 21  1  0  0  0  0
 20 43  1  0  0  0  0
 20 44  1  0  0  0  0
 21 45  1  0  0  0  0
 21 46  1  0  0  0  0
 22 23  2  0  0  0  0
M  CHG  1   6   1
M  END
> <s_m_source_file>
AV-unprocessed.smi

> <i_m_source_file_index>
587

> <i_lp_mmshare_version>
43012

> <i_f3d_flags>
0

> <s_epik_input>
W0NIMl0xW0NIMl1bQ0gyXVtDSDJdW0NIMl1OMWMoYyhbTkgyXSluMltDSDNdKWMoPU8pbihjMj1PKVtDSDJdQyg9TylbTkhdW0NIXTNbQ0gyXVtDSDJdMw==

> <s_epik_cmdline>
J2VwaWtfcHl0aG9uJywgJy1waCcsICc3LjAnLCAnLXRuJywgJzgnLCAnLW1hJywgJzIwMCcsICctbWV0YWxfYmluZGluZycsICctaW1hZScsICc8aW5maWxlLm1hZT4nLCAnLW9tYWUnLCAnPG91dGZpbGUubWFlPic=

> <r_epik_Ionization_Penalty>
2.48068

> <r_epik_Ionization_Penalty_Charging>
2.47625

> <r_epik_Ionization_Penalty_Neutral>
0.00443673

> <r_epik_State_Penalty>
2.66159

> <r_epik_Charging_Adjusted_Penalty>
5.13784

> <i_epik_Tot_Q>
1

> <i_epik_Tot_abs_Q>
1

> <r_epik_Metal_State_Penalty>
2.66159

> <b_epik_Metal_Only>
0

> <s_lp_Force_Field>
OPLS_2005

> <r_lp_Energy>
35.5709

> <b_lp_Chiralities_Consistent>
1

> <s_lp_Variant>
AV-unprocessed.smi:587-2

> <Gold.Version>
5.8.1

> <Gold.Id.Protein>
6NUR|6NUR_protein|mol2

> <Gold.PLP.Fitness>
48.2592

> <Gold.PLP.PLP>
-37.6262

> <Gold.PLP.part.hbond>
-3.2879

> <Gold.PLP.part.metal>
0.0000

> <Gold.PLP.part.buried>
-6.8669

> <Gold.PLP.part.nonpolar>
-31.3044

> <Gold.PLP.part.repulsive>
3.2890

> <Gold.PLP.ligand.clash>
0.0000

> <Gold.PLP.ligand.torsion>
1.0005

> <Gold.PLP.Chemscore.Hbond>
4.1457

> <Gold.PLP.Chemscore.CHOScore>
0.0000

> <Gold.PLP.Chemscore.Metal>
0.0000

> <Gold.Chemscore.Hbonds>
donor molecule, donor type, donor heavy atom, donor atom, acceptor molecule, acceptor atom, score
      L1  H     4    28       P1  8028  0.69
      L1  H     6    47       P1  8028  2.00
      L1  H    18    41       P1  7948  0.84
      P1  H  7997  8009       L1    13  0.59

> <Gold.PLP.Chemscore.Internal.Correction>
0.1970

> <Gold.Rescore>
     Score         DG    S(hbond)    S(metal)    S(lipo)     H(rot)  DE(clash)    DE(int)     intcor
      9.99     -20.15       2.69        0.00      89.44       1.87       4.19       5.96       ----

> <Gold.Chemscore.Fitness>
9.9940

> <Gold.Chemscore.DG>
-20.1451

> <Gold.Chemscore.ZeroCoef>
-5.4800

> <Gold.Chemscore.Hbond>
2.6888

> <Gold.Chemscore.Metal>
0.0000

> <Gold.Chemscore.Lipo>
89.4385

> <Gold.Chemscore.Internal_Hbond>
0.0000

> <Gold.Chemscore.DEClash>
4.1907

> <Gold.Chemscore.DEInternal>
5.9604

> <Gold.Chemscore.Rot>
1.8672

> <Gold.Chemscore.Internal.Correction>
   9.000000E+99

> <Gold.Chemscore.Hbonds>
donor molecule, donor type, donor heavy atom, donor atom, acceptor molecule, acceptor atom, score
      L1  H     4    28       P1  8028  0.53
      L1  H     6    47       P1  8028  1.00
      L1  H    18    41       P1  7948  0.20
      P1  H  7997  8009       L1    13  0.57

> <Gold.Chemscore.Hbond.Weighted>
-8.9808

> <Gold.Chemscore.Metal.Weighted>
-0.0000

> <Gold.Chemscore.Lipo.Weighted>
-10.4643

> <Gold.Chemscore.Internal_Hbond.Weighted>
0.0000

> <Gold.Chemscore.DEClash.Weighted>
4.1907

> <Gold.Chemscore.DEInternal.Weighted>
5.9604

> <Gold.Chemscore.Rot.Weighted>
4.7799

> <Gold.Chemscore.Internal.Correction.Weighted>
   9.000000E+99

> <Gold.Protein.RotatedTorsions>
[ 6907 6896 6895 6894 ] final  -16.64 input  -60.11 | X-H torsion
[ 7974 7965 7964 7962 ] final  -61.41 input  175.53 | X-H torsion
[ 8008 7997 7996 7995 ] final -169.54 input   59.86 | X-H torsion
[ 10167 10162 10161 10158 ] final  -30.75 input  -65.29 | X-H torsion
[ 10718 10713 10712 10709 ] final  109.37 input   66.30 | X-H torsion
[ 10763 10752 10751 10750 ] final -170.53 input  -60.55 | X-H torsion
[ 11005 11000 10999 10996 ] final   47.62 input  -57.11 | X-H torsion

> <Gold.Protein.ActiveResidues>
 VAL166  LYS551  ARG553  GLY616  TRP617  ASP618  TYR619  PRO620  LYS621  CYS622 
 ASP623  PHE694  ASN695  SER759  ASP760  ASP761  ALA762  ILE779  LEU786  VAL792 
 PHE793  MET794  SER795  GLU796  ALA797  LYS798  CYS799  TRP800  GLU811  SER814 

> <Gold.Protein.RotatedAtoms>
  151.3055  135.0780  159.9253 H   0  0  0  0  0  0  0  0  0  0  0  0  # atno 6907 bound_to 6896
  152.5289  133.9790  159.7808 H   0  0  0  0  0  0  0  0  0  0  0  0  # atno 6908 bound_to 6896
  151.0084  133.5937  159.2716 H   0  0  0  0  0  0  0  0  0  0  0  0  # atno 6909 bound_to 6896
  145.8038  140.8639  143.0217 H   0  0  0  0  0  0  0  0  0  0  0  0  # atno 7974 bound_to 7965
  155.9064  140.1050  157.1312 H   0  0  0  0  0  0  0  0  0  0  0  0  # atno 8008 bound_to 7997
  154.4033  140.1283  156.4565 H   0  0  0  0  0  0  0  0  0  0  0  0  # atno 8009 bound_to 7997
  155.7362  140.3467  155.5085 H   0  0  0  0  0  0  0  0  0  0  0  0  # atno 8010 bound_to 7997
  140.7245  143.3824  151.1576 H   0  0  0  0  0  0  0  0  0  0  0  0  # atno 10167 bound_to 10162
  157.6544  131.0912  150.6443 H   0  0  0  0  0  0  0  0  0  0  0  0  # atno 10718 bound_to 10713
  154.6405  135.2898  155.0109 H   0  0  0  0  0  0  0  0  0  0  0  0  # atno 10763 bound_to 10752
  154.1237  135.6544  153.4912 H   0  0  0  0  0  0  0  0  0  0  0  0  # atno 10764 bound_to 10752
  153.0324  135.5294  154.7270 H   0  0  0  0  0  0  0  0  0  0  0  0  # atno 10765 bound_to 10752
  140.1263  134.4764  155.8557 H   0  0  0  0  0  0  0  0  0  0  0  0  # atno 11005 bound_to 11000
  144.6765  140.0298  143.7482 LP  0  0  0  0  0  0  0  0  0  0  0  0  # atno 17320 bound_to 7965
  145.9849  139.2970  143.1019 LP  0  0  0  0  0  0  0  0  0  0  0  0  # atno 17321 bound_to 7965
  139.7415  143.8916  152.3051 LP  0  0  0  0  0  0  0  0  0  0  0  0  # atno 17342 bound_to 10162
  139.8739  144.7053  150.8955 LP  0  0  0  0  0  0  0  0  0  0  0  0  # atno 17343 bound_to 10162
  156.6751  130.4551  149.5645 LP  0  0  0  0  0  0  0  0  0  0  0  0  # atno 17370 bound_to 10713
  156.1969  130.6595  151.1124 LP  0  0  0  0  0  0  0  0  0  0  0  0  # atno 17371 bound_to 10713
  141.2162  133.6779  156.6984 LP  0  0  0  0  0  0  0  0  0  0  0  0  # atno 17394 bound_to 11000
  140.2900  134.8248  157.4008 LP  0  0  0  0  0  0  0  0  0  0  0  0  # atno 17395 bound_to 11000

$$$$
