AV-unprocessed.smi:255|AV-procd|sdf|1952|dock6
  -GOLD-   2262021 93D 1   1.00000     0.00000
 Structure written by MMmdl.
 44 47  0  0  0  0  0  0  0  0  1 V2000
  146.1013  137.6207  150.7369 O   0  0  0  0  0  0  0  0  0  0  0  0
  145.5522  136.9301  151.8381 C   0  0  0  0  0  0  0  0  0  0  0  0
  144.7616  135.6963  151.3499 C   0  0  1  0  0  0  0  0  0  0  0  0
  145.4835  134.8373  150.3100 C   0  0  0  0  0  0  0  0  0  0  0  0
  144.6712  133.5409  150.3295 C   0  0  1  0  0  0  0  0  0  0  0  0
  145.4605  132.4754  150.1925 F   0  0  0  0  0  0  0  0  0  0  0  0
  143.9371  133.5431  151.6823 C   0  0  0  0  0  0  0  0  0  0  0  0
  144.3433  134.7557  152.3920 N   0  0  0  0  0  0  0  0  0  0  0  0
  145.2067  134.5682  153.4226 C   0  0  0  0  0  0  0  0  0  0  0  0
  144.8296  134.8320  154.7026 N   0  0  0  0  0  0  0  0  0  0  0  0
  145.6760  134.6048  155.7110 C   0  0  0  0  0  0  0  0  0  0  0  0
  146.9201  134.1238  155.6640 N   0  0  0  0  0  0  0  0  0  0  0  0
  147.3051  133.8659  154.3809 C   0  0  0  0  0  0  0  0  0  0  0  0
  146.5146  134.0554  153.2133 C   0  0  0  0  0  0  0  0  0  0  0  0
  147.2265  133.6656  152.0868 N   0  0  0  0  0  0  0  0  0  0  0  0
  148.3721  133.2603  152.5628 C   0  0  0  0  0  0  0  0  0  0  0  0
  148.5144  133.3635  153.9293 N   0  0  0  0  0  0  0  0  0  0  0  0
  149.6738  132.9717  154.7191 C   0  0  0  0  0  0  0  0  0  0  0  0
  150.2837  134.0922  155.6012 C   0  0  1  0  0  0  0  0  0  0  0  0
  151.5465  133.6205  156.0349 O   0  0  0  0  0  0  0  0  0  0  0  0
  150.5021  135.4315  154.8971 C   0  0  0  0  0  0  0  0  0  0  0  0
  150.3671  136.4389  156.0307 C   0  0  0  0  0  0  0  0  0  0  0  0
  149.2998  135.8995  156.7898 O   0  0  0  0  0  0  0  0  0  0  0  0
  149.4655  134.4872  156.8509 C   0  0  0  0  0  0  0  0  0  0  0  0
  143.8365  136.0629  150.9016 H   0  0  0  0  0  0  0  0  0  0  0  0
  143.9523  133.5180  149.5099 H   0  0  0  0  0  0  0  0  0  0  0  0
  145.4305  138.1726  150.3643 H   0  0  0  0  0  0  0  0  0  0  0  0
  146.3595  136.6489  152.5155 H   0  0  0  0  0  0  0  0  0  0  0  0
  144.8961  137.6162  152.3744 H   0  0  0  0  0  0  0  0  0  0  0  0
  145.5147  135.2999  149.3233 H   0  0  0  0  0  0  0  0  0  0  0  0
  146.5108  134.6478  150.6246 H   0  0  0  0  0  0  0  0  0  0  0  0
  142.8590  133.5796  151.5243 H   0  0  0  0  0  0  0  0  0  0  0  0
  144.1398  132.6351  152.2524 H   0  0  0  0  0  0  0  0  0  0  0  0
  145.3014  134.8384  156.6966 H   0  0  0  0  0  0  0  0  0  0  0  0
  149.1505  132.8704  151.9232 H   0  0  0  0  0  0  0  0  0  0  0  0
  149.3820  132.1273  155.3453 H   0  0  0  0  0  0  0  0  0  0  0  0
  150.4301  132.5883  154.0327 H   0  0  0  0  0  0  0  0  0  0  0  0
  151.4114  133.0186  156.7509 H   0  0  0  0  0  0  0  0  0  0  0  0
  151.4556  135.5025  154.3719 H   0  0  0  0  0  0  0  0  0  0  0  0
  149.7150  135.6333  154.1735 H   0  0  0  0  0  0  0  0  0  0  0  0
  151.2731  136.4757  156.6376 H   0  0  0  0  0  0  0  0  0  0  0  0
  150.1432  137.4459  155.6782 H   0  0  0  0  0  0  0  0  0  0  0  0
  148.4857  134.0176  156.8948 H   0  0  0  0  0  0  0  0  0  0  0  0
  149.9834  134.2271  157.7754 H   0  0  0  0  0  0  0  0  0  0  0  0
  1  2  1  0  0  0  0
  1 27  1  0  0  0  0
  2  3  1  0  0  0  0
  2 28  1  0  0  0  0
  2 29  1  0  0  0  0
  3 25  1  0  0  0  0
  3  8  1  0  0  0  0
  3  4  1  0  0  0  0
  4  5  1  0  0  0  0
  4 30  1  0  0  0  0
  4 31  1  0  0  0  0
  5 26  1  0  0  0  0
  5  6  1  0  0  0  0
  5  7  1  0  0  0  0
  7  8  1  0  0  0  0
  7 32  1  0  0  0  0
  7 33  1  0  0  0  0
  8  9  1  0  0  0  0
  9 14  1  0  0  0  0
  9 10  2  0  0  0  0
 10 11  1  0  0  0  0
 11 12  2  0  0  0  0
 11 34  1  0  0  0  0
 12 13  1  0  0  0  0
 13 17  1  0  0  0  0
 13 14  2  0  0  0  0
 14 15  1  0  0  0  0
 15 16  2  0  0  0  0
 16 17  1  0  0  0  0
 16 35  1  0  0  0  0
 17 18  1  0  0  0  0
 18 19  1  0  0  0  0
 18 36  1  0  0  0  0
 18 37  1  0  0  0  0
 19 24  1  0  0  0  0
 19 20  1  0  0  0  0
 19 21  1  0  0  0  0
 20 38  1  0  0  0  0
 21 22  1  0  0  0  0
 21 39  1  0  0  0  0
 21 40  1  0  0  0  0
 22 23  1  0  0  0  0
 22 41  1  0  0  0  0
 22 42  1  0  0  0  0
 23 24  1  0  0  0  0
 24 43  1  0  0  0  0
 24 44  1  0  0  0  0
M  END
> <s_m_source_file>
AV-unprocessed.smi

> <i_m_source_file_index>
255

> <i_lp_mmshare_version>
43012

> <i_f3d_flags>
0

> <s_epik_input>
W09IXVtDSDJdW0NAQEhdMVtDSDJdW0NASF0oRilbQ0gyXU4xYyhuW2NIXW4yKWMoYzIzKW5bY0hdbjNbQ0gyXVtDQEBdNChbT0hdKVtDSDJdW0NIMl1PW0NIMl00

> <s_epik_cmdline>
J2VwaWtfcHl0aG9uJywgJy1waCcsICc3LjAnLCAnLXRuJywgJzgnLCAnLW1hJywgJzIwMCcsICctbWV0YWxfYmluZGluZycsICctaW1hZScsICc8aW5maWxlLm1hZT4nLCAnLW9tYWUnLCAnPG91dGZpbGUubWFlPic=

> <r_lp_tautomer_probability>
1

> <r_epik_Ionization_Penalty>
0.0058098

> <r_epik_Ionization_Penalty_Charging>
0

> <r_epik_Ionization_Penalty_Neutral>
0.0058098

> <r_epik_State_Penalty>
0.00411166

> <r_epik_Charging_Adjusted_Penalty>
0.00411166

> <i_epik_Tot_Q>
0

> <i_epik_Tot_abs_Q>
0

> <r_epik_Metal_State_Penalty>
-0

> <b_epik_Metal_Only>
0

> <s_lp_Force_Field>
OPLS_2005

> <r_lp_Energy>
52.3077

> <b_lp_Chiralities_Consistent>
1

> <s_lp_Variant>
AV-unprocessed.smi:255-4

> <Gold.Version>
5.8.1

> <Gold.Id.Protein>
6NUR|6NUR_protein|mol2

> <Gold.PLP.Fitness>
40.5113

> <Gold.PLP.PLP>
-31.9505

> <Gold.PLP.part.hbond>
-2.8380

> <Gold.PLP.part.metal>
0.0000

> <Gold.PLP.part.buried>
-2.2502

> <Gold.PLP.part.nonpolar>
-27.3281

> <Gold.PLP.part.repulsive>
0.3525

> <Gold.PLP.ligand.clash>
0.0000

> <Gold.PLP.ligand.torsion>
0.2274

> <Gold.PLP.Chemscore.Hbond>
1.9913

> <Gold.PLP.Chemscore.CHOScore>
1.0000

> <Gold.PLP.Chemscore.Metal>
0.0000

> <Gold.Chemscore.Hbonds>
donor molecule, donor type, donor heavy atom, donor atom, acceptor molecule, acceptor atom, score
      L1  H     1    27       P1 10171  1.00
      P1  H  7954  7966       L1     1  0.48
      L1  C    16    35       P1 10747  0.86

> <Gold.PLP.Chemscore.Internal.Correction>
0.0418

> <Gold.Rescore>
     Score         DG    S(hbond)    S(metal)    S(lipo)     H(rot)  DE(clash)    DE(int)     intcor
      4.39      -9.16       1.61        0.00      58.27       3.33       1.44       3.33       ----

> <Gold.Chemscore.Fitness>
4.3907

> <Gold.Chemscore.DG>
-9.1598

> <Gold.Chemscore.ZeroCoef>
-5.4800

> <Gold.Chemscore.Hbond>
1.6108

> <Gold.Chemscore.Metal>
0.0000

> <Gold.Chemscore.Lipo>
58.2699

> <Gold.Chemscore.Internal_Hbond>
0.0000

> <Gold.Chemscore.DEClash>
1.4414

> <Gold.Chemscore.DEInternal>
3.3276

> <Gold.Chemscore.Rot>
3.3273

> <Gold.Chemscore.Internal.Correction>
   9.000000E+99

> <Gold.Chemscore.Hbonds>
donor molecule, donor type, donor heavy atom, donor atom, acceptor molecule, acceptor atom, score
      L1  H     1    27       P1 10171  0.99
      P1  H  7954  7966       L1     1  0.41

> <Gold.Chemscore.Hbond.Weighted>
-5.3801

> <Gold.Chemscore.Metal.Weighted>
-0.0000

> <Gold.Chemscore.Lipo.Weighted>
-6.8176

> <Gold.Chemscore.Internal_Hbond.Weighted>
0.0000

> <Gold.Chemscore.DEClash.Weighted>
1.4414

> <Gold.Chemscore.DEInternal.Weighted>
3.3276

> <Gold.Chemscore.Rot.Weighted>
8.5179

> <Gold.Chemscore.Internal.Correction.Weighted>
   9.000000E+99

> <Gold.Protein.RotatedTorsions>
[ 6907 6896 6895 6894 ] final -145.31 input  -60.11 | X-H torsion
[ 7974 7965 7964 7962 ] final   60.59 input  175.53 | X-H torsion
[ 8008 7997 7996 7995 ] final   38.38 input   59.86 | X-H torsion
[ 10167 10162 10161 10158 ] final  115.67 input  -65.29 | X-H torsion
[ 10718 10713 10712 10709 ] final  111.74 input   66.30 | X-H torsion
[ 10763 10752 10751 10750 ] final  -65.15 input  -60.55 | X-H torsion
[ 11005 11000 10999 10996 ] final   -3.59 input  -57.11 | X-H torsion

> <Gold.Protein.ActiveResidues>
 VAL166  LYS551  ARG553  GLY616  TRP617  ASP618  TYR619  PRO620  LYS621  CYS622 
 ASP623  PHE694  ASN695  SER759  ASP760  ASP761  ALA762  ILE779  LEU786  VAL792 
 PHE793  MET794  SER795  GLU796  ALA797  LYS798  CYS799  TRP800  GLU811  SER814 

> <Gold.Protein.RotatedAtoms>
  151.1260  133.5070  159.2600 H   0  0  0  0  0  0  0  0  0  0  0  0  # atno 6907 bound_to 6896
  151.1809  135.0360  159.8802 H   0  0  0  0  0  0  0  0  0  0  0  0  # atno 6908 bound_to 6896
  152.5458  134.1112  159.8413 H   0  0  0  0  0  0  0  0  0  0  0  0  # atno 6909 bound_to 6896
  145.8943  139.3534  143.0630 H   0  0  0  0  0  0  0  0  0  0  0  0  # atno 7974 bound_to 7965
  155.2192  140.3329  155.4318 H   0  0  0  0  0  0  0  0  0  0  0  0  # atno 8008 bound_to 7997
  156.2340  140.1863  156.7216 H   0  0  0  0  0  0  0  0  0  0  0  0  # atno 8009 bound_to 7997
  154.6027  140.0621  156.9375 H   0  0  0  0  0  0  0  0  0  0  0  0  # atno 8010 bound_to 7997
  139.6300  144.7113  151.2451 H   0  0  0  0  0  0  0  0  0  0  0  0  # atno 10167 bound_to 10162
  157.6429  131.0956  150.6794 H   0  0  0  0  0  0  0  0  0  0  0  0  # atno 10718 bound_to 10713
  154.3407  135.6157  153.5595 H   0  0  0  0  0  0  0  0  0  0  0  0  # atno 10763 bound_to 10752
  152.9804  135.5769  154.4856 H   0  0  0  0  0  0  0  0  0  0  0  0  # atno 10764 bound_to 10752
  154.4559  135.2854  155.1725 H   0  0  0  0  0  0  0  0  0  0  0  0  # atno 10765 bound_to 10752
  140.6710  133.9236  155.8495 H   0  0  0  0  0  0  0  0  0  0  0  0  # atno 11005 bound_to 11000
  145.8870  140.9328  143.0572 LP  0  0  0  0  0  0  0  0  0  0  0  0  # atno 17320 bound_to 7965
  144.6732  140.0855  143.7467 LP  0  0  0  0  0  0  0  0  0  0  0  0  # atno 17321 bound_to 7965
  140.7434  143.6497  150.8260 LP  0  0  0  0  0  0  0  0  0  0  0  0  # atno 17342 bound_to 10162
  140.0120  143.5632  152.2835 LP  0  0  0  0  0  0  0  0  0  0  0  0  # atno 17343 bound_to 10162
  156.7115  130.4653  149.5546 LP  0  0  0  0  0  0  0  0  0  0  0  0  # atno 17370 bound_to 10713
  156.1727  130.6447  151.0856 LP  0  0  0  0  0  0  0  0  0  0  0  0  # atno 17371 bound_to 10713
  141.0392  134.0646  157.3923 LP  0  0  0  0  0  0  0  0  0  0  0  0  # atno 17394 bound_to 11000
  139.8981  135.0153  156.7134 LP  0  0  0  0  0  0  0  0  0  0  0  0  # atno 17395 bound_to 11000

$$$$
