AV-unprocessed.smi:2786|AV-procd|sdf|10748|dock2
  -GOLD-   2272015183D 1   1.00000     0.00000
 Structure written by MMmdl.
 27 28  0  0  0  0  0  0  0  0  2 V2000
  152.1161  145.3030  159.4140 C   0  0  0  0  0  0  0  0  0  0  0  0
  152.2583  144.0913  160.1980 N   0  0  0  0  0  0  0  0  0  0  0  0
  152.4394  144.0304  161.5735 C   0  0  0  0  0  0  0  0  0  0  0  0
  152.5169  142.6989  161.9025 C   0  0  0  0  0  0  0  0  0  0  0  0
  152.3864  141.9317  160.7502 N   0  0  0  0  0  0  0  0  0  0  0  0
  152.2444  142.8153  159.7648 C   0  0  0  0  0  0  0  0  0  0  0  0
  152.0548  142.4403  158.3231 C   0  0  2  0  0  0  0  0  0  0  0  0
  150.8475  143.1793  157.7042 C   0  0  0  0  0  0  0  0  0  0  0  0
  150.7061  142.8293  156.2755 N   0  3  0  0  0  0  0  0  0  0  0  0
  150.6137  141.3671  156.0904 C   0  0  0  0  0  0  0  0  0  0  0  0
  151.8278  140.6780  156.7398 C   0  0  0  0  0  0  0  0  0  0  0  0
  151.8687  140.9977  158.1633 N   0  0  0  0  0  0  0  0  0  0  0  0
  152.0780  146.1731  160.0703 H   0  0  0  0  0  0  0  0  0  0  0  0
  151.1953  145.2621  158.8315 H   0  0  0  0  0  0  0  0  0  0  0  0
  152.9662  145.4075  158.7396 H   0  0  0  0  0  0  0  0  0  0  0  0
  152.4950  144.9161  162.1895 H   0  0  0  0  0  0  0  0  0  0  0  0
  152.6538  142.2381  162.8696 H   0  0  0  0  0  0  0  0  0  0  0  0
  152.9598  142.7152  157.7803 H   0  0  0  0  0  0  0  0  0  0  0  0
  149.9264  142.9281  158.2329 H   0  0  0  0  0  0  0  0  0  0  0  0
  150.9787  144.2586  157.7873 H   0  0  0  0  0  0  0  0  0  0  0  0
  149.8799  143.2712  155.8987 H   0  0  0  0  0  0  0  0  0  0  0  0
  149.6833  141.0015  156.5280 H   0  0  0  0  0  0  0  0  0  0  0  0
  150.5755  141.1444  155.0239 H   0  0  0  0  0  0  0  0  0  0  0  0
  151.7474  139.5968  156.6253 H   0  0  0  0  0  0  0  0  0  0  0  0
  152.7584  140.9822  156.2581 H   0  0  0  0  0  0  0  0  0  0  0  0
  150.9790  140.7434  158.5695 H   0  0  0  0  0  0  0  0  0  0  0  0
  151.5182  143.1662  155.7788 H   0  0  0  0  0  0  0  0  0  0  0  0
  1  2  1  0  0  0  0
  1 13  1  0  0  0  0
  1 14  1  0  0  0  0
  1 15  1  0  0  0  0
  2  6  1  0  0  0  0
  2  3  1  0  0  0  0
  3  4  2  0  0  0  0
  3 16  1  0  0  0  0
  4  5  1  0  0  0  0
  4 17  1  0  0  0  0
  5  6  2  0  0  0  0
  6  7  1  0  0  0  0
  7 12  1  0  0  0  0
  7  8  1  0  0  0  0
  7 18  1  0  0  0  0
  8  9  1  0  0  0  0
  8 19  1  0  0  0  0
  8 20  1  0  0  0  0
  9 10  1  0  0  0  0
  9 21  1  0  0  0  0
  9 27  1  0  0  0  0
 10 11  1  0  0  0  0
 10 22  1  0  0  0  0
 10 23  1  0  0  0  0
 11 12  1  0  0  0  0
 11 24  1  0  0  0  0
 11 25  1  0  0  0  0
 12 26  1  0  0  0  0
M  CHG  1   9   1
M  END
> <s_m_source_file>
AV-unprocessed.smi

> <i_m_source_file_index>
2786

> <i_lp_mmshare_version>
43012

> <i_f3d_flags>
0

> <s_epik_input>
W0NIM11uMVtjSF1bY0hdbmMxW0NAQEhdMltDSDJdW05IXVtDSDJdW0NIMl1bTkhdMg==

> <s_epik_cmdline>
J2VwaWtfcHl0aG9uJywgJy1waCcsICc3LjAnLCAnLXRuJywgJzgnLCAnLW1hJywgJzIwMCcsICctbWV0YWxfYmluZGluZycsICctaW1hZScsICc8aW5maWxlLm1hZT4nLCAnLW9tYWUnLCAnPG91dGZpbGUubWFlPic=

> <r_lp_tautomer_probability>
1

> <r_epik_Ionization_Penalty>
0.130484

> <r_epik_Ionization_Penalty_Charging>
0.130409

> <r_epik_Ionization_Penalty_Neutral>
7.57914e-05

> <r_epik_State_Penalty>
0.270147

> <r_epik_Charging_Adjusted_Penalty>
0.400555

> <i_epik_Tot_Q>
1

> <i_epik_Tot_abs_Q>
1

> <r_epik_Metal_State_Penalty>
0.136376

> <b_epik_Metal_Only>
0

> <s_lp_Force_Field>
OPLS_2005

> <r_lp_Energy>
9.37099

> <b_lp_Chiralities_Consistent>
1

> <s_lp_Variant>
AV-unprocessed.smi:2786-1

> <Gold.Version>
5.8.1

> <Gold.Id.Protein>
6NUR|6NUR_protein|mol2

> <Gold.PLP.Fitness>
36.4197

> <Gold.PLP.PLP>
-30.8031

> <Gold.PLP.part.hbond>
-1.0000

> <Gold.PLP.part.metal>
0.0000

> <Gold.PLP.part.buried>
-4.1032

> <Gold.PLP.part.nonpolar>
-24.2224

> <Gold.PLP.part.repulsive>
0.1260

> <Gold.PLP.ligand.clash>
0.0000

> <Gold.PLP.ligand.torsion>
0.1715

> <Gold.PLP.Chemscore.Hbond>
1.9840

> <Gold.PLP.Chemscore.CHOScore>
0.0000

> <Gold.PLP.Chemscore.Metal>
0.0000

> <Gold.Chemscore.Hbonds>
donor molecule, donor type, donor heavy atom, donor atom, acceptor molecule, acceptor atom, score
      L1  H     9    21       P1  8028  1.98

> <Gold.PLP.Chemscore.Internal.Correction>
0.0077

> <Gold.Rescore>
     Score         DG    S(hbond)    S(metal)    S(lipo)     H(rot)  DE(clash)    DE(int)     intcor
     14.21     -14.35       0.98        0.00      69.82       1.00       0.12       0.02       ----

> <Gold.Chemscore.Fitness>
14.2112

> <Gold.Chemscore.DG>
-14.3462

> <Gold.Chemscore.ZeroCoef>
-5.4800

> <Gold.Chemscore.Hbond>
0.9752

> <Gold.Chemscore.Metal>
0.0000

> <Gold.Chemscore.Lipo>
69.8205

> <Gold.Chemscore.Internal_Hbond>
0.0000

> <Gold.Chemscore.DEClash>
0.1170

> <Gold.Chemscore.DEInternal>
0.0180

> <Gold.Chemscore.Rot>
1.0000

> <Gold.Chemscore.Internal.Correction>
   9.000000E+99

> <Gold.Chemscore.Hbonds>
donor molecule, donor type, donor heavy atom, donor atom, acceptor molecule, acceptor atom, score
      L1  H     9    21       P1  8028  0.94

> <Gold.Chemscore.Hbond.Weighted>
-3.2572

> <Gold.Chemscore.Metal.Weighted>
-0.0000

> <Gold.Chemscore.Lipo.Weighted>
-8.1690

> <Gold.Chemscore.Internal_Hbond.Weighted>
0.0000

> <Gold.Chemscore.DEClash.Weighted>
0.1170

> <Gold.Chemscore.DEInternal.Weighted>
0.0180

> <Gold.Chemscore.Rot.Weighted>
2.5600

> <Gold.Chemscore.Internal.Correction.Weighted>
   9.000000E+99

> <Gold.Protein.RotatedTorsions>
[ 6907 6896 6895 6894 ] final   55.22 input  -60.11 | X-H torsion
[ 7974 7965 7964 7962 ] final  143.63 input  175.53 | X-H torsion
[ 8008 7997 7996 7995 ] final   10.00 input   59.86 | X-H torsion
[ 10167 10162 10161 10158 ] final   15.47 input  -65.29 | X-H torsion
[ 10718 10713 10712 10709 ] final  -39.07 input   66.30 | X-H torsion
[ 10763 10752 10751 10750 ] final -104.08 input  -60.55 | X-H torsion
[ 11005 11000 10999 10996 ] final  -19.98 input  -57.11 | X-H torsion

> <Gold.Protein.ActiveResidues>
 VAL166  LYS551  ARG553  GLY616  TRP617  ASP618  TYR619  PRO620  LYS621  CYS622 
 ASP623  PHE694  ASN695  SER759  ASP760  ASP761  ALA762  ILE779  LEU786  VAL792 
 PHE793  MET794  SER795  GLU796  ALA797  LYS798  CYS799  TRP800  GLU811  SER814 

> <Gold.Protein.RotatedAtoms>
  152.3517  134.6996  160.0234 H   0  0  0  0  0  0  0  0  0  0  0  0  # atno 6907 bound_to 6896
  151.7348  133.3314  159.3358 H   0  0  0  0  0  0  0  0  0  0  0  0  # atno 6908 bound_to 6896
  150.7544  134.6264  159.6208 H   0  0  0  0  0  0  0  0  0  0  0  0  # atno 6909 bound_to 6896
  144.8904  139.5566  143.5801 H   0  0  0  0  0  0  0  0  0  0  0  0  # atno 7974 bound_to 7965
  154.7876  140.2830  155.6016 H   0  0  0  0  0  0  0  0  0  0  0  0  # atno 8008 bound_to 7997
  156.2959  140.2611  156.2644 H   0  0  0  0  0  0  0  0  0  0  0  0  # atno 8009 bound_to 7997
  154.9709  140.0376  157.2223 H   0  0  0  0  0  0  0  0  0  0  0  0  # atno 8010 bound_to 7997
  140.5865  143.8880  150.6835 H   0  0  0  0  0  0  0  0  0  0  0  0  # atno 10167 bound_to 10162
  156.2966  130.4235  149.8185 H   0  0  0  0  0  0  0  0  0  0  0  0  # atno 10718 bound_to 10713
  154.7853  135.4799  153.9932 H   0  0  0  0  0  0  0  0  0  0  0  0  # atno 10763 bound_to 10752
  153.1551  135.6798  153.8831 H   0  0  0  0  0  0  0  0  0  0  0  0  # atno 10764 bound_to 10752
  153.8463  135.3173  155.3407 H   0  0  0  0  0  0  0  0  0  0  0  0  # atno 10765 bound_to 10752
  140.8419  133.7920  155.9870 H   0  0  0  0  0  0  0  0  0  0  0  0  # atno 11005 bound_to 11000
  146.3050  139.7551  142.9063 LP  0  0  0  0  0  0  0  0  0  0  0  0  # atno 17320 bound_to 7965
  145.3792  141.0355  143.3187 LP  0  0  0  0  0  0  0  0  0  0  0  0  # atno 17321 bound_to 7965
  140.2392  143.3676  152.1501 LP  0  0  0  0  0  0  0  0  0  0  0  0  # atno 17342 bound_to 10162
  139.5201  144.7028  151.5444 LP  0  0  0  0  0  0  0  0  0  0  0  0  # atno 17343 bound_to 10162
  156.5579  130.8370  151.3319 LP  0  0  0  0  0  0  0  0  0  0  0  0  # atno 17370 bound_to 10713
  157.7357  130.9766  150.2095 LP  0  0  0  0  0  0  0  0  0  0  0  0  # atno 17371 bound_to 10713
  140.8885  134.2524  157.5107 LP  0  0  0  0  0  0  0  0  0  0  0  0  # atno 17394 bound_to 11000
  139.8703  134.9650  156.4514 LP  0  0  0  0  0  0  0  0  0  0  0  0  # atno 17395 bound_to 11000

$$$$
