AV-unprocessed.smi:1440|AV-procd|sdf|5873|dock2
  -GOLD-   22720 5553D 1   1.00000     0.00000
 Structure written by MMmdl.
 41 42  0  0  0  0  0  0  0  0  1 V2000
  153.3356  142.2036  160.6589 C   0  0  0  0  0  0  0  0  0  0  0  0
  152.1847  142.2156  159.6431 C   0  0  2  0  0  0  0  0  0  0  0  0
  152.1351  140.9088  158.8296 C   0  0  0  0  0  0  0  0  0  0  0  0
  150.9796  140.9178  157.8161 C   0  0  0  0  0  0  0  0  0  0  0  0
  151.0614  142.1364  156.8731 C   0  0  1  0  0  0  0  0  0  0  0  0
  149.9091  142.1769  155.9772 N   0  0  0  0  0  0  0  0  0  0  0  0
  149.6695  141.3156  154.9770 C   0  0  0  0  0  0  0  0  0  0  0  0
  150.4137  140.3713  154.7079 O   0  0  0  0  0  0  0  0  0  0  0  0
  148.3824  141.5631  154.1796 C   0  0  0  0  0  0  0  0  0  0  0  0
  147.4899  142.5327  154.8099 N   0  0  0  0  0  0  0  0  0  0  0  0
  146.2064  142.3106  155.1354 C   0  0  0  0  0  0  0  0  0  0  0  0
  145.6243  141.2484  154.9178 O   0  0  0  0  0  0  0  0  0  0  0  0
  145.4666  143.4625  155.8167 C   0  0  0  0  0  0  0  0  0  0  0  0
  144.8803  144.3618  154.8400 N   0  0  0  0  0  0  0  0  0  0  0  0
  145.0380  144.4273  153.5166 C   0  0  0  0  0  0  0  0  0  0  0  0
  144.3372  145.3946  152.9412 N   0  0  0  0  0  0  0  0  0  0  0  0
  143.7284  145.9230  154.0448 C   0  0  0  0  0  0  0  0  0  0  0  0
  144.0195  145.3406  155.2080 N   0  0  0  0  0  0  0  0  0  0  0  0
  151.1259  143.4452  157.6821 C   0  0  0  0  0  0  0  0  0  0  0  0
  152.2794  143.4283  158.6981 C   0  0  0  0  0  0  0  0  0  0  0  0
  154.3025  142.1216  160.1619 H   0  0  0  0  0  0  0  0  0  0  0  0
  153.2426  141.3634  161.3477 H   0  0  0  0  0  0  0  0  0  0  0  0
  153.3430  143.1175  161.2536 H   0  0  0  0  0  0  0  0  0  0  0  0
  151.2529  142.2977  160.2047 H   0  0  0  0  0  0  0  0  0  0  0  0
  153.0792  140.7661  158.3019 H   0  0  0  0  0  0  0  0  0  0  0  0
  152.0247  140.0556  159.4996 H   0  0  0  0  0  0  0  0  0  0  0  0
  150.9966  139.9915  157.2407 H   0  0  0  0  0  0  0  0  0  0  0  0
  150.0297  140.9290  158.3526 H   0  0  0  0  0  0  0  0  0  0  0  0
  151.9714  142.0605  156.2746 H   0  0  0  0  0  0  0  0  0  0  0  0
  149.2432  142.9205  156.1290 H   0  0  0  0  0  0  0  0  0  0  0  0
  148.6516  141.9413  153.1931 H   0  0  0  0  0  0  0  0  0  0  0  0
  147.8614  140.6173  154.0202 H   0  0  0  0  0  0  0  0  0  0  0  0
  147.8836  143.4362  155.0300 H   0  0  0  0  0  0  0  0  0  0  0  0
  144.6715  143.0706  156.4525 H   0  0  0  0  0  0  0  0  0  0  0  0
  146.1496  144.0182  156.4616 H   0  0  0  0  0  0  0  0  0  0  0  0
  145.6798  143.7560  152.9647 H   0  0  0  0  0  0  0  0  0  0  0  0
  143.0507  146.7622  153.9892 H   0  0  0  0  0  0  0  0  0  0  0  0
  151.2441  144.2951  157.0089 H   0  0  0  0  0  0  0  0  0  0  0  0
  150.1843  143.5994  158.2114 H   0  0  0  0  0  0  0  0  0  0  0  0
  152.2685  144.3527  159.2764 H   0  0  0  0  0  0  0  0  0  0  0  0
  153.2314  143.4084  158.1660 H   0  0  0  0  0  0  0  0  0  0  0  0
  1  2  1  0  0  0  0
  1 21  1  0  0  0  0
  1 22  1  0  0  0  0
  1 23  1  0  0  0  0
  2 20  1  0  0  0  0
  2  3  1  0  0  0  0
  2 24  1  0  0  0  0
  3  4  1  0  0  0  0
  3 25  1  0  0  0  0
  3 26  1  0  0  0  0
  4  5  1  0  0  0  0
  4 27  1  0  0  0  0
  4 28  1  0  0  0  0
  5  6  1  0  0  0  0
  5 19  1  0  0  0  0
  5 29  1  0  0  0  0
  6  7  1  0  0  0  0
  6 30  1  0  0  0  0
  7  8  2  0  0  0  0
  7  9  1  0  0  0  0
  9 10  1  0  0  0  0
  9 31  1  0  0  0  0
  9 32  1  0  0  0  0
 10 11  1  0  0  0  0
 10 33  1  0  0  0  0
 11 12  2  0  0  0  0
 11 13  1  0  0  0  0
 13 14  1  0  0  0  0
 13 34  1  0  0  0  0
 13 35  1  0  0  0  0
 14 18  1  0  0  0  0
 14 15  1  0  0  0  0
 15 16  2  0  0  0  0
 15 36  1  0  0  0  0
 16 17  1  0  0  0  0
 17 18  2  0  0  0  0
 17 37  1  0  0  0  0
 19 20  1  0  0  0  0
 19 38  1  0  0  0  0
 19 39  1  0  0  0  0
 20 40  1  0  0  0  0
 20 41  1  0  0  0  0
M  END
> <s_m_source_file>
AV-unprocessed.smi

> <i_m_source_file_index>
1440

> <i_lp_mmshare_version>
43012

> <i_f3d_flags>
0

> <s_epik_input>
W0NIM11bQ0BASF0xW0NIMl1bQ0gyXVtDQEhdKFtDSDJdW0NIMl0xKVtOSF1DKD1PKVtDSDJdW05IXUMoPU8pW0NIMl1uMltjSF1uW2NIXW4y

> <s_epik_cmdline>
J2VwaWtfcHl0aG9uJywgJy1waCcsICc3LjAnLCAnLXRuJywgJzgnLCAnLW1hJywgJzIwMCcsICctbWV0YWxfYmluZGluZycsICctaW1hZScsICc8aW5maWxlLm1hZT4nLCAnLW9tYWUnLCAnPG91dGZpbGUubWFlPic=

> <r_lp_tautomer_probability>
1

> <r_epik_Ionization_Penalty>
7.34071e-06

> <r_epik_Ionization_Penalty_Charging>
0

> <r_epik_Ionization_Penalty_Neutral>
7.34071e-06

> <r_epik_State_Penalty>
-0

> <r_epik_Charging_Adjusted_Penalty>
0

> <i_epik_Tot_Q>
0

> <i_epik_Tot_abs_Q>
0

> <r_epik_Metal_State_Penalty>
-0

> <b_epik_Metal_Only>
0

> <s_lp_Force_Field>
OPLS_2005

> <r_lp_Energy>
7.17082

> <b_lp_Chiralities_Consistent>
1

> <s_lp_Variant>
AV-unprocessed.smi:1440-1

> <Gold.Version>
5.8.1

> <Gold.Id.Protein>
6NUR|6NUR_protein|mol2

> <Gold.PLP.Fitness>
50.1278

> <Gold.PLP.PLP>
-42.9619

> <Gold.PLP.part.hbond>
-4.0000

> <Gold.PLP.part.metal>
0.0000

> <Gold.PLP.part.buried>
-6.7715

> <Gold.PLP.part.nonpolar>
-32.6721

> <Gold.PLP.part.repulsive>
0.6789

> <Gold.PLP.ligand.clash>
0.0000

> <Gold.PLP.ligand.torsion>
0.7035

> <Gold.PLP.Chemscore.Hbond>
2.8480

> <Gold.PLP.Chemscore.CHOScore>
0.0000

> <Gold.PLP.Chemscore.Metal>
0.0000

> <Gold.Chemscore.Hbonds>
donor molecule, donor type, donor heavy atom, donor atom, acceptor molecule, acceptor atom, score
      L1  H     6    30       P1  8028  0.85
      L1  H    10    33       P1  8028  1.00
      P1  H  7989  7998       L1     8  1.00

> <Gold.PLP.Chemscore.Internal.Correction>
0.0290

> <Gold.Rescore>
     Score         DG    S(hbond)    S(metal)    S(lipo)     H(rot)  DE(clash)    DE(int)     intcor
     13.98     -15.02       2.27        0.00      79.26       2.86       0.33       0.71       ----

> <Gold.Chemscore.Fitness>
13.9783

> <Gold.Chemscore.DG>
-15.0160

> <Gold.Chemscore.ZeroCoef>
-5.4800

> <Gold.Chemscore.Hbond>
2.2722

> <Gold.Chemscore.Metal>
0.0000

> <Gold.Chemscore.Lipo>
79.2633

> <Gold.Chemscore.Internal_Hbond>
0.0000

> <Gold.Chemscore.DEClash>
0.3292

> <Gold.Chemscore.DEInternal>
0.7085

> <Gold.Chemscore.Rot>
2.8621

> <Gold.Chemscore.Internal.Correction>
   9.000000E+99

> <Gold.Chemscore.Hbonds>
donor molecule, donor type, donor heavy atom, donor atom, acceptor molecule, acceptor atom, score
      L1  H     6    30       P1  8028  0.83
      L1  H    10    33       P1  8028  0.60
      P1  H  7989  7998       L1     8  0.72

> <Gold.Chemscore.Hbond.Weighted>
-7.5892

> <Gold.Chemscore.Metal.Weighted>
-0.0000

> <Gold.Chemscore.Lipo.Weighted>
-9.2738

> <Gold.Chemscore.Internal_Hbond.Weighted>
0.0000

> <Gold.Chemscore.DEClash.Weighted>
0.3292

> <Gold.Chemscore.DEInternal.Weighted>
0.7085

> <Gold.Chemscore.Rot.Weighted>
7.3270

> <Gold.Chemscore.Internal.Correction.Weighted>
   9.000000E+99

> <Gold.Protein.RotatedTorsions>
[ 6907 6896 6895 6894 ] final  -30.50 input  -60.11 | X-H torsion
[ 7974 7965 7964 7962 ] final  -43.21 input  175.53 | X-H torsion
[ 8008 7997 7996 7995 ] final  118.42 input   59.86 | X-H torsion
[ 10167 10162 10161 10158 ] final   24.93 input  -65.29 | X-H torsion
[ 10718 10713 10712 10709 ] final  172.96 input   66.30 | X-H torsion
[ 10763 10752 10751 10750 ] final  -28.59 input  -60.55 | X-H torsion
[ 11005 11000 10999 10996 ] final   45.41 input  -57.11 | X-H torsion

> <Gold.Protein.ActiveResidues>
 VAL166  LYS551  ARG553  GLY616  TRP617  ASP618  TYR619  PRO620  LYS621  CYS622 
 ASP623  PHE694  ASN695  SER759  ASP760  ASP761  ALA762  ILE779  LEU786  VAL792 
 PHE793  MET794  SER795  GLU796  ALA797  LYS798  CYS799  TRP800  GLU811  SER814 

> <Gold.Protein.RotatedAtoms>
  151.1047  134.9992  159.8465 H   0  0  0  0  0  0  0  0  0  0  0  0  # atno 6907 bound_to 6896
  152.5439  134.1908  159.8683 H   0  0  0  0  0  0  0  0  0  0  0  0  # atno 6908 bound_to 6896
  151.1954  133.4598  159.2628 H   0  0  0  0  0  0  0  0  0  0  0  0  # atno 6909 bound_to 6896
  146.0041  140.7040  142.9256 H   0  0  0  0  0  0  0  0  0  0  0  0  # atno 7974 bound_to 7965
  156.2545  140.2875  156.0831 H   0  0  0  0  0  0  0  0  0  0  0  0  # atno 8008 bound_to 7997
  155.1545  140.0398  157.2846 H   0  0  0  0  0  0  0  0  0  0  0  0  # atno 8009 bound_to 7997
  154.6437  140.2528  155.7299 H   0  0  0  0  0  0  0  0  0  0  0  0  # atno 8010 bound_to 7997
  140.5148  144.0101  150.6389 H   0  0  0  0  0  0  0  0  0  0  0  0  # atno 10167 bound_to 10162
  156.9712  131.0090  151.2904 H   0  0  0  0  0  0  0  0  0  0  0  0  # atno 10718 bound_to 10713
  153.7509  135.6926  153.4946 H   0  0  0  0  0  0  0  0  0  0  0  0  # atno 10763 bound_to 10752
  153.2004  135.4438  155.0258 H   0  0  0  0  0  0  0  0  0  0  0  0  # atno 10764 bound_to 10752
  154.8188  135.3411  154.7029 H   0  0  0  0  0  0  0  0  0  0  0  0  # atno 10765 bound_to 10752
  140.1463  134.4519  155.8413 H   0  0  0  0  0  0  0  0  0  0  0  0  # atno 11005 bound_to 11000
  144.6929  140.3284  143.7220 LP  0  0  0  0  0  0  0  0  0  0  0  0  # atno 17320 bound_to 7965
  145.7442  139.1773  143.2358 LP  0  0  0  0  0  0  0  0  0  0  0  0  # atno 17321 bound_to 7965
  140.3433  143.3006  152.0565 LP  0  0  0  0  0  0  0  0  0  0  0  0  # atno 17342 bound_to 10162
  139.4906  144.6427  151.6844 LP  0  0  0  0  0  0  0  0  0  0  0  0  # atno 17343 bound_to 10162
  157.5591  130.8233  149.8242 LP  0  0  0  0  0  0  0  0  0  0  0  0  # atno 17370 bound_to 10713
  156.0282  130.3773  150.1763 LP  0  0  0  0  0  0  0  0  0  0  0  0  # atno 17371 bound_to 10713
  141.2193  133.6853  156.7339 LP  0  0  0  0  0  0  0  0  0  0  0  0  # atno 17394 bound_to 11000
  140.2660  134.8429  157.3803 LP  0  0  0  0  0  0  0  0  0  0  0  0  # atno 17395 bound_to 11000

$$$$
