AV-unprocessed.smi:1776|AV-procd|sdf|7173|dock6
  -GOLD-   22720 8413D 1   1.00000     0.00000
 Structure written by MMmdl.
 31 32  0  0  0  0  0  0  0  0  1 V2000
  153.2781  138.7029  155.6869 O   0  0  0  0  0  0  0  0  0  0  0  0
  152.9994  138.4346  156.8554 C   0  0  0  0  0  0  0  0  0  0  0  0
  152.3927  139.2730  157.7202 N   0  0  0  0  0  0  0  0  0  0  0  0
  151.9477  140.5951  157.5444 C   0  0  0  0  0  0  0  0  0  0  0  0
  152.0564  141.5914  158.4628 C   0  0  0  0  0  0  0  0  0  0  0  0
  151.5634  142.9346  158.2073 C   0  0  0  0  0  0  0  0  0  0  0  0
  151.7576  144.0564  159.2159 C   0  0  0  0  0  0  0  0  0  0  0  0
  152.5051  143.6597  160.2468 F   0  0  0  0  0  0  0  0  0  0  0  0
  152.3670  145.0879  158.6332 F   0  0  0  0  0  0  0  0  0  0  0  0
  150.5853  144.4809  159.6879 F   0  0  0  0  0  0  0  0  0  0  0  0
  151.0013  143.1494  157.0035 C   0  0  0  0  0  0  0  0  0  0  0  0
  150.8711  142.1284  156.0601 N   0  0  0  0  0  0  0  0  0  0  0  0
  151.3052  140.8618  156.2462 C   0  0  0  0  0  0  0  0  0  0  0  0
  151.1533  140.0186  155.3628 O   0  0  0  0  0  0  0  0  0  0  0  0
  153.3565  137.0555  157.4302 C   0  0  2  0  0  0  0  0  0  0  0  0
  153.3208  137.0094  158.9759 C   0  0  0  0  0  0  0  0  0  0  0  0
  153.7017  135.7123  159.4169 O   0  0  0  0  0  0  0  0  0  0  0  0
  155.0131  135.3818  158.9811 C   0  0  0  0  0  0  0  0  0  0  0  0
  155.0496  135.4143  157.4446 C   0  0  0  0  0  0  0  0  0  0  0  0
  154.6708  136.7098  156.9996 O   0  0  0  0  0  0  0  0  0  0  0  0
  150.4255  142.3660  155.1856 H   0  0  0  0  0  0  0  0  0  0  0  0
  152.2063  138.8922  158.6373 H   0  0  0  0  0  0  0  0  0  0  0  0
  152.5030  141.4202  159.4274 H   0  0  0  0  0  0  0  0  0  0  0  0
  150.6178  144.1028  156.6713 H   0  0  0  0  0  0  0  0  0  0  0  0
  152.6437  136.3350  157.0252 H   0  0  0  0  0  0  0  0  0  0  0  0
  153.9838  137.7597  159.4109 H   0  0  0  0  0  0  0  0  0  0  0  0
  152.3153  137.2152  159.3447 H   0  0  0  0  0  0  0  0  0  0  0  0
  155.7392  136.0785  159.4034 H   0  0  0  0  0  0  0  0  0  0  0  0
  155.2709  134.3876  159.3462 H   0  0  0  0  0  0  0  0  0  0  0  0
  156.0548  135.1946  157.0848 H   0  0  0  0  0  0  0  0  0  0  0  0
  154.3836  134.6600  157.0224 H   0  0  0  0  0  0  0  0  0  0  0  0
  1  2  2  0  0  0  0
  2  3  1  0  0  0  0
  2 15  1  0  0  0  0
  3  4  1  0  0  0  0
  3 22  1  0  0  0  0
  4 13  1  0  0  0  0
  4  5  2  0  0  0  0
  5  6  1  0  0  0  0
  5 23  1  0  0  0  0
  6  7  1  0  0  0  0
  6 11  2  0  0  0  0
  7  8  1  0  0  0  0
  7  9  1  0  0  0  0
  7 10  1  0  0  0  0
 11 12  1  0  0  0  0
 11 24  1  0  0  0  0
 12 21  1  0  0  0  0
 12 13  1  0  0  0  0
 13 14  2  0  0  0  0
 15 20  1  0  0  0  0
 15 16  1  0  0  0  0
 15 25  1  0  0  0  0
 16 17  1  0  0  0  0
 16 26  1  0  0  0  0
 16 27  1  0  0  0  0
 17 18  1  0  0  0  0
 18 19  1  0  0  0  0
 18 28  1  0  0  0  0
 18 29  1  0  0  0  0
 19 20  1  0  0  0  0
 19 30  1  0  0  0  0
 19 31  1  0  0  0  0
M  END
> <s_m_source_file>
AV-unprocessed.smi

> <i_m_source_file_index>
1776

> <i_lp_mmshare_version>
43012

> <i_f3d_flags>
0

> <s_epik_input>
TzFbQ0gyXVtDSDJdT1tDSDJdW0NASF0xQyg9TylbTkhdYzJbY0hdYyhDKEYpKEYpRilbY0hdW25IXWMyPU8=

> <s_epik_cmdline>
J2VwaWtfcHl0aG9uJywgJy1waCcsICc3LjAnLCAnLXRuJywgJzgnLCAnLW1hJywgJzIwMCcsICctbWV0YWxfYmluZGluZycsICctaW1hZScsICc8aW5maWxlLm1hZT4nLCAnLW9tYWUnLCAnPG91dGZpbGUubWFlPic=

> <r_lp_tautomer_probability>
0.999

> <r_epik_Ionization_Penalty>
0.0100875

> <r_epik_Ionization_Penalty_Charging>
0.0100873

> <r_epik_Ionization_Penalty_Neutral>
1.79075e-07

> <r_epik_State_Penalty>
0.00769562

> <r_epik_Charging_Adjusted_Penalty>
0.017783

> <i_epik_Tot_Q>
0

> <i_epik_Tot_abs_Q>
0

> <r_epik_Metal_State_Penalty>
0.325451

> <b_epik_Metal_Only>
0

> <s_lp_Force_Field>
OPLS_2005

> <r_lp_Energy>
23.697

> <b_lp_Chiralities_Consistent>
1

> <s_lp_Variant>
AV-unprocessed.smi:1776-1

> <Gold.Version>
5.8.1

> <Gold.Id.Protein>
6NUR|6NUR_protein|mol2

> <Gold.PLP.Fitness>
41.5928

> <Gold.PLP.PLP>
-32.0882

> <Gold.PLP.part.hbond>
-3.9514

> <Gold.PLP.part.metal>
0.0000

> <Gold.PLP.part.buried>
-0.9057

> <Gold.PLP.part.nonpolar>
-26.8883

> <Gold.PLP.part.repulsive>
0.2509

> <Gold.PLP.ligand.clash>
0.0052

> <Gold.PLP.ligand.torsion>
0.8940

> <Gold.PLP.Chemscore.Hbond>
2.7559

> <Gold.PLP.Chemscore.CHOScore>
1.0000

> <Gold.PLP.Chemscore.Metal>
0.0000

> <Gold.Chemscore.Hbonds>
donor molecule, donor type, donor heavy atom, donor atom, acceptor molecule, acceptor atom, score
      P1  H  6896  6908       L1    17  1.00
      P1  H  7989  7998       L1    14  0.83
      P1  H  7997  8008       L1     1  0.83
      L1  C    11    24       P1  8028  1.00

> <Gold.PLP.Chemscore.Internal.Correction>
0.0303

> <Gold.Rescore>
     Score         DG    S(hbond)    S(metal)    S(lipo)     H(rot)  DE(clash)    DE(int)     intcor
     12.41     -17.47       2.26        0.00      59.81       1.00       0.13       4.92       ----

> <Gold.Chemscore.Fitness>
12.4146

> <Gold.Chemscore.DG>
-17.4678

> <Gold.Chemscore.ZeroCoef>
-5.4800

> <Gold.Chemscore.Hbond>
2.2606

> <Gold.Chemscore.Metal>
0.0000

> <Gold.Chemscore.Lipo>
59.8061

> <Gold.Chemscore.Internal_Hbond>
0.0000

> <Gold.Chemscore.DEClash>
0.1350

> <Gold.Chemscore.DEInternal>
4.9182

> <Gold.Chemscore.Rot>
1.0000

> <Gold.Chemscore.Internal.Correction>
   9.000000E+99

> <Gold.Chemscore.Hbonds>
donor molecule, donor type, donor heavy atom, donor atom, acceptor molecule, acceptor atom, score
      P1  H  6896  6908       L1    17  0.94
      P1  H  7989  7998       L1    14  0.56
      P1  H  7997  8008       L1     1  0.14

> <Gold.Chemscore.Hbond.Weighted>
-7.5505

> <Gold.Chemscore.Metal.Weighted>
-0.0000

> <Gold.Chemscore.Lipo.Weighted>
-6.9973

> <Gold.Chemscore.Internal_Hbond.Weighted>
0.0000

> <Gold.Chemscore.DEClash.Weighted>
0.1350

> <Gold.Chemscore.DEInternal.Weighted>
4.9182

> <Gold.Chemscore.Rot.Weighted>
2.5600

> <Gold.Chemscore.Internal.Correction.Weighted>
   9.000000E+99

> <Gold.Protein.RotatedTorsions>
[ 6907 6896 6895 6894 ] final  -57.83 input  -60.11 | X-H torsion
[ 7974 7965 7964 7962 ] final  114.39 input  175.53 | X-H torsion
[ 8008 7997 7996 7995 ] final  -25.65 input   59.86 | X-H torsion
[ 10167 10162 10161 10158 ] final  126.60 input  -65.29 | X-H torsion
[ 10718 10713 10712 10709 ] final  -37.32 input   66.30 | X-H torsion
[ 10763 10752 10751 10750 ] final  -66.12 input  -60.55 | X-H torsion
[ 11005 11000 10999 10996 ] final -138.51 input  -57.11 | X-H torsion

> <Gold.Protein.ActiveResidues>
 VAL166  LYS551  ARG553  GLY616  TRP617  ASP618  TYR619  PRO620  LYS621  CYS622 
 ASP623  PHE694  ASN695  SER759  ASP760  ASP761  ALA762  ILE779  LEU786  VAL792 
 PHE793  MET794  SER795  GLU796  ALA797  LYS798  CYS799  TRP800  GLU811  SER814 

> <Gold.Protein.RotatedAtoms>
  150.8054  134.7176  159.6639 H   0  0  0  0  0  0  0  0  0  0  0  0  # atno 6907 bound_to 6896
  152.4174  134.6014  160.0011 H   0  0  0  0  0  0  0  0  0  0  0  0  # atno 6908 bound_to 6896
  151.6240  133.3300  159.3130 H   0  0  0  0  0  0  0  0  0  0  0  0  # atno 6909 bound_to 6896
  145.2050  139.2933  143.4298 H   0  0  0  0  0  0  0  0  0  0  0  0  # atno 7974 bound_to 7965
  154.4465  140.1921  156.0652 H   0  0  0  0  0  0  0  0  0  0  0  0  # atno 8008 bound_to 7997
  156.0552  140.3303  155.7371 H   0  0  0  0  0  0  0  0  0  0  0  0  # atno 8009 bound_to 7997
  155.5496  140.0593  157.2843 H   0  0  0  0  0  0  0  0  0  0  0  0  # atno 8010 bound_to 7997
  139.5622  144.6889  151.4010 H   0  0  0  0  0  0  0  0  0  0  0  0  # atno 10167 bound_to 10162
  156.3166  130.4260  149.8000 H   0  0  0  0  0  0  0  0  0  0  0  0  # atno 10718 bound_to 10713
  154.3552  135.6128  153.5662 H   0  0  0  0  0  0  0  0  0  0  0  0  # atno 10763 bound_to 10752
  152.9796  135.5802  154.4697 H   0  0  0  0  0  0  0  0  0  0  0  0  # atno 10764 bound_to 10752
  154.4425  135.2850  155.1815 H   0  0  0  0  0  0  0  0  0  0  0  0  # atno 10765 bound_to 10752
  140.8609  134.2170  157.4708 H   0  0  0  0  0  0  0  0  0  0  0  0  # atno 11005 bound_to 11000
  146.3409  140.2308  142.8593 LP  0  0  0  0  0  0  0  0  0  0  0  0  # atno 17320 bound_to 7965
  144.9910  140.8547  143.5339 LP  0  0  0  0  0  0  0  0  0  0  0  0  # atno 17321 bound_to 7965
  140.6903  143.7877  150.7246 LP  0  0  0  0  0  0  0  0  0  0  0  0  # atno 17342 bound_to 10162
  140.1357  143.4486  152.2226 LP  0  0  0  0  0  0  0  0  0  0  0  0  # atno 17343 bound_to 10162
  156.5323  130.8263  151.3241 LP  0  0  0  0  0  0  0  0  0  0  0  0  # atno 17370 bound_to 10713
  157.7403  130.9847  150.2367 LP  0  0  0  0  0  0  0  0  0  0  0  0  # atno 17371 bound_to 10713
  139.8707  134.9729  156.4789 LP  0  0  0  0  0  0  0  0  0  0  0  0  # atno 17394 bound_to 11000
  140.8684  133.8007  155.9338 LP  0  0  0  0  0  0  0  0  0  0  0  0  # atno 17395 bound_to 11000

$$$$
