#       Name:                AV-unprocessed.smi:3141
#       Creating user name   scv26
#       Creation time:       Fri Mar 27 17:36:46 2020


#       File generated by GOLD software.
#

@<TRIPOS>MOLECULE
AV-unprocessed.smi:3141
    38    40     1
SMALL
NO_CHARGES


@<TRIPOS>ATOM
      1 ****        -0.3142   2.2179   0.5177 O.2            1 S1                 0.0000
      2 ****        -0.5951   1.0600   0.8284 C.2            1 S1                 0.0000
      3 ****        -1.8365   0.6287   1.0860 N.am           1 S1                 0.0000
      4 ****        -3.0183   1.4252   1.0188 C.3            1 S1                 0.0000
      5 ****        -4.1282   1.1234   2.0022 C.3            1 S1                 0.0000
      6 ****        -4.2909   0.7506   0.5546 C.3            1 S1                 0.0000
      7 ****         0.3030   0.0692   0.9276 N.am           1 S1                 0.0000
      8 ****         1.7370   0.1924   0.6557 C.3            1 S1                 0.0000
      9 ****         2.5340  -0.7287   1.6046 C.3            1 S1                 0.0000
     10 ****         3.2953  -1.7279   0.7224 C.3            1 S1                 0.0000
     11 ****         2.5559  -1.7274  -0.6131 C.3            1 S1                 0.0000
     12 ****         2.1272  -0.2656  -0.7704 C.3            1 S1                 0.0000
     13 ****         1.1318  -0.0198  -1.8093 N.pl3          1 S1                 0.0000
     14 ****         0.1011  -0.8512  -2.2398 C.2            1 S1                 0.0000
     15 ****        -0.5904  -0.1568  -3.2060 C.2            1 S1                 0.0000
     16 ****        -0.0201   1.1011  -3.3779 N.2            1 S1                 0.0000
     17 ****         0.9867   1.1115  -2.5142 C.2            1 S1                 0.0000
     18 ****        -1.9594  -0.3432   1.3295 H              1 S1                 0.0000
     19 ****        -2.9018   2.4700   0.7340 H              1 S1                 0.0000
     20 ****        -3.9724   0.3154   2.7145 H              1 S1                 0.0000
     21 ****        -4.7116   1.9640   2.3726 H              1 S1                 0.0000
     22 ****        -4.9829   1.3419  -0.0414 H              1 S1                 0.0000
     23 ****        -4.2435  -0.3065   0.2995 H              1 S1                 0.0000
     24 ****        -0.0306  -0.8477   1.1865 H              1 S1                 0.0000
     25 ****         2.0520   1.2269   0.8048 H              1 S1                 0.0000
     26 ****         3.2238  -0.1586   2.2278 H              1 S1                 0.0000
     27 ****         1.8696  -1.2673   2.2824 H              1 S1                 0.0000
     28 ****         4.3169  -1.3760   0.5712 H              1 S1                 0.0000
     29 ****         3.3521  -2.7215   1.1677 H              1 S1                 0.0000
     30 ****         3.1785  -2.0749  -1.4381 H              1 S1                 0.0000
     31 ****         1.6918  -2.3877  -0.5397 H              1 S1                 0.0000
     32 ****         3.0210   0.2927  -1.0558 H              1 S1                 0.0000
     33 ****        -0.0620  -1.8389  -1.8363 H              1 S1                 0.0000
     34 ****        -1.4540  -0.4603  -3.7792 H              1 S1                 0.0000
     35 ****         1.6325   1.9678  -2.3858 H              1 S1                 0.0000
     36 ****        -1.0368   2.9052   0.4442 LP             1 S1                 0.0000
     37 ****         0.6366   2.4710   0.3388 LP             1 S1                 0.0000
     38 ****        -0.3029   1.8267  -4.0053 LP             1 S1                 0.0000
@<TRIPOS>BOND
    1    1    2 2     
    2    2    3 am    
    3    2    7 am    
    4    3    4 1     
    5    3   18 1     
    6    4    6 1     
    7    4    5 1     
    8    4   19 1     
    9    5    6 1     
   10    5   20 1     
   11    5   21 1     
   12    6   22 1     
   13    6   23 1     
   14    7    8 1     
   15    7   24 1     
   16    8   12 1     
   17    8    9 1     
   18    8   25 1     
   19    9   10 1     
   20    9   26 1     
   21    9   27 1     
   22   10   11 1     
   23   10   28 1     
   24   10   29 1     
   25   11   12 1     
   26   11   30 1     
   27   11   31 1     
   28   12   13 1     
   29   12   32 1     
   30   13   17 1     
   31   13   14 1     
   32   14   15 2     
   33   14   33 1     
   34   15   16 1     
   35   15   34 1     
   36   16   17 2     
   37   17   35 1     
   38    1   36 1     
   39    1   37 1     
   40   16   38 1     
@<TRIPOS>SUBSTRUCTURE
      1 S1             1
@<TRIPOS>SET
LONE_PAIRS      STATIC     ATOMS    <user>   **** ""
3 36 37 38
DONOR_HYDROGENS      STATIC     ATOMS    <user>   **** ""
2 18 24
ATOM$BLUE        STATIC     ATOMS    COLORGROUP SYSTEM
3 36 37 38
ATOM$RED        STATIC     ATOMS    COLORGROUP SYSTEM
2 18 24
