AV-unprocessed.smi:295|AV-procd|sdf|2255|dock7
  -GOLD-   2262022143D 1   1.00000     0.00000
 Structure written by MMmdl.
 35 36  0  0  0  0  0  0  0  0  1 V2000
  152.1185  144.5558  158.0309 C   0  0  0  0  0  0  0  0  0  0  0  0
  152.6901  144.0531  159.3676 C   0  0  1  0  0  0  0  0  0  0  0  0
  151.6413  144.1263  160.4965 C   0  0  0  0  0  0  0  0  0  0  0  0
  152.2304  143.6829  161.8455 C   0  0  0  0  0  0  0  0  0  0  0  0
  152.8384  142.2752  161.7562 C   0  0  0  0  0  0  0  0  0  0  0  0
  153.8851  142.1907  160.6312 C   0  0  0  0  0  0  0  0  0  0  0  0
  153.3147  142.6379  159.2698 C   0  0  1  0  0  0  0  0  0  0  0  0
  152.3476  141.6469  158.7960 N   0  0  0  0  0  0  0  0  0  0  0  0
  152.5771  140.3377  158.6057 C   0  0  0  0  0  0  0  0  0  0  0  0
  153.6753  139.8064  158.7653 O   0  0  0  0  0  0  0  0  0  0  0  0
  151.3785  139.4975  158.1614 C   0  0  0  0  0  0  0  0  0  0  0  0
  151.0177  139.7848  156.7845 N   0  0  0  0  0  0  0  0  0  0  0  0
  151.5738  139.3791  155.6378 C   0  0  0  0  0  0  0  0  0  0  0  0
  150.9846  139.8628  154.5514 N   0  0  0  0  0  0  0  0  0  0  0  0
  150.0098  140.6054  155.1525 C   0  0  0  0  0  0  0  0  0  0  0  0
  149.0536  141.3752  154.3750 C   0  0  0  0  0  0  0  0  0  0  0  0
  148.2919  141.9882  153.7560 N   0  0  0  0  0  0  0  0  0  0  0  0
  149.9760  140.5981  156.4834 N   0  0  0  0  0  0  0  0  0  0  0  0
  151.2595  143.9656  157.7108 H   0  0  0  0  0  0  0  0  0  0  0  0
  152.8688  144.5086  157.2412 H   0  0  0  0  0  0  0  0  0  0  0  0
  151.7917  145.5928  158.1120 H   0  0  0  0  0  0  0  0  0  0  0  0
  153.4971  144.7370  159.6353 H   0  0  0  0  0  0  0  0  0  0  0  0
  151.2621  145.1449  160.5854 H   0  0  0  0  0  0  0  0  0  0  0  0
  150.7827  143.5009  160.2492 H   0  0  0  0  0  0  0  0  0  0  0  0
  152.9978  144.3922  162.1583 H   0  0  0  0  0  0  0  0  0  0  0  0
  151.4574  143.7062  162.6142 H   0  0  0  0  0  0  0  0  0  0  0  0
  153.2972  142.0090  162.7089 H   0  0  0  0  0  0  0  0  0  0  0  0
  152.0475  141.5446  161.5828 H   0  0  0  0  0  0  0  0  0  0  0  0
  154.7351  142.8240  160.8883 H   0  0  0  0  0  0  0  0  0  0  0  0
  154.2761  141.1748  160.5613 H   0  0  0  0  0  0  0  0  0  0  0  0
  154.1517  142.6848  158.5709 H   0  0  0  0  0  0  0  0  0  0  0  0
  151.4125  141.9860  158.6244 H   0  0  0  0  0  0  0  0  0  0  0  0
  151.6170  138.4372  158.2516 H   0  0  0  0  0  0  0  0  0  0  0  0
  150.5198  139.6915  158.8061 H   0  0  0  0  0  0  0  0  0  0  0  0
  152.4314  138.7233  155.5980 H   0  0  0  0  0  0  0  0  0  0  0  0
  1  2  1  0  0  0  0
  1 19  1  0  0  0  0
  1 20  1  0  0  0  0
  1 21  1  0  0  0  0
  2  7  1  0  0  0  0
  2  3  1  0  0  0  0
  2 22  1  0  0  0  0
  3  4  1  0  0  0  0
  3 23  1  0  0  0  0
  3 24  1  0  0  0  0
  4  5  1  0  0  0  0
  4 25  1  0  0  0  0
  4 26  1  0  0  0  0
  5  6  1  0  0  0  0
  5 27  1  0  0  0  0
  5 28  1  0  0  0  0
  6  7  1  0  0  0  0
  6 29  1  0  0  0  0
  6 30  1  0  0  0  0
  7  8  1  0  0  0  0
  7 31  1  0  0  0  0
  8  9  1  0  0  0  0
  8 32  1  0  0  0  0
  9 10  2  0  0  0  0
  9 11  1  0  0  0  0
 11 12  1  0  0  0  0
 11 33  1  0  0  0  0
 11 34  1  0  0  0  0
 12 18  1  0  0  0  0
 12 13  1  0  0  0  0
 13 14  2  0  0  0  0
 13 35  1  0  0  0  0
 14 15  1  0  0  0  0
 15 16  1  0  0  0  0
 15 18  2  0  0  0  0
 16 17  3  0  0  0  0
M  END
> <s_m_source_file>
AV-unprocessed.smi

> <i_m_source_file_index>
295

> <i_lp_mmshare_version>
43012

> <i_f3d_flags>
0

> <s_epik_input>
W0NIM11bQ0BASF0xW0NIMl1bQ0gyXVtDSDJdW0NIMl1bQ0BIXTFbTkhdQyg9TylbQ0gyXW4yW2NIXW5jKG4yKUMjTg==

> <s_epik_cmdline>
J2VwaWtfcHl0aG9uJywgJy1waCcsICc3LjAnLCAnLXRuJywgJzgnLCAnLW1hJywgJzIwMCcsICctbWV0YWxfYmluZGluZycsICctaW1hZScsICc8aW5maWxlLm1hZT4nLCAnLW9tYWUnLCAnPG91dGZpbGUubWFlPic=

> <r_lp_tautomer_probability>
1

> <r_epik_Ionization_Penalty>
5.31112e-08

> <r_epik_Ionization_Penalty_Charging>
0

> <r_epik_Ionization_Penalty_Neutral>
5.31112e-08

> <r_epik_State_Penalty>
-0

> <r_epik_Charging_Adjusted_Penalty>
0

> <i_epik_Tot_Q>
0

> <i_epik_Tot_abs_Q>
0

> <r_epik_Metal_State_Penalty>
-0

> <b_epik_Metal_Only>
0

> <s_lp_Force_Field>
OPLS_2005

> <r_lp_Energy>
13.099

> <b_lp_Chiralities_Consistent>
1

> <s_lp_Variant>
AV-unprocessed.smi:295-2

> <Gold.Version>
5.8.1

> <Gold.Id.Protein>
6NUR|6NUR_protein|mol2

> <Gold.PLP.Fitness>
49.3371

> <Gold.PLP.PLP>
-43.0919

> <Gold.PLP.part.hbond>
-3.0000

> <Gold.PLP.part.metal>
0.0000

> <Gold.PLP.part.buried>
-3.3391

> <Gold.PLP.part.nonpolar>
-36.2735

> <Gold.PLP.part.repulsive>
0.3813

> <Gold.PLP.ligand.clash>
0.0000

> <Gold.PLP.ligand.torsion>
0.3898

> <Gold.PLP.Chemscore.Hbond>
2.3385

> <Gold.PLP.Chemscore.CHOScore>
0.0000

> <Gold.PLP.Chemscore.Metal>
0.0000

> <Gold.Chemscore.Hbonds>
donor molecule, donor type, donor heavy atom, donor atom, acceptor molecule, acceptor atom, score
      P1  H  7989  7998       L1    14  1.00
      P1  H  7997  8010       L1    10  1.00
      P1  H  8011  8017       L1    17  0.19

> <Gold.PLP.Chemscore.Internal.Correction>
0.0091

> <Gold.Rescore>
     Score         DG    S(hbond)    S(metal)    S(lipo)     H(rot)  DE(clash)    DE(int)     intcor
     17.00     -17.38       1.89        0.00      90.48       1.95       0.02       0.35       ----

> <Gold.Chemscore.Fitness>
17.0018

> <Gold.Chemscore.DG>
-17.3794

> <Gold.Chemscore.ZeroCoef>
-5.4800

> <Gold.Chemscore.Hbond>
1.8859

> <Gold.Chemscore.Metal>
0.0000

> <Gold.Chemscore.Lipo>
90.4768

> <Gold.Chemscore.Internal_Hbond>
0.0000

> <Gold.Chemscore.DEClash>
0.0247

> <Gold.Chemscore.DEInternal>
0.3529

> <Gold.Chemscore.Rot>
1.9474

> <Gold.Chemscore.Internal.Correction>
   9.000000E+99

> <Gold.Chemscore.Hbonds>
donor molecule, donor type, donor heavy atom, donor atom, acceptor molecule, acceptor atom, score
      P1  H  7989  7998       L1    14  0.44
      P1  H  7997  8010       L1    10  0.64
      P1  H  8011  8017       L1    17  0.01

> <Gold.Chemscore.Hbond.Weighted>
-6.2989

> <Gold.Chemscore.Metal.Weighted>
-0.0000

> <Gold.Chemscore.Lipo.Weighted>
-10.5858

> <Gold.Chemscore.Internal_Hbond.Weighted>
0.0000

> <Gold.Chemscore.DEClash.Weighted>
0.0247

> <Gold.Chemscore.DEInternal.Weighted>
0.3529

> <Gold.Chemscore.Rot.Weighted>
4.9852

> <Gold.Chemscore.Internal.Correction.Weighted>
   9.000000E+99

> <Gold.Protein.RotatedTorsions>
[ 6907 6896 6895 6894 ] final  -11.74 input  -60.11 | X-H torsion
[ 7974 7965 7964 7962 ] final  -14.12 input  175.53 | X-H torsion
[ 8008 7997 7996 7995 ] final   28.01 input   59.86 | X-H torsion
[ 10167 10162 10161 10158 ] final -170.33 input  -65.29 | X-H torsion
[ 10718 10713 10712 10709 ] final  -62.21 input   66.30 | X-H torsion
[ 10763 10752 10751 10750 ] final  127.59 input  -60.55 | X-H torsion
[ 11005 11000 10999 10996 ] final   18.96 input  -57.11 | X-H torsion

> <Gold.Protein.ActiveResidues>
 VAL166  LYS551  ARG553  GLY616  TRP617  ASP618  TYR619  PRO620  LYS621  CYS622 
 ASP623  PHE694  ASN695  SER759  ASP760  ASP761  ALA762  ILE779  LEU786  VAL792 
 PHE793  MET794  SER795  GLU796  ALA797  LYS798  CYS799  TRP800  GLU811  SER814 

> <Gold.Protein.RotatedAtoms>
  151.3815  135.0940  159.9497 H   0  0  0  0  0  0  0  0  0  0  0  0  # atno 6907 bound_to 6896
  152.5107  133.9067  159.7478 H   0  0  0  0  0  0  0  0  0  0  0  0  # atno 6908 bound_to 6896
  150.9502  133.6503  159.2802 H   0  0  0  0  0  0  0  0  0  0  0  0  # atno 6909 bound_to 6896
  146.2087  140.3302  142.8398 H   0  0  0  0  0  0  0  0  0  0  0  0  # atno 7974 bound_to 7965
  155.0520  140.3181  155.4689 H   0  0  0  0  0  0  0  0  0  0  0  0  # atno 8008 bound_to 7997
  156.2832  140.2144  156.5589 H   0  0  0  0  0  0  0  0  0  0  0  0  # atno 8009 bound_to 7997
  154.7203  140.0490  157.0620 H   0  0  0  0  0  0  0  0  0  0  0  0  # atno 8010 bound_to 7997
  139.5868  144.1300  152.1585 H   0  0  0  0  0  0  0  0  0  0  0  0  # atno 10167 bound_to 10162
  156.0870  130.4206  150.1102 H   0  0  0  0  0  0  0  0  0  0  0  0  # atno 10718 bound_to 10713
  153.7119  135.3267  155.3248 H   0  0  0  0  0  0  0  0  0  0  0  0  # atno 10763 bound_to 10752
  154.8382  135.4479  154.1305 H   0  0  0  0  0  0  0  0  0  0  0  0  # atno 10764 bound_to 10752
  153.2401  135.6970  153.7872 H   0  0  0  0  0  0  0  0  0  0  0  0  # atno 10765 bound_to 10752
  140.4190  134.1539  155.7671 H   0  0  0  0  0  0  0  0  0  0  0  0  # atno 11005 bound_to 11000
  144.8858  140.7459  143.5958 LP  0  0  0  0  0  0  0  0  0  0  0  0  # atno 17320 bound_to 7965
  145.3223  139.1784  143.4581 LP  0  0  0  0  0  0  0  0  0  0  0  0  # atno 17321 bound_to 7965
  140.0866  144.5656  150.7084 LP  0  0  0  0  0  0  0  0  0  0  0  0  # atno 17342 bound_to 10162
  140.7138  143.2527  151.4497 LP  0  0  0  0  0  0  0  0  0  0  0  0  # atno 17343 bound_to 10162
  156.9121  130.9655  151.3561 LP  0  0  0  0  0  0  0  0  0  0  0  0  # atno 17370 bound_to 10713
  157.6008  130.8511  149.8799 LP  0  0  0  0  0  0  0  0  0  0  0  0  # atno 17371 bound_to 10713
  141.1791  133.8451  157.1319 LP  0  0  0  0  0  0  0  0  0  0  0  0  # atno 17394 bound_to 11000
  140.0213  134.9944  157.0598 LP  0  0  0  0  0  0  0  0  0  0  0  0  # atno 17395 bound_to 11000

$$$$
