AV-unprocessed.smi:1011|AV-procd|sdf|4421|dock5
  -GOLD-   22720 2373D 1   1.00000     0.00000
 Structure written by MMmdl.
 44 46  0  0  0  0  0  0  0  0  2 V2000
  150.9955  141.5476  156.2009 C   0  0  0  0  0  0  0  0  0  0  0  0
  149.6101  141.3846  155.6455 C   0  0  0  0  0  0  0  0  0  0  0  0
  148.3763  141.3933  156.3566 C   0  0  0  0  0  0  0  0  0  0  0  0
  147.3275  141.2194  155.5689 N   0  0  0  0  0  0  0  0  0  0  0  0
  147.8520  141.0973  154.3310 N   0  0  0  0  0  0  0  0  0  0  0  0
  146.9762  140.8812  153.1956 C   0  0  0  0  0  0  0  0  0  0  0  0
  147.3574  139.6147  152.4156 C   0  0  0  0  0  0  0  0  0  0  0  0
  147.5972  138.5245  153.3470 N   0  0  0  0  0  0  0  0  0  0  0  0
  146.3551  138.1618  154.0094 C   0  0  0  0  0  0  0  0  0  0  0  0
  145.6928  136.9922  153.3563 C   0  0  0  0  0  0  0  0  0  0  0  0
  146.3180  136.0673  152.5738 N   0  3  0  0  0  0  0  0  0  0  0  0
  145.3991  135.1100  152.1442 C   0  0  0  0  0  0  0  0  0  0  0  0
  145.5619  133.9866  151.3397 C   0  0  0  0  0  0  0  0  0  0  0  0
  144.4111  133.2079  151.0966 C   0  0  0  0  0  0  0  0  0  0  0  0
  144.5369  131.7985  150.1100 Cl  0  0  0  0  0  0  0  0  0  0  0  0
  143.1608  133.5593  151.6465 C   0  0  0  0  0  0  0  0  0  0  0  0
  143.0074  134.7017  152.4598 C   0  0  0  0  0  0  0  0  0  0  0  0
  144.1504  135.4658  152.6927 C   0  0  0  0  0  0  0  0  0  0  0  0
  144.3768  136.6348  153.4282 N   0  0  0  0  0  0  0  0  0  0  0  0
  143.2494  137.2610  154.1374 C   0  0  0  0  0  0  0  0  0  0  0  0
  142.0679  137.5769  153.2054 C   0  0  0  0  0  0  0  0  0  0  0  0
  141.7335  138.9480  153.2660 O   0  0  0  0  0  0  0  0  0  0  0  0
  149.2273  141.1926  154.3481 C   0  0  0  0  0  0  0  0  0  0  0  0
  151.0251  141.3636  157.2750 H   0  0  0  0  0  0  0  0  0  0  0  0
  151.3782  142.5548  156.0363 H   0  0  0  0  0  0  0  0  0  0  0  0
  151.6993  140.8555  155.7382 H   0  0  0  0  0  0  0  0  0  0  0  0
  148.2133  141.5181  157.4169 H   0  0  0  0  0  0  0  0  0  0  0  0
  145.9498  140.8115  153.5591 H   0  0  0  0  0  0  0  0  0  0  0  0
  147.0256  141.7595  152.5500 H   0  0  0  0  0  0  0  0  0  0  0  0
  146.5551  139.3410  151.7289 H   0  0  0  0  0  0  0  0  0  0  0  0
  148.2533  139.7956  151.8199 H   0  0  0  0  0  0  0  0  0  0  0  0
  147.9331  137.7302  152.8209 H   0  0  0  0  0  0  0  0  0  0  0  0
  146.5559  137.8978  155.0487 H   0  0  0  0  0  0  0  0  0  0  0  0
  145.6828  139.0194  154.0213 H   0  0  0  0  0  0  0  0  0  0  0  0
  146.5199  133.7169  150.9196 H   0  0  0  0  0  0  0  0  0  0  0  0
  142.2997  132.9400  151.4412 H   0  0  0  0  0  0  0  0  0  0  0  0
  142.0447  134.9586  152.8758 H   0  0  0  0  0  0  0  0  0  0  0  0
  142.9346  136.5883  154.9351 H   0  0  0  0  0  0  0  0  0  0  0  0
  143.6039  138.1658  154.6319 H   0  0  0  0  0  0  0  0  0  0  0  0
  142.3200  137.3204  152.1762 H   0  0  0  0  0  0  0  0  0  0  0  0
  141.1929  136.9868  153.4790 H   0  0  0  0  0  0  0  0  0  0  0  0
  142.4278  139.4454  152.8611 H   0  0  0  0  0  0  0  0  0  0  0  0
  149.8150  141.1148  153.4449 H   0  0  0  0  0  0  0  0  0  0  0  0
  147.3053  136.0957  152.3534 H   0  0  0  0  0  0  0  0  0  0  0  0
  1  2  1  0  0  0  0
  1 24  1  0  0  0  0
  1 25  1  0  0  0  0
  1 26  1  0  0  0  0
  2 23  2  0  0  0  0
  2  3  1  0  0  0  0
  3  4  2  0  0  0  0
  3 27  1  0  0  0  0
  4  5  1  0  0  0  0
  5  6  1  0  0  0  0
  5 23  1  0  0  0  0
  6  7  1  0  0  0  0
  6 28  1  0  0  0  0
  6 29  1  0  0  0  0
  7  8  1  0  0  0  0
  7 30  1  0  0  0  0
  7 31  1  0  0  0  0
  8  9  1  0  0  0  0
  8 32  1  0  0  0  0
  9 10  1  0  0  0  0
  9 33  1  0  0  0  0
  9 34  1  0  0  0  0
 10 19  1  0  0  0  0
 10 11  2  0  0  0  0
 11 12  1  0  0  0  0
 11 44  1  0  0  0  0
 12 18  2  0  0  0  0
 12 13  1  0  0  0  0
 13 14  2  0  0  0  0
 13 35  1  0  0  0  0
 14 15  1  0  0  0  0
 14 16  1  0  0  0  0
 16 17  2  0  0  0  0
 16 36  1  0  0  0  0
 17 18  1  0  0  0  0
 17 37  1  0  0  0  0
 18 19  1  0  0  0  0
 19 20  1  0  0  0  0
 20 21  1  0  0  0  0
 20 38  1  0  0  0  0
 20 39  1  0  0  0  0
 21 22  1  0  0  0  0
 21 40  1  0  0  0  0
 21 41  1  0  0  0  0
 22 42  1  0  0  0  0
 23 43  1  0  0  0  0
M  CHG  1  11   1
M  END
> <s_m_source_file>
AV-unprocessed.smi

> <i_m_source_file_index>
1011

> <i_lp_mmshare_version>
43012

> <i_f3d_flags>
0

> <s_epik_input>
W0NIM11jMVtjSF1ubihbY0hdMSlbQ0gyXVtDSDJdW05IXVtDSDJdYyhuMiluKFtDSDJdW0NIMl1bT0hdKWMoYzIzKVtjSF1bY0hdYyhDbClbY0hdMw==

> <s_epik_cmdline>
J2VwaWtfcHl0aG9uJywgJy1waCcsICc3LjAnLCAnLXRuJywgJzgnLCAnLW1hJywgJzIwMCcsICctbWV0YWxfYmluZGluZycsICctaW1hZScsICc8aW5maWxlLm1hZT4nLCAnLW9tYWUnLCAnPG91dGZpbGUubWFlPic=

> <r_epik_Ionization_Penalty>
1.62414

> <r_epik_Ionization_Penalty_Charging>
1.50824

> <r_epik_Ionization_Penalty_Neutral>
0.115896

> <r_epik_State_Penalty>
2.25317

> <r_epik_Charging_Adjusted_Penalty>
3.76141

> <i_epik_Tot_Q>
1

> <i_epik_Tot_abs_Q>
1

> <r_epik_Metal_State_Penalty>
2.26539

> <b_epik_Metal_Only>
0

> <s_lp_Force_Field>
OPLS_2005

> <r_lp_Energy>
12.3838

> <b_lp_Chiralities_Consistent>
1

> <s_lp_Variant>
AV-unprocessed.smi:1011-3

> <Gold.Version>
5.8.1

> <Gold.Id.Protein>
6NUR|6NUR_protein|mol2

> <Gold.PLP.Fitness>
51.0190

> <Gold.PLP.PLP>
-38.0021

> <Gold.PLP.part.hbond>
-3.6763

> <Gold.PLP.part.metal>
0.0000

> <Gold.PLP.part.buried>
-1.0554

> <Gold.PLP.part.nonpolar>
-33.6082

> <Gold.PLP.part.repulsive>
0.0839

> <Gold.PLP.ligand.clash>
0.0000

> <Gold.PLP.ligand.torsion>
1.0426

> <Gold.PLP.Chemscore.Hbond>
3.9913

> <Gold.PLP.Chemscore.CHOScore>
1.0000

> <Gold.PLP.Chemscore.Metal>
0.0000

> <Gold.Chemscore.Hbonds>
donor molecule, donor type, donor heavy atom, donor atom, acceptor molecule, acceptor atom, score
      L1  H     8    32       P1  7948  0.98
      L1  H    11    44       P1  7948  2.00
      L1  H    22    42       P1 10175  1.00
      L1  C    23    43       P1  7957  1.00

> <Gold.PLP.Chemscore.Internal.Correction>
0.1283

> <Gold.Rescore>
     Score         DG    S(hbond)    S(metal)    S(lipo)     H(rot)  DE(clash)    DE(int)     intcor
     16.93     -19.48       2.99        0.00      98.59       2.93       1.52       1.03       ----

> <Gold.Chemscore.Fitness>
16.9322

> <Gold.Chemscore.DG>
-19.4788

> <Gold.Chemscore.ZeroCoef>
-5.4800

> <Gold.Chemscore.Hbond>
2.9864

> <Gold.Chemscore.Metal>
0.0000

> <Gold.Chemscore.Lipo>
98.5933

> <Gold.Chemscore.Internal_Hbond>
0.0000

> <Gold.Chemscore.DEClash>
1.5176

> <Gold.Chemscore.DEInternal>
1.0290

> <Gold.Chemscore.Rot>
2.9340

> <Gold.Chemscore.Internal.Correction>
   9.000000E+99

> <Gold.Chemscore.Hbonds>
donor molecule, donor type, donor heavy atom, donor atom, acceptor molecule, acceptor atom, score
      L1  H     8    32       P1  7948  0.92
      L1  H    11    44       P1  7948  1.00
      L1  H    22    42       P1 10175  0.94

> <Gold.Chemscore.Hbond.Weighted>
-9.9744

> <Gold.Chemscore.Metal.Weighted>
-0.0000

> <Gold.Chemscore.Lipo.Weighted>
-11.5354

> <Gold.Chemscore.Internal_Hbond.Weighted>
0.0000

> <Gold.Chemscore.DEClash.Weighted>
1.5176

> <Gold.Chemscore.DEInternal.Weighted>
1.0290

> <Gold.Chemscore.Rot.Weighted>
7.5111

> <Gold.Chemscore.Internal.Correction.Weighted>
   9.000000E+99

> <Gold.Protein.RotatedTorsions>
[ 6907 6896 6895 6894 ] final  -37.34 input  -60.11 | X-H torsion
[ 7974 7965 7964 7962 ] final   50.19 input  175.53 | X-H torsion
[ 8008 7997 7996 7995 ] final   64.31 input   59.86 | X-H torsion
[ 10167 10162 10161 10158 ] final   17.50 input  -65.29 | X-H torsion
[ 10718 10713 10712 10709 ] final   42.12 input   66.30 | X-H torsion
[ 10763 10752 10751 10750 ] final   61.71 input  -60.55 | X-H torsion
[ 11005 11000 10999 10996 ] final   99.27 input  -57.11 | X-H torsion

> <Gold.Protein.ActiveResidues>
 VAL166  LYS551  ARG553  GLY616  TRP617  ASP618  TYR619  PRO620  LYS621  CYS622 
 ASP623  PHE694  ASN695  SER759  ASP760  ASP761  ALA762  ILE779  LEU786  VAL792 
 PHE793  MET794  SER795  GLU796  ALA797  LYS798  CYS799  TRP800  GLU811  SER814 

> <Gold.Protein.RotatedAtoms>
  151.0159  134.9432  159.8032 H   0  0  0  0  0  0  0  0  0  0  0  0  # atno 6907 bound_to 6896
  152.5314  134.2967  159.9073 H   0  0  0  0  0  0  0  0  0  0  0  0  # atno 6908 bound_to 6896
  151.2973  133.4096  159.2671 H   0  0  0  0  0  0  0  0  0  0  0  0  # atno 6909 bound_to 6896
  146.0036  139.4466  142.9999 H   0  0  0  0  0  0  0  0  0  0  0  0  # atno 7974 bound_to 7965
  155.6440  140.3497  155.4725 H   0  0  0  0  0  0  0  0  0  0  0  0  # atno 8008 bound_to 7997
  155.9902  140.1192  157.0668 H   0  0  0  0  0  0  0  0  0  0  0  0  # atno 8009 bound_to 7997
  154.4217  140.1121  156.5541 H   0  0  0  0  0  0  0  0  0  0  0  0  # atno 8010 bound_to 7997
  140.5721  143.9141  150.6721 H   0  0  0  0  0  0  0  0  0  0  0  0  # atno 10167 bound_to 10162
  157.4013  130.7861  149.7351 H   0  0  0  0  0  0  0  0  0  0  0  0  # atno 10718 bound_to 10713
  152.9959  135.5491  154.6076 H   0  0  0  0  0  0  0  0  0  0  0  0  # atno 10763 bound_to 10752
  154.5404  135.2819  155.1103 H   0  0  0  0  0  0  0  0  0  0  0  0  # atno 10764 bound_to 10752
  154.2382  135.6421  153.5251 H   0  0  0  0  0  0  0  0  0  0  0  0  # atno 10765 bound_to 10752
  139.8771  134.9088  156.4580 H   0  0  0  0  0  0  0  0  0  0  0  0  # atno 11005 bound_to 11000
  145.7450  140.9994  143.1281 LP  0  0  0  0  0  0  0  0  0  0  0  0  # atno 17320 bound_to 7965
  144.6928  139.9144  143.7465 LP  0  0  0  0  0  0  0  0  0  0  0  0  # atno 17321 bound_to 7965
  140.2619  143.3517  152.1315 LP  0  0  0  0  0  0  0  0  0  0  0  0  # atno 17342 bound_to 10162
  139.5123  144.6914  151.5748 LP  0  0  0  0  0  0  0  0  0  0  0  0  # atno 17343 bound_to 10162
  155.9824  130.4010  150.3419 LP  0  0  0  0  0  0  0  0  0  0  0  0  # atno 17370 bound_to 10713
  157.1547  131.0330  151.2869 LP  0  0  0  0  0  0  0  0  0  0  0  0  # atno 17371 bound_to 10713
  140.8884  133.7866  155.9544 LP  0  0  0  0  0  0  0  0  0  0  0  0  # atno 17394 bound_to 11000
  140.8780  134.2646  157.5158 LP  0  0  0  0  0  0  0  0  0  0  0  0  # atno 17395 bound_to 11000

$$$$
