AV-unprocessed.smi:249|AV-procd|sdf|1922|dock3
  -GOLD-   2262021 33D 1   1.00000     0.00000
 Structure written by MMmdl.
 64 67  0  0  0  0  0  0  0  0  2 V2000
  145.1792  135.3612  151.3155 C   0  0  0  0  0  0  0  0  0  0  0  0
  145.9511  134.0729  151.6340 C   0  0  0  0  0  0  0  0  0  0  0  0
  147.0276  134.2924  152.6343 N   0  3  2  0  0  0  0  0  0  0  0  0
  147.9989  133.1685  152.7228 C   0  0  0  0  0  0  0  0  0  0  0  0
  149.1964  133.5381  153.6128 C   0  0  0  0  0  0  0  0  0  0  0  0
  148.7365  133.9709  155.0205 C   0  0  1  0  0  0  0  0  0  0  0  0
  149.8516  134.2800  155.9273 N   0  0  0  0  0  0  0  0  0  0  0  0
  150.9539  133.3258  155.9763 C   0  0  0  0  0  0  0  0  0  0  0  0
  150.2466  135.5738  156.0047 C   0  0  0  0  0  0  0  0  0  0  0  0
  150.8094  136.1759  154.9237 N   0  0  0  0  0  0  0  0  0  0  0  0
  151.1722  137.4607  154.9869 C   0  0  0  0  0  0  0  0  0  0  0  0
  151.0568  138.3110  156.0092 N   0  0  0  0  0  0  0  0  0  0  0  0
  150.5024  137.7051  157.0980 C   0  0  0  0  0  0  0  0  0  0  0  0
  150.0860  136.3480  157.1847 C   0  0  0  0  0  0  0  0  0  0  0  0
  149.5856  136.0823  158.4532 N   0  0  0  0  0  0  0  0  0  0  0  0
  149.6819  137.2246  159.0767 C   0  0  0  0  0  0  0  0  0  0  0  0
  150.1908  138.2611  158.3261 N   0  0  0  0  0  0  0  0  0  0  0  0
  150.3818  139.6329  158.7597 C   0  0  0  0  0  0  0  0  0  0  0  0
  151.3922  140.4524  157.9074 C   0  0  2  0  0  0  0  0  0  0  0  0
  152.7899  139.7950  158.0139 C   0  0  0  0  0  0  0  0  0  0  0  0
  153.2329  139.3184  156.7599 O   0  0  0  0  0  0  0  0  0  0  0  0
  151.4397  141.9649  158.2866 C   0  0  1  0  0  0  0  0  0  0  0  0
  150.0824  142.6421  158.4135 C   0  0  0  0  0  0  0  0  0  0  0  0
  150.4143  143.8931  159.2126 C   0  0  0  0  0  0  0  0  0  0  0  0
  151.3811  143.4610  160.1561 O   0  0  0  0  0  0  0  0  0  0  0  0
  152.0362  142.2940  159.6682 C   0  0  0  0  0  0  0  0  0  0  0  0
  147.7055  135.1142  154.8853 C   0  0  0  0  0  0  0  0  0  0  0  0
  146.5252  134.7321  153.9698 C   0  0  2  0  0  0  0  0  0  0  0  0
  145.5676  133.7180  154.6334 C   0  0  0  0  0  0  0  0  0  0  0  0
  144.3485  135.1522  150.6409 H   0  0  0  0  0  0  0  0  0  0  0  0
  145.8079  136.1078  150.8312 H   0  0  0  0  0  0  0  0  0  0  0  0
  144.7643  135.8055  152.2208 H   0  0  0  0  0  0  0  0  0  0  0  0
  145.2367  133.3478  152.0262 H   0  0  0  0  0  0  0  0  0  0  0  0
  146.3654  133.6395  150.7227 H   0  0  0  0  0  0  0  0  0  0  0  0
  147.5058  132.2727  153.1011 H   0  0  0  0  0  0  0  0  0  0  0  0
  148.3714  132.9166  151.7304 H   0  0  0  0  0  0  0  0  0  0  0  0
  149.8713  132.6843  153.6762 H   0  0  0  0  0  0  0  0  0  0  0  0
  149.7569  134.3415  153.1339 H   0  0  0  0  0  0  0  0  0  0  0  0
  148.2233  133.1222  155.4732 H   0  0  0  0  0  0  0  0  0  0  0  0
  151.6161  133.5461  156.8145 H   0  0  0  0  0  0  0  0  0  0  0  0
  151.5436  133.3488  155.0595 H   0  0  0  0  0  0  0  0  0  0  0  0
  150.5740  132.3130  156.1104 H   0  0  0  0  0  0  0  0  0  0  0  0
  151.6105  137.8682  154.0878 H   0  0  0  0  0  0  0  0  0  0  0  0
  149.3611  137.3483  160.1009 H   0  0  0  0  0  0  0  0  0  0  0  0
  149.4114  140.1311  158.7601 H   0  0  0  0  0  0  0  0  0  0  0  0
  150.7027  139.5925  159.8010 H   0  0  0  0  0  0  0  0  0  0  0  0
  151.0925  140.3880  156.8606 H   0  0  0  0  0  0  0  0  0  0  0  0
  153.5422  140.5054  158.3542 H   0  0  0  0  0  0  0  0  0  0  0  0
  152.7781  138.9727  158.7297 H   0  0  0  0  0  0  0  0  0  0  0  0
  153.3554  138.3831  156.8192 H   0  0  0  0  0  0  0  0  0  0  0  0
  152.0075  142.5039  157.5263 H   0  0  0  0  0  0  0  0  0  0  0  0
  149.6272  142.8809  157.4520 H   0  0  0  0  0  0  0  0  0  0  0  0
  149.3908  142.0130  158.9764 H   0  0  0  0  0  0  0  0  0  0  0  0
  150.8602  144.6516  158.5677 H   0  0  0  0  0  0  0  0  0  0  0  0
  149.5414  144.3269  159.7007 H   0  0  0  0  0  0  0  0  0  0  0  0
  151.8556  141.4892  160.3811 H   0  0  0  0  0  0  0  0  0  0  0  0
  153.1099  142.4708  159.6220 H   0  0  0  0  0  0  0  0  0  0  0  0
  147.3306  135.4006  155.8685 H   0  0  0  0  0  0  0  0  0  0  0  0
  148.1833  136.0015  154.4677 H   0  0  0  0  0  0  0  0  0  0  0  0
  145.9522  135.6462  153.8070 H   0  0  0  0  0  0  0  0  0  0  0  0
  145.2190  134.0930  155.5960 H   0  0  0  0  0  0  0  0  0  0  0  0
  146.0407  132.7538  154.8157 H   0  0  0  0  0  0  0  0  0  0  0  0
  144.6815  133.5409  154.0242 H   0  0  0  0  0  0  0  0  0  0  0  0
  147.5545  135.0808  152.2862 H   0  0  0  0  0  0  0  0  0  0  0  0
  1  2  1  0  0  0  0
  1 30  1  0  0  0  0
  1 31  1  0  0  0  0
  1 32  1  0  0  0  0
  2  3  1  0  0  0  0
  2 33  1  0  0  0  0
  2 34  1  0  0  0  0
  3 28  1  0  0  0  0
  3  4  1  0  0  0  0
  3 64  1  0  0  0  0
  4  5  1  0  0  0  0
  4 35  1  0  0  0  0
  4 36  1  0  0  0  0
  5  6  1  0  0  0  0
  5 37  1  0  0  0  0
  5 38  1  0  0  0  0
  6  7  1  0  0  0  0
  6 27  1  0  0  0  0
  6 39  1  0  0  0  0
  7  8  1  0  0  0  0
  7  9  1  0  0  0  0
  8 40  1  0  0  0  0
  8 41  1  0  0  0  0
  8 42  1  0  0  0  0
  9 14  1  0  0  0  0
  9 10  2  0  0  0  0
 10 11  1  0  0  0  0
 11 12  2  0  0  0  0
 11 43  1  0  0  0  0
 12 13  1  0  0  0  0
 13 17  1  0  0  0  0
 13 14  2  0  0  0  0
 14 15  1  0  0  0  0
 15 16  2  0  0  0  0
 16 17  1  0  0  0  0
 16 44  1  0  0  0  0
 17 18  1  0  0  0  0
 18 19  1  0  0  0  0
 18 45  1  0  0  0  0
 18 46  1  0  0  0  0
 19 20  1  0  0  0  0
 19 22  1  0  0  0  0
 19 47  1  0  0  0  0
 20 21  1  0  0  0  0
 20 48  1  0  0  0  0
 20 49  1  0  0  0  0
 21 50  1  0  0  0  0
 22 26  1  0  0  0  0
 22 23  1  0  0  0  0
 22 51  1  0  0  0  0
 23 24  1  0  0  0  0
 23 52  1  0  0  0  0
 23 53  1  0  0  0  0
 24 25  1  0  0  0  0
 24 54  1  0  0  0  0
 24 55  1  0  0  0  0
 25 26  1  0  0  0  0
 26 56  1  0  0  0  0
 26 57  1  0  0  0  0
 27 28  1  0  0  0  0
 27 58  1  0  0  0  0
 27 59  1  0  0  0  0
 28 29  1  0  0  0  0
 28 60  1  0  0  0  0
 29 61  1  0  0  0  0
 29 62  1  0  0  0  0
 29 63  1  0  0  0  0
M  CHG  1   3   1
M  END
> <s_m_source_file>
AV-unprocessed.smi

> <i_m_source_file_index>
249

> <i_lp_mmshare_version>
43012

> <i_f3d_flags>
0

> <s_epik_input>
W0NIM11bQ0gyXU4xW0NIMl1bQ0gyXVtDQEhdKFtDSDJdW0NASF0xW0NIM10pTihbQ0gzXSljKG5bY0hdbjIpYyhjMjMpbltjSF1uM1tDSDJdW0NASF0oW0NIMl1bT0hdKVtDQEBIXTRbQ0gyXVtDSDJdT1tDSDJdNA==

> <s_epik_cmdline>
J2VwaWtfcHl0aG9uJywgJy1waCcsICc3LjAnLCAnLXRuJywgJzgnLCAnLW1hJywgJzIwMCcsICctbWV0YWxfYmluZGluZycsICctaW1hZScsICc8aW5maWxlLm1hZT4nLCAnLW9tYWUnLCAnPG91dGZpbGUubWFlPic=

> <r_lp_tautomer_probability>
1

> <r_epik_Ionization_Penalty>
0.00294688

> <r_epik_Ionization_Penalty_Charging>
0.00169971

> <r_epik_Ionization_Penalty_Neutral>
0.00124717

> <r_epik_State_Penalty>
-0

> <r_epik_Charging_Adjusted_Penalty>
0.00169971

> <i_epik_Tot_Q>
1

> <i_epik_Tot_abs_Q>
1

> <r_epik_Metal_State_Penalty>
-0

> <b_epik_Metal_Only>
0

> <s_lp_Force_Field>
OPLS_2005

> <r_lp_Energy>
54.0807

> <b_lp_Chiralities_Consistent>
1

> <s_lp_Variant>
AV-unprocessed.smi:249-25

> <Gold.Version>
5.8.1

> <Gold.Id.Protein>
6NUR|6NUR_protein|mol2

> <Gold.PLP.Fitness>
48.8274

> <Gold.PLP.PLP>
-39.5064

> <Gold.PLP.part.hbond>
-3.8425

> <Gold.PLP.part.metal>
0.0000

> <Gold.PLP.part.buried>
-5.2099

> <Gold.PLP.part.nonpolar>
-31.2463

> <Gold.PLP.part.repulsive>
0.2223

> <Gold.PLP.ligand.clash>
0.0000

> <Gold.PLP.ligand.torsion>
1.8494

> <Gold.PLP.Chemscore.Hbond>
4.0705

> <Gold.PLP.Chemscore.CHOScore>
0.0000

> <Gold.PLP.Chemscore.Metal>
0.0000

> <Gold.Chemscore.Hbonds>
donor molecule, donor type, donor heavy atom, donor atom, acceptor molecule, acceptor atom, score
      L1  H     3    64       P1  7948  2.00
      P1  H  6896  6907       L1    15  0.71
      P1  H  7997  8009       L1    21  0.62
      P1  H 10752 10765       L1    10  0.15

> <Gold.PLP.Chemscore.Internal.Correction>
0.8082

> <Gold.Rescore>
     Score         DG    S(hbond)    S(metal)    S(lipo)     H(rot)  DE(clash)    DE(int)     intcor
     11.47     -14.22       1.87        0.00      84.70       2.90       0.00       2.75       ----

> <Gold.Chemscore.Fitness>
11.4676

> <Gold.Chemscore.DG>
-14.2233

> <Gold.Chemscore.ZeroCoef>
-5.4800

> <Gold.Chemscore.Hbond>
1.8739

> <Gold.Chemscore.Metal>
0.0000

> <Gold.Chemscore.Lipo>
84.7004

> <Gold.Chemscore.Internal_Hbond>
0.0000

> <Gold.Chemscore.DEClash>
0.0029

> <Gold.Chemscore.DEInternal>
2.7528

> <Gold.Chemscore.Rot>
2.9006

> <Gold.Chemscore.Internal.Correction>
   9.000000E+99

> <Gold.Chemscore.Hbonds>
donor molecule, donor type, donor heavy atom, donor atom, acceptor molecule, acceptor atom, score
      L1  H     3    64       P1  7948  0.98
      P1  H  6896  6907       L1    15  0.40
      P1  H  7997  8009       L1    21  0.23
      P1  H 10752 10765       L1    10  0.01

> <Gold.Chemscore.Hbond.Weighted>
-6.2590

> <Gold.Chemscore.Metal.Weighted>
-0.0000

> <Gold.Chemscore.Lipo.Weighted>
-9.9099

> <Gold.Chemscore.Internal_Hbond.Weighted>
0.0000

> <Gold.Chemscore.DEClash.Weighted>
0.0029

> <Gold.Chemscore.DEInternal.Weighted>
2.7528

> <Gold.Chemscore.Rot.Weighted>
7.4256

> <Gold.Chemscore.Internal.Correction.Weighted>
   9.000000E+99

> <Gold.Protein.RotatedTorsions>
[ 6907 6896 6895 6894 ] final  -68.93 input  -60.11 | X-H torsion
[ 7974 7965 7964 7962 ] final   40.29 input  175.53 | X-H torsion
[ 8008 7997 7996 7995 ] final -171.48 input   59.86 | X-H torsion
[ 10167 10162 10161 10158 ] final  124.81 input  -65.29 | X-H torsion
[ 10718 10713 10712 10709 ] final  139.57 input   66.30 | X-H torsion
[ 10763 10752 10751 10750 ] final -160.87 input  -60.55 | X-H torsion
[ 11005 11000 10999 10996 ] final   26.78 input  -57.11 | X-H torsion

> <Gold.Protein.ActiveResidues>
 VAL166  LYS551  ARG553  GLY616  TRP617  ASP618  TYR619  PRO620  LYS621  CYS622 
 ASP623  PHE694  ASN695  SER759  ASP760  ASP761  ALA762  ILE779  LEU786  VAL792 
 PHE793  MET794  SER795  GLU796  ALA797  LYS798  CYS799  TRP800  GLU811  SER814 

> <Gold.Protein.RotatedAtoms>
  150.7331  134.5669  159.5870 H   0  0  0  0  0  0  0  0  0  0  0  0  # atno 6907 bound_to 6896
  152.3118  134.7485  160.0343 H   0  0  0  0  0  0  0  0  0  0  0  0  # atno 6908 bound_to 6896
  151.8030  133.3336  159.3569 H   0  0  0  0  0  0  0  0  0  0  0  0  # atno 6909 bound_to 6896
  146.0917  139.5550  142.9472 H   0  0  0  0  0  0  0  0  0  0  0  0  # atno 7974 bound_to 7965
  155.9322  140.1093  157.1123 H   0  0  0  0  0  0  0  0  0  0  0  0  # atno 8008 bound_to 7997
  154.4073  140.1235  156.4882 H   0  0  0  0  0  0  0  0  0  0  0  0  # atno 8009 bound_to 7997
  155.7066  140.3471  155.4958 H   0  0  0  0  0  0  0  0  0  0  0  0  # atno 8010 bound_to 7997
  139.5721  144.6944  151.3752 H   0  0  0  0  0  0  0  0  0  0  0  0  # atno 10167 bound_to 10162
  157.4129  131.1030  151.0435 H   0  0  0  0  0  0  0  0  0  0  0  0  # atno 10718 bound_to 10713
  154.7353  135.3056  154.8822 H   0  0  0  0  0  0  0  0  0  0  0  0  # atno 10763 bound_to 10752
  153.9653  135.6748  153.4750 H   0  0  0  0  0  0  0  0  0  0  0  0  # atno 10764 bound_to 10752
  153.0956  135.4937  154.8695 H   0  0  0  0  0  0  0  0  0  0  0  0  # atno 10765 bound_to 10752
  140.3334  134.2413  155.7699 H   0  0  0  0  0  0  0  0  0  0  0  0  # atno 11005 bound_to 11000
  145.6027  141.0352  143.2009 LP  0  0  0  0  0  0  0  0  0  0  0  0  # atno 17320 bound_to 7965
  144.7365  139.7572  143.7327 LP  0  0  0  0  0  0  0  0  0  0  0  0  # atno 17321 bound_to 7965
  140.7005  143.7644  150.7395 LP  0  0  0  0  0  0  0  0  0  0  0  0  # atno 17342 bound_to 10162
  140.1153  143.4661  152.2346 LP  0  0  0  0  0  0  0  0  0  0  0  0  # atno 17343 bound_to 10162
  157.1392  130.6136  149.5550 LP  0  0  0  0  0  0  0  0  0  0  0  0  # atno 17370 bound_to 10713
  155.9856  130.4887  150.7040 LP  0  0  0  0  0  0  0  0  0  0  0  0  # atno 17371 bound_to 10713
  141.2057  133.7852  157.0215 LP  0  0  0  0  0  0  0  0  0  0  0  0  # atno 17394 bound_to 11000
  140.0841  134.9631  157.1672 LP  0  0  0  0  0  0  0  0  0  0  0  0  # atno 17395 bound_to 11000

$$$$
