AV-unprocessed.smi:281|AV-procd|sdf|2109|dock4
  -GOLD-   2262021403D 1   1.00000     0.00000
 Structure written by MMmdl.
 55 59  0  0  0  0  0  0  0  0  1 V2000
  145.3121  140.5648  158.2698 C   0  0  0  0  0  0  0  0  0  0  0  0
  145.8607  140.0672  156.9288 C   0  0  2  0  0  0  0  0  0  0  0  0
  145.7061  138.5446  156.7724 C   0  0  0  0  0  0  0  0  0  0  0  0
  146.3415  138.1021  155.5370 N   0  0  0  0  0  0  0  0  0  0  0  0
  145.9990  136.8551  155.1253 C   0  0  0  0  0  0  0  0  0  0  0  0
  146.4269  135.7678  155.8218 N   0  0  0  0  0  0  0  0  0  0  0  0
  146.0866  134.5369  155.4297 C   0  0  0  0  0  0  0  0  0  0  0  0
  145.3420  134.1702  154.3853 N   0  0  0  0  0  0  0  0  0  0  0  0
  144.9201  135.2541  153.6736 C   0  0  0  0  0  0  0  0  0  0  0  0
  145.1973  136.6183  153.9726 C   0  0  0  0  0  0  0  0  0  0  0  0
  144.6032  137.4395  153.0216 N   0  0  0  0  0  0  0  0  0  0  0  0
  144.0003  136.6099  152.2150 C   0  0  0  0  0  0  0  0  0  0  0  0
  144.1508  135.2763  152.5228 N   0  0  0  0  0  0  0  0  0  0  0  0
  143.5985  134.1453  151.7922 C   0  0  0  0  0  0  0  0  0  0  0  0
  144.4905  133.6224  150.6348 C   0  0  1  0  0  0  0  0  0  0  0  0
  145.0446  134.7494  149.9842 O   0  0  0  0  0  0  0  0  0  0  0  0
  145.6130  132.6850  151.0784 C   0  0  0  0  0  0  0  0  0  0  0  0
  145.0775  131.2743  150.8041 C   0  0  0  0  0  0  0  0  0  0  0  0
  143.8138  131.4422  150.1733 O   0  0  0  0  0  0  0  0  0  0  0  0
  143.7516  132.7463  149.6187 C   0  0  0  0  0  0  0  0  0  0  0  0
  147.7444  138.4966  155.4475 C   0  0  0  0  0  0  0  0  0  0  0  0
  147.8970  140.0260  155.6471 C   0  0  2  0  0  0  0  0  0  0  0  0
  147.3886  140.8324  154.4553 C   0  0  0  0  0  0  0  0  0  0  0  0
  148.5826  140.8378  153.5084 C   0  0  0  0  0  0  0  0  0  0  0  0
  149.7312  140.8233  154.3465 O   0  0  0  0  0  0  0  0  0  0  0  0
  149.3594  140.5155  155.6880 C   0  0  2  0  0  0  0  0  0  0  0  0
  150.3885  139.5787  156.3365 C   0  0  0  0  0  0  0  0  0  0  0  0
  147.2431  140.4179  156.8579 O   0  0  0  0  0  0  0  0  0  0  0  0
  144.2513  140.3335  158.3697 H   0  0  0  0  0  0  0  0  0  0  0  0
  145.4264  141.6452  158.3601 H   0  0  0  0  0  0  0  0  0  0  0  0
  145.8363  140.1029  159.1069 H   0  0  0  0  0  0  0  0  0  0  0  0
  145.3137  140.5711  156.1311 H   0  0  0  0  0  0  0  0  0  0  0  0
  146.1766  138.0310  157.6121 H   0  0  0  0  0  0  0  0  0  0  0  0
  144.6492  138.2821  156.7958 H   0  0  0  0  0  0  0  0  0  0  0  0
  146.4654  133.7306  156.0402 H   0  0  0  0  0  0  0  0  0  0  0  0
  143.4328  136.9516  151.3618 H   0  0  0  0  0  0  0  0  0  0  0  0
  143.4045  133.3434  152.5059 H   0  0  0  0  0  0  0  0  0  0  0  0
  142.6240  134.4439  151.4030 H   0  0  0  0  0  0  0  0  0  0  0  0
  145.3288  134.4876  149.1219 H   0  0  0  0  0  0  0  0  0  0  0  0
  146.5093  132.8403  150.4751 H   0  0  0  0  0  0  0  0  0  0  0  0
  145.9031  132.8319  152.1188 H   0  0  0  0  0  0  0  0  0  0  0  0
  145.7504  130.7263  150.1436 H   0  0  0  0  0  0  0  0  0  0  0  0
  144.9585  130.6965  151.7212 H   0  0  0  0  0  0  0  0  0  0  0  0
  142.7270  133.0674  149.4328 H   0  0  0  0  0  0  0  0  0  0  0  0
  144.2748  132.7325  148.6606 H   0  0  0  0  0  0  0  0  0  0  0  0
  148.2912  137.9579  156.2222 H   0  0  0  0  0  0  0  0  0  0  0  0
  148.1645  138.1948  154.4872 H   0  0  0  0  0  0  0  0  0  0  0  0
  146.4878  140.4257  153.9947 H   0  0  0  0  0  0  0  0  0  0  0  0
  147.1708  141.8555  154.7655 H   0  0  0  0  0  0  0  0  0  0  0  0
  148.5876  139.9387  152.8914 H   0  0  0  0  0  0  0  0  0  0  0  0
  148.5838  141.7025  152.8446 H   0  0  0  0  0  0  0  0  0  0  0  0
  149.3803  141.4660  156.2240 H   0  0  0  0  0  0  0  0  0  0  0  0
  150.0992  139.3238  157.3564 H   0  0  0  0  0  0  0  0  0  0  0  0
  151.3683  140.0546  156.3794 H   0  0  0  0  0  0  0  0  0  0  0  0
  150.5014  138.6525  155.7727 H   0  0  0  0  0  0  0  0  0  0  0  0
  1  2  1  0  0  0  0
  1 29  1  0  0  0  0
  1 30  1  0  0  0  0
  1 31  1  0  0  0  0
  2 28  1  0  0  0  0
  2  3  1  0  0  0  0
  2 32  1  0  0  0  0
  3  4  1  0  0  0  0
  3 33  1  0  0  0  0
  3 34  1  0  0  0  0
  4  5  1  0  0  0  0
  4 21  1  0  0  0  0
  5 10  1  0  0  0  0
  5  6  2  0  0  0  0
  6  7  1  0  0  0  0
  7  8  2  0  0  0  0
  7 35  1  0  0  0  0
  8  9  1  0  0  0  0
  9 13  1  0  0  0  0
  9 10  2  0  0  0  0
 10 11  1  0  0  0  0
 11 12  2  0  0  0  0
 12 13  1  0  0  0  0
 12 36  1  0  0  0  0
 13 14  1  0  0  0  0
 14 15  1  0  0  0  0
 14 37  1  0  0  0  0
 14 38  1  0  0  0  0
 15 20  1  0  0  0  0
 15 16  1  0  0  0  0
 15 17  1  0  0  0  0
 16 39  1  0  0  0  0
 17 18  1  0  0  0  0
 17 40  1  0  0  0  0
 17 41  1  0  0  0  0
 18 19  1  0  0  0  0
 18 42  1  0  0  0  0
 18 43  1  0  0  0  0
 19 20  1  0  0  0  0
 20 44  1  0  0  0  0
 20 45  1  0  0  0  0
 21 22  1  0  0  0  0
 21 46  1  0  0  0  0
 21 47  1  0  0  0  0
 22 26  1  0  0  0  0
 22 23  1  0  0  0  0
 22 28  1  0  0  0  0
 23 24  1  0  0  0  0
 23 48  1  0  0  0  0
 23 49  1  0  0  0  0
 24 25  1  0  0  0  0
 24 50  1  0  0  0  0
 24 51  1  0  0  0  0
 25 26  1  0  0  0  0
 26 27  1  0  0  0  0
 26 52  1  0  0  0  0
 27 53  1  0  0  0  0
 27 54  1  0  0  0  0
 27 55  1  0  0  0  0
M  END
> <s_m_source_file>
AV-unprocessed.smi

> <i_m_source_file_index>
281

> <i_lp_mmshare_version>
43012

> <i_f3d_flags>
0

> <s_epik_input>
W0NIM11bQ0BASF0xT1tDSDJdW0NIMl1bQ0BAXTEyW0NIMl1OKFtDSDJdW0NASF0oTzIpW0NIM10pYyhuW2NIXW4zKWMoYzM0KW5bY0hdbjRbQ0gyXVtDQEBdNShbT0hdKVtDSDJdW0NIMl1PW0NIMl01

> <s_epik_cmdline>
J2VwaWtfcHl0aG9uJywgJy1waCcsICc3LjAnLCAnLXRuJywgJzgnLCAnLW1hJywgJzIwMCcsICctbWV0YWxfYmluZGluZycsICctaW1hZScsICc8aW5maWxlLm1hZT4nLCAnLW9tYWUnLCAnPG91dGZpbGUubWFlPic=

> <r_lp_tautomer_probability>
1

> <r_epik_Ionization_Penalty>
0.00571331

> <r_epik_Ionization_Penalty_Charging>
0

> <r_epik_Ionization_Penalty_Neutral>
0.00571331

> <r_epik_State_Penalty>
0.00399586

> <r_epik_Charging_Adjusted_Penalty>
0.00399586

> <i_epik_Tot_Q>
0

> <i_epik_Tot_abs_Q>
0

> <r_epik_Metal_State_Penalty>
-0

> <b_epik_Metal_Only>
0

> <s_lp_Force_Field>
OPLS_2005

> <r_lp_Energy>
56.9386

> <b_lp_Chiralities_Consistent>
1

> <s_lp_Variant>
AV-unprocessed.smi:281-9

> <Gold.Version>
5.8.1

> <Gold.Id.Protein>
6NUR|6NUR_protein|mol2

> <Gold.PLP.Fitness>
35.4265

> <Gold.PLP.PLP>
-26.5260

> <Gold.PLP.part.hbond>
-3.0000

> <Gold.PLP.part.metal>
0.0000

> <Gold.PLP.part.buried>
-2.7629

> <Gold.PLP.part.nonpolar>
-21.4202

> <Gold.PLP.part.repulsive>
0.5840

> <Gold.PLP.ligand.clash>
0.0000

> <Gold.PLP.ligand.torsion>
0.7931

> <Gold.PLP.Chemscore.Hbond>
2.3930

> <Gold.PLP.Chemscore.CHOScore>
1.0000

> <Gold.PLP.Chemscore.Metal>
0.0000

> <Gold.Chemscore.Hbonds>
donor molecule, donor type, donor heavy atom, donor atom, acceptor molecule, acceptor atom, score
      L1  H    16    39       P1  7921  1.00
      P1  H  7989  7998       L1    25  0.57
      P1  H 10785 10796       L1    19  0.77
      L1  C    12    36       P1 10171  1.00

> <Gold.PLP.Chemscore.Internal.Correction>
0.3078

> <Gold.Rescore>
     Score         DG    S(hbond)    S(metal)    S(lipo)     H(rot)  DE(clash)    DE(int)     intcor
     12.64     -14.89       2.03        0.00      68.15       2.09       0.57       1.68       ----

> <Gold.Chemscore.Fitness>
12.6382

> <Gold.Chemscore.DG>
-14.8899

> <Gold.Chemscore.ZeroCoef>
-5.4800

> <Gold.Chemscore.Hbond>
2.0340

> <Gold.Chemscore.Metal>
0.0000

> <Gold.Chemscore.Lipo>
68.1518

> <Gold.Chemscore.Internal_Hbond>
0.0000

> <Gold.Chemscore.DEClash>
0.5731

> <Gold.Chemscore.DEInternal>
1.6787

> <Gold.Chemscore.Rot>
2.0927

> <Gold.Chemscore.Internal.Correction>
   9.000000E+99

> <Gold.Chemscore.Hbonds>
donor molecule, donor type, donor heavy atom, donor atom, acceptor molecule, acceptor atom, score
      L1  H    16    39       P1  7921  0.95
      P1  H  7989  7998       L1    25  0.53
      P1  H 10785 10796       L1    19  0.46

> <Gold.Chemscore.Hbond.Weighted>
-6.7935

> <Gold.Chemscore.Metal.Weighted>
-0.0000

> <Gold.Chemscore.Lipo.Weighted>
-7.9738

> <Gold.Chemscore.Internal_Hbond.Weighted>
0.0000

> <Gold.Chemscore.DEClash.Weighted>
0.5731

> <Gold.Chemscore.DEInternal.Weighted>
1.6787

> <Gold.Chemscore.Rot.Weighted>
5.3573

> <Gold.Chemscore.Internal.Correction.Weighted>
   9.000000E+99

> <Gold.Protein.RotatedTorsions>
[ 6907 6896 6895 6894 ] final -124.25 input  -60.11 | X-H torsion
[ 7974 7965 7964 7962 ] final   34.30 input  175.53 | X-H torsion
[ 8008 7997 7996 7995 ] final  -62.16 input   59.86 | X-H torsion
[ 10167 10162 10161 10158 ] final  162.51 input  -65.29 | X-H torsion
[ 10718 10713 10712 10709 ] final   12.24 input   66.30 | X-H torsion
[ 10763 10752 10751 10750 ] final  -10.01 input  -60.55 | X-H torsion
[ 11005 11000 10999 10996 ] final  139.92 input  -57.11 | X-H torsion

> <Gold.Protein.ActiveResidues>
 VAL166  LYS551  ARG553  GLY616  TRP617  ASP618  TYR619  PRO620  LYS621  CYS622 
 ASP623  PHE694  ASN695  SER759  ASP760  ASP761  ALA762  ILE779  LEU786  VAL792 
 PHE793  MET794  SER795  GLU796  ALA797  LYS798  CYS799  TRP800  GLU811  SER814 

> <Gold.Protein.RotatedAtoms>
  150.8750  133.7452  159.2949 H   0  0  0  0  0  0  0  0  0  0  0  0  # atno 6907 bound_to 6896
  151.5051  135.1061  159.9849 H   0  0  0  0  0  0  0  0  0  0  0  0  # atno 6908 bound_to 6896
  152.4721  133.8009  159.7008 H   0  0  0  0  0  0  0  0  0  0  0  0  # atno 6909 bound_to 6896
  146.1362  139.6286  142.9194 H   0  0  0  0  0  0  0  0  0  0  0  0  # atno 7974 bound_to 7965
  154.4485  140.1002  156.6544 H   0  0  0  0  0  0  0  0  0  0  0  0  # atno 8008 bound_to 7997
  155.5362  140.3482  155.4418 H   0  0  0  0  0  0  0  0  0  0  0  0  # atno 8009 bound_to 7997
  156.0629  140.1331  156.9908 H   0  0  0  0  0  0  0  0  0  0  0  0  # atno 8010 bound_to 7997
  139.4861  144.4430  151.8927 H   0  0  0  0  0  0  0  0  0  0  0  0  # atno 10167 bound_to 10162
  157.0072  130.6103  149.5703 H   0  0  0  0  0  0  0  0  0  0  0  0  # atno 10718 bound_to 10713
  153.4630  135.7016  153.6039 H   0  0  0  0  0  0  0  0  0  0  0  0  # atno 10763 bound_to 10752
  153.4325  135.3799  155.2179 H   0  0  0  0  0  0  0  0  0  0  0  0  # atno 10764 bound_to 10752
  154.8727  135.3954  154.4058 H   0  0  0  0  0  0  0  0  0  0  0  0  # atno 10765 bound_to 10752
  140.0290  134.9361  157.0625 H   0  0  0  0  0  0  0  0  0  0  0  0  # atno 11005 bound_to 11000
  145.5151  141.0434  143.2466 LP  0  0  0  0  0  0  0  0  0  0  0  0  # atno 17320 bound_to 7965
  144.7742  139.6667  143.7182 LP  0  0  0  0  0  0  0  0  0  0  0  0  # atno 17321 bound_to 7965
  140.3883  144.2648  150.5902 LP  0  0  0  0  0  0  0  0  0  0  0  0  # atno 17342 bound_to 10162
  140.5170  143.2275  151.8448 LP  0  0  0  0  0  0  0  0  0  0  0  0  # atno 17343 bound_to 10162
  156.0149  130.5243  150.8104 LP  0  0  0  0  0  0  0  0  0  0  0  0  # atno 17370 bound_to 10713
  157.5347  131.0938  150.9908 LP  0  0  0  0  0  0  0  0  0  0  0  0  # atno 17371 bound_to 10713
  140.4258  134.1833  155.7166 LP  0  0  0  0  0  0  0  0  0  0  0  0  # atno 17394 bound_to 11000
  141.1820  133.8394  157.1225 LP  0  0  0  0  0  0  0  0  0  0  0  0  # atno 17395 bound_to 11000

$$$$
