AV-unprocessed.smi:3071|AV-procd|sdf|11716|dock7
  -GOLD-   2272017113D 1   1.00000     0.00000
 Structure written by MMmdl.
 29 30  0  0  0  0  0  0  0  0  3 V2000
  150.9047  138.5155  154.7620 C   0  0  0  0  0  0  0  0  0  0  0  0
  150.0854  139.7657  154.7379 C   0  0  0  0  0  0  0  0  0  0  0  0
  149.1724  140.0777  153.8106 N   0  3  0  0  0  0  0  0  0  0  0  0
  148.6026  141.2897  154.0906 C   0  0  0  0  0  0  0  0  0  0  0  0
  149.1947  141.7387  155.2418 C   0  0  0  0  0  0  0  0  0  0  0  0
  150.1053  140.7828  155.6168 N   0  0  0  0  0  0  0  0  0  0  0  0
  150.9807  140.8287  156.7970 C   0  0  0  0  0  0  0  0  0  0  0  0
  150.8439  142.1394  157.5954 C   0  0  1  0  0  0  0  0  0  0  0  0
  151.6712  142.2048  158.8832 C   0  0  0  0  0  0  0  0  0  0  0  0
  151.8088  143.7042  159.1192 C   0  0  0  0  0  0  0  0  0  0  0  0
  151.9234  144.2798  157.7052 C   0  0  0  0  0  0  0  0  0  0  0  0
  151.2597  143.3150  156.8040 N   0  3  0  0  0  0  0  0  0  0  0  0
  150.6383  137.8995  153.9025 H   0  0  0  0  0  0  0  0  0  0  0  0
  150.6926  137.9741  155.6843 H   0  0  0  0  0  0  0  0  0  0  0  0
  151.9599  138.7834  154.7123 H   0  0  0  0  0  0  0  0  0  0  0  0
  147.8378  141.7293  153.4666 H   0  0  0  0  0  0  0  0  0  0  0  0
  149.0388  142.6466  155.8063 H   0  0  0  0  0  0  0  0  0  0  0  0
  150.7248  139.9748  157.4259 H   0  0  0  0  0  0  0  0  0  0  0  0
  152.0106  140.6761  156.4724 H   0  0  0  0  0  0  0  0  0  0  0  0
  149.7972  142.2966  157.8591 H   0  0  0  0  0  0  0  0  0  0  0  0
  151.1987  141.6875  159.7190 H   0  0  0  0  0  0  0  0  0  0  0  0
  152.6576  141.7651  158.7263 H   0  0  0  0  0  0  0  0  0  0  0  0
  150.9074  144.0843  159.6025 H   0  0  0  0  0  0  0  0  0  0  0  0
  152.6606  143.9594  159.7506 H   0  0  0  0  0  0  0  0  0  0  0  0
  151.4737  145.2701  157.6267 H   0  0  0  0  0  0  0  0  0  0  0  0
  152.9706  144.3619  157.4115 H   0  0  0  0  0  0  0  0  0  0  0  0
  151.9252  143.0290  156.0997 H   0  0  0  0  0  0  0  0  0  0  0  0
  150.4566  143.7363  156.3588 H   0  0  0  0  0  0  0  0  0  0  0  0
  148.9356  139.4955  153.0167 H   0  0  0  0  0  0  0  0  0  0  0  0
  1  2  1  0  0  0  0
  1 13  1  0  0  0  0
  1 14  1  0  0  0  0
  1 15  1  0  0  0  0
  2  6  1  0  0  0  0
  2  3  2  0  0  0  0
  3  4  1  0  0  0  0
  3 29  1  0  0  0  0
  4  5  2  0  0  0  0
  4 16  1  0  0  0  0
  5  6  1  0  0  0  0
  5 17  1  0  0  0  0
  6  7  1  0  0  0  0
  7  8  1  0  0  0  0
  7 18  1  0  0  0  0
  7 19  1  0  0  0  0
  8 12  1  0  0  0  0
  8  9  1  0  0  0  0
  8 20  1  0  0  0  0
  9 10  1  0  0  0  0
  9 21  1  0  0  0  0
  9 22  1  0  0  0  0
 10 11  1  0  0  0  0
 10 23  1  0  0  0  0
 10 24  1  0  0  0  0
 11 12  1  0  0  0  0
 11 25  1  0  0  0  0
 11 26  1  0  0  0  0
 12 27  1  0  0  0  0
 12 28  1  0  0  0  0
M  CHG  1   3   1
M  CHG  1  12   1
M  END
> <s_m_source_file>
AV-unprocessed.smi

> <i_m_source_file_index>
3071

> <i_lp_mmshare_version>
43012

> <i_f3d_flags>
0

> <s_epik_input>
W0NIM11jMW5bY0hdW2NIXW4xW0NIMl1bQ0BASF0yW0NIMl1bQ0gyXVtDSDJdW05IXTI=

> <s_epik_cmdline>
J2VwaWtfcHl0aG9uJywgJy1waCcsICc3LjAnLCAnLXRuJywgJzgnLCAnLW1hJywgJzIwMCcsICctbWV0YWxfYmluZGluZycsICctaW1hZScsICc8aW5maWxlLm1hZT4nLCAnLW9tYWUnLCAnPG91dGZpbGUubWFlPic=

> <r_lp_tautomer_probability>
1

> <r_epik_Ionization_Penalty>
0.770167

> <r_epik_Ionization_Penalty_Charging>
0.000985251

> <r_epik_Ionization_Penalty_Neutral>
0.769181

> <r_epik_State_Penalty>
0.493256

> <r_epik_Charging_Adjusted_Penalty>
0.494241

> <i_epik_Tot_Q>
2

> <i_epik_Tot_abs_Q>
2

> <r_epik_Metal_State_Penalty>
4.24699

> <b_epik_Metal_Only>
0

> <s_lp_Force_Field>
OPLS_2005

> <r_lp_Energy>
34.2931

> <b_lp_Chiralities_Consistent>
1

> <s_lp_Variant>
AV-unprocessed.smi:3071-4

> <Gold.Version>
5.8.1

> <Gold.Id.Protein>
6NUR|6NUR_protein|mol2

> <Gold.PLP.Fitness>
40.5173

> <Gold.PLP.PLP>
-30.2489

> <Gold.PLP.part.hbond>
-2.0000

> <Gold.PLP.part.metal>
0.0000

> <Gold.PLP.part.buried>
-0.8079

> <Gold.PLP.part.nonpolar>
-27.5928

> <Gold.PLP.part.repulsive>
0.1992

> <Gold.PLP.ligand.clash>
0.0000

> <Gold.PLP.ligand.torsion>
0.0140

> <Gold.PLP.Chemscore.Hbond>
2.4320

> <Gold.PLP.Chemscore.CHOScore>
1.0000

> <Gold.PLP.Chemscore.Metal>
0.0000

> <Gold.Chemscore.Hbonds>
donor molecule, donor type, donor heavy atom, donor atom, acceptor molecule, acceptor atom, score
      L1  H     3    29       P1  7957  0.37
      L1  H    12    28       P1  8028  2.00
      L1  C     5    17       P1  8028  1.00

> <Gold.PLP.Chemscore.Internal.Correction>
0.0003

> <Gold.Rescore>
     Score         DG    S(hbond)    S(metal)    S(lipo)     H(rot)  DE(clash)    DE(int)     intcor
     15.33     -15.69       1.48        0.00      72.32       1.25       0.31       0.04       ----

> <Gold.Chemscore.Fitness>
15.3304

> <Gold.Chemscore.DG>
-15.6895

> <Gold.Chemscore.ZeroCoef>
-5.4800

> <Gold.Chemscore.Hbond>
1.4798

> <Gold.Chemscore.Metal>
0.0000

> <Gold.Chemscore.Lipo>
72.3174

> <Gold.Chemscore.Internal_Hbond>
0.0000

> <Gold.Chemscore.DEClash>
0.3146

> <Gold.Chemscore.DEInternal>
0.0444

> <Gold.Chemscore.Rot>
1.2477

> <Gold.Chemscore.Internal.Correction>
   9.000000E+99

> <Gold.Chemscore.Hbonds>
donor molecule, donor type, donor heavy atom, donor atom, acceptor molecule, acceptor atom, score
      L1  H     3    29       P1  7957  0.35
      L1  H    12    28       P1  8028  0.98

> <Gold.Chemscore.Hbond.Weighted>
-4.9424

> <Gold.Chemscore.Metal.Weighted>
-0.0000

> <Gold.Chemscore.Lipo.Weighted>
-8.4611

> <Gold.Chemscore.Internal_Hbond.Weighted>
0.0000

> <Gold.Chemscore.DEClash.Weighted>
0.3146

> <Gold.Chemscore.DEInternal.Weighted>
0.0444

> <Gold.Chemscore.Rot.Weighted>
3.1941

> <Gold.Chemscore.Internal.Correction.Weighted>
   9.000000E+99

> <Gold.Protein.RotatedTorsions>
[ 6907 6896 6895 6894 ] final   75.68 input  -60.11 | X-H torsion
[ 7974 7965 7964 7962 ] final -134.97 input  175.53 | X-H torsion
[ 8008 7997 7996 7995 ] final -145.45 input   59.86 | X-H torsion
[ 10167 10162 10161 10158 ] final   92.31 input  -65.29 | X-H torsion
[ 10718 10713 10712 10709 ] final    1.80 input   66.30 | X-H torsion
[ 10763 10752 10751 10750 ] final -135.64 input  -60.55 | X-H torsion
[ 11005 11000 10999 10996 ] final  122.73 input  -57.11 | X-H torsion

> <Gold.Protein.ActiveResidues>
 VAL166  LYS551  ARG553  GLY616  TRP617  ASP618  TYR619  PRO620  LYS621  CYS622 
 ASP623  PHE694  ASN695  SER759  ASP760  ASP761  ALA762  ILE779  LEU786  VAL792 
 PHE793  MET794  SER795  GLU796  ALA797  LYS798  CYS799  TRP800  GLU811  SER814 

> <Gold.Protein.RotatedAtoms>
  152.5037  134.4084  159.9440 H   0  0  0  0  0  0  0  0  0  0  0  0  # atno 6907 bound_to 6896
  151.4051  133.3739  159.2745 H   0  0  0  0  0  0  0  0  0  0  0  0  # atno 6908 bound_to 6896
  150.9333  134.8768  159.7624 H   0  0  0  0  0  0  0  0  0  0  0  0  # atno 6909 bound_to 6896
  144.9056  140.6828  143.5057 H   0  0  0  0  0  0  0  0  0  0  0  0  # atno 7974 bound_to 7965
  155.5433  140.0610  157.2865 H   0  0  0  0  0  0  0  0  0  0  0  0  # atno 8008 bound_to 7997
  154.4444  140.1915  156.0657 H   0  0  0  0  0  0  0  0  0  0  0  0  # atno 8009 bound_to 7997
  156.0569  140.3277  155.7419 H   0  0  0  0  0  0  0  0  0  0  0  0  # atno 8010 bound_to 7997
  139.8289  144.6696  150.9424 H   0  0  0  0  0  0  0  0  0  0  0  0  # atno 10167 bound_to 10162
  156.8535  130.5562  149.5668 H   0  0  0  0  0  0  0  0  0  0  0  0  # atno 10718 bound_to 10713
  154.8699  135.3697  154.4931 H   0  0  0  0  0  0  0  0  0  0  0  0  # atno 10763 bound_to 10752
  153.5576  135.7023  153.5567 H   0  0  0  0  0  0  0  0  0  0  0  0  # atno 10764 bound_to 10752
  153.3657  135.4034  155.1715 H   0  0  0  0  0  0  0  0  0  0  0  0  # atno 10765 bound_to 10752
  139.9281  134.9641  156.8153 H   0  0  0  0  0  0  0  0  0  0  0  0  # atno 11005 bound_to 11000
  145.3542  139.1698  143.4418 LP  0  0  0  0  0  0  0  0  0  0  0  0  # atno 17320 bound_to 7965
  146.3131  140.3597  142.8664 LP  0  0  0  0  0  0  0  0  0  0  0  0  # atno 17321 bound_to 7965
  140.7808  143.4020  151.1134 LP  0  0  0  0  0  0  0  0  0  0  0  0  # atno 17342 bound_to 10162
  139.7675  143.8544  152.3113 LP  0  0  0  0  0  0  0  0  0  0  0  0  # atno 17343 bound_to 10162
  156.0815  130.5824  150.9572 LP  0  0  0  0  0  0  0  0  0  0  0  0  # atno 17370 bound_to 10713
  157.6290  131.0923  150.8478 LP  0  0  0  0  0  0  0  0  0  0  0  0  # atno 17371 bound_to 10713
  140.6278  133.9934  155.7648 LP  0  0  0  0  0  0  0  0  0  0  0  0  # atno 17394 bound_to 11000
  141.0852  134.0001  157.3324 LP  0  0  0  0  0  0  0  0  0  0  0  0  # atno 17395 bound_to 11000

$$$$
