AV-unprocessed.smi:772|AV-procd|sdf|3685|dock5
  -GOLD-   22720 1103D 1   1.00000     0.00000
 Structure written by MMmdl.
 46 47  0  0  0  0  0  0  0  0  1 V2000
  152.7376  143.7182  162.3866 C   0  0  0  0  0  0  0  0  0  0  0  0
  152.2836  143.5108  160.9570 C   0  0  0  0  0  0  0  0  0  0  0  0
  151.6766  144.5575  160.2314 C   0  0  0  0  0  0  0  0  0  0  0  0
  151.2603  144.3039  158.9105 C   0  0  0  0  0  0  0  0  0  0  0  0
  151.4654  143.0191  158.3679 C   0  0  0  0  0  0  0  0  0  0  0  0
  150.9952  142.6848  156.9629 C   0  0  0  0  0  0  0  0  0  0  0  0
  150.2510  141.3387  156.8687 C   0  0  0  0  0  0  0  0  0  0  0  0
  148.9344  141.4812  156.2509 N   0  0  0  0  0  0  0  0  0  0  0  0
  147.7868  141.7543  156.8971 C   0  0  0  0  0  0  0  0  0  0  0  0
  147.7487  141.9597  158.1113 O   0  0  0  0  0  0  0  0  0  0  0  0
  146.6768  141.7251  156.1167 N   0  0  0  0  0  0  0  0  0  0  0  0
  146.6291  141.3322  154.6994 C   0  0  0  0  0  0  0  0  0  0  0  0
  146.6974  142.5967  153.8291 C   0  0  0  0  0  0  0  0  0  0  0  0
  145.2610  143.6724  154.1298 S   0  0  0  0  0  0  0  0  0  0  0  0
  145.2967  143.7575  155.9560 C   0  0  1  0  0  0  0  0  0  0  0  0
  144.1003  144.5560  156.5327 C   0  0  0  0  0  0  0  0  0  0  0  0
  143.8188  145.8797  155.7972 C   0  0  0  0  0  0  0  0  0  0  0  0
  144.2405  144.7882  158.0469 C   0  0  0  0  0  0  0  0  0  0  0  0
  145.4166  142.3378  156.5532 C   0  0  0  0  0  0  0  0  0  0  0  0
  152.0893  142.0446  159.1758 C   0  0  0  0  0  0  0  0  0  0  0  0
  152.4899  142.2779  160.4437 N   0  0  0  0  0  0  0  0  0  0  0  0
  152.6911  144.7708  162.6674 H   0  0  0  0  0  0  0  0  0  0  0  0
  153.7658  143.3785  162.5145 H   0  0  0  0  0  0  0  0  0  0  0  0
  152.1007  143.1544  163.0687 H   0  0  0  0  0  0  0  0  0  0  0  0
  151.5248  145.5300  160.6760 H   0  0  0  0  0  0  0  0  0  0  0  0
  150.7806  145.0782  158.3301 H   0  0  0  0  0  0  0  0  0  0  0  0
  150.3476  143.4881  156.6101 H   0  0  0  0  0  0  0  0  0  0  0  0
  151.8563  142.6744  156.2934 H   0  0  0  0  0  0  0  0  0  0  0  0
  150.8569  140.6143  156.3217 H   0  0  0  0  0  0  0  0  0  0  0  0
  150.1160  140.9251  157.8681 H   0  0  0  0  0  0  0  0  0  0  0  0
  148.8819  141.3148  155.2567 H   0  0  0  0  0  0  0  0  0  0  0  0
  147.4259  140.6441  154.4171 H   0  0  0  0  0  0  0  0  0  0  0  0
  145.7056  140.7886  154.4951 H   0  0  0  0  0  0  0  0  0  0  0  0
  147.6107  143.1550  154.0382 H   0  0  0  0  0  0  0  0  0  0  0  0
  146.7193  142.3309  152.7721 H   0  0  0  0  0  0  0  0  0  0  0  0
  146.2055  144.3000  156.2214 H   0  0  0  0  0  0  0  0  0  0  0  0
  143.2145  143.9324  156.4042 H   0  0  0  0  0  0  0  0  0  0  0  0
  144.6503  146.5788  155.8878 H   0  0  0  0  0  0  0  0  0  0  0  0
  142.9358  146.3697  156.2081 H   0  0  0  0  0  0  0  0  0  0  0  0
  143.6297  145.7201  154.7362 H   0  0  0  0  0  0  0  0  0  0  0  0
  145.0873  145.4338  158.2799 H   0  0  0  0  0  0  0  0  0  0  0  0
  144.3827  143.8470  158.5786 H   0  0  0  0  0  0  0  0  0  0  0  0
  143.3463  145.2608  158.4544 H   0  0  0  0  0  0  0  0  0  0  0  0
  144.5802  141.7134  156.2374 H   0  0  0  0  0  0  0  0  0  0  0  0
  145.3492  142.3772  157.6417 H   0  0  0  0  0  0  0  0  0  0  0  0
  152.2568  141.0452  158.8021 H   0  0  0  0  0  0  0  0  0  0  0  0
  1  2  1  0  0  0  0
  1 22  1  0  0  0  0
  1 23  1  0  0  0  0
  1 24  1  0  0  0  0
  2 21  1  0  0  0  0
  2  3  2  0  0  0  0
  3  4  1  0  0  0  0
  3 25  1  0  0  0  0
  4  5  2  0  0  0  0
  4 26  1  0  0  0  0
  5  6  1  0  0  0  0
  5 20  1  0  0  0  0
  6  7  1  0  0  0  0
  6 27  1  0  0  0  0
  6 28  1  0  0  0  0
  7  8  1  0  0  0  0
  7 29  1  0  0  0  0
  7 30  1  0  0  0  0
  8  9  1  0  0  0  0
  8 31  1  0  0  0  0
  9 10  2  0  0  0  0
  9 11  1  0  0  0  0
 11 19  1  0  0  0  0
 11 12  1  0  0  0  0
 12 13  1  0  0  0  0
 12 32  1  0  0  0  0
 12 33  1  0  0  0  0
 13 14  1  0  0  0  0
 13 34  1  0  0  0  0
 13 35  1  0  0  0  0
 14 15  1  0  0  0  0
 15 16  1  0  0  0  0
 15 19  1  0  0  0  0
 15 36  1  0  0  0  0
 16 17  1  0  0  0  0
 16 18  1  0  0  0  0
 16 37  1  0  0  0  0
 17 38  1  0  0  0  0
 17 39  1  0  0  0  0
 17 40  1  0  0  0  0
 18 41  1  0  0  0  0
 18 42  1  0  0  0  0
 18 43  1  0  0  0  0
 19 44  1  0  0  0  0
 19 45  1  0  0  0  0
 20 21  2  0  0  0  0
 20 46  1  0  0  0  0
M  END
> <s_m_source_file>
AV-unprocessed.smi

> <i_m_source_file_index>
772

> <i_lp_mmshare_version>
43012

> <i_f3d_flags>
0

> <s_epik_input>
W0NIM11jMVtjSF1bY0hdYyhbY0hdbjEpW0NIMl1bQ0gyXVtOSF1DKD1PKU4yW0NIMl1bQ0gyXVNbQ0BIXShbQ0gyXTIpW0NIXShbQ0gzXSlbQ0gzXQ==

> <s_epik_cmdline>
J2VwaWtfcHl0aG9uJywgJy1waCcsICc3LjAnLCAnLXRuJywgJzgnLCAnLW1hJywgJzIwMCcsICctbWV0YWxfYmluZGluZycsICctaW1hZScsICc8aW5maWxlLm1hZT4nLCAnLW9tYWUnLCAnPG91dGZpbGUubWFlPic=

> <r_epik_Ionization_Penalty>
0.0566916

> <r_epik_Ionization_Penalty_Charging>
0

> <r_epik_Ionization_Penalty_Neutral>
0.0566916

> <r_epik_State_Penalty>
0.0488669

> <r_epik_Charging_Adjusted_Penalty>
0.0488669

> <i_epik_Tot_Q>
0

> <i_epik_Tot_abs_Q>
0

> <r_epik_Metal_State_Penalty>
0.0445784

> <b_epik_Metal_Only>
0

> <s_lp_Force_Field>
OPLS_2005

> <r_lp_Energy>
25.3974

> <b_lp_Chiralities_Consistent>
1

> <s_lp_Variant>
AV-unprocessed.smi:772-1

> <Gold.Version>
5.8.1

> <Gold.Id.Protein>
6NUR|6NUR_protein|mol2

> <Gold.PLP.Fitness>
39.6160

> <Gold.PLP.PLP>
-41.3222

> <Gold.PLP.part.hbond>
-0.1717

> <Gold.PLP.part.metal>
0.0000

> <Gold.PLP.part.buried>
-7.5485

> <Gold.PLP.part.nonpolar>
-33.2692

> <Gold.PLP.part.repulsive>
0.1512

> <Gold.PLP.ligand.clash>
0.0000

> <Gold.PLP.ligand.torsion>
0.9027

> <Gold.PLP.Chemscore.Hbond>
0.0000

> <Gold.PLP.Chemscore.CHOScore>
0.0000

> <Gold.PLP.Chemscore.Metal>
0.0000

> <Gold.PLP.Chemscore.Internal.Correction>
0.0993

> <Gold.Rescore>
     Score         DG    S(hbond)    S(metal)    S(lipo)     H(rot)  DE(clash)    DE(int)     intcor
     14.85     -15.88       0.00        0.00     117.86       1.32       0.20       0.84       ----

> <Gold.Chemscore.Fitness>
14.8459

> <Gold.Chemscore.DG>
-15.8823

> <Gold.Chemscore.ZeroCoef>
-5.4800

> <Gold.Chemscore.Hbond>
0.0000

> <Gold.Chemscore.Metal>
0.0000

> <Gold.Chemscore.Lipo>
117.8623

> <Gold.Chemscore.Internal_Hbond>
0.0000

> <Gold.Chemscore.DEClash>
0.2001

> <Gold.Chemscore.DEInternal>
0.8363

> <Gold.Chemscore.Rot>
1.3233

> <Gold.Chemscore.Internal.Correction>
   9.000000E+99

> <Gold.Chemscore.Hbond.Weighted>
-0.0000

> <Gold.Chemscore.Metal.Weighted>
-0.0000

> <Gold.Chemscore.Lipo.Weighted>
-13.7899

> <Gold.Chemscore.Internal_Hbond.Weighted>
0.0000

> <Gold.Chemscore.DEClash.Weighted>
0.2001

> <Gold.Chemscore.DEInternal.Weighted>
0.8363

> <Gold.Chemscore.Rot.Weighted>
3.3876

> <Gold.Chemscore.Internal.Correction.Weighted>
   9.000000E+99

> <Gold.Protein.RotatedTorsions>
[ 6907 6896 6895 6894 ] final -131.07 input  -60.11 | X-H torsion
[ 7974 7965 7964 7962 ] final -140.93 input  175.53 | X-H torsion
[ 8008 7997 7996 7995 ] final   69.58 input   59.86 | X-H torsion
[ 10167 10162 10161 10158 ] final -148.66 input  -65.29 | X-H torsion
[ 10718 10713 10712 10709 ] final   19.51 input   66.30 | X-H torsion
[ 10763 10752 10751 10750 ] final  148.31 input  -60.55 | X-H torsion
[ 11005 11000 10999 10996 ] final  -91.34 input  -57.11 | X-H torsion

> <Gold.Protein.ActiveResidues>
 VAL166  LYS551  ARG553  GLY616  TRP617  ASP618  TYR619  PRO620  LYS621  CYS622 
 ASP623  PHE694  ASN695  SER759  ASP760  ASP761  ALA762  ILE779  LEU786  VAL792 
 PHE793  MET794  SER795  GLU796  ALA797  LYS798  CYS799  TRP800  GLU811  SER814 

> <Gold.Protein.RotatedAtoms>
  150.9468  133.6594  159.2779 H   0  0  0  0  0  0  0  0  0  0  0  0  # atno 6907 bound_to 6896
  151.3963  135.0963  159.9552 H   0  0  0  0  0  0  0  0  0  0  0  0  # atno 6908 bound_to 6896
  152.5093  133.8972  159.7478 H   0  0  0  0  0  0  0  0  0  0  0  0  # atno 6909 bound_to 6896
  144.8559  140.6141  143.5360 H   0  0  0  0  0  0  0  0  0  0  0  0  # atno 7974 bound_to 7965
  155.7258  140.3492  155.5036 H   0  0  0  0  0  0  0  0  0  0  0  0  # atno 8008 bound_to 7997
  155.9228  140.1070  157.1215 H   0  0  0  0  0  0  0  0  0  0  0  0  # atno 8009 bound_to 7997
  154.4072  140.1246  156.4688 H   0  0  0  0  0  0  0  0  0  0  0  0  # atno 8010 bound_to 7997
  139.7512  143.8516  152.2587 H   0  0  0  0  0  0  0  0  0  0  0  0  # atno 10167 bound_to 10162
  157.1115  130.6510  149.5898 H   0  0  0  0  0  0  0  0  0  0  0  0  # atno 10718 bound_to 10713
  154.0527  135.2880  155.3338 H   0  0  0  0  0  0  0  0  0  0  0  0  # atno 10763 bound_to 10752
  154.6859  135.5245  153.8328 H   0  0  0  0  0  0  0  0  0  0  0  0  # atno 10764 bound_to 10752
  153.0554  135.6593  154.0722 H   0  0  0  0  0  0  0  0  0  0  0  0  # atno 10765 bound_to 10752
  141.1547  133.7749  156.9865 H   0  0  0  0  0  0  0  0  0  0  0  0  # atno 11005 bound_to 11000
  145.4407  139.1536  143.3972 LP  0  0  0  0  0  0  0  0  0  0  0  0  # atno 17320 bound_to 7965
  146.2822  140.4529  142.8772 LP  0  0  0  0  0  0  0  0  0  0  0  0  # atno 17321 bound_to 7965
  139.8494  144.7171  150.9232 LP  0  0  0  0  0  0  0  0  0  0  0  0  # atno 17342 bound_to 10162
  140.7798  143.3912  151.1307 LP  0  0  0  0  0  0  0  0  0  0  0  0  # atno 17343 bound_to 10162
  155.9849  130.4877  150.7007 LP  0  0  0  0  0  0  0  0  0  0  0  0  # atno 17370 bound_to 10713
  157.4555  131.0877  151.0801 LP  0  0  0  0  0  0  0  0  0  0  0  0  # atno 17371 bound_to 10713
  140.1031  134.9523  157.1953 LP  0  0  0  0  0  0  0  0  0  0  0  0  # atno 17394 bound_to 11000
  140.3292  134.2829  155.7231 LP  0  0  0  0  0  0  0  0  0  0  0  0  # atno 17395 bound_to 11000

$$$$
