AV-unprocessed.smi:581|AV-procd|sdf|2992|dock6
  -GOLD-   2262023493D 1   1.00000     0.00000
 Structure written by MMmdl.
 35 36  0  0  0  0  0  0  0  0  2 V2000
  152.2670  138.5652  159.0846 C   0  0  0  0  0  0  0  0  0  0  0  0
  152.9368  139.6670  159.8877 C   0  0  0  0  0  0  0  0  0  0  0  0
  152.5559  140.9449  159.5224 N   0  0  0  0  0  0  0  0  0  0  0  0
  153.1115  142.0334  160.1812 C   0  0  0  0  0  0  0  0  0  0  0  0
  152.6404  143.2696  159.7446 N   0  0  0  0  0  0  0  0  0  0  0  0
  152.0987  143.4110  158.3941 C   0  0  0  0  0  0  0  0  0  0  0  0
  152.0861  144.8837  157.9511 C   0  0  0  0  0  0  0  0  0  0  0  0
  151.3593  145.6605  158.8945 O   0  0  0  0  0  0  0  0  0  0  0  0
  151.9574  145.6082  160.1832 C   0  0  0  0  0  0  0  0  0  0  0  0
  151.9672  144.1567  160.6920 C   0  0  0  0  0  0  0  0  0  0  0  0
  153.9910  141.9150  161.1328 N   0  0  0  0  0  0  0  0  0  0  0  0
  154.4265  140.6456  161.5424 C   0  0  0  0  0  0  0  0  0  0  0  0
  155.2767  140.5405  162.4250 O   0  0  0  0  0  0  0  0  0  0  0  0
  153.8375  139.4603  160.8792 C   0  0  0  0  0  0  0  0  0  0  0  0
  154.3010  138.0631  161.3047 C   0  0  0  0  0  0  0  0  0  0  0  0
  154.8007  137.1664  160.1492 C   0  0  0  0  0  0  0  0  0  0  0  0
  154.9686  135.7042  160.5688 C   0  0  0  0  0  0  0  0  0  0  0  0
  154.2996  134.8518  159.9444 O   0  0  0  0  0  0  0  0  0  0  0  0
  155.7624  135.4665  161.5051 O   0  5  0  0  0  0  0  0  0  0  0  0
  151.8698  141.0411  158.7886 H   0  0  0  0  0  0  0  0  0  0  0  0
  151.6180  137.9655  159.7218 H   0  0  0  0  0  0  0  0  0  0  0  0
  153.0114  137.9115  158.6299 H   0  0  0  0  0  0  0  0  0  0  0  0
  151.6527  138.9741  158.2814 H   0  0  0  0  0  0  0  0  0  0  0  0
  151.0858  143.0067  158.3731 H   0  0  0  0  0  0  0  0  0  0  0  0
  152.6906  142.8266  157.6880 H   0  0  0  0  0  0  0  0  0  0  0  0
  153.1025  145.2683  157.8510 H   0  0  0  0  0  0  0  0  0  0  0  0
  151.6123  144.9777  156.9739 H   0  0  0  0  0  0  0  0  0  0  0  0
  152.9699  146.0131  160.1453 H   0  0  0  0  0  0  0  0  0  0  0  0
  151.3873  146.2404  160.8640 H   0  0  0  0  0  0  0  0  0  0  0  0
  152.4480  144.1224  161.6703 H   0  0  0  0  0  0  0  0  0  0  0  0
  150.9438  143.8063  160.8332 H   0  0  0  0  0  0  0  0  0  0  0  0
  153.5105  137.5462  161.8502 H   0  0  0  0  0  0  0  0  0  0  0  0
  155.1041  138.1737  162.0326 H   0  0  0  0  0  0  0  0  0  0  0  0
  154.1218  137.2188  159.2989 H   0  0  0  0  0  0  0  0  0  0  0  0
  155.7619  137.5356  159.7905 H   0  0  0  0  0  0  0  0  0  0  0  0
  1 21  1  0  0  0  0
  1 22  1  0  0  0  0
  1 23  1  0  0  0  0
  1  2  1  0  0  0  0
  2 14  2  0  0  0  0
  2  3  1  0  0  0  0
  3 20  1  0  0  0  0
  3  4  1  0  0  0  0
  4  5  1  0  0  0  0
  4 11  2  0  0  0  0
  5 10  1  0  0  0  0
  5  6  1  0  0  0  0
  6  7  1  0  0  0  0
  6 24  1  0  0  0  0
  6 25  1  0  0  0  0
  7  8  1  0  0  0  0
  7 26  1  0  0  0  0
  7 27  1  0  0  0  0
  8  9  1  0  0  0  0
  9 10  1  0  0  0  0
  9 28  1  0  0  0  0
  9 29  1  0  0  0  0
 10 30  1  0  0  0  0
 10 31  1  0  0  0  0
 11 12  1  0  0  0  0
 12 13  2  0  0  0  0
 12 14  1  0  0  0  0
 14 15  1  0  0  0  0
 15 16  1  0  0  0  0
 15 32  1  0  0  0  0
 15 33  1  0  0  0  0
 16 17  1  0  0  0  0
 16 34  1  0  0  0  0
 16 35  1  0  0  0  0
 17 18  2  0  0  0  0
 17 19  1  0  0  0  0
M  CHG  1  19  -1
M  END
> <s_m_source_file>
AV-unprocessed.smi

> <i_m_source_file_index>
581

> <i_lp_mmshare_version>
43012

> <i_f3d_flags>
0

> <s_epik_input>
W0NIMl0xW0NIMl1PW0NIMl1bQ0gyXU4xYyhuYzJbQ0gzXSlbbkhdYyg9TyljMltDSDJdW0NIMl1DKD1PKVtPSF0=

> <s_epik_cmdline>
J2VwaWtfcHl0aG9uJywgJy1waCcsICc3LjAnLCAnLXRuJywgJzgnLCAnLW1hJywgJzIwMCcsICctbWV0YWxfYmluZGluZycsICctaW1hZScsICc8aW5maWxlLm1hZT4nLCAnLW9tYWUnLCAnPG91dGZpbGUubWFlPic=

> <r_lp_tautomer_probability>
0.108306

> <r_epik_Ionization_Penalty>
0.0702858

> <r_epik_Ionization_Penalty_Charging>
0.050334

> <r_epik_Ionization_Penalty_Neutral>
0.0199519

> <r_epik_State_Penalty>
1.38976

> <r_epik_Charging_Adjusted_Penalty>
1.44009

> <i_epik_Tot_Q>
-1

> <i_epik_Tot_abs_Q>
1

> <r_epik_Metal_State_Penalty>
1.61644

> <b_epik_Metal_Only>
0

> <s_lp_Force_Field>
OPLS_2005

> <r_lp_Energy>
27.984

> <b_lp_Chiralities_Consistent>
1

> <s_lp_Variant>
AV-unprocessed.smi:581-2

> <Gold.Version>
5.8.1

> <Gold.Id.Protein>
6NUR|6NUR_protein|mol2

> <Gold.PLP.Fitness>
43.0811

> <Gold.PLP.PLP>
-38.2938

> <Gold.PLP.part.hbond>
-3.5076

> <Gold.PLP.part.metal>
0.0000

> <Gold.PLP.part.buried>
-4.5400

> <Gold.PLP.part.nonpolar>
-29.5990

> <Gold.PLP.part.repulsive>
0.2725

> <Gold.PLP.ligand.clash>
0.0000

> <Gold.PLP.ligand.torsion>
0.7771

> <Gold.PLP.Chemscore.Hbond>
2.0000

> <Gold.PLP.Chemscore.CHOScore>
0.0000

> <Gold.PLP.Chemscore.Metal>
0.0000

> <Gold.Chemscore.Hbonds>
donor molecule, donor type, donor heavy atom, donor atom, acceptor molecule, acceptor atom, score
      P1  H  6896  6909       L1    18  2.00

> <Gold.PLP.Chemscore.Internal.Correction>
0.3415

> <Gold.Rescore>
     Score         DG    S(hbond)    S(metal)    S(lipo)     H(rot)  DE(clash)    DE(int)     intcor
     12.44     -13.29       0.99        0.00      79.69       1.89       0.15       0.69       ----

> <Gold.Chemscore.Fitness>
12.4388

> <Gold.Chemscore.DG>
-13.2868

> <Gold.Chemscore.ZeroCoef>
-5.4800

> <Gold.Chemscore.Hbond>
0.9936

> <Gold.Chemscore.Metal>
0.0000

> <Gold.Chemscore.Lipo>
79.6924

> <Gold.Chemscore.Internal_Hbond>
0.0000

> <Gold.Chemscore.DEClash>
0.1545

> <Gold.Chemscore.DEInternal>
0.6935

> <Gold.Chemscore.Rot>
1.8890

> <Gold.Chemscore.Internal.Correction>
   9.000000E+99

> <Gold.Chemscore.Hbonds>
donor molecule, donor type, donor heavy atom, donor atom, acceptor molecule, acceptor atom, score
      P1  H  6896  6909       L1    18  1.00

> <Gold.Chemscore.Hbond.Weighted>
-3.3185

> <Gold.Chemscore.Metal.Weighted>
-0.0000

> <Gold.Chemscore.Lipo.Weighted>
-9.3240

> <Gold.Chemscore.Internal_Hbond.Weighted>
0.0000

> <Gold.Chemscore.DEClash.Weighted>
0.1545

> <Gold.Chemscore.DEInternal.Weighted>
0.6935

> <Gold.Chemscore.Rot.Weighted>
4.8357

> <Gold.Chemscore.Internal.Correction.Weighted>
   9.000000E+99

> <Gold.Protein.RotatedTorsions>
[ 6907 6896 6895 6894 ] final -173.57 input  -60.11 | X-H torsion
[ 7974 7965 7964 7962 ] final  -91.15 input  175.53 | X-H torsion
[ 8008 7997 7996 7995 ] final -121.75 input   59.86 | X-H torsion
[ 10167 10162 10161 10158 ] final  -70.61 input  -65.29 | X-H torsion
[ 10718 10713 10712 10709 ] final -164.96 input   66.30 | X-H torsion
[ 10763 10752 10751 10750 ] final  -55.04 input  -60.55 | X-H torsion
[ 11005 11000 10999 10996 ] final  -28.78 input  -57.11 | X-H torsion

> <Gold.Protein.ActiveResidues>
 VAL166  LYS551  ARG553  GLY616  TRP617  ASP618  TYR619  PRO620  LYS621  CYS622 
 ASP623  PHE694  ASN695  SER759  ASP760  ASP761  ALA762  ILE779  LEU786  VAL792 
 PHE793  MET794  SER795  GLU796  ALA797  LYS798  CYS799  TRP800  GLU811  SER814 

> <Gold.Protein.RotatedAtoms>
  151.5583  133.3407  159.2966 H   0  0  0  0  0  0  0  0  0  0  0  0  # atno 6907 bound_to 6896
  150.8437  134.7742  159.6964 H   0  0  0  0  0  0  0  0  0  0  0  0  # atno 6908 bound_to 6896
  152.4500  134.5422  159.9894 H   0  0  0  0  0  0  0  0  0  0  0  0  # atno 6909 bound_to 6896
  145.4170  140.9549  143.2202 H   0  0  0  0  0  0  0  0  0  0  0  0  # atno 7974 bound_to 7965
  155.1531  140.0404  157.2825 H   0  0  0  0  0  0  0  0  0  0  0  0  # atno 8008 bound_to 7997
  154.6390  140.2542  155.7317 H   0  0  0  0  0  0  0  0  0  0  0  0  # atno 8009 bound_to 7997
  156.2523  140.2859  156.0775 H   0  0  0  0  0  0  0  0  0  0  0  0  # atno 8010 bound_to 7997
  140.5339  143.2319  151.7213 H   0  0  0  0  0  0  0  0  0  0  0  0  # atno 10167 bound_to 10162
  156.6466  130.8990  151.3006 H   0  0  0  0  0  0  0  0  0  0  0  0  # atno 10718 bound_to 10713
  154.1845  135.6438  153.5043 H   0  0  0  0  0  0  0  0  0  0  0  0  # atno 10763 bound_to 10752
  153.0051  135.5414  154.6480 H   0  0  0  0  0  0  0  0  0  0  0  0  # atno 10764 bound_to 10752
  154.5852  135.2929  155.0664 H   0  0  0  0  0  0  0  0  0  0  0  0  # atno 10765 bound_to 10752
  140.9239  133.7381  156.0839 H   0  0  0  0  0  0  0  0  0  0  0  0  # atno 11005 bound_to 11000
  144.8271  139.5692  143.6961 LP  0  0  0  0  0  0  0  0  0  0  0  0  # atno 17320 bound_to 7965
  146.2676  139.6557  142.9318 LP  0  0  0  0  0  0  0  0  0  0  0  0  # atno 17321 bound_to 7965
  139.4964  144.4073  152.0118 LP  0  0  0  0  0  0  0  0  0  0  0  0  # atno 17342 bound_to 10162
  140.3177  144.3465  150.6017 LP  0  0  0  0  0  0  0  0  0  0  0  0  # atno 17343 bound_to 10162
  157.7154  130.9491  150.1237 LP  0  0  0  0  0  0  0  0  0  0  0  0  # atno 17370 bound_to 10713
  156.2117  130.3667  149.8662 LP  0  0  0  0  0  0  0  0  0  0  0  0  # atno 17371 bound_to 10713
  140.7952  134.3572  157.5454 LP  0  0  0  0  0  0  0  0  0  0  0  0  # atno 17394 bound_to 11000
  139.8781  134.9164  156.3155 LP  0  0  0  0  0  0  0  0  0  0  0  0  # atno 17395 bound_to 11000

$$$$
