AV-unprocessed.smi:3348|AV-procd|sdf|12920|dock3
  -GOLD-   2272019343D 1   1.00000     0.00000
 Structure written by MMmdl.
 47 48  0  0  0  0  0  0  0  0  2 V2000
  144.3302  135.9051  152.5869 C   0  0  0  0  0  0  0  0  0  0  0  0
  145.6323  135.7488  151.7906 C   0  0  1  0  0  0  0  0  0  0  0  0
  145.3773  135.0510  150.4394 C   0  0  0  0  0  0  0  0  0  0  0  0
  145.4429  133.6034  150.5383 N   0  0  0  0  0  0  0  0  0  0  0  0
  144.4088  132.6927  150.4840 C   0  0  0  0  0  0  0  0  0  0  0  0
  144.9549  131.4500  150.6323 C   0  0  0  0  0  0  0  0  0  0  0  0
  146.3477  131.7058  150.7706 C   0  0  0  0  0  0  0  0  0  0  0  0
  146.6368  132.9960  150.7155 N   0  0  0  0  0  0  0  0  0  0  0  0
  146.2486  137.0786  151.5855 N   0  3  0  0  0  0  0  0  0  0  0  0
  146.0843  138.0194  152.7125 C   0  0  0  0  0  0  0  0  0  0  0  0
  147.2451  139.0157  152.7637 C   0  0  0  0  0  0  0  0  0  0  0  0
  146.9951  139.9501  153.8021 O   0  0  0  0  0  0  0  0  0  0  0  0
  147.8398  141.0958  153.7769 C   0  0  2  0  0  0  0  0  0  0  0  0
  149.1910  140.6962  154.3984 C   0  0  0  0  0  0  0  0  0  0  0  0
  149.0604  140.3654  155.8947 C   0  0  0  0  0  0  0  0  0  0  0  0
  148.4177  141.5266  156.6675 C   0  0  0  0  0  0  0  0  0  0  0  0
  147.0607  141.9171  156.0607 C   0  0  0  0  0  0  0  0  0  0  0  0
  147.1872  142.2581  154.5625 C   0  0  2  0  0  0  0  0  0  0  0  0
  145.8414  142.6957  153.9643 C   0  0  0  0  0  0  0  0  0  0  0  0
  143.8690  134.9361  152.7797 H   0  0  0  0  0  0  0  0  0  0  0  0
  143.6050  136.5168  152.0488 H   0  0  0  0  0  0  0  0  0  0  0  0
  144.5148  136.3783  153.5519 H   0  0  0  0  0  0  0  0  0  0  0  0
  146.3041  135.1233  152.3817 H   0  0  0  0  0  0  0  0  0  0  0  0
  144.3883  135.3159  150.0631 H   0  0  0  0  0  0  0  0  0  0  0  0
  146.0938  135.3882  149.6883 H   0  0  0  0  0  0  0  0  0  0  0  0
  143.3825  133.0008  150.3471 H   0  0  0  0  0  0  0  0  0  0  0  0
  144.4383  130.5018  150.6393 H   0  0  0  0  0  0  0  0  0  0  0  0
  147.1512  130.9975  150.9091 H   0  0  0  0  0  0  0  0  0  0  0  0
  147.2365  136.9443  151.4215 H   0  0  0  0  0  0  0  0  0  0  0  0
  145.1343  138.5467  152.6179 H   0  0  0  0  0  0  0  0  0  0  0  0
  146.0511  137.4559  153.6458 H   0  0  0  0  0  0  0  0  0  0  0  0
  148.1773  138.4872  152.9680 H   0  0  0  0  0  0  0  0  0  0  0  0
  147.3565  139.5170  151.8013 H   0  0  0  0  0  0  0  0  0  0  0  0
  148.0261  141.4185  152.7505 H   0  0  0  0  0  0  0  0  0  0  0  0
  149.6098  139.8432  153.8636 H   0  0  0  0  0  0  0  0  0  0  0  0
  149.9014  141.5143  154.2727 H   0  0  0  0  0  0  0  0  0  0  0  0
  148.4585  139.4646  156.0215 H   0  0  0  0  0  0  0  0  0  0  0  0
  150.0422  140.1406  156.3119 H   0  0  0  0  0  0  0  0  0  0  0  0
  148.2906  141.2507  157.7146 H   0  0  0  0  0  0  0  0  0  0  0  0
  149.0861  142.3884  156.6539 H   0  0  0  0  0  0  0  0  0  0  0  0
  146.3507  141.1002  156.1973 H   0  0  0  0  0  0  0  0  0  0  0  0
  146.6542  142.7712  156.6034 H   0  0  0  0  0  0  0  0  0  0  0  0
  147.8580  143.1151  154.4822 H   0  0  0  0  0  0  0  0  0  0  0  0
  145.0950  141.9044  154.0363 H   0  0  0  0  0  0  0  0  0  0  0  0
  145.9471  142.9641  152.9129 H   0  0  0  0  0  0  0  0  0  0  0  0
  145.4474  143.5676  154.4869 H   0  0  0  0  0  0  0  0  0  0  0  0
  145.8417  137.4997  150.7623 H   0  0  0  0  0  0  0  0  0  0  0  0
  1  2  1  0  0  0  0
  1 20  1  0  0  0  0
  1 21  1  0  0  0  0
  1 22  1  0  0  0  0
  2  3  1  0  0  0  0
  2  9  1  0  0  0  0
  2 23  1  0  0  0  0
  3  4  1  0  0  0  0
  3 24  1  0  0  0  0
  3 25  1  0  0  0  0
  4  8  1  0  0  0  0
  4  5  1  0  0  0  0
  5  6  2  0  0  0  0
  5 26  1  0  0  0  0
  6  7  1  0  0  0  0
  6 27  1  0  0  0  0
  7  8  2  0  0  0  0
  7 28  1  0  0  0  0
  9 10  1  0  0  0  0
  9 29  1  0  0  0  0
  9 47  1  0  0  0  0
 10 11  1  0  0  0  0
 10 30  1  0  0  0  0
 10 31  1  0  0  0  0
 11 12  1  0  0  0  0
 11 32  1  0  0  0  0
 11 33  1  0  0  0  0
 12 13  1  0  0  0  0
 13 18  1  0  0  0  0
 13 14  1  0  0  0  0
 13 34  1  0  0  0  0
 14 15  1  0  0  0  0
 14 35  1  0  0  0  0
 14 36  1  0  0  0  0
 15 16  1  0  0  0  0
 15 37  1  0  0  0  0
 15 38  1  0  0  0  0
 16 17  1  0  0  0  0
 16 39  1  0  0  0  0
 16 40  1  0  0  0  0
 17 18  1  0  0  0  0
 17 41  1  0  0  0  0
 17 42  1  0  0  0  0
 18 19  1  0  0  0  0
 18 43  1  0  0  0  0
 19 44  1  0  0  0  0
 19 45  1  0  0  0  0
 19 46  1  0  0  0  0
M  CHG  1   9   1
M  END
> <s_m_source_file>
AV-unprocessed.smi

> <i_m_source_file_index>
3348

> <i_lp_mmshare_version>
43012

> <i_f3d_flags>
0

> <s_epik_input>
bjFbY0hdW2NIXVtjSF1uMVtDSDJdW0NAQEhdKFtDSDNdKVtOSF1bQ0gyXVtDSDJdT1tDQEBIXTJbQ0gyXVtDSDJdW0NIMl1bQ0gyXVtDQEhdMltDSDNd

> <s_epik_cmdline>
J2VwaWtfcHl0aG9uJywgJy1waCcsICc3LjAnLCAnLXRuJywgJzgnLCAnLW1hJywgJzIwMCcsICctbWV0YWxfYmluZGluZycsICctaW1hZScsICc8aW5maWxlLm1hZT4nLCAnLW9tYWUnLCAnPG91dGZpbGUubWFlPic=

> <r_lp_tautomer_probability>
1

> <r_epik_Ionization_Penalty>
0.00925088

> <r_epik_Ionization_Penalty_Charging>
0.00924645

> <r_epik_Ionization_Penalty_Neutral>
4.42413e-06

> <r_epik_State_Penalty>
0.0070118

> <r_epik_Charging_Adjusted_Penalty>
0.0162583

> <i_epik_Tot_Q>
1

> <i_epik_Tot_abs_Q>
1

> <r_epik_Metal_State_Penalty>
0.00701222

> <b_epik_Metal_Only>
0

> <s_lp_Force_Field>
OPLS_2005

> <r_lp_Energy>
18.0188

> <b_lp_Chiralities_Consistent>
1

> <s_lp_Variant>
AV-unprocessed.smi:3348-6

> <Gold.Version>
5.8.1

> <Gold.Id.Protein>
6NUR|6NUR_protein|mol2

> <Gold.PLP.Fitness>
48.9396

> <Gold.PLP.PLP>
-38.3604

> <Gold.PLP.part.hbond>
-1.4682

> <Gold.PLP.part.metal>
0.0000

> <Gold.PLP.part.buried>
-3.0639

> <Gold.PLP.part.nonpolar>
-34.5717

> <Gold.PLP.part.repulsive>
0.4055

> <Gold.PLP.ligand.clash>
0.0011

> <Gold.PLP.ligand.torsion>
1.1318

> <Gold.PLP.Chemscore.Hbond>
2.2641

> <Gold.PLP.Chemscore.CHOScore>
1.9882

> <Gold.PLP.Chemscore.Metal>
0.0000

> <Gold.Chemscore.Hbonds>
donor molecule, donor type, donor heavy atom, donor atom, acceptor molecule, acceptor atom, score
      L1  H     9    29       P1  7948  2.00
      L1  C     5    26       P1 10186  0.13
      L1  C     7    28       P1 10747  0.76

> <Gold.PLP.Chemscore.Internal.Correction>
0.0870

> <Gold.Rescore>
     Score         DG    S(hbond)    S(metal)    S(lipo)     H(rot)  DE(clash)    DE(int)     intcor
     15.04     -16.59       1.27        0.00      98.32       1.82       0.59       0.96       ----

> <Gold.Chemscore.Fitness>
15.0384

> <Gold.Chemscore.DG>
-16.5908

> <Gold.Chemscore.ZeroCoef>
-5.4800

> <Gold.Chemscore.Hbond>
1.2744

> <Gold.Chemscore.Metal>
0.0000

> <Gold.Chemscore.Lipo>
98.3245

> <Gold.Chemscore.Internal_Hbond>
0.0000

> <Gold.Chemscore.DEClash>
0.5911

> <Gold.Chemscore.DEInternal>
0.9612

> <Gold.Chemscore.Rot>
1.8163

> <Gold.Chemscore.Internal.Correction>
   9.000000E+99

> <Gold.Chemscore.Hbonds>
donor molecule, donor type, donor heavy atom, donor atom, acceptor molecule, acceptor atom, score
      L1  H     9    29       P1  7948  0.98
      L1  H     9    47       P1 10171  0.06

> <Gold.Chemscore.Hbond.Weighted>
-4.2565

> <Gold.Chemscore.Metal.Weighted>
-0.0000

> <Gold.Chemscore.Lipo.Weighted>
-11.5040

> <Gold.Chemscore.Internal_Hbond.Weighted>
0.0000

> <Gold.Chemscore.DEClash.Weighted>
0.5911

> <Gold.Chemscore.DEInternal.Weighted>
0.9612

> <Gold.Chemscore.Rot.Weighted>
4.6497

> <Gold.Chemscore.Internal.Correction.Weighted>
   9.000000E+99

> <Gold.Protein.RotatedTorsions>
[ 6907 6896 6895 6894 ] final    6.28 input  -60.11 | X-H torsion
[ 7974 7965 7964 7962 ] final  163.80 input  175.53 | X-H torsion
[ 8008 7997 7996 7995 ] final -129.32 input   59.86 | X-H torsion
[ 10167 10162 10161 10158 ] final  -64.78 input  -65.29 | X-H torsion
[ 10718 10713 10712 10709 ] final  131.31 input   66.30 | X-H torsion
[ 10763 10752 10751 10750 ] final    7.37 input  -60.55 | X-H torsion
[ 11005 11000 10999 10996 ] final   62.73 input  -57.11 | X-H torsion

> <Gold.Protein.ActiveResidues>
 VAL166  LYS551  ARG553  GLY616  TRP617  ASP618  TYR619  PRO620  LYS621  CYS622 
 ASP623  PHE694  ASN695  SER759  ASP760  ASP761  ALA762  ILE779  LEU786  VAL792 
 PHE793  MET794  SER795  GLU796  ALA797  LYS798  CYS799  TRP800  GLU811  SER814 

> <Gold.Protein.RotatedAtoms>
  151.6711  135.0976  160.0197 H   0  0  0  0  0  0  0  0  0  0  0  0  # atno 6907 bound_to 6896
  152.3891  133.6648  159.6231 H   0  0  0  0  0  0  0  0  0  0  0  0  # atno 6908 bound_to 6896
  150.7810  133.8902  159.3352 H   0  0  0  0  0  0  0  0  0  0  0  0  # atno 6909 bound_to 6896
  144.7573  139.8235  143.6345 H   0  0  0  0  0  0  0  0  0  0  0  0  # atno 7974 bound_to 7965
  155.2772  140.0442  157.3012 H   0  0  0  0  0  0  0  0  0  0  0  0  # atno 8008 bound_to 7997
  154.5618  140.2348  155.8292 H   0  0  0  0  0  0  0  0  0  0  0  0  # atno 8009 bound_to 7997
  156.2053  140.3014  155.9621 H   0  0  0  0  0  0  0  0  0  0  0  0  # atno 8010 bound_to 7997
  140.5777  143.2323  151.6408 H   0  0  0  0  0  0  0  0  0  0  0  0  # atno 10167 bound_to 10162
  157.4979  131.1093  150.9467 H   0  0  0  0  0  0  0  0  0  0  0  0  # atno 10718 bound_to 10713
  153.2370  135.6899  153.7825 H   0  0  0  0  0  0  0  0  0  0  0  0  # atno 10763 bound_to 10752
  153.6968  135.3304  155.3216 H   0  0  0  0  0  0  0  0  0  0  0  0  # atno 10764 bound_to 10752
  154.8339  135.4558  154.1278 H   0  0  0  0  0  0  0  0  0  0  0  0  # atno 10765 bound_to 10752
  140.0072  134.6351  155.9836 H   0  0  0  0  0  0  0  0  0  0  0  0  # atno 11005 bound_to 11000
  146.1598  139.4708  142.9995 LP  0  0  0  0  0  0  0  0  0  0  0  0  # atno 17320 bound_to 7965
  145.6735  141.0210  143.1644 LP  0  0  0  0  0  0  0  0  0  0  0  0  # atno 17321 bound_to 7965
  139.5152  144.3387  152.0760 LP  0  0  0  0  0  0  0  0  0  0  0  0  # atno 17342 bound_to 10162
  140.2533  144.4146  150.6213 LP  0  0  0  0  0  0  0  0  0  0  0  0  # atno 17343 bound_to 10162
  157.0147  130.5650  149.5324 LP  0  0  0  0  0  0  0  0  0  0  0  0  # atno 17370 bound_to 10713
  156.0212  130.5306  150.8279 LP  0  0  0  0  0  0  0  0  0  0  0  0  # atno 17371 bound_to 10713
  141.1685  133.6537  156.4567 LP  0  0  0  0  0  0  0  0  0  0  0  0  # atno 17394 bound_to 11000
  140.4619  134.6833  157.5089 LP  0  0  0  0  0  0  0  0  0  0  0  0  # atno 17395 bound_to 11000

$$$$
