AV-unprocessed.smi:415|AV-procd|sdf|2520|dock1
  -GOLD-   2262022473D 1   1.00000     0.00000
 Structure written by MMmdl.
 53 54  0  0  0  0  0  0  0  0  1 V2000
  144.0551  136.1615  151.7772 C   0  0  0  0  0  0  0  0  0  0  0  0
  144.8074  136.7381  152.8297 O   0  0  0  0  0  0  0  0  0  0  0  0
  145.8864  135.9163  153.2427 C   0  0  0  0  0  0  0  0  0  0  0  0
  146.4183  136.3904  154.6054 C   0  0  0  0  0  0  0  0  0  0  0  0
  147.2903  137.5460  154.5050 N   0  0  0  0  0  0  0  0  0  0  0  0
  146.8492  138.7921  154.0690 C   0  0  0  0  0  0  0  0  0  0  0  0
  145.5184  138.9664  153.7338 N   0  0  0  0  0  0  0  0  0  0  0  0
  147.6915  139.8448  153.9750 C   0  0  0  0  0  0  0  0  0  0  0  0
  149.1004  139.7365  154.3258 C   0  0  0  0  0  0  0  0  0  0  0  0
  149.8908  140.6737  154.2142 O   0  0  0  0  0  0  0  0  0  0  0  0
  149.5202  138.4712  154.7963 N   0  0  0  0  0  0  0  0  0  0  0  0
  150.9457  138.2814  155.1561 C   0  0  0  0  0  0  0  0  0  0  0  0
  151.5209  139.3559  156.0966 C   0  0  0  0  0  0  0  0  0  0  0  0
  152.5944  139.8870  155.8155 O   0  0  0  0  0  0  0  0  0  0  0  0
  150.8116  139.6799  157.1908 N   0  0  0  0  0  0  0  0  0  0  0  0
  151.1491  140.7175  158.1606 C   0  0  2  0  0  0  0  0  0  0  0  0
  151.0646  142.1003  157.4864 C   0  0  0  0  0  0  0  0  0  0  0  0
  151.4555  143.2159  158.4598 C   0  0  0  0  0  0  0  0  0  0  0  0
  152.8614  142.9758  159.0202 C   0  0  0  0  0  0  0  0  0  0  0  0
  152.9770  141.6052  159.7175 C   0  0  2  0  0  0  0  0  0  0  0  0
  154.3993  141.4358  160.2825 C   0  0  0  0  0  0  0  0  0  0  0  0
  152.5568  140.4530  158.7609 C   0  0  1  0  0  0  0  0  0  0  0  0
  152.6164  139.0722  159.4525 C   0  0  0  0  0  0  0  0  0  0  0  0
  148.6410  137.3685  154.9006 C   0  0  0  0  0  0  0  0  0  0  0  0
  149.0561  136.2823  155.3133 O   0  0  0  0  0  0  0  0  0  0  0  0
  143.2402  136.8303  151.5007 H   0  0  0  0  0  0  0  0  0  0  0  0
  143.6201  135.2078  152.0791 H   0  0  0  0  0  0  0  0  0  0  0  0
  144.6737  136.0006  150.8933 H   0  0  0  0  0  0  0  0  0  0  0  0
  145.5403  134.8857  153.3298 H   0  0  0  0  0  0  0  0  0  0  0  0
  146.6834  135.9282  152.4977 H   0  0  0  0  0  0  0  0  0  0  0  0
  145.6170  136.6065  155.3136 H   0  0  0  0  0  0  0  0  0  0  0  0
  147.0069  135.6079  155.0837 H   0  0  0  0  0  0  0  0  0  0  0  0
  144.8497  138.2119  153.7955 H   0  0  0  0  0  0  0  0  0  0  0  0
  145.1658  139.8490  153.3927 H   0  0  0  0  0  0  0  0  0  0  0  0
  147.3189  140.7983  153.6284 H   0  0  0  0  0  0  0  0  0  0  0  0
  151.1114  137.3072  155.6178 H   0  0  0  0  0  0  0  0  0  0  0  0
  151.5650  138.2495  154.2582 H   0  0  0  0  0  0  0  0  0  0  0  0
  149.9435  139.1879  157.3442 H   0  0  0  0  0  0  0  0  0  0  0  0
  150.4236  140.6841  158.9760 H   0  0  0  0  0  0  0  0  0  0  0  0
  151.7213  142.1299  156.6156 H   0  0  0  0  0  0  0  0  0  0  0  0
  150.0544  142.2800  157.1173 H   0  0  0  0  0  0  0  0  0  0  0  0
  151.4155  144.1813  157.9548 H   0  0  0  0  0  0  0  0  0  0  0  0
  150.7346  143.2622  159.2769 H   0  0  0  0  0  0  0  0  0  0  0  0
  153.5904  143.0419  158.2114 H   0  0  0  0  0  0  0  0  0  0  0  0
  153.1082  143.7734  159.7219 H   0  0  0  0  0  0  0  0  0  0  0  0
  152.2881  141.6086  160.5637 H   0  0  0  0  0  0  0  0  0  0  0  0
  155.1342  141.3337  159.4835 H   0  0  0  0  0  0  0  0  0  0  0  0
  154.4801  140.5626  160.9287 H   0  0  0  0  0  0  0  0  0  0  0  0
  154.6855  142.2979  160.8857 H   0  0  0  0  0  0  0  0  0  0  0  0
  153.2702  140.4330  157.9350 H   0  0  0  0  0  0  0  0  0  0  0  0
  151.9571  139.0370  160.3201 H   0  0  0  0  0  0  0  0  0  0  0  0
  153.6239  138.8293  159.7872 H   0  0  0  0  0  0  0  0  0  0  0  0
  152.3205  138.2655  158.7819 H   0  0  0  0  0  0  0  0  0  0  0  0
  1  2  1  0  0  0  0
  1 26  1  0  0  0  0
  1 27  1  0  0  0  0
  1 28  1  0  0  0  0
  2  3  1  0  0  0  0
  3  4  1  0  0  0  0
  3 29  1  0  0  0  0
  3 30  1  0  0  0  0
  4  5  1  0  0  0  0
  4 31  1  0  0  0  0
  4 32  1  0  0  0  0
  5 24  1  0  0  0  0
  5  6  1  0  0  0  0
  6  7  1  0  0  0  0
  6  8  2  0  0  0  0
  7 33  1  0  0  0  0
  7 34  1  0  0  0  0
  8  9  1  0  0  0  0
  8 35  1  0  0  0  0
  9 10  2  0  0  0  0
  9 11  1  0  0  0  0
 11 12  1  0  0  0  0
 11 24  1  0  0  0  0
 12 13  1  0  0  0  0
 12 36  1  0  0  0  0
 12 37  1  0  0  0  0
 13 14  2  0  0  0  0
 13 15  1  0  0  0  0
 15 16  1  0  0  0  0
 15 38  1  0  0  0  0
 16 22  1  0  0  0  0
 16 17  1  0  0  0  0
 16 39  1  0  0  0  0
 17 18  1  0  0  0  0
 17 40  1  0  0  0  0
 17 41  1  0  0  0  0
 18 19  1  0  0  0  0
 18 42  1  0  0  0  0
 18 43  1  0  0  0  0
 19 20  1  0  0  0  0
 19 44  1  0  0  0  0
 19 45  1  0  0  0  0
 20 21  1  0  0  0  0
 20 22  1  0  0  0  0
 20 46  1  0  0  0  0
 21 47  1  0  0  0  0
 21 48  1  0  0  0  0
 21 49  1  0  0  0  0
 22 23  1  0  0  0  0
 22 50  1  0  0  0  0
 23 51  1  0  0  0  0
 23 52  1  0  0  0  0
 23 53  1  0  0  0  0
 24 25  2  0  0  0  0
M  END
> <s_m_source_file>
AV-unprocessed.smi

> <i_m_source_file_index>
415

> <i_lp_mmshare_version>
43012

> <i_f3d_flags>
0

> <s_epik_input>
W0NIM11PW0NIMl1bQ0gyXW4xYyhbTkgyXSlbY0hdYyg9TyluKGMxPU8pW0NIMl1DKD1PKVtOSF1bQ0BASF0yW0NIMl1bQ0gyXVtDSDJdW0NAQEhdKFtDSDNdKVtDQEhdMltDSDNd

> <s_epik_cmdline>
J2VwaWtfcHl0aG9uJywgJy1waCcsICc3LjAnLCAnLXRuJywgJzgnLCAnLW1hJywgJzIwMCcsICctbWV0YWxfYmluZGluZycsICctaW1hZScsICc8aW5maWxlLm1hZT4nLCAnLW9tYWUnLCAnPG91dGZpbGUubWFlPic=

> <r_lp_tautomer_probability>
1

> <r_epik_Ionization_Penalty>
8.6647e-06

> <r_epik_Ionization_Penalty_Charging>
1.81162e-08

> <r_epik_Ionization_Penalty_Neutral>
8.64658e-06

> <r_epik_State_Penalty>
-0

> <r_epik_Charging_Adjusted_Penalty>
1.81162e-08

> <i_epik_Tot_Q>
0

> <i_epik_Tot_abs_Q>
0

> <r_epik_Metal_State_Penalty>
-0

> <b_epik_Metal_Only>
0

> <s_lp_Force_Field>
OPLS_2005

> <r_lp_Energy>
21.9512

> <b_lp_Chiralities_Consistent>
1

> <s_lp_Variant>
AV-unprocessed.smi:415-3

> <Gold.Version>
5.8.1

> <Gold.Id.Protein>
6NUR|6NUR_protein|mol2

> <Gold.PLP.Fitness>
44.3332

> <Gold.PLP.PLP>
-37.2532

> <Gold.PLP.part.hbond>
-3.0000

> <Gold.PLP.part.metal>
0.0000

> <Gold.PLP.part.buried>
-5.1593

> <Gold.PLP.part.nonpolar>
-30.6948

> <Gold.PLP.part.repulsive>
0.9801

> <Gold.PLP.ligand.clash>
0.0000

> <Gold.PLP.ligand.torsion>
0.4200

> <Gold.PLP.Chemscore.Hbond>
2.6000

> <Gold.PLP.Chemscore.CHOScore>
0.0000

> <Gold.PLP.Chemscore.Metal>
0.0000

> <Gold.Chemscore.Hbonds>
donor molecule, donor type, donor heavy atom, donor atom, acceptor molecule, acceptor atom, score
      L1  H     7    34       P1 10175  0.75
      P1  H  7989  7998       L1    10  0.69
      P1  H  7997  8009       L1    14  1.00

> <Gold.PLP.Chemscore.Internal.Correction>
0.1198

> <Gold.Rescore>
     Score         DG    S(hbond)    S(metal)    S(lipo)     H(rot)  DE(clash)    DE(int)     intcor
     15.97     -18.80       2.65        0.00      87.65       2.26       0.19       2.64       ----

> <Gold.Chemscore.Fitness>
15.9734

> <Gold.Chemscore.DG>
-18.7994

> <Gold.Chemscore.ZeroCoef>
-5.4800

> <Gold.Chemscore.Hbond>
2.6533

> <Gold.Chemscore.Metal>
0.0000

> <Gold.Chemscore.Lipo>
87.6453

> <Gold.Chemscore.Internal_Hbond>
0.0000

> <Gold.Chemscore.DEClash>
0.1861

> <Gold.Chemscore.DEInternal>
2.6399

> <Gold.Chemscore.Rot>
2.2645

> <Gold.Chemscore.Internal.Correction>
   9.000000E+99

> <Gold.Chemscore.Hbonds>
donor molecule, donor type, donor heavy atom, donor atom, acceptor molecule, acceptor atom, score
      L1  H     7    34       P1 10175  0.76
      P1  H  7989  7998       L1    10  0.68
      P1  H  7997  8009       L1    14  1.00

> <Gold.Chemscore.Hbond.Weighted>
-8.8621

> <Gold.Chemscore.Metal.Weighted>
-0.0000

> <Gold.Chemscore.Lipo.Weighted>
-10.2545

> <Gold.Chemscore.Internal_Hbond.Weighted>
0.0000

> <Gold.Chemscore.DEClash.Weighted>
0.1861

> <Gold.Chemscore.DEInternal.Weighted>
2.6399

> <Gold.Chemscore.Rot.Weighted>
5.7972

> <Gold.Chemscore.Internal.Correction.Weighted>
   9.000000E+99

> <Gold.Protein.RotatedTorsions>
[ 6907 6896 6895 6894 ] final -160.98 input  -60.11 | X-H torsion
[ 7974 7965 7964 7962 ] final  -22.93 input  175.53 | X-H torsion
[ 8008 7997 7996 7995 ] final -161.23 input   59.86 | X-H torsion
[ 10167 10162 10161 10158 ] final   82.50 input  -65.29 | X-H torsion
[ 10718 10713 10712 10709 ] final   -0.68 input   66.30 | X-H torsion
[ 10763 10752 10751 10750 ] final   14.98 input  -60.55 | X-H torsion
[ 11005 11000 10999 10996 ] final  117.86 input  -57.11 | X-H torsion

> <Gold.Protein.ActiveResidues>
 VAL166  LYS551  ARG553  GLY616  TRP617  ASP618  TYR619  PRO620  LYS621  CYS622 
 ASP623  PHE694  ASN695  SER759  ASP760  ASP761  ALA762  ILE779  LEU786  VAL792 
 PHE793  MET794  SER795  GLU796  ALA797  LYS798  CYS799  TRP800  GLU811  SER814 

> <Gold.Protein.RotatedAtoms>
  151.3575  133.3902  159.2686 H   0  0  0  0  0  0  0  0  0  0  0  0  # atno 6907 bound_to 6896
  150.9752  134.9119  159.7822 H   0  0  0  0  0  0  0  0  0  0  0  0  # atno 6908 bound_to 6896
  152.5198  134.3538  159.9312 H   0  0  0  0  0  0  0  0  0  0  0  0  # atno 6909 bound_to 6896
  146.1647  140.4546  142.8557 H   0  0  0  0  0  0  0  0  0  0  0  0  # atno 7974 bound_to 7965
  155.7891  140.0876  157.2018 H   0  0  0  0  0  0  0  0  0  0  0  0  # atno 8008 bound_to 7997
  154.3986  140.1493  156.3200 H   0  0  0  0  0  0  0  0  0  0  0  0  # atno 8009 bound_to 7997
  155.8577  140.3431  155.5738 H   0  0  0  0  0  0  0  0  0  0  0  0  # atno 8010 bound_to 7997
  139.9281  144.6169  150.8372 H   0  0  0  0  0  0  0  0  0  0  0  0  # atno 10167 bound_to 10162
  156.8168  130.5443  149.5702 H   0  0  0  0  0  0  0  0  0  0  0  0  # atno 10718 bound_to 10713
  153.1569  135.6789  153.8798 H   0  0  0  0  0  0  0  0  0  0  0  0  # atno 10763 bound_to 10752
  153.8206  135.3130  155.3411 H   0  0  0  0  0  0  0  0  0  0  0  0  # atno 10764 bound_to 10752
  154.7904  135.4838  154.0128 H   0  0  0  0  0  0  0  0  0  0  0  0  # atno 10765 bound_to 10752
  139.9089  134.9614  156.7416 H   0  0  0  0  0  0  0  0  0  0  0  0  # atno 11005 bound_to 11000
  144.8075  140.6326  143.6437 LP  0  0  0  0  0  0  0  0  0  0  0  0  # atno 17320 bound_to 7965
  145.4499  139.1525  143.3924 LP  0  0  0  0  0  0  0  0  0  0  0  0  # atno 17321 bound_to 7965
  140.7644  143.3249  151.2538 LP  0  0  0  0  0  0  0  0  0  0  0  0  # atno 17342 bound_to 10162
  139.6805  143.9863  152.2805 LP  0  0  0  0  0  0  0  0  0  0  0  0  # atno 17343 bound_to 10162
  156.1012  130.5970  150.9896 LP  0  0  0  0  0  0  0  0  0  0  0  0  # atno 17370 bound_to 10713
  157.6477  131.0901  150.8118 LP  0  0  0  0  0  0  0  0  0  0  0  0  # atno 17371 bound_to 10713
  140.6845  133.9445  155.7930 LP  0  0  0  0  0  0  0  0  0  0  0  0  # atno 17394 bound_to 11000
  141.0486  134.0517  157.3812 LP  0  0  0  0  0  0  0  0  0  0  0  0  # atno 17395 bound_to 11000

$$$$
