#       Name:                AV-unprocessed.smi:1762
#       Creating user name   scv26
#       Creation time:       Fri Mar 27 08:36:11 2020


#       File generated by GOLD software.
#

@<TRIPOS>MOLECULE
AV-unprocessed.smi:1762
    58    59     1
SMALL
NO_CHARGES


@<TRIPOS>ATOM
      1 ****        -1.3777   3.4839  -1.7161 C.3            1 S1                 0.0000
      2 ****        -1.8211   2.6776  -0.4902 C.3            1 S1                 0.0000
      3 ****        -1.2998   1.2308  -0.5276 C.3            1 S1                 0.0000
      4 ****        -1.7889   0.4472   0.6444 N.4            1 S1                 1.0000
      5 ****        -1.2422  -0.9520   0.6880 C.3            1 S1                 0.0000
      6 ****         0.3032  -0.9360   0.7830 C.2            1 S1                 0.0000
      7 ****         0.8311  -0.3140   1.7115 O.2            1 S1                 0.0000
      8 ****         0.8707  -1.6157  -0.2519 N.pl3          1 S1                -1.0000
      9 ****         2.3130  -1.7319  -0.4596 C.3            1 S1                 0.0000
     10 ****         2.8453  -0.4951  -1.2205 C.3            1 S1                 0.0000
     11 ****         4.3392  -0.5407  -1.5241 C.ar           1 S1                 0.0000
     12 ****         4.8053  -1.0281  -2.7664 C.ar           1 S1                 0.0000
     13 ****         6.1924  -1.0425  -3.0084 C.ar           1 S1                 0.0000
     14 ****         7.0611  -0.5673  -2.0076 C.ar           1 S1                 0.0000
     15 ****         6.5013  -0.0936  -0.8047 C.ar           1 S1                 0.0000
     16 ****         5.1730  -0.0738  -0.5626 N.ar           1 S1                 0.0000
     17 ****        -1.8691  -1.8629   1.7986 C.3            1 S1                 0.0000
     18 ****        -1.7268  -1.3143   3.2339 C.3            1 S1                 0.0000
     19 ****        -1.3669  -3.3188   1.7374 C.3            1 S1                 0.0000
     20 ****        -3.2743   0.5390   0.7036 C.3            1 S1                 0.0000
     21 ****        -3.7460   2.0059   0.6908 C.3            1 S1                 0.0000
     22 ****        -5.2741   2.1210   0.6677 C.3            1 S1                 0.0000
     23 ****        -3.2411   2.6541  -0.4682 O.3            1 S1                 0.0000
     24 ****        -0.2906   3.5442  -1.7737 H              1 S1                 0.0000
     25 ****        -1.7647   4.5023  -1.6732 H              1 S1                 0.0000
     26 ****        -1.7370   3.0296  -2.6399 H              1 S1                 0.0000
     27 ****        -1.4520   3.1801   0.4058 H              1 S1                 0.0000
     28 ****        -1.6188   0.7398  -1.4487 H              1 S1                 0.0000
     29 ****        -0.2111   1.2685  -0.5540 H              1 S1                 0.0000
     30 ****        -1.5346  -1.4013  -0.2646 H              1 S1                 0.0000
     31 ****         2.8557  -1.8426   0.4802 H              1 S1                 0.0000
     32 ****         2.5468  -2.6267  -1.0369 H              1 S1                 0.0000
     33 ****         2.3051  -0.3819  -2.1618 H              1 S1                 0.0000
     34 ****         2.6391   0.4102  -0.6470 H              1 S1                 0.0000
     35 ****         4.1147  -1.3868  -3.5155 H              1 S1                 0.0000
     36 ****         6.5827  -1.4118  -3.9452 H              1 S1                 0.0000
     37 ****         8.1302  -0.5649  -2.1582 H              1 S1                 0.0000
     38 ****         7.1371   0.2812  -0.0163 H              1 S1                 0.0000
     39 ****        -2.9351  -1.9455   1.5910 H              1 S1                 0.0000
     40 ****        -0.6934  -1.3468   3.5789 H              1 S1                 0.0000
     41 ****        -2.3153  -1.9087   3.9332 H              1 S1                 0.0000
     42 ****        -2.0702  -0.2837   3.3165 H              1 S1                 0.0000
     43 ****        -0.3144  -3.4008   2.0107 H              1 S1                 0.0000
     44 ****        -1.4839  -3.7335   0.7358 H              1 S1                 0.0000
     45 ****        -1.9294  -3.9545   2.4218 H              1 S1                 0.0000
     46 ****        -3.7039  -0.0064  -0.1382 H              1 S1                 0.0000
     47 ****        -3.6609   0.0849   1.6138 H              1 S1                 0.0000
     48 ****        -3.3748   2.5184   1.5803 H              1 S1                 0.0000
     49 ****        -5.7175   1.6548   1.5478 H              1 S1                 0.0000
     50 ****        -5.6933   1.6369  -0.2148 H              1 S1                 0.0000
     51 ****        -5.5852   3.1657   0.6531 H              1 S1                 0.0000
     52 ****        -1.4351   0.9085   1.4703 H              1 S1                 0.0000
     53 ****         0.2620   0.1643   2.3802 LP             1 S1                 0.0000
     54 ****         1.8274  -0.2891   1.7939 LP             1 S1                 0.0000
     55 ****         0.2640  -2.0623  -0.9095 LP             1 S1                 0.0000
     56 ****         4.8141   0.2759   0.3027 LP             1 S1                 0.0000
     57 ****        -3.5683   2.1676  -1.2783 LP             1 S1                 0.0000
     58 ****        -3.5796   3.5949  -0.4850 LP             1 S1                 0.0000
@<TRIPOS>BOND
    1    1    2 1     
    2    1   24 1     
    3    1   25 1     
    4    1   26 1     
    5    2   23 1     
    6    2    3 1     
    7    2   27 1     
    8    3    4 1     
    9    3   28 1     
   10    3   29 1     
   11    4    5 1     
   12    4   20 1     
   13    4   52 1     
   14    5    6 1     
   15    5   17 1     
   16    5   30 1     
   17    6    7 2     
   18    6    8 1     
   19    8    9 1     
   20    9   10 1     
   21    9   31 1     
   22    9   32 1     
   23   10   11 1     
   24   10   33 1     
   25   10   34 1     
   26   11   16 ar    
   27   11   12 ar    
   28   12   13 ar    
   29   12   35 1     
   30   13   14 ar    
   31   13   36 1     
   32   14   15 ar    
   33   14   37 1     
   34   15   16 ar    
   35   15   38 1     
   36   17   18 1     
   37   17   19 1     
   38   17   39 1     
   39   18   40 1     
   40   18   41 1     
   41   18   42 1     
   42   19   43 1     
   43   19   44 1     
   44   19   45 1     
   45   20   21 1     
   46   20   46 1     
   47   20   47 1     
   48   21   22 1     
   49   21   23 1     
   50   21   48 1     
   51   22   49 1     
   52   22   50 1     
   53   22   51 1     
   54    7   53 1     
   55    7   54 1     
   56    8   55 1     
   57   16   56 1     
   58   23   57 1     
   59   23   58 1     
@<TRIPOS>SUBSTRUCTURE
      1 S1             1
@<TRIPOS>SET
LONE_PAIRS      STATIC     ATOMS    <user>   **** ""
6 53 54 55 56 57 58
DONOR_HYDROGENS      STATIC     ATOMS    <user>   **** ""
1 52
ATOM$BLUE        STATIC     ATOMS    COLORGROUP SYSTEM
6 53 54 55 56 57 58
ATOM$RED        STATIC     ATOMS    COLORGROUP SYSTEM
1 52
