AV-unprocessed.smi:3202|AV-procd|sdf|12247|dock8
  -GOLD-   2272018 83D 1   1.00000     0.00000
 Structure written by MMmdl.
 43 44  0  0  0  0  0  0  0  0  2 V2000
  153.8782  138.8376  153.8546 C   0  0  0  0  0  0  0  0  0  0  0  0
  153.0606  139.2266  155.0510 C   0  0  0  0  0  0  0  0  0  0  0  0
  151.7000  139.6514  155.0883 C   0  0  0  0  0  0  0  0  0  0  0  0
  151.4538  139.8807  156.4128 C   0  0  0  0  0  0  0  0  0  0  0  0
  150.2224  140.3508  157.1178 C   0  0  0  0  0  0  0  0  0  0  0  0
  149.6624  141.6842  156.5844 C   0  0  2  0  0  0  0  0  0  0  0  0
  149.5044  141.6963  155.0555 C   0  0  0  0  0  0  0  0  0  0  0  0
  150.5450  142.7989  156.9962 N   0  3  0  0  0  0  0  0  0  0  0  0
  151.0381  142.7415  158.3917 C   0  0  1  0  0  0  0  0  0  0  0  0
  152.4780  142.2232  158.5124 C   0  0  0  0  0  0  0  0  0  0  0  0
  153.0181  142.8209  159.8184 C   0  0  0  0  0  0  0  0  0  0  0  0
  151.9610  143.8242  160.3046 C   0  0  0  0  0  0  0  0  0  0  0  0
  151.0473  144.1131  159.0996 C   0  0  0  0  0  0  0  0  0  0  0  0
  151.6644  145.2342  158.2312 C   0  0  0  0  0  0  0  0  0  0  0  0
  149.6372  144.5325  159.5553 C   0  0  0  0  0  0  0  0  0  0  0  0
  152.6255  139.5936  157.0760 N   0  0  0  0  0  0  0  0  0  0  0  0
  153.6137  139.1959  156.2540 N   0  0  0  0  0  0  0  0  0  0  0  0
  152.7654  139.6644  158.0741 H   0  0  0  0  0  0  0  0  0  0  0  0
  153.2591  138.7683  152.9599 H   0  0  0  0  0  0  0  0  0  0  0  0
  154.3565  137.8689  154.0018 H   0  0  0  0  0  0  0  0  0  0  0  0
  154.6611  139.5711  153.6603 H   0  0  0  0  0  0  0  0  0  0  0  0
  151.0111  139.7701  154.2651 H   0  0  0  0  0  0  0  0  0  0  0  0
  150.4295  140.4428  158.1850 H   0  0  0  0  0  0  0  0  0  0  0  0
  149.4581  139.5776  157.0316 H   0  0  0  0  0  0  0  0  0  0  0  0
  148.6711  141.8312  157.0159 H   0  0  0  0  0  0  0  0  0  0  0  0
  148.7990  140.9359  154.7197 H   0  0  0  0  0  0  0  0  0  0  0  0
  150.4558  141.5125  154.5551 H   0  0  0  0  0  0  0  0  0  0  0  0
  149.1272  142.6592  154.7097 H   0  0  0  0  0  0  0  0  0  0  0  0
  151.3395  142.8346  156.3737 H   0  0  0  0  0  0  0  0  0  0  0  0
  150.3859  142.0714  158.9557 H   0  0  0  0  0  0  0  0  0  0  0  0
  152.5222  141.1336  158.5124 H   0  0  0  0  0  0  0  0  0  0  0  0
  153.0837  142.5733  157.6754 H   0  0  0  0  0  0  0  0  0  0  0  0
  153.1941  142.0497  160.5691 H   0  0  0  0  0  0  0  0  0  0  0  0
  153.9699  143.3211  159.6359 H   0  0  0  0  0  0  0  0  0  0  0  0
  151.3836  143.3577  161.1044 H   0  0  0  0  0  0  0  0  0  0  0  0
  152.4081  144.7261  160.7247 H   0  0  0  0  0  0  0  0  0  0  0  0
  151.7537  146.1620  158.7972 H   0  0  0  0  0  0  0  0  0  0  0  0
  151.0496  145.4520  157.3576 H   0  0  0  0  0  0  0  0  0  0  0  0
  152.6624  144.9774  157.8759 H   0  0  0  0  0  0  0  0  0  0  0  0
  149.6685  145.4594  160.1292 H   0  0  0  0  0  0  0  0  0  0  0  0
  149.1747  143.7728  160.1862 H   0  0  0  0  0  0  0  0  0  0  0  0
  148.9783  144.6957  158.7017 H   0  0  0  0  0  0  0  0  0  0  0  0
  150.0226  143.6571  156.8921 H   0  0  0  0  0  0  0  0  0  0  0  0
  1 19  1  0  0  0  0
  1 20  1  0  0  0  0
  1 21  1  0  0  0  0
  1  2  1  0  0  0  0
  2 17  2  0  0  0  0
  2  3  1  0  0  0  0
  3  4  2  0  0  0  0
  3 22  1  0  0  0  0
  4 16  1  0  0  0  0
  4  5  1  0  0  0  0
  5  6  1  0  0  0  0
  5 23  1  0  0  0  0
  5 24  1  0  0  0  0
  6  7  1  0  0  0  0
  6  8  1  0  0  0  0
  6 25  1  0  0  0  0
  7 26  1  0  0  0  0
  7 27  1  0  0  0  0
  7 28  1  0  0  0  0
  8  9  1  0  0  0  0
  8 29  1  0  0  0  0
  8 43  1  0  0  0  0
  9 13  1  0  0  0  0
  9 10  1  0  0  0  0
  9 30  1  0  0  0  0
 10 11  1  0  0  0  0
 10 31  1  0  0  0  0
 10 32  1  0  0  0  0
 11 12  1  0  0  0  0
 11 33  1  0  0  0  0
 11 34  1  0  0  0  0
 12 13  1  0  0  0  0
 12 35  1  0  0  0  0
 12 36  1  0  0  0  0
 13 14  1  0  0  0  0
 13 15  1  0  0  0  0
 14 37  1  0  0  0  0
 14 38  1  0  0  0  0
 14 39  1  0  0  0  0
 15 40  1  0  0  0  0
 15 41  1  0  0  0  0
 15 42  1  0  0  0  0
 16 17  1  0  0  0  0
 16 18  1  0  0  0  0
M  CHG  1   8   1
M  END
> <s_m_source_file>
AV-unprocessed.smi

> <i_m_source_file_index>
3202

> <i_lp_mmshare_version>
43012

> <i_f3d_flags>
0

> <s_epik_input>
W0NIM11jMVtjSF1jKG5bbkhdMSlbQ0gyXVtDQEhdKFtDSDNdKVtOSF1bQ0BASF0oQzIoW0NIM10pW0NIM10pW0NIMl1bQ0gyXVtDSDJdMg==

> <s_epik_cmdline>
J2VwaWtfcHl0aG9uJywgJy1waCcsICc3LjAnLCAnLXRuJywgJzgnLCAnLW1hJywgJzIwMCcsICctbWV0YWxfYmluZGluZycsICctaW1hZScsICc8aW5maWxlLm1hZT4nLCAnLW9tYWUnLCAnPG91dGZpbGUubWFlPic=

> <r_lp_tautomer_probability>
0.5

> <r_epik_Ionization_Penalty>
0.000449684

> <r_epik_Ionization_Penalty_Charging>
0.000404963

> <r_epik_Ionization_Penalty_Neutral>
4.47208e-05

> <r_epik_State_Penalty>
0.41068

> <r_epik_Charging_Adjusted_Penalty>
0.411085

> <i_epik_Tot_Q>
1

> <i_epik_Tot_abs_Q>
1

> <r_epik_Metal_State_Penalty>
0.410687

> <b_epik_Metal_Only>
0

> <s_lp_Force_Field>
OPLS_2005

> <r_lp_Energy>
32.0397

> <b_lp_Chiralities_Consistent>
1

> <s_lp_Variant>
AV-unprocessed.smi:3202-7

> <Gold.Version>
5.8.1

> <Gold.Id.Protein>
6NUR|6NUR_protein|mol2

> <Gold.PLP.Fitness>
40.5473

> <Gold.PLP.PLP>
-33.4657

> <Gold.PLP.part.hbond>
-2.0000

> <Gold.PLP.part.metal>
0.0000

> <Gold.PLP.part.buried>
-1.3515

> <Gold.PLP.part.nonpolar>
-28.8755

> <Gold.PLP.part.repulsive>
0.1195

> <Gold.PLP.ligand.clash>
0.0000

> <Gold.PLP.ligand.torsion>
0.7759

> <Gold.PLP.Chemscore.Hbond>
2.8715

> <Gold.PLP.Chemscore.CHOScore>
0.0000

> <Gold.PLP.Chemscore.Metal>
0.0000

> <Gold.Chemscore.Hbonds>
donor molecule, donor type, donor heavy atom, donor atom, acceptor molecule, acceptor atom, score
      L1  H     8    43       P1  8028  1.82
      P1  H  7997  8010       L1    17  0.08

> <Gold.PLP.Chemscore.Internal.Correction>
0.0190

> <Gold.Rescore>
     Score         DG    S(hbond)    S(metal)    S(lipo)     H(rot)  DE(clash)    DE(int)     intcor
     16.05     -19.04       0.99        0.00     119.47       1.46       1.30       1.70       ----

> <Gold.Chemscore.Fitness>
16.0495

> <Gold.Chemscore.DG>
-19.0442

> <Gold.Chemscore.ZeroCoef>
-5.4800

> <Gold.Chemscore.Hbond>
0.9948

> <Gold.Chemscore.Metal>
0.0000

> <Gold.Chemscore.Lipo>
119.4707

> <Gold.Chemscore.Internal_Hbond>
0.0000

> <Gold.Chemscore.DEClash>
1.2978

> <Gold.Chemscore.DEInternal>
1.6969

> <Gold.Chemscore.Rot>
1.4596

> <Gold.Chemscore.Internal.Correction>
   9.000000E+99

> <Gold.Chemscore.Hbonds>
donor molecule, donor type, donor heavy atom, donor atom, acceptor molecule, acceptor atom, score
      L1  H     8    43       P1  8028  0.87
      P1  H  7997  8010       L1    17  0.02

> <Gold.Chemscore.Hbond.Weighted>
-3.3227

> <Gold.Chemscore.Metal.Weighted>
-0.0000

> <Gold.Chemscore.Lipo.Weighted>
-13.9781

> <Gold.Chemscore.Internal_Hbond.Weighted>
0.0000

> <Gold.Chemscore.DEClash.Weighted>
1.2978

> <Gold.Chemscore.DEInternal.Weighted>
1.6969

> <Gold.Chemscore.Rot.Weighted>
3.7365

> <Gold.Chemscore.Internal.Correction.Weighted>
   9.000000E+99

> <Gold.Protein.RotatedTorsions>
[ 6907 6896 6895 6894 ] final  158.99 input  -60.11 | X-H torsion
[ 7974 7965 7964 7962 ] final  -61.09 input  175.53 | X-H torsion
[ 8008 7997 7996 7995 ] final   77.33 input   59.86 | X-H torsion
[ 10167 10162 10161 10158 ] final  174.57 input  -65.29 | X-H torsion
[ 10718 10713 10712 10709 ] final   -3.86 input   66.30 | X-H torsion
[ 10763 10752 10751 10750 ] final -130.25 input  -60.55 | X-H torsion
[ 11005 11000 10999 10996 ] final  116.50 input  -57.11 | X-H torsion

> <Gold.Protein.ActiveResidues>
 VAL166  LYS551  ARG553  GLY616  TRP617  ASP618  TYR619  PRO620  LYS621  CYS622 
 ASP623  PHE694  ASN695  SER759  ASP760  ASP761  ALA762  ILE779  LEU786  VAL792 
 PHE793  MET794  SER795  GLU796  ALA797  LYS798  CYS799  TRP800  GLU811  SER814 

> <Gold.Protein.RotatedAtoms>
  151.9923  133.3795  159.4148 H   0  0  0  0  0  0  0  0  0  0  0  0  # atno 6907 bound_to 6896
  150.6920  134.3923  159.5091 H   0  0  0  0  0  0  0  0  0  0  0  0  # atno 6908 bound_to 6896
  152.1658  134.8874  160.0589 H   0  0  0  0  0  0  0  0  0  0  0  0  # atno 6909 bound_to 6896
  145.8077  140.8617  143.0198 H   0  0  0  0  0  0  0  0  0  0  0  0  # atno 7974 bound_to 7965
  155.8400  140.3462  155.5626 H   0  0  0  0  0  0  0  0  0  0  0  0  # atno 8008 bound_to 7997
  155.8151  140.0904  157.1901 H   0  0  0  0  0  0  0  0  0  0  0  0  # atno 8009 bound_to 7997
  154.4005  140.1440  156.3420 H   0  0  0  0  0  0  0  0  0  0  0  0  # atno 8010 bound_to 7997
  139.5146  144.3131  152.0272 H   0  0  0  0  0  0  0  0  0  0  0  0  # atno 10167 bound_to 10162
  156.7698  130.5296  149.5769 H   0  0  0  0  0  0  0  0  0  0  0  0  # atno 10718 bound_to 10713
  154.8756  135.3869  154.4052 H   0  0  0  0  0  0  0  0  0  0  0  0  # atno 10763 bound_to 10752
  153.4772  135.7030  153.5964 H   0  0  0  0  0  0  0  0  0  0  0  0  # atno 10764 bound_to 10752
  153.4395  135.3859  155.2187 H   0  0  0  0  0  0  0  0  0  0  0  0  # atno 10765 bound_to 10752
  139.9043  134.9599  156.7207 H   0  0  0  0  0  0  0  0  0  0  0  0  # atno 11005 bound_to 11000
  144.6761  140.0350  143.7482 LP  0  0  0  0  0  0  0  0  0  0  0  0  # atno 17320 bound_to 7965
  145.9811  139.2942  143.1041 LP  0  0  0  0  0  0  0  0  0  0  0  0  # atno 17321 bound_to 7965
  140.2575  144.4102  150.6198 LP  0  0  0  0  0  0  0  0  0  0  0  0  # atno 17342 bound_to 10162
  140.6181  143.2174  151.6751 LP  0  0  0  0  0  0  0  0  0  0  0  0  # atno 17343 bound_to 10162
  156.1285  130.6161  151.0299 LP  0  0  0  0  0  0  0  0  0  0  0  0  # atno 17370 bound_to 10713
  157.6696  131.0864  150.7644 LP  0  0  0  0  0  0  0  0  0  0  0  0  # atno 17371 bound_to 10713
  140.7003  133.9312  155.8020 LP  0  0  0  0  0  0  0  0  0  0  0  0  # atno 17394 bound_to 11000
  141.0377  134.0666  157.3940 LP  0  0  0  0  0  0  0  0  0  0  0  0  # atno 17395 bound_to 11000

$$$$
