#       Name:                AV-unprocessed.smi:166
#       Creating user name   scv26
#       Creation time:       Thu Mar 26 19:12:24 2020


#       File generated by GOLD software.
#

@<TRIPOS>MOLECULE
AV-unprocessed.smi:166
    64    68     1
SMALL
NO_CHARGES


@<TRIPOS>ATOM
      1 ****        -4.0029  -4.1065   0.6694 O.3            1 S1                 0.0000
      2 ****        -4.6810  -2.9003   0.3610 C.3            1 S1                 0.0000
      3 ****        -4.1751  -2.3723  -1.0028 C.3            1 S1                 0.0000
      4 ****        -2.7711  -1.9881  -0.9966 N.pl3          1 S1                 0.0000
      5 ****        -1.6837  -2.8287  -1.0792 C.2            1 S1                 0.0000
      6 ****        -0.5200  -2.2391  -1.0515 N.2            1 S1                 0.0000
      7 ****        -0.8259  -0.8865  -0.9585 C.ar           1 S1                 0.0000
      8 ****        -0.0475   0.3030  -0.8812 C.ar           1 S1                 0.0000
      9 ****         1.3097   0.2945  -0.9032 N.3            1 S1                 0.0000
     10 ****         1.8979  -0.2208  -2.1393 C.3            1 S1                 0.0000
     11 ****         3.3799  -0.5735  -1.9345 C.3            1 S1                 0.0000
     12 ****         4.1537   0.6232  -1.3620 C.3            1 S1                 0.0000
     13 ****         3.4935   1.1160  -0.0641 C.3            1 S1                 0.0000
     14 ****         4.2004   2.2723   0.3631 O.3            1 S1                 0.0000
     15 ****         4.0081   2.6086   1.7308 C.3            1 S1                 0.0000
     16 ****         4.8100   3.8400   2.1108 C.3            1 S1                 0.0000
     17 ****         4.9911   4.9828   1.1329 C.3            1 S1                 0.0000
     18 ****         6.1655   4.1129   1.4913 C.3            1 S1                 0.0000
     19 ****         2.0052   1.4391  -0.3112 C.3            1 S1                 0.0000
     20 ****        -0.7178   1.4825  -0.7808 N.ar           1 S1                 0.0000
     21 ****        -2.0537   1.5016  -0.7663 C.ar           1 S1                 0.0000
     22 ****        -2.9033   0.4754  -0.8349 N.ar           1 S1                 0.0000
     23 ****        -2.2387  -0.7121  -0.9250 C.ar           1 S1                 0.0000
     24 ****        -6.1793  -3.1818   0.3688 C.3            1 S1                 0.0000
     25 ****        -6.5630  -2.9328   1.8211 C.3            1 S1                 0.0000
     26 ****        -5.7849  -1.7980   2.1584 O.3            1 S1                 0.0000
     27 ****        -4.5060  -1.9233   1.5440 C.3            1 S1                 0.0000
     28 ****        -4.1993  -4.7418  -0.0020 H              1 S1                 0.0000
     29 ****        -4.3198  -3.1254  -1.7786 H              1 S1                 0.0000
     30 ****        -4.7628  -1.5056  -1.3077 H              1 S1                 0.0000
     31 ****        -1.7807  -3.9020  -1.1547 H              1 S1                 0.0000
     32 ****         1.3658  -1.1006  -2.4992 H              1 S1                 0.0000
     33 ****         1.8016   0.5403  -2.9148 H              1 S1                 0.0000
     34 ****         3.4624  -1.4220  -1.2539 H              1 S1                 0.0000
     35 ****         3.8230  -0.8887  -2.8794 H              1 S1                 0.0000
     36 ****         5.1910   0.3446  -1.1743 H              1 S1                 0.0000
     37 ****         4.1744   1.4300  -2.0960 H              1 S1                 0.0000
     38 ****         3.5816   0.3277   0.6863 H              1 S1                 0.0000
     39 ****         2.9569   2.8070   1.9382 H              1 S1                 0.0000
     40 ****         4.3207   1.7804   2.3680 H              1 S1                 0.0000
     41 ****         4.6995   4.1247   3.1554 H              1 S1                 0.0000
     42 ****         4.5724   4.8742   0.1342 H              1 S1                 0.0000
     43 ****         4.9740   5.9936   1.5353 H              1 S1                 0.0000
     44 ****         6.9317   4.5438   2.1324 H              1 S1                 0.0000
     45 ****         6.5305   3.4246   0.7316 H              1 S1                 0.0000
     46 ****         1.9173   2.2965  -0.9800 H              1 S1                 0.0000
     47 ****         1.5221   1.7105   0.6278 H              1 S1                 0.0000
     48 ****        -2.5067   2.4789  -0.6880 H              1 S1                 0.0000
     49 ****        -6.7038  -2.4628  -0.2622 H              1 S1                 0.0000
     50 ****        -6.4428  -4.1814   0.0210 H              1 S1                 0.0000
     51 ****        -7.6287  -2.7445   1.9519 H              1 S1                 0.0000
     52 ****        -6.2791  -3.7757   2.4532 H              1 S1                 0.0000
     53 ****        -3.7775  -2.2839   2.2721 H              1 S1                 0.0000
     54 ****        -4.1846  -0.9325   1.2254 H              1 S1                 0.0000
     55 ****        -4.3103  -4.4485   1.5574 LP             1 S1                 0.0000
     56 ****        -3.0171  -3.9410   0.6989 LP             1 S1                 0.0000
     57 ****         0.3848  -2.6633  -1.0887 LP             1 S1                 0.0000
     58 ****         1.5075  -0.4074  -0.2190 LP             1 S1                 0.0000
     59 ****         3.8994   3.0462  -0.1942 LP             1 S1                 0.0000
     60 ****         5.1766   2.1143   0.2145 LP             1 S1                 0.0000
     61 ****        -0.2077   2.3403  -0.7175 LP             1 S1                 0.0000
     62 ****        -3.8992   0.5653  -0.8220 LP             1 S1                 0.0000
     63 ****        -5.6778  -1.7463   3.1513 LP             1 S1                 0.0000
     64 ****        -6.2372  -0.9694   1.8283 LP             1 S1                 0.0000
@<TRIPOS>BOND
    1    1    2 1     
    2    1   28 1     
    3    2   27 1     
    4    2    3 1     
    5    2   24 1     
    6    3    4 1     
    7    3   29 1     
    8    3   30 1     
    9    4   23 1     
   10    4    5 1     
   11    5    6 2     
   12    5   31 1     
   13    6    7 1     
   14    7   23 ar    
   15    7    8 ar    
   16    8    9 1     
   17    8   20 ar    
   18    9   19 1     
   19    9   10 1     
   20   10   11 1     
   21   10   32 1     
   22   10   33 1     
   23   11   12 1     
   24   11   34 1     
   25   11   35 1     
   26   12   13 1     
   27   12   36 1     
   28   12   37 1     
   29   13   14 1     
   30   13   19 1     
   31   13   38 1     
   32   14   15 1     
   33   15   16 1     
   34   15   39 1     
   35   15   40 1     
   36   16   18 1     
   37   16   17 1     
   38   16   41 1     
   39   17   18 1     
   40   17   42 1     
   41   17   43 1     
   42   18   44 1     
   43   18   45 1     
   44   19   46 1     
   45   19   47 1     
   46   20   21 ar    
   47   21   22 ar    
   48   21   48 1     
   49   22   23 ar    
   50   24   25 1     
   51   24   49 1     
   52   24   50 1     
   53   25   26 1     
   54   25   51 1     
   55   25   52 1     
   56   26   27 1     
   57   27   53 1     
   58   27   54 1     
   59    1   55 1     
   60    1   56 1     
   61    6   57 1     
   62    9   58 1     
   63   14   59 1     
   64   14   60 1     
   65   20   61 1     
   66   22   62 1     
   67   26   63 1     
   68   26   64 1     
@<TRIPOS>SUBSTRUCTURE
      1 S1             1
@<TRIPOS>SET
LONE_PAIRS      STATIC     ATOMS    <user>   **** ""
10 55 56 57 58 59 60 61 62 63 64
DONOR_HYDROGENS      STATIC     ATOMS    <user>   **** ""
1 28
ATOM$BLUE        STATIC     ATOMS    COLORGROUP SYSTEM
10 55 56 57 58 59 60 61 62 63 64
ATOM$RED        STATIC     ATOMS    COLORGROUP SYSTEM
1 28
