AV-unprocessed.smi:794|AV-procd|sdf|3761|dock1
  -GOLD-   22720 1193D 1   1.00000     0.00000
 Structure written by MMmdl.
 41 43  0  0  0  0  0  0  0  0  1 V2000
  147.3862  136.6255  163.5938 C   0  0  0  0  0  0  0  0  0  0  0  0
  147.5300  136.0966  162.1997 C   0  0  0  0  0  0  0  0  0  0  0  0
  148.1134  136.8985  161.2146 N   0  0  0  0  0  0  0  0  0  0  0  0
  148.1665  136.2856  160.0279 C   0  0  0  0  0  0  0  0  0  0  0  0
  148.7037  136.8663  158.8492 N   0  0  0  0  0  0  0  0  0  0  0  0
  149.9789  137.2131  158.6009 C   0  0  0  0  0  0  0  0  0  0  0  0
  150.9226  137.0618  159.3774 O   0  0  0  0  0  0  0  0  0  0  0  0
  150.1059  137.7560  157.3821 N   0  0  0  0  0  0  0  0  0  0  0  0
  151.3609  138.2459  156.8157 C   0  0  1  0  0  0  0  0  0  0  0  0
  151.7411  137.5624  155.4784 C   0  0  1  0  0  0  0  0  0  0  0  0
  150.5793  137.6178  154.4627 C   0  0  0  0  0  0  0  0  0  0  0  0
  150.5250  139.1123  154.0945 C   0  0  0  0  0  0  0  0  0  0  0  0
  151.6752  139.7106  154.9274 C   0  0  2  0  0  0  0  0  0  0  0  0
  152.7007  138.5831  154.8808 C   0  0  0  0  0  0  0  0  0  0  0  0
  151.2638  139.7420  156.4194 C   0  0  2  0  0  0  0  0  0  0  0  0
  152.1585  140.6451  157.2908 C   0  0  0  0  0  0  0  0  0  0  0  0
  151.7363  140.6059  158.6378 O   0  0  0  0  0  0  0  0  0  0  0  0
  147.4978  134.6629  160.0435 S   0  0  0  0  0  0  0  0  0  0  0  0
  147.1369  134.8605  161.7408 C   0  0  0  0  0  0  0  0  0  0  0  0
  146.4814  133.7675  162.5177 C   0  0  0  0  0  0  0  0  0  0  0  0
  147.7251  135.8959  164.3293 H   0  0  0  0  0  0  0  0  0  0  0  0
  146.3454  136.8617  163.8163 H   0  0  0  0  0  0  0  0  0  0  0  0
  147.9701  137.5346  163.7426 H   0  0  0  0  0  0  0  0  0  0  0  0
  148.0368  137.0510  158.1147 H   0  0  0  0  0  0  0  0  0  0  0  0
  149.2816  137.8385  156.8054 H   0  0  0  0  0  0  0  0  0  0  0  0
  152.1679  138.1024  157.5375 H   0  0  0  0  0  0  0  0  0  0  0  0
  152.1602  136.5636  155.6042 H   0  0  0  0  0  0  0  0  0  0  0  0
  150.8160  137.0211  153.5809 H   0  0  0  0  0  0  0  0  0  0  0  0
  149.6340  137.2477  154.8601 H   0  0  0  0  0  0  0  0  0  0  0  0
  150.7061  139.2500  153.0278 H   0  0  0  0  0  0  0  0  0  0  0  0
  149.5613  139.5656  154.3294 H   0  0  0  0  0  0  0  0  0  0  0  0
  152.0284  140.6679  154.5429 H   0  0  0  0  0  0  0  0  0  0  0  0
  153.5810  138.7634  155.4995 H   0  0  0  0  0  0  0  0  0  0  0  0
  153.0250  138.3338  153.8688 H   0  0  0  0  0  0  0  0  0  0  0  0
  150.2361  140.0997  156.5089 H   0  0  0  0  0  0  0  0  0  0  0  0
  153.1927  140.3019  157.2476 H   0  0  0  0  0  0  0  0  0  0  0  0
  152.1478  141.6771  156.9403 H   0  0  0  0  0  0  0  0  0  0  0  0
  150.7939  140.5349  158.6556 H   0  0  0  0  0  0  0  0  0  0  0  0
  145.6170  134.1455  163.0640 H   0  0  0  0  0  0  0  0  0  0  0  0
  147.1758  133.3381  163.2400 H   0  0  0  0  0  0  0  0  0  0  0  0
  146.1381  132.9665  161.8626 H   0  0  0  0  0  0  0  0  0  0  0  0
  1  2  1  0  0  0  0
  1 21  1  0  0  0  0
  1 22  1  0  0  0  0
  1 23  1  0  0  0  0
  2 19  2  0  0  0  0
  2  3  1  0  0  0  0
  3  4  2  0  0  0  0
  4  5  1  0  0  0  0
  4 18  1  0  0  0  0
  5  6  1  0  0  0  0
  5 24  1  0  0  0  0
  6  7  2  0  0  0  0
  6  8  1  0  0  0  0
  8  9  1  0  0  0  0
  8 25  1  0  0  0  0
  9 15  1  0  0  0  0
  9 10  1  0  0  0  0
  9 26  1  0  0  0  0
 10 14  1  0  0  0  0
 10 11  1  0  0  0  0
 10 27  1  0  0  0  0
 11 12  1  0  0  0  0
 11 28  1  0  0  0  0
 11 29  1  0  0  0  0
 12 13  1  0  0  0  0
 12 30  1  0  0  0  0
 12 31  1  0  0  0  0
 13 14  1  0  0  0  0
 13 15  1  0  0  0  0
 13 32  1  0  0  0  0
 14 33  1  0  0  0  0
 14 34  1  0  0  0  0
 15 16  1  0  0  0  0
 15 35  1  0  0  0  0
 16 17  1  0  0  0  0
 16 36  1  0  0  0  0
 16 37  1  0  0  0  0
 17 38  1  0  0  0  0
 18 19  1  0  0  0  0
 19 20  1  0  0  0  0
 20 39  1  0  0  0  0
 20 40  1  0  0  0  0
 20 41  1  0  0  0  0
M  END
> <s_m_source_file>
AV-unprocessed.smi

> <i_m_source_file_index>
794

> <i_lp_mmshare_version>
43012

> <i_f3d_flags>
0

> <s_epik_input>
W0NIM11jMW5jKHNjMVtDSDNdKVtOSF1DKD1PKVtOSF1bQ0BIXShbQ0BASF0yMylbQ0BIXShbQ0gyXVtPSF0pW0NAQEhdKFtDSDJdMylbQ0gyXVtDSDJdMg==

> <s_epik_cmdline>
J2VwaWtfcHl0aG9uJywgJy1waCcsICc3LjAnLCAnLXRuJywgJzgnLCAnLW1hJywgJzIwMCcsICctbWV0YWxfYmluZGluZycsICctaW1hZScsICc8aW5maWxlLm1hZT4nLCAnLW9tYWUnLCAnPG91dGZpbGUubWFlPic=

> <r_lp_tautomer_probability>
0.999

> <r_epik_Ionization_Penalty>
0.000713029

> <r_epik_Ionization_Penalty_Charging>
0

> <r_epik_Ionization_Penalty_Neutral>
0.000713029

> <r_epik_State_Penalty>
0.000177984

> <r_epik_Charging_Adjusted_Penalty>
0.000177984

> <i_epik_Tot_Q>
0

> <i_epik_Tot_abs_Q>
0

> <r_epik_Metal_State_Penalty>
-0

> <b_epik_Metal_Only>
0

> <s_lp_Force_Field>
OPLS_2005

> <r_lp_Energy>
47.7468

> <b_lp_Chiralities_Consistent>
1

> <s_lp_Variant>
AV-unprocessed.smi:794-6

> <Gold.Version>
5.8.1

> <Gold.Id.Protein>
6NUR|6NUR_protein|mol2

> <Gold.PLP.Fitness>
40.2348

> <Gold.PLP.PLP>
-34.9142

> <Gold.PLP.part.hbond>
-2.6662

> <Gold.PLP.part.metal>
0.0000

> <Gold.PLP.part.buried>
-0.2047

> <Gold.PLP.part.nonpolar>
-31.3346

> <Gold.PLP.part.repulsive>
0.1754

> <Gold.PLP.ligand.clash>
0.0000

> <Gold.PLP.ligand.torsion>
0.6335

> <Gold.PLP.Chemscore.Hbond>
2.1872

> <Gold.PLP.Chemscore.CHOScore>
0.0000

> <Gold.PLP.Chemscore.Metal>
0.0000

> <Gold.Chemscore.Hbonds>
donor molecule, donor type, donor heavy atom, donor atom, acceptor molecule, acceptor atom, score
      P1  H  6896  6909       L1     7  0.94
      P1  H  6931  6943       L1     3  1.00
      P1  H  6934  6947       L1     3  0.19

> <Gold.PLP.Chemscore.Internal.Correction>
0.0260

> <Gold.Rescore>
     Score         DG    S(hbond)    S(metal)    S(lipo)     H(rot)  DE(clash)    DE(int)     intcor
     16.08     -18.53       1.83        0.00      98.16       1.78       1.80       0.64       ----

> <Gold.Chemscore.Fitness>
16.0848

> <Gold.Chemscore.DG>
-18.5304

> <Gold.Chemscore.ZeroCoef>
-5.4800

> <Gold.Chemscore.Hbond>
1.8328

> <Gold.Chemscore.Metal>
0.0000

> <Gold.Chemscore.Lipo>
98.1636

> <Gold.Chemscore.Internal_Hbond>
0.0000

> <Gold.Chemscore.DEClash>
1.8016

> <Gold.Chemscore.DEInternal>
0.6440

> <Gold.Chemscore.Rot>
1.7798

> <Gold.Chemscore.Internal.Correction>
   9.000000E+99

> <Gold.Chemscore.Hbonds>
donor molecule, donor type, donor heavy atom, donor atom, acceptor molecule, acceptor atom, score
      P1  H  6896  6909       L1     7  0.63
      P1  H  6931  6943       L1     3  0.82
      P1  H  6934  6947       L1     3  0.12

> <Gold.Chemscore.Hbond.Weighted>
-6.1215

> <Gold.Chemscore.Metal.Weighted>
-0.0000

> <Gold.Chemscore.Lipo.Weighted>
-11.4851

> <Gold.Chemscore.Internal_Hbond.Weighted>
0.0000

> <Gold.Chemscore.DEClash.Weighted>
1.8016

> <Gold.Chemscore.DEInternal.Weighted>
0.6440

> <Gold.Chemscore.Rot.Weighted>
4.5562

> <Gold.Chemscore.Internal.Correction.Weighted>
   9.000000E+99

> <Gold.Protein.RotatedTorsions>
[ 6907 6896 6895 6894 ] final   89.95 input  -60.11 | X-H torsion
[ 7974 7965 7964 7962 ] final -146.38 input  175.53 | X-H torsion
[ 8008 7997 7996 7995 ] final  -96.51 input   59.86 | X-H torsion
[ 10167 10162 10161 10158 ] final  178.77 input  -65.29 | X-H torsion
[ 10718 10713 10712 10709 ] final   80.92 input   66.30 | X-H torsion
[ 10763 10752 10751 10750 ] final   -9.80 input  -60.55 | X-H torsion
[ 11005 11000 10999 10996 ] final  -24.97 input  -57.11 | X-H torsion

> <Gold.Protein.ActiveResidues>
 VAL166  LYS551  ARG553  GLY616  TRP617  ASP618  TYR619  PRO620  LYS621  CYS622 
 ASP623  PHE694  ASN695  SER759  ASP760  ASP761  ALA762  ILE779  LEU786  VAL792 
 PHE793  MET794  SER795  GLU796  ALA797  LYS798  CYS799  TRP800  GLU811  SER814 

> <Gold.Protein.RotatedAtoms>
  152.5441  134.1887  159.8664 H   0  0  0  0  0  0  0  0  0  0  0  0  # atno 6907 bound_to 6896
  151.1884  133.4675  159.2602 H   0  0  0  0  0  0  0  0  0  0  0  0  # atno 6908 bound_to 6896
  151.1108  135.0037  159.8548 H   0  0  0  0  0  0  0  0  0  0  0  0  # atno 6909 bound_to 6896
  144.8163  140.5463  143.5608 H   0  0  0  0  0  0  0  0  0  0  0  0  # atno 7974 bound_to 7965
  154.7754  140.0471  157.1084 H   0  0  0  0  0  0  0  0  0  0  0  0  # atno 8008 bound_to 7997
  154.9770  140.3096  155.4943 H   0  0  0  0  0  0  0  0  0  0  0  0  # atno 8009 bound_to 7997
  156.2928  140.2243  156.4866 H   0  0  0  0  0  0  0  0  0  0  0  0  # atno 8010 bound_to 7997
  139.5308  144.2641  152.0683 H   0  0  0  0  0  0  0  0  0  0  0  0  # atno 10167 bound_to 10162
  157.6819  130.9981  150.2151 H   0  0  0  0  0  0  0  0  0  0  0  0  # atno 10718 bound_to 10713
  153.4600  135.7016  153.6056 H   0  0  0  0  0  0  0  0  0  0  0  0  # atno 10763 bound_to 10752
  153.4354  135.3792  155.2196 H   0  0  0  0  0  0  0  0  0  0  0  0  # atno 10764 bound_to 10752
  154.8727  135.3961  154.4024 H   0  0  0  0  0  0  0  0  0  0  0  0  # atno 10765 bound_to 10752
  140.8895  133.7598  156.0402 H   0  0  0  0  0  0  0  0  0  0  0  0  # atno 11005 bound_to 11000
  145.5207  139.1477  143.3554 LP  0  0  0  0  0  0  0  0  0  0  0  0  # atno 17320 bound_to 7965
  146.2466  140.5348  142.8911 LP  0  0  0  0  0  0  0  0  0  0  0  0  # atno 17321 bound_to 7965
  140.2104  144.4569  150.6388 LP  0  0  0  0  0  0  0  0  0  0  0  0  # atno 17342 bound_to 10162
  140.6484  143.2219  151.6133 LP  0  0  0  0  0  0  0  0  0  0  0  0  # atno 17343 bound_to 10162
  156.2814  130.3734  149.7932 LP  0  0  0  0  0  0  0  0  0  0  0  0  # atno 17370 bound_to 10713
  156.5619  130.8387  151.3331 LP  0  0  0  0  0  0  0  0  0  0  0  0  # atno 17371 bound_to 10713
  140.8365  134.3117  157.5330 LP  0  0  0  0  0  0  0  0  0  0  0  0  # atno 17394 bound_to 11000
  139.8728  134.9392  156.3735 LP  0  0  0  0  0  0  0  0  0  0  0  0  # atno 17395 bound_to 11000

$$$$
