AV-unprocessed.smi:194|AV-procd|sdf|1523|dock3
  -GOLD-   2262019363D 1   1.00000     0.00000
 Structure written by MMmdl.
 53 55  0  0  0  0  0  0  0  0  1 V2000
  149.9972  141.8039  155.7194 C   0  0  0  0  0  0  0  0  0  0  0  0
  149.5955  140.4127  156.2638 C   0  0  1  0  0  0  0  0  0  0  0  0
  148.9345  139.5657  155.1497 C   0  0  0  0  0  0  0  0  0  0  0  0
  147.6289  140.5528  154.2662 S   0  0  2  0  0  0  0  0  0  0  0  0
  147.1821  139.2477  153.0281 C   0  0  0  0  0  0  0  0  0  0  0  0
  148.3418  141.6625  153.4913 O   0  0  0  0  0  0  0  0  0  0  0  0
  150.7021  139.7048  156.9282 N   0  0  0  0  0  0  0  0  0  0  0  0
  152.0342  139.8463  156.3476 C   0  0  0  0  0  0  0  0  0  0  0  0
  150.4685  138.4112  157.2435 C   0  0  0  0  0  0  0  0  0  0  0  0
  150.0648  138.1420  158.5091 N   0  0  0  0  0  0  0  0  0  0  0  0
  149.8135  136.8812  158.8741 C   0  0  0  0  0  0  0  0  0  0  0  0
  149.9059  135.7663  158.1454 N   0  0  0  0  0  0  0  0  0  0  0  0
  150.3263  136.0341  156.8755 C   0  0  0  0  0  0  0  0  0  0  0  0
  150.6256  137.3196  156.3436 C   0  0  0  0  0  0  0  0  0  0  0  0
  151.0114  137.2064  155.0141 N   0  0  0  0  0  0  0  0  0  0  0  0
  150.9344  135.9268  154.7705 C   0  0  0  0  0  0  0  0  0  0  0  0
  150.5491  135.1451  155.8370 N   0  0  0  0  0  0  0  0  0  0  0  0
  150.3743  133.6997  155.8372 C   0  0  0  0  0  0  0  0  0  0  0  0
  149.0872  133.1685  155.1355 C   0  0  0  0  0  0  0  0  0  0  0  0
  147.8093  133.7988  155.7661 C   0  0  0  0  0  0  0  0  0  0  0  0
  147.6835  133.5658  157.1544 O   0  0  0  0  0  0  0  0  0  0  0  0
  149.1480  133.3996  153.6038 C   0  0  0  0  0  0  0  0  0  0  0  0
  148.0644  132.6167  152.8434 C   0  0  0  0  0  0  0  0  0  0  0  0
  148.1999  131.2275  153.1124 O   0  0  0  0  0  0  0  0  0  0  0  0
  148.0100  130.9095  154.4849 C   0  0  0  0  0  0  0  0  0  0  0  0
  149.0588  131.6335  155.3521 C   0  0  0  0  0  0  0  0  0  0  0  0
  149.1725  142.2622  155.1729 H   0  0  0  0  0  0  0  0  0  0  0  0
  150.8502  141.7433  155.0432 H   0  0  0  0  0  0  0  0  0  0  0  0
  150.2625  142.4943  156.5201 H   0  0  0  0  0  0  0  0  0  0  0  0
  148.8255  140.5754  157.0183 H   0  0  0  0  0  0  0  0  0  0  0  0
  149.6677  139.2039  154.4294 H   0  0  0  0  0  0  0  0  0  0  0  0
  148.4692  138.6815  155.5864 H   0  0  0  0  0  0  0  0  0  0  0  0
  146.8359  138.3455  153.5324 H   0  0  0  0  0  0  0  0  0  0  0  0
  148.0460  138.9944  152.4135 H   0  0  0  0  0  0  0  0  0  0  0  0
  146.3861  139.6062  152.3758 H   0  0  0  0  0  0  0  0  0  0  0  0
  152.7413  139.1342  156.7767 H   0  0  0  0  0  0  0  0  0  0  0  0
  152.4299  140.8440  156.5354 H   0  0  0  0  0  0  0  0  0  0  0  0
  152.0046  139.6877  155.2691 H   0  0  0  0  0  0  0  0  0  0  0  0
  149.4918  136.7462  159.8962 H   0  0  0  0  0  0  0  0  0  0  0  0
  151.1695  135.5121  153.8011 H   0  0  0  0  0  0  0  0  0  0  0  0
  151.2604  133.2690  155.3686 H   0  0  0  0  0  0  0  0  0  0  0  0
  150.3980  133.3604  156.8737 H   0  0  0  0  0  0  0  0  0  0  0  0
  147.7908  134.8792  155.6360 H   0  0  0  0  0  0  0  0  0  0  0  0
  146.9160  133.4204  155.2683 H   0  0  0  0  0  0  0  0  0  0  0  0
  147.7123  134.3971  157.6028 H   0  0  0  0  0  0  0  0  0  0  0  0
  149.0744  134.4593  153.3596 H   0  0  0  0  0  0  0  0  0  0  0  0
  150.1195  133.0744  153.2305 H   0  0  0  0  0  0  0  0  0  0  0  0
  147.0631  132.9599  153.1059 H   0  0  0  0  0  0  0  0  0  0  0  0
  148.1780  132.7744  151.7709 H   0  0  0  0  0  0  0  0  0  0  0  0
  146.9922  131.1526  154.7892 H   0  0  0  0  0  0  0  0  0  0  0  0
  148.1152  129.8311  154.6059 H   0  0  0  0  0  0  0  0  0  0  0  0
  150.0349  131.2130  155.1058 H   0  0  0  0  0  0  0  0  0  0  0  0
  148.8908  131.4017  156.4044 H   0  0  0  0  0  0  0  0  0  0  0  0
  1  2  1  0  0  0  0
  1 27  1  0  0  0  0
  1 28  1  0  0  0  0
  1 29  1  0  0  0  0
  2  3  1  0  0  0  0
  2  7  1  0  0  0  0
  2 30  1  0  0  0  0
  3  4  1  0  0  0  0
  3 31  1  0  0  0  0
  3 32  1  0  0  0  0
  4  5  1  0  0  0  0
  4  6  2  0  0  0  0
  5 33  1  0  0  0  0
  5 34  1  0  0  0  0
  5 35  1  0  0  0  0
  7  8  1  0  0  0  0
  7  9  1  0  0  0  0
  8 36  1  0  0  0  0
  8 37  1  0  0  0  0
  8 38  1  0  0  0  0
  9 14  1  0  0  0  0
  9 10  2  0  0  0  0
 10 11  1  0  0  0  0
 11 12  2  0  0  0  0
 11 39  1  0  0  0  0
 12 13  1  0  0  0  0
 13 17  1  0  0  0  0
 13 14  2  0  0  0  0
 14 15  1  0  0  0  0
 15 16  2  0  0  0  0
 16 17  1  0  0  0  0
 16 40  1  0  0  0  0
 17 18  1  0  0  0  0
 18 19  1  0  0  0  0
 18 41  1  0  0  0  0
 18 42  1  0  0  0  0
 19 26  1  0  0  0  0
 19 20  1  0  0  0  0
 19 22  1  0  0  0  0
 20 21  1  0  0  0  0
 20 43  1  0  0  0  0
 20 44  1  0  0  0  0
 21 45  1  0  0  0  0
 22 23  1  0  0  0  0
 22 46  1  0  0  0  0
 22 47  1  0  0  0  0
 23 24  1  0  0  0  0
 23 48  1  0  0  0  0
 23 49  1  0  0  0  0
 24 25  1  0  0  0  0
 25 26  1  0  0  0  0
 25 50  1  0  0  0  0
 25 51  1  0  0  0  0
 26 52  1  0  0  0  0
 26 53  1  0  0  0  0
M  END
> <s_m_source_file>
AV-unprocessed.smi

> <i_m_source_file_index>
194

> <i_lp_mmshare_version>
43012

> <i_f3d_flags>
0

> <s_epik_input>
W0NIM11bU0BAXSg9TylbQ0gyXVtDQEBIXShbQ0gzXSlOKFtDSDNdKWMobltjSF1uMSljKGMxMiluW2NIXW4yW0NIMl1DMyhbQ0gyXVtPSF0pW0NIMl1bQ0gyXU9bQ0gyXVtDSDJdMw==

> <s_epik_cmdline>
J2VwaWtfcHl0aG9uJywgJy1waCcsICc3LjAnLCAnLXRuJywgJzgnLCAnLW1hJywgJzIwMCcsICctbWV0YWxfYmluZGluZycsICctaW1hZScsICc8aW5maWxlLm1hZT4nLCAnLW9tYWUnLCAnPG91dGZpbGUubWFlPic=

> <r_lp_tautomer_probability>
1

> <r_epik_Ionization_Penalty>
0.00101625

> <r_epik_Ionization_Penalty_Charging>
0

> <r_epik_Ionization_Penalty_Neutral>
0.00101625

> <r_epik_State_Penalty>
0.000568005

> <r_epik_Charging_Adjusted_Penalty>
0.000568005

> <i_epik_Tot_Q>
0

> <i_epik_Tot_abs_Q>
0

> <r_epik_Metal_State_Penalty>
-0

> <b_epik_Metal_Only>
0

> <s_lp_Force_Field>
OPLS_2005

> <r_lp_Energy>
31.3732

> <b_lp_Chiralities_Consistent>
1

> <s_lp_Variant>
AV-unprocessed.smi:194-4

> <Gold.Version>
5.8.1

> <Gold.Id.Protein>
6NUR|6NUR_protein|mol2

> <Gold.PLP.Fitness>
33.4468

> <Gold.PLP.PLP>
-27.2119

> <Gold.PLP.part.hbond>
-2.0000

> <Gold.PLP.part.metal>
0.0000

> <Gold.PLP.part.buried>
-0.5006

> <Gold.PLP.part.nonpolar>
-25.7220

> <Gold.PLP.part.repulsive>
1.0789

> <Gold.PLP.ligand.clash>
0.0000

> <Gold.PLP.ligand.torsion>
1.0764

> <Gold.PLP.Chemscore.Hbond>
1.5680

> <Gold.PLP.Chemscore.CHOScore>
0.9996

> <Gold.PLP.Chemscore.Metal>
0.0000

> <Gold.Chemscore.Hbonds>
donor molecule, donor type, donor heavy atom, donor atom, acceptor molecule, acceptor atom, score
      P1  H  6896  6908       L1    12  0.94
      P1  H  8011  8017       L1     6  0.62
      L1  C    16    40       P1  7949  1.00

> <Gold.PLP.Chemscore.Internal.Correction>
0.6849

> <Gold.Rescore>
     Score         DG    S(hbond)    S(metal)    S(lipo)     H(rot)  DE(clash)    DE(int)     intcor
      4.23      -7.90       1.01        0.00      64.21       3.31       0.49       3.18       ----

> <Gold.Chemscore.Fitness>
4.2309

> <Gold.Chemscore.DG>
-7.9002

> <Gold.Chemscore.ZeroCoef>
-5.4800

> <Gold.Chemscore.Hbond>
1.0123

> <Gold.Chemscore.Metal>
0.0000

> <Gold.Chemscore.Lipo>
64.2072

> <Gold.Chemscore.Internal_Hbond>
0.0000

> <Gold.Chemscore.DEClash>
0.4879

> <Gold.Chemscore.DEInternal>
3.1814

> <Gold.Chemscore.Rot>
3.3098

> <Gold.Chemscore.Internal.Correction>
   9.000000E+99

> <Gold.Chemscore.Hbonds>
donor molecule, donor type, donor heavy atom, donor atom, acceptor molecule, acceptor atom, score
      P1  H  6896  6908       L1    12  0.23
      P1  H  8011  8017       L1     6  0.60

> <Gold.Chemscore.Hbond.Weighted>
-3.3809

> <Gold.Chemscore.Metal.Weighted>
-0.0000

> <Gold.Chemscore.Lipo.Weighted>
-7.5122

> <Gold.Chemscore.Internal_Hbond.Weighted>
0.0000

> <Gold.Chemscore.DEClash.Weighted>
0.4879

> <Gold.Chemscore.DEInternal.Weighted>
3.1814

> <Gold.Chemscore.Rot.Weighted>
8.4730

> <Gold.Chemscore.Internal.Correction.Weighted>
   9.000000E+99

> <Gold.Protein.RotatedTorsions>
[ 6907 6896 6895 6894 ] final  165.44 input  -60.11 | X-H torsion
[ 7974 7965 7964 7962 ] final   46.24 input  175.53 | X-H torsion
[ 8008 7997 7996 7995 ] final  140.92 input   59.86 | X-H torsion
[ 10167 10162 10161 10158 ] final -101.92 input  -65.29 | X-H torsion
[ 10718 10713 10712 10709 ] final   76.48 input   66.30 | X-H torsion
[ 10763 10752 10751 10750 ] final   49.65 input  -60.55 | X-H torsion
[ 11005 11000 10999 10996 ] final   64.92 input  -57.11 | X-H torsion

> <Gold.Protein.ActiveResidues>
 VAL166  LYS551  ARG553  GLY616  TRP617  ASP618  TYR619  PRO620  LYS621  CYS622 
 ASP623  PHE694  ASN695  SER759  ASP760  ASP761  ALA762  ILE779  LEU786  VAL792 
 PHE793  MET794  SER795  GLU796  ALA797  LYS798  CYS799  TRP800  GLU811  SER814 

> <Gold.Protein.RotatedAtoms>
  151.8943  133.3523  159.3808 H   0  0  0  0  0  0  0  0  0  0  0  0  # atno 6907 bound_to 6896
  150.7095  134.4892  159.5517 H   0  0  0  0  0  0  0  0  0  0  0  0  # atno 6908 bound_to 6896
  152.2468  134.8173  160.0503 H   0  0  0  0  0  0  0  0  0  0  0  0  # atno 6909 bound_to 6896
  146.0408  139.4877  142.9779 H   0  0  0  0  0  0  0  0  0  0  0  0  # atno 7974 bound_to 7965
  156.2973  140.2328  156.4481 H   0  0  0  0  0  0  0  0  0  0  0  0  # atno 8008 bound_to 7997
  154.8126  140.0442  157.1374 H   0  0  0  0  0  0  0  0  0  0  0  0  # atno 8009 bound_to 7997
  154.9406  140.3029  155.5126 H   0  0  0  0  0  0  0  0  0  0  0  0  # atno 8010 bound_to 7997
  140.2362  143.3571  152.0843 H   0  0  0  0  0  0  0  0  0  0  0  0  # atno 10167 bound_to 10162
  157.6675  130.9776  150.1503 H   0  0  0  0  0  0  0  0  0  0  0  0  # atno 10718 bound_to 10713
  152.9786  135.5905  154.4123 H   0  0  0  0  0  0  0  0  0  0  0  0  # atno 10763 bound_to 10752
  154.3757  135.2767  155.2242 H   0  0  0  0  0  0  0  0  0  0  0  0  # atno 10764 bound_to 10752
  154.4178  135.6066  153.6046 H   0  0  0  0  0  0  0  0  0  0  0  0  # atno 10765 bound_to 10752
  139.9928  134.6565  156.0062 H   0  0  0  0  0  0  0  0  0  0  0  0  # atno 11005 bound_to 11000
  145.6888  141.0170  143.1566 LP  0  0  0  0  0  0  0  0  0  0  0  0  # atno 17320 bound_to 7965
  144.7073  139.8508  143.7426 LP  0  0  0  0  0  0  0  0  0  0  0  0  # atno 17321 bound_to 7965
  139.5093  144.6864  151.5875 LP  0  0  0  0  0  0  0  0  0  0  0  0  # atno 17342 bound_to 10162
  140.6148  143.9369  150.6480 LP  0  0  0  0  0  0  0  0  0  0  0  0  # atno 17343 bound_to 10162
  156.2304  130.3681  149.8451 LP  0  0  0  0  0  0  0  0  0  0  0  0  # atno 17370 bound_to 10713
  156.6280  130.8654  151.3489 LP  0  0  0  0  0  0  0  0  0  0  0  0  # atno 17371 bound_to 10713
  141.1580  133.6541  156.4223 LP  0  0  0  0  0  0  0  0  0  0  0  0  # atno 17394 bound_to 11000
  140.4876  134.6606  157.5197 LP  0  0  0  0  0  0  0  0  0  0  0  0  # atno 17395 bound_to 11000

$$$$
