AV-unprocessed.smi:924|AV-procd|sdf|4180|dock8
  -GOLD-   22720 2 83D 1   1.00000     0.00000
 Structure written by MMmdl.
 45 48  0  0  0  0  0  0  0  0  2 V2000
  147.0410  132.9999  154.5670 O   0  0  0  0  0  0  0  0  0  0  0  0
  147.8056  133.7869  154.0077 C   0  0  0  0  0  0  0  0  0  0  0  0
  149.2883  133.8536  154.3958 C   0  0  0  0  0  0  0  0  0  0  0  0
  149.5243  134.7135  155.5665 N   0  0  0  0  0  0  0  0  0  0  0  0
  149.3887  136.1007  155.3801 C   0  0  0  0  0  0  0  0  0  0  0  0
  149.5670  136.9748  156.3885 C   0  0  0  0  0  0  0  0  0  0  0  0
  149.9108  136.4493  157.7037 C   0  0  0  0  0  0  0  0  0  0  0  0
  150.0826  137.2329  158.6356 O   0  0  0  0  0  0  0  0  0  0  0  0
  150.0262  135.0954  157.8357 N   0  5  0  0  0  0  0  0  0  0  0  0
  149.8367  134.2174  156.8018 C   0  0  0  0  0  0  0  0  0  0  0  0
  149.9383  132.9989  156.9468 O   0  0  0  0  0  0  0  0  0  0  0  0
  147.4138  134.6298  153.0399 N   0  0  0  0  0  0  0  0  0  0  0  0
  146.0462  134.7868  152.5504 C   0  0  0  0  0  0  0  0  0  0  0  0
  145.5897  133.6319  151.6215 C   0  0  0  0  0  0  0  0  0  0  0  0
  144.3437  134.0258  150.7795 C   0  0  0  0  0  0  0  0  0  0  0  0
  143.8917  132.8431  149.8970 C   0  0  1  0  0  0  0  0  0  0  0  0
  145.0357  132.4494  148.9394 C   0  0  0  0  0  0  0  0  0  0  0  0
  146.2695  132.0298  149.7662 C   0  0  2  0  0  0  0  0  0  0  0  0
  145.9084  130.8244  150.6586 C   0  0  0  0  0  0  0  0  0  0  0  0
  144.7626  131.2243  151.6111 C   0  0  2  0  0  0  0  0  0  0  0  0
  143.5249  131.6407  150.7903 C   0  0  0  0  0  0  0  0  0  0  0  0
  145.2156  132.4054  152.4951 C   0  0  0  0  0  0  0  0  0  0  0  0
  146.7263  133.2112  150.6496 C   0  0  0  0  0  0  0  0  0  0  0  0
  149.6511  132.8381  154.5614 H   0  0  0  0  0  0  0  0  0  0  0  0
  149.8698  134.2295  153.5522 H   0  0  0  0  0  0  0  0  0  0  0  0
  149.1254  136.4041  154.3771 H   0  0  0  0  0  0  0  0  0  0  0  0
  149.4547  138.0371  156.2288 H   0  0  0  0  0  0  0  0  0  0  0  0
  148.1128  135.2322  152.6305 H   0  0  0  0  0  0  0  0  0  0  0  0
  145.3954  134.8311  153.4243 H   0  0  0  0  0  0  0  0  0  0  0  0
  145.9283  135.7474  152.0456 H   0  0  0  0  0  0  0  0  0  0  0  0
  143.5283  134.3371  151.4337 H   0  0  0  0  0  0  0  0  0  0  0  0
  144.5630  134.8794  150.1377 H   0  0  0  0  0  0  0  0  0  0  0  0
  143.0191  133.1404  149.3146 H   0  0  0  0  0  0  0  0  0  0  0  0
  144.7205  131.6324  148.2891 H   0  0  0  0  0  0  0  0  0  0  0  0
  145.2855  133.2857  148.2852 H   0  0  0  0  0  0  0  0  0  0  0  0
  147.0786  131.7493  149.0912 H   0  0  0  0  0  0  0  0  0  0  0  0
  145.6103  129.9742  150.0440 H   0  0  0  0  0  0  0  0  0  0  0  0
  146.7800  130.5017  151.2296 H   0  0  0  0  0  0  0  0  0  0  0  0
  144.5067  130.3752  152.2453 H   0  0  0  0  0  0  0  0  0  0  0  0
  142.7001  131.9011  151.4549 H   0  0  0  0  0  0  0  0  0  0  0  0
  143.1779  130.8069  150.1787 H   0  0  0  0  0  0  0  0  0  0  0  0
  146.0676  132.1020  153.1051 H   0  0  0  0  0  0  0  0  0  0  0  0
  144.4200  132.6683  153.1938 H   0  0  0  0  0  0  0  0  0  0  0  0
  147.0172  134.0467  150.0116 H   0  0  0  0  0  0  0  0  0  0  0  0
  147.6187  132.9308  151.2108 H   0  0  0  0  0  0  0  0  0  0  0  0
  1  2  2  0  0  0  0
  2  3  1  0  0  0  0
  2 12  1  0  0  0  0
  3  4  1  0  0  0  0
  3 24  1  0  0  0  0
  3 25  1  0  0  0  0
  4 10  1  0  0  0  0
  4  5  1  0  0  0  0
  5  6  2  0  0  0  0
  5 26  1  0  0  0  0
  6  7  1  0  0  0  0
  6 27  1  0  0  0  0
  7  8  2  0  0  0  0
  7  9  1  0  0  0  0
  9 10  1  0  0  0  0
 10 11  2  0  0  0  0
 12 13  1  0  0  0  0
 12 28  1  0  0  0  0
 13 14  1  0  0  0  0
 13 29  1  0  0  0  0
 13 30  1  0  0  0  0
 14 22  1  0  0  0  0
 14 23  1  0  0  0  0
 14 15  1  0  0  0  0
 15 16  1  0  0  0  0
 15 31  1  0  0  0  0
 15 32  1  0  0  0  0
 16 21  1  0  0  0  0
 16 17  1  0  0  0  0
 16 33  1  0  0  0  0
 17 18  1  0  0  0  0
 17 34  1  0  0  0  0
 17 35  1  0  0  0  0
 18 19  1  0  0  0  0
 18 23  1  0  0  0  0
 18 36  1  0  0  0  0
 19 20  1  0  0  0  0
 19 37  1  0  0  0  0
 19 38  1  0  0  0  0
 20 21  1  0  0  0  0
 20 22  1  0  0  0  0
 20 39  1  0  0  0  0
 21 40  1  0  0  0  0
 21 41  1  0  0  0  0
 22 42  1  0  0  0  0
 22 43  1  0  0  0  0
 23 44  1  0  0  0  0
 23 45  1  0  0  0  0
M  CHG  1   9  -1
M  END
> <s_m_source_file>
AV-unprocessed.smi

> <i_m_source_file_index>
924

> <i_lp_mmshare_version>
43012

> <i_f3d_flags>
0

> <s_epik_input>
Tz1jMVtuSF1jKD1PKVtjSF1bY0hdbjFbQ0gyXUMoPU8pW05IXVtDSDJdQzIzW0NIMl1bQ0BIXTRbQ0gyXVtDQEBIXShbQ0gyXTMpW0NIMl1bQ0BIXShbQ0gyXTQpW0NIMl0y

> <s_epik_cmdline>
J2VwaWtfcHl0aG9uJywgJy1waCcsICc3LjAnLCAnLXRuJywgJzgnLCAnLW1hJywgJzIwMCcsICctbWV0YWxfYmluZGluZycsICctaW1hZScsICc8aW5maWxlLm1hZT4nLCAnLW9tYWUnLCAnPG91dGZpbGUubWFlPic=

> <r_lp_tautomer_probability>
0.999537

> <r_epik_Ionization_Penalty>
3.12434

> <r_epik_Ionization_Penalty_Charging>
2.83226e-08

> <r_epik_Ionization_Penalty_Neutral>
3.12434

> <r_epik_State_Penalty>
3.12343

> <r_epik_Charging_Adjusted_Penalty>
3.12343

> <i_epik_Tot_Q>
-1

> <i_epik_Tot_abs_Q>
1

> <r_epik_Metal_State_Penalty>
0.463885

> <b_epik_Metal_Only>
1

> <s_lp_Force_Field>
OPLS_2005

> <r_lp_Energy>
43.5062

> <b_lp_Chiralities_Consistent>
1

> <s_lp_Variant>
AV-unprocessed.smi:924-2

> <Gold.Version>
5.8.1

> <Gold.Id.Protein>
6NUR|6NUR_protein|mol2

> <Gold.PLP.Fitness>
38.6477

> <Gold.PLP.PLP>
-29.3646

> <Gold.PLP.part.hbond>
-1.8306

> <Gold.PLP.part.metal>
0.0000

> <Gold.PLP.part.buried>
0.6714

> <Gold.PLP.part.nonpolar>
-29.8314

> <Gold.PLP.part.repulsive>
0.0426

> <Gold.PLP.ligand.clash>
0.0000

> <Gold.PLP.ligand.torsion>
0.8200

> <Gold.PLP.Chemscore.Hbond>
2.6375

> <Gold.PLP.Chemscore.CHOScore>
1.0000

> <Gold.PLP.Chemscore.Metal>
0.0000

> <Gold.Chemscore.Hbonds>
donor molecule, donor type, donor heavy atom, donor atom, acceptor molecule, acceptor atom, score
      L1  H    12    28       P1  7948  0.89
      P1  H  6896  6908       L1     9  1.66
      L1  C     5    26       P1  7948  1.00

> <Gold.PLP.Chemscore.Internal.Correction>
0.0106

> <Gold.Rescore>
     Score         DG    S(hbond)    S(metal)    S(lipo)     H(rot)  DE(clash)    DE(int)     intcor
     15.77     -18.11       1.78        0.00      98.59       1.90       0.22       2.12       ----

> <Gold.Chemscore.Fitness>
15.7715

> <Gold.Chemscore.DG>
-18.1110

> <Gold.Chemscore.ZeroCoef>
-5.4800

> <Gold.Chemscore.Hbond>
1.7814

> <Gold.Chemscore.Metal>
0.0000

> <Gold.Chemscore.Lipo>
98.5855

> <Gold.Chemscore.Internal_Hbond>
0.0000

> <Gold.Chemscore.DEClash>
0.2231

> <Gold.Chemscore.DEInternal>
2.1163

> <Gold.Chemscore.Rot>
1.8959

> <Gold.Chemscore.Internal.Correction>
   9.000000E+99

> <Gold.Chemscore.Hbonds>
donor molecule, donor type, donor heavy atom, donor atom, acceptor molecule, acceptor atom, score
      L1  H    12    28       P1  7948  0.83
      P1  H  6896  6908       L1     9  0.76

> <Gold.Chemscore.Hbond.Weighted>
-5.9500

> <Gold.Chemscore.Metal.Weighted>
-0.0000

> <Gold.Chemscore.Lipo.Weighted>
-11.5345

> <Gold.Chemscore.Internal_Hbond.Weighted>
0.0000

> <Gold.Chemscore.DEClash.Weighted>
0.2231

> <Gold.Chemscore.DEInternal.Weighted>
2.1163

> <Gold.Chemscore.Rot.Weighted>
4.8535

> <Gold.Chemscore.Internal.Correction.Weighted>
   9.000000E+99

> <Gold.Protein.RotatedTorsions>
[ 6907 6896 6895 6894 ] final  160.62 input  -60.11 | X-H torsion
[ 7974 7965 7964 7962 ] final -138.27 input  175.53 | X-H torsion
[ 8008 7997 7996 7995 ] final  112.14 input   59.86 | X-H torsion
[ 10167 10162 10161 10158 ] final  109.39 input  -65.29 | X-H torsion
[ 10718 10713 10712 10709 ] final  137.97 input   66.30 | X-H torsion
[ 10763 10752 10751 10750 ] final -119.95 input  -60.55 | X-H torsion
[ 11005 11000 10999 10996 ] final  124.90 input  -57.11 | X-H torsion

> <Gold.Protein.ActiveResidues>
 VAL166  LYS551  ARG553  GLY616  TRP617  ASP618  TYR619  PRO620  LYS621  CYS622 
 ASP623  PHE694  ASN695  SER759  ASP760  ASP761  ALA762  ILE779  LEU786  VAL792 
 PHE793  MET794  SER795  GLU796  ALA797  LYS798  CYS799  TRP800  GLU811  SER814 

> <Gold.Protein.RotatedAtoms>
  151.9678  133.3716  159.4059 H   0  0  0  0  0  0  0  0  0  0  0  0  # atno 6907 bound_to 6896
  150.6953  134.4172  159.5197 H   0  0  0  0  0  0  0  0  0  0  0  0  # atno 6908 bound_to 6896
  152.1871  134.8704  160.0572 H   0  0  0  0  0  0  0  0  0  0  0  0  # atno 6909 bound_to 6896
  144.8772  140.6455  143.5229 H   0  0  0  0  0  0  0  0  0  0  0  0  # atno 7974 bound_to 7965
  156.2172  140.3005  155.9866 H   0  0  0  0  0  0  0  0  0  0  0  0  # atno 8008 bound_to 7997
  155.2576  140.0428  157.3011 H   0  0  0  0  0  0  0  0  0  0  0  0  # atno 8009 bound_to 7997
  154.5785  140.2368  155.8096 H   0  0  0  0  0  0  0  0  0  0  0  0  # atno 8010 bound_to 7997
  139.6771  144.7121  151.1583 H   0  0  0  0  0  0  0  0  0  0  0  0  # atno 10167 bound_to 10162
  157.4304  131.1048  151.0256 H   0  0  0  0  0  0  0  0  0  0  0  0  # atno 10718 bound_to 10713
  154.8631  135.4220  154.2381 H   0  0  0  0  0  0  0  0  0  0  0  0  # atno 10763 bound_to 10752
  153.3352  135.6990  153.6919 H   0  0  0  0  0  0  0  0  0  0  0  0  # atno 10764 bound_to 10752
  153.5920  135.3553  155.2887 H   0  0  0  0  0  0  0  0  0  0  0  0  # atno 10765 bound_to 10752
  139.9380  134.9638  156.8478 H   0  0  0  0  0  0  0  0  0  0  0  0  # atno 11005 bound_to 11000
  145.4020  139.1596  143.4172 LP  0  0  0  0  0  0  0  0  0  0  0  0  # atno 17320 bound_to 7965
  146.2971  140.4117  142.8718 LP  0  0  0  0  0  0  0  0  0  0  0  0  # atno 17321 bound_to 7965
  140.7639  143.5756  150.8949 LP  0  0  0  0  0  0  0  0  0  0  0  0  # atno 17342 bound_to 10162
  139.9425  143.6365  152.3050 LP  0  0  0  0  0  0  0  0  0  0  0  0  # atno 17343 bound_to 10162
  157.1155  130.6039  149.5492 LP  0  0  0  0  0  0  0  0  0  0  0  0  # atno 17370 bound_to 10713
  155.9911  130.4965  150.7286 LP  0  0  0  0  0  0  0  0  0  0  0  0  # atno 17371 bound_to 10713
  140.6024  134.0159  155.7542 LP  0  0  0  0  0  0  0  0  0  0  0  0  # atno 17394 bound_to 11000
  141.1003  133.9778  157.3090 LP  0  0  0  0  0  0  0  0  0  0  0  0  # atno 17395 bound_to 11000

$$$$
