AV-unprocessed.smi:2484|AV-procd|sdf|9787|dock1
  -GOLD-   2272013423D 1   1.00000     0.00000
 Structure written by MMmdl.
 45 46  0  0  0  0  0  0  0  0  1 V2000
  149.9634  137.1100  156.7153 C   0  0  0  0  0  0  0  0  0  0  0  0
  150.2602  137.3744  155.2205 C   0  0  0  0  0  0  0  0  0  0  0  0
  149.6468  136.3206  154.4004 N   0  0  0  0  0  0  0  0  0  0  0  0
  149.4580  135.0265  154.7114 C   0  0  0  0  0  0  0  0  0  0  0  0
  149.7788  134.5236  155.7881 O   0  0  0  0  0  0  0  0  0  0  0  0
  148.8724  134.3679  153.6960 N   0  0  0  0  0  0  0  0  0  0  0  0
  148.5848  132.9804  153.6050 C   0  0  0  0  0  0  0  0  0  0  0  0
  149.4902  132.1293  154.2700 C   0  0  0  0  0  0  0  0  0  0  0  0
  149.2576  130.7440  154.2346 C   0  0  0  0  0  0  0  0  0  0  0  0
  148.1209  130.2854  153.5313 C   0  0  0  0  0  0  0  0  0  0  0  0
  147.7379  128.7983  153.4257 C   0  0  0  0  0  0  0  0  0  0  0  0
  146.4620  128.5754  152.5826 C   0  0  0  0  0  0  0  0  0  0  0  0
  147.4683  128.2265  154.8333 C   0  0  0  0  0  0  0  0  0  0  0  0
  148.8831  128.0145  152.7513 C   0  0  0  0  0  0  0  0  0  0  0  0
  147.2873  131.1541  152.9086 N   0  0  0  0  0  0  0  0  0  0  0  0
  147.5155  132.4701  152.9442 N   0  0  0  0  0  0  0  0  0  0  0  0
  149.6188  138.7065  154.7673 C   0  0  0  0  0  0  0  0  0  0  0  0
  150.3739  139.9444  155.2831 C   0  0  0  0  0  0  0  0  0  0  0  0
  151.7370  139.8821  154.8874 O   0  0  0  0  0  0  0  0  0  0  0  0
  152.4139  138.7645  155.4457 C   0  0  0  0  0  0  0  0  0  0  0  0
  151.7832  137.4552  154.9403 C   0  0  0  0  0  0  0  0  0  0  0  0
  150.3267  137.9154  157.3527 H   0  0  0  0  0  0  0  0  0  0  0  0
  150.4357  136.1930  157.0675 H   0  0  0  0  0  0  0  0  0  0  0  0
  148.8915  137.0156  156.8932 H   0  0  0  0  0  0  0  0  0  0  0  0
  149.3387  136.6133  153.4847 H   0  0  0  0  0  0  0  0  0  0  0  0
  148.6312  134.9156  152.8835 H   0  0  0  0  0  0  0  0  0  0  0  0
  150.3440  132.5257  154.7999 H   0  0  0  0  0  0  0  0  0  0  0  0
  149.9402  130.0794  154.7409 H   0  0  0  0  0  0  0  0  0  0  0  0
  146.2089  127.5162  152.5221 H   0  0  0  0  0  0  0  0  0  0  0  0
  146.5868  128.9309  151.5591 H   0  0  0  0  0  0  0  0  0  0  0  0
  145.5995  129.0847  153.0144 H   0  0  0  0  0  0  0  0  0  0  0  0
  146.6663  128.7699  155.3339 H   0  0  0  0  0  0  0  0  0  0  0  0
  148.3514  128.2839  155.4703 H   0  0  0  0  0  0  0  0  0  0  0  0
  147.1752  127.1771  154.7870 H   0  0  0  0  0  0  0  0  0  0  0  0
  148.6347  126.9577  152.6474 H   0  0  0  0  0  0  0  0  0  0  0  0
  149.8075  128.0714  153.3271 H   0  0  0  0  0  0  0  0  0  0  0  0
  149.0938  128.4025  151.7540 H   0  0  0  0  0  0  0  0  0  0  0  0
  149.6121  138.7532  153.6768 H   0  0  0  0  0  0  0  0  0  0  0  0
  148.5738  138.7530  155.0767 H   0  0  0  0  0  0  0  0  0  0  0  0
  149.9320  140.8481  154.8632 H   0  0  0  0  0  0  0  0  0  0  0  0
  150.2987  140.0353  156.3672 H   0  0  0  0  0  0  0  0  0  0  0  0
  153.4621  138.8086  155.1490 H   0  0  0  0  0  0  0  0  0  0  0  0
  152.3953  138.8178  156.5351 H   0  0  0  0  0  0  0  0  0  0  0  0
  152.3074  136.6095  155.3855 H   0  0  0  0  0  0  0  0  0  0  0  0
  151.9579  137.3893  153.8653 H   0  0  0  0  0  0  0  0  0  0  0  0
  1  2  1  0  0  0  0
  1 22  1  0  0  0  0
  1 23  1  0  0  0  0
  1 24  1  0  0  0  0
  2 21  1  0  0  0  0
  2  3  1  0  0  0  0
  2 17  1  0  0  0  0
  3  4  1  0  0  0  0
  3 25  1  0  0  0  0
  4  5  2  0  0  0  0
  4  6  1  0  0  0  0
  6  7  1  0  0  0  0
  6 26  1  0  0  0  0
  7 16  1  0  0  0  0
  7  8  2  0  0  0  0
  8  9  1  0  0  0  0
  8 27  1  0  0  0  0
  9 10  2  0  0  0  0
  9 28  1  0  0  0  0
 10 11  1  0  0  0  0
 10 15  1  0  0  0  0
 11 12  1  0  0  0  0
 11 13  1  0  0  0  0
 11 14  1  0  0  0  0
 12 29  1  0  0  0  0
 12 30  1  0  0  0  0
 12 31  1  0  0  0  0
 13 32  1  0  0  0  0
 13 33  1  0  0  0  0
 13 34  1  0  0  0  0
 14 35  1  0  0  0  0
 14 36  1  0  0  0  0
 14 37  1  0  0  0  0
 15 16  2  0  0  0  0
 17 18  1  0  0  0  0
 17 38  1  0  0  0  0
 17 39  1  0  0  0  0
 18 19  1  0  0  0  0
 18 40  1  0  0  0  0
 18 41  1  0  0  0  0
 19 20  1  0  0  0  0
 20 21  1  0  0  0  0
 20 42  1  0  0  0  0
 20 43  1  0  0  0  0
 21 44  1  0  0  0  0
 21 45  1  0  0  0  0
M  END
> <s_m_source_file>
AV-unprocessed.smi

> <i_m_source_file_index>
2484

> <i_lp_mmshare_version>
43012

> <i_f3d_flags>
0

> <s_epik_input>
W0NIMl0xW0NIMl1PW0NIMl1bQ0gyXUMxKFtDSDNdKVtOSF1DKD1PKVtOSF1jMltjSF1bY0hdYyhubjIpQyhbQ0gzXSkoW0NIM10pW0NIM10=

> <s_epik_cmdline>
J2VwaWtfcHl0aG9uJywgJy1waCcsICc3LjAnLCAnLXRuJywgJzgnLCAnLW1hJywgJzIwMCcsICctbWV0YWxfYmluZGluZycsICctaW1hZScsICc8aW5maWxlLm1hZT4nLCAnLW9tYWUnLCAnPG91dGZpbGUubWFlPic=

> <r_lp_tautomer_probability>
1

> <r_epik_Ionization_Penalty>
0.0115026

> <r_epik_Ionization_Penalty_Charging>
0

> <r_epik_Ionization_Penalty_Neutral>
0.0115026

> <r_epik_State_Penalty>
0.00473796

> <r_epik_Charging_Adjusted_Penalty>
0.00473796

> <i_epik_Tot_Q>
0

> <i_epik_Tot_abs_Q>
0

> <r_epik_Metal_State_Penalty>
-0

> <b_epik_Metal_Only>
0

> <s_lp_Force_Field>
OPLS_2005

> <r_lp_Energy>
18.8992

> <b_lp_Chiralities_Consistent>
1

> <s_lp_Variant>
AV-unprocessed.smi:2484-1

> <Gold.Version>
5.8.1

> <Gold.Id.Protein>
6NUR|6NUR_protein|mol2

> <Gold.PLP.Fitness>
38.3448

> <Gold.PLP.PLP>
-30.9274

> <Gold.PLP.part.hbond>
-3.1319

> <Gold.PLP.part.metal>
0.0000

> <Gold.PLP.part.buried>
-2.1317

> <Gold.PLP.part.nonpolar>
-26.1435

> <Gold.PLP.part.repulsive>
0.3707

> <Gold.PLP.ligand.clash>
0.0000

> <Gold.PLP.ligand.torsion>
0.7734

> <Gold.PLP.Chemscore.Hbond>
2.9840

> <Gold.PLP.Chemscore.CHOScore>
0.0000

> <Gold.PLP.Chemscore.Metal>
0.0000

> <Gold.Chemscore.Hbonds>
donor molecule, donor type, donor heavy atom, donor atom, acceptor molecule, acceptor atom, score
      L1  H     3    25       P1  7948  0.99
      L1  H     6    26       P1  7948  0.99
      P1  H  7989  7998       L1    19  0.95

> <Gold.PLP.Chemscore.Internal.Correction>
0.0121

> <Gold.Rescore>
     Score         DG    S(hbond)    S(metal)    S(lipo)     H(rot)  DE(clash)    DE(int)     intcor
     15.35     -18.96       2.46        0.00      70.63       1.18       0.03       3.58       ----

> <Gold.Chemscore.Fitness>
15.3509

> <Gold.Chemscore.DG>
-18.9647

> <Gold.Chemscore.ZeroCoef>
-5.4800

> <Gold.Chemscore.Hbond>
2.4640

> <Gold.Chemscore.Metal>
0.0000

> <Gold.Chemscore.Lipo>
70.6315

> <Gold.Chemscore.Internal_Hbond>
0.0000

> <Gold.Chemscore.DEClash>
0.0310

> <Gold.Chemscore.DEInternal>
3.5828

> <Gold.Chemscore.Rot>
1.1753

> <Gold.Chemscore.Internal.Correction>
   9.000000E+99

> <Gold.Chemscore.Hbonds>
donor molecule, donor type, donor heavy atom, donor atom, acceptor molecule, acceptor atom, score
      L1  H     3    25       P1  7948  0.85
      L1  H     6    26       P1  7948  0.32
      P1  H  7989  7998       L1    19  0.21

> <Gold.Chemscore.Hbond.Weighted>
-8.2297

> <Gold.Chemscore.Metal.Weighted>
-0.0000

> <Gold.Chemscore.Lipo.Weighted>
-8.2639

> <Gold.Chemscore.Internal_Hbond.Weighted>
0.0000

> <Gold.Chemscore.DEClash.Weighted>
0.0310

> <Gold.Chemscore.DEInternal.Weighted>
3.5828

> <Gold.Chemscore.Rot.Weighted>
3.0089

> <Gold.Chemscore.Internal.Correction.Weighted>
   9.000000E+99

> <Gold.Protein.RotatedTorsions>
[ 6907 6896 6895 6894 ] final   65.22 input  -60.11 | X-H torsion
[ 7974 7965 7964 7962 ] final   76.28 input  175.53 | X-H torsion
[ 8008 7997 7996 7995 ] final   73.81 input   59.86 | X-H torsion
[ 10167 10162 10161 10158 ] final  125.17 input  -65.29 | X-H torsion
[ 10718 10713 10712 10709 ] final  144.49 input   66.30 | X-H torsion
[ 10763 10752 10751 10750 ] final  141.89 input  -60.55 | X-H torsion
[ 11005 11000 10999 10996 ] final   44.06 input  -57.11 | X-H torsion

> <Gold.Protein.ActiveResidues>
 VAL166  LYS551  ARG553  GLY616  TRP617  ASP618  TYR619  PRO620  LYS621  CYS622 
 ASP623  PHE694  ASN695  SER759  ASP760  ASP761  ALA762  ILE779  LEU786  VAL792 
 PHE793  MET794  SER795  GLU796  ALA797  LYS798  CYS799  TRP800  GLU811  SER814 

> <Gold.Protein.RotatedAtoms>
  152.4391  134.5627  159.9898 H   0  0  0  0  0  0  0  0  0  0  0  0  # atno 6907 bound_to 6896
  151.5730  133.3382  159.3001 H   0  0  0  0  0  0  0  0  0  0  0  0  # atno 6908 bound_to 6896
  150.8294  134.7574  159.6904 H   0  0  0  0  0  0  0  0  0  0  0  0  # atno 6909 bound_to 6896
  145.7048  139.2595  143.1684 H   0  0  0  0  0  0  0  0  0  0  0  0  # atno 7974 bound_to 7965
  155.7891  140.3480  155.5339 H   0  0  0  0  0  0  0  0  0  0  0  0  # atno 8008 bound_to 7997
  155.8652  140.0977  157.1608 H   0  0  0  0  0  0  0  0  0  0  0  0  # atno 8009 bound_to 7997
  154.4014  140.1351  156.3997 H   0  0  0  0  0  0  0  0  0  0  0  0  # atno 8010 bound_to 7997
  139.5700  144.6933  151.3804 H   0  0  0  0  0  0  0  0  0  0  0  0  # atno 10167 bound_to 10162
  157.3565  131.0958  151.0953 H   0  0  0  0  0  0  0  0  0  0  0  0  # atno 10718 bound_to 10713
  153.9467  135.2974  155.3440 H   0  0  0  0  0  0  0  0  0  0  0  0  # atno 10763 bound_to 10752
  154.7448  135.5008  153.9188 H   0  0  0  0  0  0  0  0  0  0  0  0  # atno 10764 bound_to 10752
  153.1015  135.6735  153.9772 H   0  0  0  0  0  0  0  0  0  0  0  0  # atno 10765 bound_to 10752
  140.1586  134.4370  155.8332 H   0  0  0  0  0  0  0  0  0  0  0  0  # atno 11005 bound_to 11000
  146.0765  140.7811  142.9662 LP  0  0  0  0  0  0  0  0  0  0  0  0  # atno 17320 bound_to 7965
  144.6958  140.3423  143.7197 LP  0  0  0  0  0  0  0  0  0  0  0  0  # atno 17321 bound_to 7965
  140.6984  143.7691  150.7364 LP  0  0  0  0  0  0  0  0  0  0  0  0  # atno 17342 bound_to 10162
  140.1195  143.4625  152.2322 LP  0  0  0  0  0  0  0  0  0  0  0  0  # atno 17343 bound_to 10162
  157.2109  130.6437  149.5774 LP  0  0  0  0  0  0  0  0  0  0  0  0  # atno 17370 bound_to 10713
  155.9730  130.4660  150.6274 LP  0  0  0  0  0  0  0  0  0  0  0  0  # atno 17371 bound_to 10713
  141.2207  133.6903  156.7553 LP  0  0  0  0  0  0  0  0  0  0  0  0  # atno 17394 bound_to 11000
  140.2517  134.8536  157.3673 LP  0  0  0  0  0  0  0  0  0  0  0  0  # atno 17395 bound_to 11000

$$$$
