AV-unprocessed.smi:1995|AV-procd|sdf|8079|dock2
  -GOLD-   2272010293D 1   1.00000     0.00000
 Structure written by MMmdl.
 43 44  0  0  0  0  0  0  0  0  2 V2000
  146.7497  141.0159  155.2163 C   0  0  0  0  0  0  0  0  0  0  0  0
  147.8568  139.9482  155.2799 C   0  0  0  0  0  0  0  0  0  0  0  0
  147.9654  139.0118  154.0372 C   0  0  2  0  0  0  0  0  0  0  0  0
  148.0453  139.9203  152.7821 C   0  0  0  0  0  0  0  0  0  0  0  0
  146.6903  138.1181  153.9303 C   0  0  0  0  0  0  0  0  0  0  0  0
  146.8376  136.9838  153.0181 N   0  0  0  0  0  0  0  0  0  0  0  0
  145.8485  136.1684  152.6234 C   0  0  0  0  0  0  0  0  0  0  0  0
  144.6755  136.3073  152.9710 O   0  0  0  0  0  0  0  0  0  0  0  0
  146.3093  135.2034  151.8088 N   0  0  0  0  0  0  0  0  0  0  0  0
  145.5791  134.1547  151.1906 C   0  0  0  0  0  0  0  0  0  0  0  0
  144.2450  134.1203  151.0920 N   0  0  0  0  0  0  0  0  0  0  0  0
  143.7972  132.9711  150.4356 C   0  0  0  0  0  0  0  0  0  0  0  0
  144.8113  132.1354  150.0381 C   0  0  0  0  0  0  0  0  0  0  0  0
  146.3784  132.7626  150.4749 S   0  0  0  0  0  0  0  0  0  0  0  0
  149.2040  138.1570  154.1467 N   0  3  0  0  0  0  0  0  0  0  0  0
  150.4943  138.8937  154.2695 C   0  0  0  0  0  0  0  0  0  0  0  0
  151.6804  137.9235  154.1523 C   0  0  0  0  0  0  0  0  0  0  0  0
  151.5804  136.9298  155.1627 O   0  0  0  0  0  0  0  0  0  0  0  0
  150.3971  136.1564  155.0237 C   0  0  0  0  0  0  0  0  0  0  0  0
  149.1604  137.0617  155.1569 C   0  0  0  0  0  0  0  0  0  0  0  0
  146.7506  141.6159  156.1265 H   0  0  0  0  0  0  0  0  0  0  0  0
  145.7597  140.5694  155.1262 H   0  0  0  0  0  0  0  0  0  0  0  0
  146.8891  141.6998  154.3792 H   0  0  0  0  0  0  0  0  0  0  0  0
  148.8105  140.4396  155.4713 H   0  0  0  0  0  0  0  0  0  0  0  0
  147.6769  139.3503  156.1738 H   0  0  0  0  0  0  0  0  0  0  0  0
  147.2834  140.7003  152.7993 H   0  0  0  0  0  0  0  0  0  0  0  0
  147.8866  139.3603  151.8603 H   0  0  0  0  0  0  0  0  0  0  0  0
  149.0118  140.4185  152.7025 H   0  0  0  0  0  0  0  0  0  0  0  0
  146.4403  137.6963  154.9032 H   0  0  0  0  0  0  0  0  0  0  0  0
  145.8224  138.7066  153.6332 H   0  0  0  0  0  0  0  0  0  0  0  0
  147.7690  136.7950  152.6772 H   0  0  0  0  0  0  0  0  0  0  0  0
  147.2989  135.2152  151.6113 H   0  0  0  0  0  0  0  0  0  0  0  0
  142.7363  132.8281  150.2934 H   0  0  0  0  0  0  0  0  0  0  0  0
  144.7312  131.1929  149.5166 H   0  0  0  0  0  0  0  0  0  0  0  0
  150.5995  139.6521  153.4962 H   0  0  0  0  0  0  0  0  0  0  0  0
  150.5511  139.4045  155.2306 H   0  0  0  0  0  0  0  0  0  0  0  0
  151.7113  137.4601  153.1646 H   0  0  0  0  0  0  0  0  0  0  0  0
  152.6194  138.4623  154.2812 H   0  0  0  0  0  0  0  0  0  0  0  0
  150.3977  135.6381  154.0635 H   0  0  0  0  0  0  0  0  0  0  0  0
  150.3851  135.3892  155.7984 H   0  0  0  0  0  0  0  0  0  0  0  0
  149.1204  137.4774  156.1640 H   0  0  0  0  0  0  0  0  0  0  0  0
  148.2809  136.4331  155.0322 H   0  0  0  0  0  0  0  0  0  0  0  0
  149.2563  137.6838  153.2560 H   0  0  0  0  0  0  0  0  0  0  0  0
  1  2  1  0  0  0  0
  1 21  1  0  0  0  0
  1 22  1  0  0  0  0
  1 23  1  0  0  0  0
  2  3  1  0  0  0  0
  2 24  1  0  0  0  0
  2 25  1  0  0  0  0
  3  4  1  0  0  0  0
  3  5  1  0  0  0  0
  3 15  1  0  0  0  0
  4 26  1  0  0  0  0
  4 27  1  0  0  0  0
  4 28  1  0  0  0  0
  5  6  1  0  0  0  0
  5 29  1  0  0  0  0
  5 30  1  0  0  0  0
  6  7  1  0  0  0  0
  6 31  1  0  0  0  0
  7  8  2  0  0  0  0
  7  9  1  0  0  0  0
  9 10  1  0  0  0  0
  9 32  1  0  0  0  0
 10 14  1  0  0  0  0
 10 11  2  0  0  0  0
 11 12  1  0  0  0  0
 12 13  2  0  0  0  0
 12 33  1  0  0  0  0
 13 14  1  0  0  0  0
 13 34  1  0  0  0  0
 15 20  1  0  0  0  0
 15 16  1  0  0  0  0
 15 43  1  0  0  0  0
 16 17  1  0  0  0  0
 16 35  1  0  0  0  0
 16 36  1  0  0  0  0
 17 18  1  0  0  0  0
 17 37  1  0  0  0  0
 17 38  1  0  0  0  0
 18 19  1  0  0  0  0
 19 20  1  0  0  0  0
 19 39  1  0  0  0  0
 19 40  1  0  0  0  0
 20 41  1  0  0  0  0
 20 42  1  0  0  0  0
M  CHG  1  15   1
M  END
> <s_m_source_file>
AV-unprocessed.smi

> <i_m_source_file_index>
1995

> <i_lp_mmshare_version>
43012

> <i_f3d_flags>
0

> <s_epik_input>
W0NIMl0xW0NIMl1PW0NIMl1bQ0gyXU4xW0NAQF0oW0NIM10pKFtDSDJdW0NIM10pW0NIMl1bTkhdQyg9TylbTkhdYzJuW2NIXVtjSF1zMg==

> <s_epik_cmdline>
J2VwaWtfcHl0aG9uJywgJy1waCcsICc3LjAnLCAnLXRuJywgJzgnLCAnLW1hJywgJzIwMCcsICctbWV0YWxfYmluZGluZycsICctaW1hZScsICc8aW5maWxlLm1hZT4nLCAnLW9tYWUnLCAnPG91dGZpbGUubWFlPic=

> <r_lp_tautomer_probability>
0.999

> <r_epik_Ionization_Penalty>
0.55406

> <r_epik_Ionization_Penalty_Charging>
0.553838

> <r_epik_Ionization_Penalty_Neutral>
0.000222147

> <r_epik_State_Penalty>
0.564424

> <r_epik_Charging_Adjusted_Penalty>
1.11826

> <i_epik_Tot_Q>
1

> <i_epik_Tot_abs_Q>
1

> <r_epik_Metal_State_Penalty>
0.573776

> <b_epik_Metal_Only>
0

> <s_lp_Force_Field>
OPLS_2005

> <r_lp_Energy>
26.593

> <b_lp_Chiralities_Consistent>
1

> <s_lp_Variant>
AV-unprocessed.smi:1995-4

> <Gold.Version>
5.8.1

> <Gold.Id.Protein>
6NUR|6NUR_protein|mol2

> <Gold.PLP.Fitness>
44.2269

> <Gold.PLP.PLP>
-27.1733

> <Gold.PLP.part.hbond>
-4.0000

> <Gold.PLP.part.metal>
0.0000

> <Gold.PLP.part.buried>
-0.6792

> <Gold.PLP.part.nonpolar>
-23.6773

> <Gold.PLP.part.repulsive>
0.4419

> <Gold.PLP.ligand.clash>
0.0000

> <Gold.PLP.ligand.torsion>
0.4203

> <Gold.PLP.Chemscore.Hbond>
4.9440

> <Gold.PLP.Chemscore.CHOScore>
0.9640

> <Gold.PLP.Chemscore.Metal>
0.0000

> <Gold.Chemscore.Hbonds>
donor molecule, donor type, donor heavy atom, donor atom, acceptor molecule, acceptor atom, score
      L1  H     6    31       P1  7948  1.00
      L1  H     9    32       P1  7948  0.91
      L1  H    15    43       P1  7948  2.00
      P1  H 10752 10765       L1    18  1.00
      L1  C    12    33       P1 10186  1.00

> <Gold.PLP.Chemscore.Internal.Correction>
0.1701

> <Gold.Rescore>
     Score         DG    S(hbond)    S(metal)    S(lipo)     H(rot)  DE(clash)    DE(int)     intcor
     16.04     -20.18       3.00        0.00      79.24       1.79       2.15       1.99       ----

> <Gold.Chemscore.Fitness>
16.0415

> <Gold.Chemscore.DG>
-20.1802

> <Gold.Chemscore.ZeroCoef>
-5.4800

> <Gold.Chemscore.Hbond>
3.0007

> <Gold.Chemscore.Metal>
0.0000

> <Gold.Chemscore.Lipo>
79.2388

> <Gold.Chemscore.Internal_Hbond>
0.0000

> <Gold.Chemscore.DEClash>
2.1499

> <Gold.Chemscore.DEInternal>
1.9888

> <Gold.Chemscore.Rot>
1.7942

> <Gold.Chemscore.Internal.Correction>
   9.000000E+99

> <Gold.Chemscore.Hbonds>
donor molecule, donor type, donor heavy atom, donor atom, acceptor molecule, acceptor atom, score
      L1  H     6    31       P1  7948  0.94
      L1  H     9    32       P1  7948  0.81
      L1  H    15    43       P1  7948  0.93
      P1  H 10752 10765       L1    18  0.06

> <Gold.Chemscore.Hbond.Weighted>
-10.0223

> <Gold.Chemscore.Metal.Weighted>
-0.0000

> <Gold.Chemscore.Lipo.Weighted>
-9.2709

> <Gold.Chemscore.Internal_Hbond.Weighted>
0.0000

> <Gold.Chemscore.DEClash.Weighted>
2.1499

> <Gold.Chemscore.DEInternal.Weighted>
1.9888

> <Gold.Chemscore.Rot.Weighted>
4.5931

> <Gold.Chemscore.Internal.Correction.Weighted>
   9.000000E+99

> <Gold.Protein.RotatedTorsions>
[ 6907 6896 6895 6894 ] final -149.80 input  -60.11 | X-H torsion
[ 7974 7965 7964 7962 ] final  104.72 input  175.53 | X-H torsion
[ 8008 7997 7996 7995 ] final  154.49 input   59.86 | X-H torsion
[ 10167 10162 10161 10158 ] final -168.48 input  -65.29 | X-H torsion
[ 10718 10713 10712 10709 ] final  -23.29 input   66.30 | X-H torsion
[ 10763 10752 10751 10750 ] final  172.84 input  -60.55 | X-H torsion
[ 11005 11000 10999 10996 ] final  -24.36 input  -57.11 | X-H torsion

> <Gold.Protein.ActiveResidues>
 VAL166  LYS551  ARG553  GLY616  TRP617  ASP618  TYR619  PRO620  LYS621  CYS622 
 ASP623  PHE694  ASN695  SER759  ASP760  ASP761  ALA762  ILE779  LEU786  VAL792 
 PHE793  MET794  SER795  GLU796  ALA797  LYS798  CYS799  TRP800  GLU811  SER814 

> <Gold.Protein.RotatedAtoms>
  151.1894  133.4676  159.2594 H   0  0  0  0  0  0  0  0  0  0  0  0  # atno 6907 bound_to 6896
  151.1179  135.0063  159.8535 H   0  0  0  0  0  0  0  0  0  0  0  0  # atno 6908 bound_to 6896
  152.5454  134.1807  159.8687 H   0  0  0  0  0  0  0  0  0  0  0  0  # atno 6909 bound_to 6896
  145.3290  139.2492  143.3671 H   0  0  0  0  0  0  0  0  0  0  0  0  # atno 7974 bound_to 7965
  156.2528  140.1965  156.6654 H   0  0  0  0  0  0  0  0  0  0  0  0  # atno 8008 bound_to 7997
  154.6432  140.0581  156.9896 H   0  0  0  0  0  0  0  0  0  0  0  0  # atno 8009 bound_to 7997
  155.1530  140.3253  155.4430 H   0  0  0  0  0  0  0  0  0  0  0  0  # atno 8010 bound_to 7997
  139.5982  144.1066  152.1713 H   0  0  0  0  0  0  0  0  0  0  0  0  # atno 10167 bound_to 10162
  156.4931  130.4571  149.6744 H   0  0  0  0  0  0  0  0  0  0  0  0  # atno 10718 bound_to 10713
  154.4318  135.2760  155.1907 H   0  0  0  0  0  0  0  0  0  0  0  0  # atno 10763 bound_to 10752
  154.3810  135.6087  153.5794 H   0  0  0  0  0  0  0  0  0  0  0  0  # atno 10764 bound_to 10752
  152.9836  135.5880  154.4630 H   0  0  0  0  0  0  0  0  0  0  0  0  # atno 10765 bound_to 10752
  140.8838  133.7636  156.0334 H   0  0  0  0  0  0  0  0  0  0  0  0  # atno 11005 bound_to 11000
  146.3053  140.3864  142.8689 LP  0  0  0  0  0  0  0  0  0  0  0  0  # atno 17320 bound_to 7965
  144.8879  140.7485  143.5945 LP  0  0  0  0  0  0  0  0  0  0  0  0  # atno 17321 bound_to 7965
  140.0656  144.5821  150.7230 LP  0  0  0  0  0  0  0  0  0  0  0  0  # atno 17342 bound_to 10162
  140.7229  143.2606  151.4219 LP  0  0  0  0  0  0  0  0  0  0  0  0  # atno 17343 bound_to 10162
  156.3407  130.7380  151.2325 LP  0  0  0  0  0  0  0  0  0  0  0  0  # atno 17370 bound_to 10713
  157.7471  131.0404  150.4598 LP  0  0  0  0  0  0  0  0  0  0  0  0  # atno 17371 bound_to 10713
  140.8430  134.3044  157.5306 LP  0  0  0  0  0  0  0  0  0  0  0  0  # atno 17394 bound_to 11000
  139.8722  134.9426  156.3830 LP  0  0  0  0  0  0  0  0  0  0  0  0  # atno 17395 bound_to 11000

$$$$
