AV-unprocessed.smi:278|AV-procd|sdf|2087|dock9
  -GOLD-   2262021363D 1   1.00000     0.00000
 Structure written by MMmdl.
 50 54  0  0  0  0  0  0  0  0  1 V2000
  153.8707  135.0350  159.1205 O   0  0  0  0  0  0  0  0  0  0  0  0
  155.0267  134.4318  159.8019 S   0  0  0  0  0  0  0  0  0  0  0  0
  156.3227  135.1259  159.8392 O   0  0  0  0  0  0  0  0  0  0  0  0
  154.5432  133.9816  161.5135 C   0  0  0  0  0  0  0  0  0  0  0  0
  154.8651  132.4899  161.6724 C   0  0  0  0  0  0  0  0  0  0  0  0
  154.7401  131.7982  160.3027 C   0  0  1  0  0  0  0  0  0  0  0  0
  153.2940  131.5629  159.8536 C   0  0  0  0  0  0  0  0  0  0  0  0
  153.3383  131.6033  158.3990 N   0  0  0  0  0  0  0  0  0  0  0  0
  152.2046  131.5245  157.6537 C   0  0  0  0  0  0  0  0  0  0  0  0
  151.1497  132.3143  157.9898 N   0  0  0  0  0  0  0  0  0  0  0  0
  150.0132  132.2665  157.2896 C   0  0  0  0  0  0  0  0  0  0  0  0
  149.7155  131.5075  156.2346 N   0  0  0  0  0  0  0  0  0  0  0  0
  150.7635  130.7047  155.8939 C   0  0  0  0  0  0  0  0  0  0  0  0
  152.0317  130.6471  156.5416 C   0  0  0  0  0  0  0  0  0  0  0  0
  152.8315  129.6982  155.9119 N   0  0  0  0  0  0  0  0  0  0  0  0
  152.0875  129.2354  154.9451 C   0  0  0  0  0  0  0  0  0  0  0  0
  150.8294  129.7841  154.8631 N   0  0  0  0  0  0  0  0  0  0  0  0
  149.8013  129.4541  153.8921 C   0  0  0  0  0  0  0  0  0  0  0  0
  149.1516  128.0834  154.1643 C   0  0  2  0  0  0  0  0  0  0  0  0
  150.1338  127.0684  154.2469 O   0  0  0  0  0  0  0  0  0  0  0  0
  148.0780  127.7155  153.1199 C   0  0  2  0  0  0  0  0  0  0  0  0
  148.5736  127.4341  151.6989 C   0  0  0  0  0  0  0  0  0  0  0  0
  147.3152  127.6796  150.8967 C   0  0  0  0  0  0  0  0  0  0  0  0
  146.7040  128.8714  151.6306 C   0  0  0  0  0  0  0  0  0  0  0  0
  147.0812  128.7274  152.9976 O   0  0  0  0  0  0  0  0  0  0  0  0
  154.4925  132.3669  157.9449 C   0  0  0  0  0  0  0  0  0  0  0  0
  155.2992  132.7081  159.2066 C   0  0  1  0  0  0  0  0  0  0  0  0
  155.2697  130.8445  160.2998 H   0  0  0  0  0  0  0  0  0  0  0  0
  156.3708  132.5664  159.0638 H   0  0  0  0  0  0  0  0  0  0  0  0
  155.0691  134.6105  162.2318 H   0  0  0  0  0  0  0  0  0  0  0  0
  153.4728  134.1598  161.6169 H   0  0  0  0  0  0  0  0  0  0  0  0
  155.8951  132.3909  162.0165 H   0  0  0  0  0  0  0  0  0  0  0  0
  154.2342  132.0192  162.4270 H   0  0  0  0  0  0  0  0  0  0  0  0
  152.9149  130.6071  160.2170 H   0  0  0  0  0  0  0  0  0  0  0  0
  152.6334  132.3523  160.2143 H   0  0  0  0  0  0  0  0  0  0  0  0
  149.2301  132.9312  157.6233 H   0  0  0  0  0  0  0  0  0  0  0  0
  152.4378  128.4755  154.2616 H   0  0  0  0  0  0  0  0  0  0  0  0
  149.0449  130.2394  153.9169 H   0  0  0  0  0  0  0  0  0  0  0  0
  150.2433  129.4804  152.8955 H   0  0  0  0  0  0  0  0  0  0  0  0
  148.6663  128.1206  155.1403 H   0  0  0  0  0  0  0  0  0  0  0  0
  150.8831  127.3370  153.7371 H   0  0  0  0  0  0  0  0  0  0  0  0
  147.5541  126.8242  153.4695 H   0  0  0  0  0  0  0  0  0  0  0  0
  149.3447  128.1414  151.3923 H   0  0  0  0  0  0  0  0  0  0  0  0
  148.9687  126.4251  151.5785 H   0  0  0  0  0  0  0  0  0  0  0  0
  147.5087  127.8812  149.8430 H   0  0  0  0  0  0  0  0  0  0  0  0
  146.6529  126.8156  150.9646 H   0  0  0  0  0  0  0  0  0  0  0  0
  147.1245  129.8044  151.2536 H   0  0  0  0  0  0  0  0  0  0  0  0
  145.6207  128.9190  151.5183 H   0  0  0  0  0  0  0  0  0  0  0  0
  155.0846  131.7347  157.2827 H   0  0  0  0  0  0  0  0  0  0  0  0
  154.2074  133.2585  157.3866 H   0  0  0  0  0  0  0  0  0  0  0  0
  1  2  2  0  0  0  0
  2 27  1  0  0  0  0
  2  3  2  0  0  0  0
  2  4  1  0  0  0  0
  4  5  1  0  0  0  0
  4 30  1  0  0  0  0
  4 31  1  0  0  0  0
  5  6  1  0  0  0  0
  5 32  1  0  0  0  0
  5 33  1  0  0  0  0
  6 28  1  0  0  0  0
  6 27  1  0  0  0  0
  6  7  1  0  0  0  0
  7  8  1  0  0  0  0
  7 34  1  0  0  0  0
  7 35  1  0  0  0  0
  8  9  1  0  0  0  0
  8 26  1  0  0  0  0
  9 14  1  0  0  0  0
  9 10  2  0  0  0  0
 10 11  1  0  0  0  0
 11 12  2  0  0  0  0
 11 36  1  0  0  0  0
 12 13  1  0  0  0  0
 13 17  1  0  0  0  0
 13 14  2  0  0  0  0
 14 15  1  0  0  0  0
 15 16  2  0  0  0  0
 16 17  1  0  0  0  0
 16 37  1  0  0  0  0
 17 18  1  0  0  0  0
 18 19  1  0  0  0  0
 18 38  1  0  0  0  0
 18 39  1  0  0  0  0
 19 20  1  0  0  0  0
 19 21  1  0  0  0  0
 19 40  1  0  0  0  0
 20 41  1  0  0  0  0
 21 25  1  0  0  0  0
 21 22  1  0  0  0  0
 21 42  1  0  0  0  0
 22 23  1  0  0  0  0
 22 43  1  0  0  0  0
 22 44  1  0  0  0  0
 23 24  1  0  0  0  0
 23 45  1  0  0  0  0
 23 46  1  0  0  0  0
 24 25  1  0  0  0  0
 24 47  1  0  0  0  0
 24 48  1  0  0  0  0
 26 27  1  0  0  0  0
 26 49  1  0  0  0  0
 26 50  1  0  0  0  0
 27 29  1  0  0  0  0
M  END
> <s_m_source_file>
AV-unprocessed.smi

> <i_m_source_file_index>
278

> <i_lp_mmshare_version>
43012

> <i_f3d_flags>
0

> <s_epik_input>
W0NIMl0xW0NIMl1TKD1PKSg9TylbQ0BASF0oW0NAQEhdMTIpW0NIMl1OKFtDSDJdMiljKG5bY0hdbjMpYyhjMzQpbltjSF1uNFtDSDJdW0NASF0oW09IXSlbQ0BASF01W0NIMl1bQ0gyXVtDSDJdTzU=

> <s_epik_cmdline>
J2VwaWtfcHl0aG9uJywgJy1waCcsICc3LjAnLCAnLXRuJywgJzgnLCAnLW1hJywgJzIwMCcsICctbWV0YWxfYmluZGluZycsICctaW1hZScsICc8aW5maWxlLm1hZT4nLCAnLW9tYWUnLCAnPG91dGZpbGUubWFlPic=

> <r_lp_tautomer_probability>
1

> <r_epik_Ionization_Penalty>
0.000636766

> <r_epik_Ionization_Penalty_Charging>
0

> <r_epik_Ionization_Penalty_Neutral>
0.000636766

> <r_epik_State_Penalty>
0.000329976

> <r_epik_Charging_Adjusted_Penalty>
0.000329976

> <i_epik_Tot_Q>
0

> <i_epik_Tot_abs_Q>
0

> <r_epik_Metal_State_Penalty>
-0

> <b_epik_Metal_Only>
0

> <s_lp_Force_Field>
OPLS_2005

> <r_lp_Energy>
50.3002

> <b_lp_Chiralities_Consistent>
1

> <s_lp_Variant>
AV-unprocessed.smi:278-1

> <Gold.Version>
5.8.1

> <Gold.Id.Protein>
6NUR|6NUR_protein|mol2

> <Gold.PLP.Fitness>
44.7170

> <Gold.PLP.PLP>
-35.1488

> <Gold.PLP.part.hbond>
-3.0000

> <Gold.PLP.part.metal>
0.0000

> <Gold.PLP.part.buried>
-5.3343

> <Gold.PLP.part.nonpolar>
-27.3666

> <Gold.PLP.part.repulsive>
0.1085

> <Gold.PLP.ligand.clash>
0.0000

> <Gold.PLP.ligand.torsion>
1.3410

> <Gold.PLP.Chemscore.Hbond>
3.0000

> <Gold.PLP.Chemscore.CHOScore>
0.9975

> <Gold.PLP.Chemscore.Metal>
0.0000

> <Gold.Chemscore.Hbonds>
donor molecule, donor type, donor heavy atom, donor atom, acceptor molecule, acceptor atom, score
      L1  H    20    41       P1 10737  0.19
      P1  H  6896  6907       L1     1  1.00
      P1  H  6896  6908       L1    10  1.00
      L1  C    16    37       P1 10737  0.71

> <Gold.PLP.Chemscore.Internal.Correction>
0.2576

> <Gold.Rescore>
     Score         DG    S(hbond)    S(metal)    S(lipo)     H(rot)  DE(clash)    DE(int)     intcor
     15.33     -16.79       2.81        0.00      63.14       2.13       0.03       1.44       ----

> <Gold.Chemscore.Fitness>
15.3302

> <Gold.Chemscore.DG>
-16.7947

> <Gold.Chemscore.ZeroCoef>
-5.4800

> <Gold.Chemscore.Hbond>
2.8120

> <Gold.Chemscore.Metal>
0.0000

> <Gold.Chemscore.Lipo>
63.1377

> <Gold.Chemscore.Internal_Hbond>
0.0000

> <Gold.Chemscore.DEClash>
0.0279

> <Gold.Chemscore.DEInternal>
1.4366

> <Gold.Chemscore.Rot>
2.1346

> <Gold.Chemscore.Internal.Correction>
   9.000000E+99

> <Gold.Chemscore.Hbonds>
donor molecule, donor type, donor heavy atom, donor atom, acceptor molecule, acceptor atom, score
      L1  H    20    41       P1 10737  0.19
      P1  H  6896  6907       L1     1  0.48
      P1  H  6896  6908       L1    10  0.91

> <Gold.Chemscore.Hbond.Weighted>
-9.3922

> <Gold.Chemscore.Metal.Weighted>
-0.0000

> <Gold.Chemscore.Lipo.Weighted>
-7.3871

> <Gold.Chemscore.Internal_Hbond.Weighted>
0.0000

> <Gold.Chemscore.DEClash.Weighted>
0.0279

> <Gold.Chemscore.DEInternal.Weighted>
1.4366

> <Gold.Chemscore.Rot.Weighted>
5.4646

> <Gold.Chemscore.Internal.Correction.Weighted>
   9.000000E+99

> <Gold.Protein.RotatedTorsions>
[ 6907 6896 6895 6894 ] final   75.28 input  -60.11 | X-H torsion
[ 7974 7965 7964 7962 ] final  178.48 input  175.53 | X-H torsion
[ 8008 7997 7996 7995 ] final  -68.28 input   59.86 | X-H torsion
[ 10167 10162 10161 10158 ] final  -85.70 input  -65.29 | X-H torsion
[ 10718 10713 10712 10709 ] final    2.32 input   66.30 | X-H torsion
[ 10763 10752 10751 10750 ] final   27.34 input  -60.55 | X-H torsion
[ 11005 11000 10999 10996 ] final  117.61 input  -57.11 | X-H torsion

> <Gold.Protein.ActiveResidues>
 VAL166  LYS551  ARG553  GLY616  TRP617  ASP618  TYR619  PRO620  LYS621  CYS622 
 ASP623  PHE694  ASN695  SER759  ASP760  ASP761  ALA762  ILE779  LEU786  VAL792 
 PHE793  MET794  SER795  GLU796  ALA797  LYS798  CYS799  TRP800  GLU811  SER814 

> <Gold.Protein.RotatedAtoms>
  152.5018  134.4144  159.9459 H   0  0  0  0  0  0  0  0  0  0  0  0  # atno 6907 bound_to 6896
  151.4114  133.3720  159.2752 H   0  0  0  0  0  0  0  0  0  0  0  0  # atno 6908 bound_to 6896
  150.9289  134.8726  159.7597 H   0  0  0  0  0  0  0  0  0  0  0  0  # atno 6909 bound_to 6896
  144.7156  140.0404  143.6437 H   0  0  0  0  0  0  0  0  0  0  0  0  # atno 7974 bound_to 7965
  154.4857  140.0876  156.7480 H   0  0  0  0  0  0  0  0  0  0  0  0  # atno 8008 bound_to 7997
  155.4357  140.3451  155.4266 H   0  0  0  0  0  0  0  0  0  0  0  0  # atno 8009 bound_to 7997
  156.1257  140.1487  156.9127 H   0  0  0  0  0  0  0  0  0  0  0  0  # atno 8010 bound_to 7997
  140.4013  143.2662  151.9139 H   0  0  0  0  0  0  0  0  0  0  0  0  # atno 10167 bound_to 10162
  156.8613  130.5587  149.5663 H   0  0  0  0  0  0  0  0  0  0  0  0  # atno 10718 bound_to 10713
  153.0562  135.6539  154.0572 H   0  0  0  0  0  0  0  0  0  0  0  0  # atno 10763 bound_to 10752
  154.0250  135.2916  155.3377 H   0  0  0  0  0  0  0  0  0  0  0  0  # atno 10764 bound_to 10752
  154.6878  135.5295  153.8417 H   0  0  0  0  0  0  0  0  0  0  0  0  # atno 10765 bound_to 10752
  139.9080  134.9612  156.7377 H   0  0  0  0  0  0  0  0  0  0  0  0  # atno 11005 bound_to 11000
  146.0028  139.3105  143.0917 LP  0  0  0  0  0  0  0  0  0  0  0  0  # atno 17320 bound_to 7965
  145.8773  140.9384  143.0619 LP  0  0  0  0  0  0  0  0  0  0  0  0  # atno 17321 bound_to 7965
  139.4784  144.5631  151.8208 LP  0  0  0  0  0  0  0  0  0  0  0  0  # atno 17342 bound_to 10162
  140.4737  144.1550  150.5921 LP  0  0  0  0  0  0  0  0  0  0  0  0  # atno 17343 bound_to 10162
  156.0775  130.5794  150.9501 LP  0  0  0  0  0  0  0  0  0  0  0  0  # atno 17370 bound_to 10713
  157.6248  131.0926  150.8554 LP  0  0  0  0  0  0  0  0  0  0  0  0  # atno 17371 bound_to 10713
  140.6874  133.9420  155.7946 LP  0  0  0  0  0  0  0  0  0  0  0  0  # atno 17394 bound_to 11000
  141.0466  134.0545  157.3836 LP  0  0  0  0  0  0  0  0  0  0  0  0  # atno 17395 bound_to 11000

$$$$
