AV-unprocessed.smi:2550|AV-procd|sdf|10012|dock7
  -GOLD-   2272014 53D 1   1.00000     0.00000
 Structure written by MMmdl.
 27 28  0  0  0  0  0  0  0  0  1 V2000
  152.9526  144.3546  158.1585 C   0  0  0  0  0  0  0  0  0  0  0  0
  151.4961  144.1032  158.5818 C   0  0  0  0  0  0  0  0  0  0  0  0
  151.2956  144.2786  160.0959 C   0  0  0  0  0  0  0  0  0  0  0  0
  150.7017  145.0840  157.9407 O   0  0  0  0  0  0  0  0  0  0  0  0
  150.9989  142.7596  158.1042 C   0  0  0  0  0  0  0  0  0  0  0  0
  150.8309  142.2774  156.8338 C   0  0  0  0  0  0  0  0  0  0  0  0
  150.3656  140.9953  157.0319 N   0  0  0  0  0  0  0  0  0  0  0  0
  149.9528  140.0510  156.0364 C   0  0  0  0  0  0  0  0  0  0  0  0
  150.9729  139.3544  155.1319 C   0  0  0  0  0  0  0  0  0  0  0  0
  149.9738  139.4325  154.0796 N   0  0  0  0  0  0  0  0  0  0  0  0
  149.2924  140.5308  154.7431 C   0  0  0  0  0  0  0  0  0  0  0  0
  150.2075  140.7210  158.3473 N   0  0  0  0  0  0  0  0  0  0  0  0
  150.6053  141.7653  159.0033 N   0  0  0  0  0  0  0  0  0  0  0  0
  153.6262  143.6261  158.6109 H   0  0  0  0  0  0  0  0  0  0  0  0
  153.2903  145.3459  158.4628 H   0  0  0  0  0  0  0  0  0  0  0  0
  153.0692  144.2829  157.0764 H   0  0  0  0  0  0  0  0  0  0  0  0
  151.8758  143.5460  160.6582 H   0  0  0  0  0  0  0  0  0  0  0  0
  150.2485  144.1530  160.3743 H   0  0  0  0  0  0  0  0  0  0  0  0
  151.6101  145.2690  160.4269 H   0  0  0  0  0  0  0  0  0  0  0  0
  150.3113  144.6974  157.1720 H   0  0  0  0  0  0  0  0  0  0  0  0
  150.9954  142.7122  155.8590 H   0  0  0  0  0  0  0  0  0  0  0  0
  149.3228  139.3218  156.5506 H   0  0  0  0  0  0  0  0  0  0  0  0
  151.8571  139.9510  154.9021 H   0  0  0  0  0  0  0  0  0  0  0  0
  151.2203  138.3368  155.4354 H   0  0  0  0  0  0  0  0  0  0  0  0
  150.3704  139.7062  153.1917 H   0  0  0  0  0  0  0  0  0  0  0  0
  148.2053  140.4478  154.7373 H   0  0  0  0  0  0  0  0  0  0  0  0
  149.6414  141.5034  154.3925 H   0  0  0  0  0  0  0  0  0  0  0  0
  1  2  1  0  0  0  0
  1 14  1  0  0  0  0
  1 15  1  0  0  0  0
  1 16  1  0  0  0  0
  2  3  1  0  0  0  0
  2  4  1  0  0  0  0
  2  5  1  0  0  0  0
  3 17  1  0  0  0  0
  3 18  1  0  0  0  0
  3 19  1  0  0  0  0
  4 20  1  0  0  0  0
  5 13  1  0  0  0  0
  5  6  2  0  0  0  0
  6  7  1  0  0  0  0
  6 21  1  0  0  0  0
  7  8  1  0  0  0  0
  7 12  1  0  0  0  0
  8 11  1  0  0  0  0
  8  9  1  0  0  0  0
  8 22  1  0  0  0  0
  9 10  1  0  0  0  0
  9 23  1  0  0  0  0
  9 24  1  0  0  0  0
 10 11  1  0  0  0  0
 10 25  1  0  0  0  0
 11 26  1  0  0  0  0
 11 27  1  0  0  0  0
 12 13  2  0  0  0  0
M  END
> <s_m_source_file>
AV-unprocessed.smi

> <i_m_source_file_index>
2550

> <i_lp_mmshare_version>
43012

> <i_f3d_flags>
0

> <s_epik_input>
W0NIM11DKFtDSDNdKShbT0hdKWMxW2NIXW4obm4xKVtDSF0yW0NIMl1bTkhdW0NIMl0y

> <s_epik_cmdline>
J2VwaWtfcHl0aG9uJywgJy1waCcsICc3LjAnLCAnLXRuJywgJzgnLCAnLW1hJywgJzIwMCcsICctbWV0YWxfYmluZGluZycsICctaW1hZScsICc8aW5maWxlLm1hZT4nLCAnLW9tYWUnLCAnPG91dGZpbGUubWFlPic=

> <r_lp_tautomer_probability>
1

> <r_epik_Ionization_Penalty>
0.705036

> <r_epik_Ionization_Penalty_Charging>
0

> <r_epik_Ionization_Penalty_Neutral>
0.705036

> <r_epik_State_Penalty>
0.727806

> <r_epik_Charging_Adjusted_Penalty>
0.727806

> <i_epik_Tot_Q>
0

> <i_epik_Tot_abs_Q>
0

> <r_epik_Metal_State_Penalty>
0.727613

> <b_epik_Metal_Only>
0

> <s_lp_Force_Field>
OPLS_2005

> <r_lp_Energy>
8.86137

> <b_lp_Chiralities_Consistent>
1

> <s_lp_Variant>
AV-unprocessed.smi:2550-2

> <Gold.Version>
5.8.1

> <Gold.Id.Protein>
6NUR|6NUR_protein|mol2

> <Gold.PLP.Fitness>
34.9793

> <Gold.PLP.PLP>
-29.0849

> <Gold.PLP.part.hbond>
-4.0000

> <Gold.PLP.part.metal>
0.0000

> <Gold.PLP.part.buried>
-0.0580

> <Gold.PLP.part.nonpolar>
-24.8582

> <Gold.PLP.part.repulsive>
0.0000

> <Gold.PLP.ligand.clash>
0.0000

> <Gold.PLP.ligand.torsion>
0.5429

> <Gold.PLP.Chemscore.Hbond>
1.6615

> <Gold.PLP.Chemscore.CHOScore>
0.5692

> <Gold.PLP.Chemscore.Metal>
0.0000

> <Gold.Chemscore.Hbonds>
donor molecule, donor type, donor heavy atom, donor atom, acceptor molecule, acceptor atom, score
      L1  H     4    20       P1  8028  0.95
      L1  H    10    25       P1  7957  0.45
      L1  C     6    21       P1  8028  0.02

> <Gold.PLP.Chemscore.Internal.Correction>
0.2882

> <Gold.Rescore>
     Score         DG    S(hbond)    S(metal)    S(lipo)     H(rot)  DE(clash)    DE(int)     intcor
     13.02     -14.35       1.49        0.00      71.24       1.73       0.21       1.12       ----

> <Gold.Chemscore.Fitness>
13.0152

> <Gold.Chemscore.DG>
-14.3523

> <Gold.Chemscore.ZeroCoef>
-5.4800

> <Gold.Chemscore.Hbond>
1.4865

> <Gold.Chemscore.Metal>
0.0000

> <Gold.Chemscore.Lipo>
71.2375

> <Gold.Chemscore.Internal_Hbond>
0.0000

> <Gold.Chemscore.DEClash>
0.2145

> <Gold.Chemscore.DEInternal>
1.1226

> <Gold.Chemscore.Rot>
1.7295

> <Gold.Chemscore.Internal.Correction>
   9.000000E+99

> <Gold.Chemscore.Hbonds>
donor molecule, donor type, donor heavy atom, donor atom, acceptor molecule, acceptor atom, score
      L1  H     4    20       P1  8028  0.39
      L1  H    10    25       P1  7957  0.44

> <Gold.Chemscore.Hbond.Weighted>
-4.9650

> <Gold.Chemscore.Metal.Weighted>
-0.0000

> <Gold.Chemscore.Lipo.Weighted>
-8.3348

> <Gold.Chemscore.Internal_Hbond.Weighted>
0.0000

> <Gold.Chemscore.DEClash.Weighted>
0.2145

> <Gold.Chemscore.DEInternal.Weighted>
1.1226

> <Gold.Chemscore.Rot.Weighted>
4.4275

> <Gold.Chemscore.Internal.Correction.Weighted>
   9.000000E+99

> <Gold.Protein.RotatedTorsions>
[ 6907 6896 6895 6894 ] final  -93.22 input  -60.11 | X-H torsion
[ 7974 7965 7964 7962 ] final  -45.48 input  175.53 | X-H torsion
[ 8008 7997 7996 7995 ] final  130.07 input   59.86 | X-H torsion
[ 10167 10162 10161 10158 ] final -142.87 input  -65.29 | X-H torsion
[ 10718 10713 10712 10709 ] final  153.94 input   66.30 | X-H torsion
[ 10763 10752 10751 10750 ] final -123.36 input  -60.55 | X-H torsion
[ 11005 11000 10999 10996 ] final  -89.39 input  -57.11 | X-H torsion

> <Gold.Protein.ActiveResidues>
 VAL166  LYS551  ARG553  GLY616  TRP617  ASP618  TYR619  PRO620  LYS621  CYS622 
 ASP623  PHE694  ASN695  SER759  ASP760  ASP761  ALA762  ILE779  LEU786  VAL792 
 PHE793  MET794  SER795  GLU796  ALA797  LYS798  CYS799  TRP800  GLU811  SER814 

> <Gold.Protein.RotatedAtoms>
  150.6919  134.2001  159.4318 H   0  0  0  0  0  0  0  0  0  0  0  0  # atno 6907 bound_to 6896
  151.9967  134.9948  160.0573 H   0  0  0  0  0  0  0  0  0  0  0  0  # atno 6908 bound_to 6896
  152.1617  133.4551  159.4901 H   0  0  0  0  0  0  0  0  0  0  0  0  # atno 6909 bound_to 6896
  145.9816  140.7277  142.9361 H   0  0  0  0  0  0  0  0  0  0  0  0  # atno 7974 bound_to 7965
  156.2948  140.2605  156.2702 H   0  0  0  0  0  0  0  0  0  0  0  0  # atno 8008 bound_to 7997
  154.9702  140.0391  157.2249 H   0  0  0  0  0  0  0  0  0  0  0  0  # atno 8009 bound_to 7997
  154.7865  140.2804  155.6028 H   0  0  0  0  0  0  0  0  0  0  0  0  # atno 8010 bound_to 7997
  139.8047  143.7785  152.2660 H   0  0  0  0  0  0  0  0  0  0  0  0  # atno 10167 bound_to 10162
  157.2382  131.0753  151.1809 H   0  0  0  0  0  0  0  0  0  0  0  0  # atno 10718 bound_to 10713
  154.8706  135.4101  154.2931 H   0  0  0  0  0  0  0  0  0  0  0  0  # atno 10763 bound_to 10752
  153.3803  135.7011  153.6576 H   0  0  0  0  0  0  0  0  0  0  0  0  # atno 10764 bound_to 10752
  153.5401  135.3650  155.2686 H   0  0  0  0  0  0  0  0  0  0  0  0  # atno 10765 bound_to 10752
  141.1585  133.7627  156.9588 H   0  0  0  0  0  0  0  0  0  0  0  0  # atno 11005 bound_to 11000
  144.6863  140.2918  143.7277 LP  0  0  0  0  0  0  0  0  0  0  0  0  # atno 17320 bound_to 7965
  145.7761  139.1874  143.2184 LP  0  0  0  0  0  0  0  0  0  0  0  0  # atno 17321 bound_to 7965
  139.7916  144.7408  150.9948 LP  0  0  0  0  0  0  0  0  0  0  0  0  # atno 17342 bound_to 10162
  140.7819  143.4437  151.0514 LP  0  0  0  0  0  0  0  0  0  0  0  0  # atno 17343 bound_to 10162
  157.3407  130.7031  149.6379 LP  0  0  0  0  0  0  0  0  0  0  0  0  # atno 17370 bound_to 10713
  155.9671  130.4281  150.4772 LP  0  0  0  0  0  0  0  0  0  0  0  0  # atno 17371 bound_to 10713
  140.1207  134.9419  157.2199 LP  0  0  0  0  0  0  0  0  0  0  0  0  # atno 17394 bound_to 11000
  140.3076  134.3060  155.7274 LP  0  0  0  0  0  0  0  0  0  0  0  0  # atno 17395 bound_to 11000

$$$$
