AV-unprocessed.smi:2651|AV-procd|sdf|10293|dock2
  -GOLD-   2272014303D 1   1.00000     0.00000
 Structure written by MMmdl.
 43 44  0  0  0  0  0  0  0  0  1 V2000
  151.6464  140.4727  156.0067 C   0  0  0  0  0  0  0  0  0  0  0  0
  151.3141  139.0534  155.6968 C   0  0  0  0  0  0  0  0  0  0  0  0
  150.4033  138.4723  154.8599 C   0  0  0  0  0  0  0  0  0  0  0  0
  150.6240  137.0837  155.0613 C   0  0  0  0  0  0  0  0  0  0  0  0
  149.8560  136.1169  154.3636 N   0  0  0  0  0  0  0  0  0  0  0  0
  149.4947  134.8939  154.7876 C   0  0  0  0  0  0  0  0  0  0  0  0
  149.8139  134.4021  155.8692 O   0  0  0  0  0  0  0  0  0  0  0  0
  148.7395  134.2724  153.8654 N   0  0  0  0  0  0  0  0  0  0  0  0
  148.1223  132.9380  153.9204 C   0  0  2  0  0  0  0  0  0  0  0  0
  147.2248  132.9881  155.1791 C   0  0  0  0  0  0  0  0  0  0  0  0
  149.2270  131.8741  154.2024 C   0  0  0  0  0  0  0  0  0  0  0  0
  148.7319  130.6197  154.6254 O   0  0  0  0  0  0  0  0  0  0  0  0
  147.2657  132.6362  152.6365 C   0  0  0  0  0  0  0  0  0  0  0  0
  146.2659  133.7597  152.2567 C   0  0  0  0  0  0  0  0  0  0  0  0
  145.5525  133.4591  150.9281 C   0  0  0  0  0  0  0  0  0  0  0  0
  144.8327  132.1038  150.9750 C   0  0  0  0  0  0  0  0  0  0  0  0
  145.8048  130.9779  151.3561 C   0  0  0  0  0  0  0  0  0  0  0  0
  146.5148  131.2814  152.6853 C   0  0  0  0  0  0  0  0  0  0  0  0
  151.5834  136.8395  155.9405 N   0  0  0  0  0  0  0  0  0  0  0  0
  152.0306  138.1005  156.3524 O   0  0  0  0  0  0  0  0  0  0  0  0
  151.0567  141.1542  155.3935 H   0  0  0  0  0  0  0  0  0  0  0  0
  152.7008  140.6738  155.8162 H   0  0  0  0  0  0  0  0  0  0  0  0
  151.4424  140.6970  157.0538 H   0  0  0  0  0  0  0  0  0  0  0  0
  149.6940  138.9641  154.2111 H   0  0  0  0  0  0  0  0  0  0  0  0
  149.5371  136.3907  153.4462 H   0  0  0  0  0  0  0  0  0  0  0  0
  148.5592  134.7883  153.0170 H   0  0  0  0  0  0  0  0  0  0  0  0
  146.7230  132.0395  155.3670 H   0  0  0  0  0  0  0  0  0  0  0  0
  146.4574  133.7585  155.1097 H   0  0  0  0  0  0  0  0  0  0  0  0
  147.8133  133.2102  156.0705 H   0  0  0  0  0  0  0  0  0  0  0  0
  149.8651  131.7304  153.3293 H   0  0  0  0  0  0  0  0  0  0  0  0
  149.8853  132.2203  155.0001 H   0  0  0  0  0  0  0  0  0  0  0  0
  147.9211  130.7569  155.0906 H   0  0  0  0  0  0  0  0  0  0  0  0
  147.9574  132.5648  151.7970 H   0  0  0  0  0  0  0  0  0  0  0  0
  145.5159  133.8807  153.0380 H   0  0  0  0  0  0  0  0  0  0  0  0
  146.7739  134.7194  152.1662 H   0  0  0  0  0  0  0  0  0  0  0  0
  144.8372  134.2507  150.7033 H   0  0  0  0  0  0  0  0  0  0  0  0
  146.2795  133.4601  150.1149 H   0  0  0  0  0  0  0  0  0  0  0  0
  144.0194  132.1460  151.7006 H   0  0  0  0  0  0  0  0  0  0  0  0
  144.3757  131.8905  150.0084 H   0  0  0  0  0  0  0  0  0  0  0  0
  145.2665  130.0327  151.4296 H   0  0  0  0  0  0  0  0  0  0  0  0
  146.5466  130.8505  150.5665 H   0  0  0  0  0  0  0  0  0  0  0  0
  147.2017  130.4660  152.9092 H   0  0  0  0  0  0  0  0  0  0  0  0
  145.7722  131.2863  153.4829 H   0  0  0  0  0  0  0  0  0  0  0  0
  1  2  1  0  0  0  0
  1 21  1  0  0  0  0
  1 22  1  0  0  0  0
  1 23  1  0  0  0  0
  2 20  1  0  0  0  0
  2  3  2  0  0  0  0
  3  4  1  0  0  0  0
  3 24  1  0  0  0  0
  4  5  1  0  0  0  0
  4 19  2  0  0  0  0
  5  6  1  0  0  0  0
  5 25  1  0  0  0  0
  6  7  2  0  0  0  0
  6  8  1  0  0  0  0
  8  9  1  0  0  0  0
  8 26  1  0  0  0  0
  9 10  1  0  0  0  0
  9 11  1  0  0  0  0
  9 13  1  0  0  0  0
 10 27  1  0  0  0  0
 10 28  1  0  0  0  0
 10 29  1  0  0  0  0
 11 12  1  0  0  0  0
 11 30  1  0  0  0  0
 11 31  1  0  0  0  0
 12 32  1  0  0  0  0
 13 18  1  0  0  0  0
 13 14  1  0  0  0  0
 13 33  1  0  0  0  0
 14 15  1  0  0  0  0
 14 34  1  0  0  0  0
 14 35  1  0  0  0  0
 15 16  1  0  0  0  0
 15 36  1  0  0  0  0
 15 37  1  0  0  0  0
 16 17  1  0  0  0  0
 16 38  1  0  0  0  0
 16 39  1  0  0  0  0
 17 18  1  0  0  0  0
 17 40  1  0  0  0  0
 17 41  1  0  0  0  0
 18 42  1  0  0  0  0
 18 43  1  0  0  0  0
 19 20  1  0  0  0  0
M  END
> <s_m_source_file>
AV-unprocessed.smi

> <i_m_source_file_index>
2651

> <i_lp_mmshare_version>
43012

> <i_f3d_flags>
0

> <s_epik_input>
W0NIM11jMVtjSF1jKG5vMSlbTkhdQyg9TylbTkhdW0NAQF0oW0NIM10pKFtDSDJdW09IXSlbQ0hdMltDSDJdW0NIMl1bQ0gyXVtDSDJdW0NIMl0y

> <s_epik_cmdline>
J2VwaWtfcHl0aG9uJywgJy1waCcsICc3LjAnLCAnLXRuJywgJzgnLCAnLW1hJywgJzIwMCcsICctbWV0YWxfYmluZGluZycsICctaW1hZScsICc8aW5maWxlLm1hZT4nLCAnLW9tYWUnLCAnPG91dGZpbGUubWFlPic=

> <r_lp_tautomer_probability>
1

> <r_epik_Ionization_Penalty>
2.26451e-05

> <r_epik_Ionization_Penalty_Charging>
0

> <r_epik_Ionization_Penalty_Neutral>
2.26451e-05

> <r_epik_State_Penalty>
-0

> <r_epik_Charging_Adjusted_Penalty>
0

> <i_epik_Tot_Q>
0

> <i_epik_Tot_abs_Q>
0

> <r_epik_Metal_State_Penalty>
-0

> <b_epik_Metal_Only>
0

> <s_lp_Force_Field>
OPLS_2005

> <r_lp_Energy>
19.0521

> <b_lp_Chiralities_Consistent>
1

> <s_lp_Variant>
AV-unprocessed.smi:2651-2

> <Gold.Version>
5.8.1

> <Gold.Id.Protein>
6NUR|6NUR_protein|mol2

> <Gold.PLP.Fitness>
41.5981

> <Gold.PLP.PLP>
-33.2062

> <Gold.PLP.part.hbond>
-4.0000

> <Gold.PLP.part.metal>
0.0000

> <Gold.PLP.part.buried>
-3.2069

> <Gold.PLP.part.nonpolar>
-25.8606

> <Gold.PLP.part.repulsive>
0.1292

> <Gold.PLP.ligand.clash>
0.0000

> <Gold.PLP.ligand.torsion>
0.3714

> <Gold.PLP.Chemscore.Hbond>
3.0000

> <Gold.PLP.Chemscore.CHOScore>
0.0000

> <Gold.PLP.Chemscore.Metal>
0.0000

> <Gold.Chemscore.Hbonds>
donor molecule, donor type, donor heavy atom, donor atom, acceptor molecule, acceptor atom, score
      L1  H     5    25       P1  7948  1.00
      L1  H     8    26       P1  7948  1.00
      P1  H 10752 10765       L1    19  0.39

> <Gold.PLP.Chemscore.Internal.Correction>
0.1346

> <Gold.Rescore>
     Score         DG    S(hbond)    S(metal)    S(lipo)     H(rot)  DE(clash)    DE(int)     intcor
     14.03     -16.25       2.49        0.00      66.85       2.09       0.01       2.20       ----

> <Gold.Chemscore.Fitness>
14.0349

> <Gold.Chemscore.DG>
-16.2471

> <Gold.Chemscore.ZeroCoef>
-5.4800

> <Gold.Chemscore.Hbond>
2.4866

> <Gold.Chemscore.Metal>
0.0000

> <Gold.Chemscore.Lipo>
66.8473

> <Gold.Chemscore.Internal_Hbond>
0.0000

> <Gold.Chemscore.DEClash>
0.0108

> <Gold.Chemscore.DEInternal>
2.2014

> <Gold.Chemscore.Rot>
2.0935

> <Gold.Chemscore.Internal.Correction>
   9.000000E+99

> <Gold.Chemscore.Hbonds>
donor molecule, donor type, donor heavy atom, donor atom, acceptor molecule, acceptor atom, score
      L1  H     5    25       P1  7948  0.60
      L1  H     8    26       P1  7948  0.37
      P1  H 10752 10765       L1    19  0.28

> <Gold.Chemscore.Hbond.Weighted>
-8.3053

> <Gold.Chemscore.Metal.Weighted>
-0.0000

> <Gold.Chemscore.Lipo.Weighted>
-7.8211

> <Gold.Chemscore.Internal_Hbond.Weighted>
0.0000

> <Gold.Chemscore.DEClash.Weighted>
0.0108

> <Gold.Chemscore.DEInternal.Weighted>
2.2014

> <Gold.Chemscore.Rot.Weighted>
5.3594

> <Gold.Chemscore.Internal.Correction.Weighted>
   9.000000E+99

> <Gold.Protein.RotatedTorsions>
[ 6907 6896 6895 6894 ] final  165.92 input  -60.11 | X-H torsion
[ 7974 7965 7964 7962 ] final  -75.08 input  175.53 | X-H torsion
[ 8008 7997 7996 7995 ] final  120.57 input   59.86 | X-H torsion
[ 10167 10162 10161 10158 ] final -130.37 input  -65.29 | X-H torsion
[ 10718 10713 10712 10709 ] final   40.07 input   66.30 | X-H torsion
[ 10763 10752 10751 10750 ] final -145.57 input  -60.55 | X-H torsion
[ 11005 11000 10999 10996 ] final  -10.21 input  -57.11 | X-H torsion

> <Gold.Protein.ActiveResidues>
 VAL166  LYS551  ARG553  GLY616  TRP617  ASP618  TYR619  PRO620  LYS621  CYS622 
 ASP623  PHE694  ASN695  SER759  ASP760  ASP761  ALA762  ILE779  LEU786  VAL792 
 PHE793  MET794  SER795  GLU796  ALA797  LYS798  CYS799  TRP800  GLU811  SER814 

> <Gold.Protein.RotatedAtoms>
  151.8869  133.3507  159.3784 H   0  0  0  0  0  0  0  0  0  0  0  0  # atno 6907 bound_to 6896
  150.7113  134.4963  159.5549 H   0  0  0  0  0  0  0  0  0  0  0  0  # atno 6908 bound_to 6896
  152.2525  134.8118  160.0494 H   0  0  0  0  0  0  0  0  0  0  0  0  # atno 6909 bound_to 6896
  145.6306  140.9338  143.1089 H   0  0  0  0  0  0  0  0  0  0  0  0  # atno 7974 bound_to 7965
  156.2648  140.2828  156.1170 H   0  0  0  0  0  0  0  0  0  0  0  0  # atno 8008 bound_to 7997
  155.1196  140.0392  157.2764 H   0  0  0  0  0  0  0  0  0  0  0  0  # atno 8009 bound_to 7997
  154.6681  140.2581  155.7043 H   0  0  0  0  0  0  0  0  0  0  0  0  # atno 8010 bound_to 7997
  139.9300  143.6283  152.2532 H   0  0  0  0  0  0  0  0  0  0  0  0  # atno 10167 bound_to 10162
  157.3779  130.7737  149.7170 H   0  0  0  0  0  0  0  0  0  0  0  0  # atno 10718 bound_to 10713
  154.8377  135.3409  154.6526 H   0  0  0  0  0  0  0  0  0  0  0  0  # atno 10763 bound_to 10752
  153.7139  135.6962  153.5035 H   0  0  0  0  0  0  0  0  0  0  0  0  # atno 10764 bound_to 10752
  153.2431  135.4378  155.0672 H   0  0  0  0  0  0  0  0  0  0  0  0  # atno 10765 bound_to 10752
  140.7423  133.8660  155.8977 H   0  0  0  0  0  0  0  0  0  0  0  0  # atno 11005 bound_to 11000
  144.7195  139.8079  143.7387 LP  0  0  0  0  0  0  0  0  0  0  0  0  # atno 17320 bound_to 7965
  146.1359  139.4405  143.0139 LP  0  0  0  0  0  0  0  0  0  0  0  0  # atno 17321 bound_to 7965
  139.6790  144.7657  151.1643 LP  0  0  0  0  0  0  0  0  0  0  0  0  # atno 17342 bound_to 10162
  140.7640  143.5752  150.8953 LP  0  0  0  0  0  0  0  0  0  0  0  0  # atno 17343 bound_to 10162
  155.9769  130.4069  150.3746 LP  0  0  0  0  0  0  0  0  0  0  0  0  # atno 17370 bound_to 10713
  157.1846  131.0400  151.2731 LP  0  0  0  0  0  0  0  0  0  0  0  0  # atno 17371 bound_to 10713
  140.9826  134.1386  157.4481 LP  0  0  0  0  0  0  0  0  0  0  0  0  # atno 17394 bound_to 11000
  139.8803  135.0015  156.6072 LP  0  0  0  0  0  0  0  0  0  0  0  0  # atno 17395 bound_to 11000

$$$$
