AV-unprocessed.smi:295|AV-procd|sdf|2256|dock6
  -GOLD-   2262022143D 1   1.00000     0.00000
 Structure written by MMmdl.
 35 36  0  0  0  0  0  0  0  0  1 V2000
  151.2484  141.3658  156.9284 C   0  0  0  0  0  0  0  0  0  0  0  0
  149.8072  141.7194  156.5196 C   0  0  2  0  0  0  0  0  0  0  0  0
  148.8008  141.3192  157.6189 C   0  0  0  0  0  0  0  0  0  0  0  0
  147.3647  141.7169  157.2435 C   0  0  0  0  0  0  0  0  0  0  0  0
  146.9548  141.1189  155.8898 C   0  0  0  0  0  0  0  0  0  0  0  0
  147.9500  141.5110  154.7834 C   0  0  0  0  0  0  0  0  0  0  0  0
  149.4015  141.1337  155.1418 C   0  0  2  0  0  0  0  0  0  0  0  0
  149.5573  139.6801  155.1201 N   0  0  0  0  0  0  0  0  0  0  0  0
  150.6998  139.0011  154.9324 C   0  0  0  0  0  0  0  0  0  0  0  0
  151.7740  139.5289  154.6473 O   0  0  0  0  0  0  0  0  0  0  0  0
  150.6185  137.4883  155.1360 C   0  0  0  0  0  0  0  0  0  0  0  0
  150.5902  137.1688  156.5524 N   0  0  0  0  0  0  0  0  0  0  0  0
  151.5376  136.6573  157.3454 C   0  0  0  0  0  0  0  0  0  0  0  0
  151.1733  136.5434  158.6167 N   0  0  0  0  0  0  0  0  0  0  0  0
  149.9050  137.0378  158.5189 C   0  0  0  0  0  0  0  0  0  0  0  0
  149.0426  137.1526  159.6823 C   0  0  0  0  0  0  0  0  0  0  0  0
  148.3562  137.2443  160.6094 N   0  0  0  0  0  0  0  0  0  0  0  0
  149.4958  137.4227  157.3121 N   0  0  0  0  0  0  0  0  0  0  0  0
  151.3638  140.2997  157.1261 H   0  0  0  0  0  0  0  0  0  0  0  0
  151.5371  141.8983  157.8349 H   0  0  0  0  0  0  0  0  0  0  0  0
  151.9569  141.6388  156.1462 H   0  0  0  0  0  0  0  0  0  0  0  0
  149.7669  142.8056  156.4257 H   0  0  0  0  0  0  0  0  0  0  0  0
  148.8479  140.2436  157.7951 H   0  0  0  0  0  0  0  0  0  0  0  0
  149.0731  141.7943  158.5619 H   0  0  0  0  0  0  0  0  0  0  0  0
  146.6736  141.3876  158.0197 H   0  0  0  0  0  0  0  0  0  0  0  0
  147.2869  142.8040  157.2012 H   0  0  0  0  0  0  0  0  0  0  0  0
  146.8992  140.0327  155.9715 H   0  0  0  0  0  0  0  0  0  0  0  0
  145.9531  141.4574  155.6232 H   0  0  0  0  0  0  0  0  0  0  0  0
  147.6617  141.0461  153.8397 H   0  0  0  0  0  0  0  0  0  0  0  0
  147.8922  142.5877  154.6195 H   0  0  0  0  0  0  0  0  0  0  0  0
  150.0481  141.5762  154.3820 H   0  0  0  0  0  0  0  0  0  0  0  0
  148.7322  139.1424  155.3443 H   0  0  0  0  0  0  0  0  0  0  0  0
  149.7244  137.0917  154.6526 H   0  0  0  0  0  0  0  0  0  0  0  0
  151.4804  136.9987  154.6807 H   0  0  0  0  0  0  0  0  0  0  0  0
  152.5175  136.3774  156.9872 H   0  0  0  0  0  0  0  0  0  0  0  0
  1  2  1  0  0  0  0
  1 19  1  0  0  0  0
  1 20  1  0  0  0  0
  1 21  1  0  0  0  0
  2  7  1  0  0  0  0
  2  3  1  0  0  0  0
  2 22  1  0  0  0  0
  3  4  1  0  0  0  0
  3 23  1  0  0  0  0
  3 24  1  0  0  0  0
  4  5  1  0  0  0  0
  4 25  1  0  0  0  0
  4 26  1  0  0  0  0
  5  6  1  0  0  0  0
  5 27  1  0  0  0  0
  5 28  1  0  0  0  0
  6  7  1  0  0  0  0
  6 29  1  0  0  0  0
  6 30  1  0  0  0  0
  7  8  1  0  0  0  0
  7 31  1  0  0  0  0
  8  9  1  0  0  0  0
  8 32  1  0  0  0  0
  9 10  2  0  0  0  0
  9 11  1  0  0  0  0
 11 12  1  0  0  0  0
 11 33  1  0  0  0  0
 11 34  1  0  0  0  0
 12 18  1  0  0  0  0
 12 13  1  0  0  0  0
 13 14  2  0  0  0  0
 13 35  1  0  0  0  0
 14 15  1  0  0  0  0
 15 16  1  0  0  0  0
 15 18  2  0  0  0  0
 16 17  3  0  0  0  0
M  END
> <s_m_source_file>
AV-unprocessed.smi

> <i_m_source_file_index>
295

> <i_lp_mmshare_version>
43012

> <i_f3d_flags>
0

> <s_epik_input>
W0NIM11bQ0BASF0xW0NIMl1bQ0gyXVtDSDJdW0NIMl1bQ0BIXTFbTkhdQyg9TylbQ0gyXW4yW2NIXW5jKG4yKUMjTg==

> <s_epik_cmdline>
J2VwaWtfcHl0aG9uJywgJy1waCcsICc3LjAnLCAnLXRuJywgJzgnLCAnLW1hJywgJzIwMCcsICctbWV0YWxfYmluZGluZycsICctaW1hZScsICc8aW5maWxlLm1hZT4nLCAnLW9tYWUnLCAnPG91dGZpbGUubWFlPic=

> <r_lp_tautomer_probability>
1

> <r_epik_Ionization_Penalty>
5.31112e-08

> <r_epik_Ionization_Penalty_Charging>
0

> <r_epik_Ionization_Penalty_Neutral>
5.31112e-08

> <r_epik_State_Penalty>
-0

> <r_epik_Charging_Adjusted_Penalty>
0

> <i_epik_Tot_Q>
0

> <i_epik_Tot_abs_Q>
0

> <r_epik_Metal_State_Penalty>
-0

> <b_epik_Metal_Only>
0

> <s_lp_Force_Field>
OPLS_2005

> <r_lp_Energy>
12.1326

> <b_lp_Chiralities_Consistent>
1

> <s_lp_Variant>
AV-unprocessed.smi:295-3

> <Gold.Version>
5.8.1

> <Gold.Id.Protein>
6NUR|6NUR_protein|mol2

> <Gold.PLP.Fitness>
33.7485

> <Gold.PLP.PLP>
-26.5033

> <Gold.PLP.part.hbond>
-4.0000

> <Gold.PLP.part.metal>
0.0000

> <Gold.PLP.part.buried>
-3.5840

> <Gold.PLP.part.nonpolar>
-19.4549

> <Gold.PLP.part.repulsive>
0.1451

> <Gold.PLP.ligand.clash>
0.0000

> <Gold.PLP.ligand.torsion>
0.7031

> <Gold.PLP.Chemscore.Hbond>
2.8793

> <Gold.PLP.Chemscore.CHOScore>
0.0000

> <Gold.PLP.Chemscore.Metal>
0.0000

> <Gold.Chemscore.Hbonds>
donor molecule, donor type, donor heavy atom, donor atom, acceptor molecule, acceptor atom, score
      P1  H  6896  6908       L1    14  0.78
      P1  H  6931  6943       L1    17  0.77
      P1  H  6934  6947       L1    17  0.41
      P1  H  7989  7998       L1    10  1.00

> <Gold.PLP.Chemscore.Internal.Correction>
0.0134

> <Gold.Rescore>
     Score         DG    S(hbond)    S(metal)    S(lipo)     H(rot)  DE(clash)    DE(int)     intcor
     12.52     -14.45       2.75        0.00      40.74       1.95       0.09       1.83       ----

> <Gold.Chemscore.Fitness>
12.5174

> <Gold.Chemscore.DG>
-14.4454

> <Gold.Chemscore.ZeroCoef>
-5.4800

> <Gold.Chemscore.Hbond>
2.7499

> <Gold.Chemscore.Metal>
0.0000

> <Gold.Chemscore.Lipo>
40.7354

> <Gold.Chemscore.Internal_Hbond>
0.0000

> <Gold.Chemscore.DEClash>
0.0944

> <Gold.Chemscore.DEInternal>
1.8336

> <Gold.Chemscore.Rot>
1.9474

> <Gold.Chemscore.Internal.Correction>
   9.000000E+99

> <Gold.Chemscore.Hbonds>
donor molecule, donor type, donor heavy atom, donor atom, acceptor molecule, acceptor atom, score
      P1  H  6896  6908       L1    14  0.66
      P1  H  6931  6943       L1    17  0.65
      P1  H  6934  6947       L1    17  0.40
      P1  H  7989  7998       L1    10  0.87

> <Gold.Chemscore.Hbond.Weighted>
-9.1846

> <Gold.Chemscore.Metal.Weighted>
-0.0000

> <Gold.Chemscore.Lipo.Weighted>
-4.7660

> <Gold.Chemscore.Internal_Hbond.Weighted>
0.0000

> <Gold.Chemscore.DEClash.Weighted>
0.0944

> <Gold.Chemscore.DEInternal.Weighted>
1.8336

> <Gold.Chemscore.Rot.Weighted>
4.9852

> <Gold.Chemscore.Internal.Correction.Weighted>
   9.000000E+99

> <Gold.Protein.RotatedTorsions>
[ 6907 6896 6895 6894 ] final -135.15 input  -60.11 | X-H torsion
[ 7974 7965 7964 7962 ] final   58.15 input  175.53 | X-H torsion
[ 8008 7997 7996 7995 ] final   70.40 input   59.86 | X-H torsion
[ 10167 10162 10161 10158 ] final  154.09 input  -65.29 | X-H torsion
[ 10718 10713 10712 10709 ] final  159.65 input   66.30 | X-H torsion
[ 10763 10752 10751 10750 ] final   63.42 input  -60.55 | X-H torsion
[ 11005 11000 10999 10996 ] final   16.62 input  -57.11 | X-H torsion

> <Gold.Protein.ActiveResidues>
 VAL166  LYS551  ARG553  GLY616  TRP617  ASP618  TYR619  PRO620  LYS621  CYS622 
 ASP623  PHE694  ASN695  SER759  ASP760  ASP761  ALA762  ILE779  LEU786  VAL792 
 PHE793  MET794  SER795  GLU796  ALA797  LYS798  CYS799  TRP800  GLU811  SER814 

> <Gold.Protein.RotatedAtoms>
  150.9944  133.6117  159.2703 H   0  0  0  0  0  0  0  0  0  0  0  0  # atno 6907 bound_to 6896
  151.3326  135.0844  159.9353 H   0  0  0  0  0  0  0  0  0  0  0  0  # atno 6908 bound_to 6896
  152.5255  133.9571  159.7754 H   0  0  0  0  0  0  0  0  0  0  0  0  # atno 6909 bound_to 6896
  145.9213  139.3732  143.0476 H   0  0  0  0  0  0  0  0  0  0  0  0  # atno 7974 bound_to 7965
  155.7382  140.3491  155.5091 H   0  0  0  0  0  0  0  0  0  0  0  0  # atno 8008 bound_to 7997
  155.9119  140.1052  157.1294 H   0  0  0  0  0  0  0  0  0  0  0  0  # atno 8009 bound_to 7997
  154.4057  140.1266  156.4555 H   0  0  0  0  0  0  0  0  0  0  0  0  # atno 8010 bound_to 7997
  139.4824  144.5216  151.7866 H   0  0  0  0  0  0  0  0  0  0  0  0  # atno 10167 bound_to 10162
  157.1612  131.0587  151.2231 H   0  0  0  0  0  0  0  0  0  0  0  0  # atno 10718 bound_to 10713
  153.0017  135.5430  154.6349 H   0  0  0  0  0  0  0  0  0  0  0  0  # atno 10763 bound_to 10752
  154.5618  135.2834  155.0914 H   0  0  0  0  0  0  0  0  0  0  0  0  # atno 10764 bound_to 10752
  154.2114  135.6467  153.5169 H   0  0  0  0  0  0  0  0  0  0  0  0  # atno 10765 bound_to 10752
  140.4450  134.1282  155.7695 H   0  0  0  0  0  0  0  0  0  0  0  0  # atno 11005 bound_to 11000
  145.8546  140.9510  143.0732 LP  0  0  0  0  0  0  0  0  0  0  0  0  # atno 17320 bound_to 7965
  144.6753  140.0451  143.7480 LP  0  0  0  0  0  0  0  0  0  0  0  0  # atno 17321 bound_to 7965
  140.4731  144.1558  150.5921 LP  0  0  0  0  0  0  0  0  0  0  0  0  # atno 17342 bound_to 10162
  140.4360  143.2547  151.9534 LP  0  0  0  0  0  0  0  0  0  0  0  0  # atno 17343 bound_to 10162
  157.4130  130.7396  149.6854 LP  0  0  0  0  0  0  0  0  0  0  0  0  # atno 17370 bound_to 10713
  155.9753  130.4090  150.3856 LP  0  0  0  0  0  0  0  0  0  0  0  0  # atno 17371 bound_to 10713
  141.1689  133.8648  157.1632 LP  0  0  0  0  0  0  0  0  0  0  0  0  # atno 17394 bound_to 11000
  140.0044  135.0014  157.0261 LP  0  0  0  0  0  0  0  0  0  0  0  0  # atno 17395 bound_to 11000

$$$$
