AV-unprocessed.smi:2867|AV-procd|sdf|11024|dock2
  -GOLD-   2272015483D 1   1.00000     0.00000
 Structure written by MMmdl.
 41 43  0  0  0  0  0  0  0  0  2 V2000
  154.5945  137.2055  163.1677 C   0  0  0  0  0  0  0  0  0  0  0  0
  155.1026  137.4933  161.8775 O   0  0  0  0  0  0  0  0  0  0  0  0
  154.1062  137.9813  160.9935 C   0  0  0  0  0  0  0  0  0  0  0  0
  154.4847  139.3941  160.5289 C   0  0  0  0  0  0  0  0  0  0  0  0
  153.4742  139.9668  159.6253 N   0  0  0  0  0  0  0  0  0  0  0  0
  152.7622  141.1277  159.6901 C   0  0  0  0  0  0  0  0  0  0  0  0
  152.8281  142.1423  160.7527 C   0  0  0  0  0  0  0  0  0  0  0  0
  152.1068  143.3496  160.6279 C   0  0  0  0  0  0  0  0  0  0  0  0
  152.1636  144.3299  161.6377 C   0  0  0  0  0  0  0  0  0  0  0  0
  152.9412  144.1091  162.7895 C   0  0  0  0  0  0  0  0  0  0  0  0
  153.6588  142.9068  162.9289 C   0  0  0  0  0  0  0  0  0  0  0  0
  154.4054  142.6880  164.0371 F   0  0  0  0  0  0  0  0  0  0  0  0
  153.5993  141.9300  161.9164 C   0  0  0  0  0  0  0  0  0  0  0  0
  151.9895  141.2260  158.5752 N   0  3  0  0  0  0  0  0  0  0  0  0
  152.2023  140.1005  157.7767 C   0  0  0  0  0  0  0  0  0  0  0  0
  151.6500  139.7403  156.5518 C   0  0  0  0  0  0  0  0  0  0  0  0
  152.0948  138.5211  155.9981 C   0  0  0  0  0  0  0  0  0  0  0  0
  151.4251  137.9820  154.4292 S   0  0  0  0  0  0  0  0  0  0  0  0
  150.7454  139.4362  153.8107 N   0  0  0  0  0  0  0  0  0  0  0  0
  152.5407  137.6035  153.5487 O   0  0  0  0  0  0  0  0  0  0  0  0
  150.3178  137.0479  154.6848 O   0  0  0  0  0  0  0  0  0  0  0  0
  153.0501  137.7123  156.6489 C   0  0  0  0  0  0  0  0  0  0  0  0
  153.6020  138.0903  157.8907 C   0  0  0  0  0  0  0  0  0  0  0  0
  153.1559  139.2930  158.4395 C   0  0  0  0  0  0  0  0  0  0  0  0
  155.4018  136.8482  163.8070 H   0  0  0  0  0  0  0  0  0  0  0  0
  153.8294  136.4293  163.1253 H   0  0  0  0  0  0  0  0  0  0  0  0
  154.1666  138.0952  163.6314 H   0  0  0  0  0  0  0  0  0  0  0  0
  154.0125  137.3170  160.1328 H   0  0  0  0  0  0  0  0  0  0  0  0
  153.1381  138.0041  161.4959 H   0  0  0  0  0  0  0  0  0  0  0  0
  154.6261  140.0627  161.3781 H   0  0  0  0  0  0  0  0  0  0  0  0
  155.4380  139.3669  160.0040 H   0  0  0  0  0  0  0  0  0  0  0  0
  151.5095  143.5323  159.7465 H   0  0  0  0  0  0  0  0  0  0  0  0
  151.6112  145.2515  161.5276 H   0  0  0  0  0  0  0  0  0  0  0  0
  152.9860  144.8596  163.5648 H   0  0  0  0  0  0  0  0  0  0  0  0
  154.1495  141.0085  162.0383 H   0  0  0  0  0  0  0  0  0  0  0  0
  150.9209  140.3591  156.0493 H   0  0  0  0  0  0  0  0  0  0  0  0
  150.0910  139.8701  154.4613 H   0  0  0  0  0  0  0  0  0  0  0  0
  150.3698  139.3231  152.8694 H   0  0  0  0  0  0  0  0  0  0  0  0
  153.3684  136.7861  156.1924 H   0  0  0  0  0  0  0  0  0  0  0  0
  154.3345  137.4671  158.3819 H   0  0  0  0  0  0  0  0  0  0  0  0
  151.3680  142.0003  158.3799 H   0  0  0  0  0  0  0  0  0  0  0  0
  1  2  1  0  0  0  0
  1 25  1  0  0  0  0
  1 26  1  0  0  0  0
  1 27  1  0  0  0  0
  2  3  1  0  0  0  0
  3  4  1  0  0  0  0
  3 28  1  0  0  0  0
  3 29  1  0  0  0  0
  4  5  1  0  0  0  0
  4 30  1  0  0  0  0
  4 31  1  0  0  0  0
  5 24  1  0  0  0  0
  5  6  1  0  0  0  0
  6  7  1  0  0  0  0
  6 14  2  0  0  0  0
  7 13  1  0  0  0  0
  7  8  2  0  0  0  0
  8  9  1  0  0  0  0
  8 32  1  0  0  0  0
  9 10  2  0  0  0  0
  9 33  1  0  0  0  0
 10 11  1  0  0  0  0
 10 34  1  0  0  0  0
 11 12  1  0  0  0  0
 11 13  2  0  0  0  0
 13 35  1  0  0  0  0
 14 15  1  0  0  0  0
 14 41  1  0  0  0  0
 15 24  2  0  0  0  0
 15 16  1  0  0  0  0
 16 17  2  0  0  0  0
 16 36  1  0  0  0  0
 17 18  1  0  0  0  0
 17 22  1  0  0  0  0
 18 19  1  0  0  0  0
 18 20  2  0  0  0  0
 18 21  2  0  0  0  0
 19 37  1  0  0  0  0
 19 38  1  0  0  0  0
 22 23  2  0  0  0  0
 22 39  1  0  0  0  0
 23 24  1  0  0  0  0
 23 40  1  0  0  0  0
M  CHG  1  14   1
M  END
> <s_m_source_file>
AV-unprocessed.smi

> <i_m_source_file_index>
2867

> <i_lp_mmshare_version>
43012

> <i_f3d_flags>
0

> <s_epik_input>
W05IMl1TKD1PKSg9TyljKFtjSF0xKVtjSF1bY0hdYyhjMTIpbihbQ0gyXVtDSDJdT1tDSDNdKWMobjIpLWMzW2NIXVtjSF1bY0hdYyhGKVtjSF0z

> <s_epik_cmdline>
J2VwaWtfcHl0aG9uJywgJy1waCcsICc3LjAnLCAnLXRuJywgJzgnLCAnLW1hJywgJzIwMCcsICctbWV0YWxfYmluZGluZycsICctaW1hZScsICc8aW5maWxlLm1hZT4nLCAnLW9tYWUnLCAnPG91dGZpbGUubWFlPic=

> <r_epik_Ionization_Penalty>
1.25825

> <r_epik_Ionization_Penalty_Charging>
1.24336

> <r_epik_Ionization_Penalty_Neutral>
0.014884

> <r_epik_State_Penalty>
1.4115

> <r_epik_Charging_Adjusted_Penalty>
2.65486

> <i_epik_Tot_Q>
1

> <i_epik_Tot_abs_Q>
1

> <r_epik_Metal_State_Penalty>
3.65574

> <b_epik_Metal_Only>
0

> <s_lp_Force_Field>
OPLS_2005

> <r_lp_Energy>
21.7235

> <b_lp_Chiralities_Consistent>
1

> <s_lp_Variant>
AV-unprocessed.smi:2867-2

> <Gold.Version>
5.8.1

> <Gold.Id.Protein>
6NUR|6NUR_protein|mol2

> <Gold.PLP.Fitness>
51.6243

> <Gold.PLP.PLP>
-44.6357

> <Gold.PLP.part.hbond>
-3.0000

> <Gold.PLP.part.metal>
0.0000

> <Gold.PLP.part.buried>
-3.8284

> <Gold.PLP.part.nonpolar>
-39.4118

> <Gold.PLP.part.repulsive>
2.5102

> <Gold.PLP.ligand.clash>
0.0000

> <Gold.PLP.ligand.torsion>
1.6349

> <Gold.PLP.Chemscore.Hbond>
2.7420

> <Gold.PLP.Chemscore.CHOScore>
0.0000

> <Gold.PLP.Chemscore.Metal>
0.0000

> <Gold.Chemscore.Hbonds>
donor molecule, donor type, donor heavy atom, donor atom, acceptor molecule, acceptor atom, score
      L1  H    19    38       P1  7957  1.00
      P1  H  7989  7998       L1    19  0.60
      P1  H 10752 10763       L1    20  0.74

> <Gold.PLP.Chemscore.Internal.Correction>
2.0323

> <Gold.Rescore>
     Score         DG    S(hbond)    S(metal)    S(lipo)     H(rot)  DE(clash)    DE(int)     intcor
     17.66     -21.75       1.83        0.00     119.08       1.47       1.56       2.53       ----

> <Gold.Chemscore.Fitness>
17.6603

> <Gold.Chemscore.DG>
-21.7502

> <Gold.Chemscore.ZeroCoef>
-5.4800

> <Gold.Chemscore.Hbond>
1.8295

> <Gold.Chemscore.Metal>
0.0000

> <Gold.Chemscore.Lipo>
119.0814

> <Gold.Chemscore.Internal_Hbond>
0.0000

> <Gold.Chemscore.DEClash>
1.5560

> <Gold.Chemscore.DEInternal>
2.5339

> <Gold.Chemscore.Rot>
1.4738

> <Gold.Chemscore.Internal.Correction>
   9.000000E+99

> <Gold.Chemscore.Hbonds>
donor molecule, donor type, donor heavy atom, donor atom, acceptor molecule, acceptor atom, score
      L1  H    19    38       P1  7957  0.74
      P1  H  7989  7998       L1    19  0.01
      P1  H 10752 10763       L1    20  0.38

> <Gold.Chemscore.Hbond.Weighted>
-6.1106

> <Gold.Chemscore.Metal.Weighted>
-0.0000

> <Gold.Chemscore.Lipo.Weighted>
-13.9325

> <Gold.Chemscore.Internal_Hbond.Weighted>
0.0000

> <Gold.Chemscore.DEClash.Weighted>
1.5560

> <Gold.Chemscore.DEInternal.Weighted>
2.5339

> <Gold.Chemscore.Rot.Weighted>
3.7730

> <Gold.Chemscore.Internal.Correction.Weighted>
   9.000000E+99

> <Gold.Protein.RotatedTorsions>
[ 6907 6896 6895 6894 ] final  147.43 input  -60.11 | X-H torsion
[ 7974 7965 7964 7962 ] final -136.82 input  175.53 | X-H torsion
[ 8008 7997 7996 7995 ] final   84.07 input   59.86 | X-H torsion
[ 10167 10162 10161 10158 ] final   44.24 input  -65.29 | X-H torsion
[ 10718 10713 10712 10709 ] final  -11.76 input   66.30 | X-H torsion
[ 10763 10752 10751 10750 ] final   28.00 input  -60.55 | X-H torsion
[ 11005 11000 10999 10996 ] final -107.63 input  -57.11 | X-H torsion

> <Gold.Protein.ActiveResidues>
 VAL166  LYS551  ARG553  GLY616  TRP617  ASP618  TYR619  PRO620  LYS621  CYS622 
 ASP623  PHE694  ASN695  SER759  ASP760  ASP761  ALA762  ILE779  LEU786  VAL792 
 PHE793  MET794  SER795  GLU796  ALA797  LYS798  CYS799  TRP800  GLU811  SER814 

> <Gold.Protein.RotatedAtoms>
  152.1548  133.4544  159.4831 H   0  0  0  0  0  0  0  0  0  0  0  0  # atno 6907 bound_to 6896
  150.6899  134.2144  159.4381 H   0  0  0  0  0  0  0  0  0  0  0  0  # atno 6908 bound_to 6896
  152.0043  134.9911  160.0617 H   0  0  0  0  0  0  0  0  0  0  0  0  # atno 6909 bound_to 6896
  144.8894  140.6621  143.5155 H   0  0  0  0  0  0  0  0  0  0  0  0  # atno 7974 bound_to 7965
  155.9322  140.3414  155.6258 H   0  0  0  0  0  0  0  0  0  0  0  0  # atno 8008 bound_to 7997
  155.7143  140.0775  157.2376 H   0  0  0  0  0  0  0  0  0  0  0  0  # atno 8009 bound_to 7997
  154.4087  140.1617  156.2319 H   0  0  0  0  0  0  0  0  0  0  0  0  # atno 8010 bound_to 7997
  140.3363  144.2526  150.6161 H   0  0  0  0  0  0  0  0  0  0  0  0  # atno 10167 bound_to 10162
  156.6544  130.4964  149.6051 H   0  0  0  0  0  0  0  0  0  0  0  0  # atno 10718 bound_to 10713
  153.0519  135.6523  154.0671 H   0  0  0  0  0  0  0  0  0  0  0  0  # atno 10763 bound_to 10752
  154.0358  135.2907  155.3363 H   0  0  0  0  0  0  0  0  0  0  0  0  # atno 10764 bound_to 10752
  154.6813  135.5319  153.8333 H   0  0  0  0  0  0  0  0  0  0  0  0  # atno 10765 bound_to 10752
  141.0944  133.8998  157.1999 H   0  0  0  0  0  0  0  0  0  0  0  0  # atno 11005 bound_to 11000
  145.3810  139.1637  143.4280 LP  0  0  0  0  0  0  0  0  0  0  0  0  # atno 17320 bound_to 7965
  146.3044  140.3891  142.8692 LP  0  0  0  0  0  0  0  0  0  0  0  0  # atno 17321 bound_to 7965
  140.5350  143.2235  151.8177 LP  0  0  0  0  0  0  0  0  0  0  0  0  # atno 17342 bound_to 10162
  139.4848  144.4672  151.9469 LP  0  0  0  0  0  0  0  0  0  0  0  0  # atno 17343 bound_to 10162
  156.2059  130.6649  151.1218 LP  0  0  0  0  0  0  0  0  0  0  0  0  # atno 17370 bound_to 10713
  157.7130  131.0724  150.6431 LP  0  0  0  0  0  0  0  0  0  0  0  0  # atno 17371 bound_to 10713
  139.9777  135.0108  156.9671 LP  0  0  0  0  0  0  0  0  0  0  0  0  # atno 17394 bound_to 11000
  140.5176  134.0939  155.7284 LP  0  0  0  0  0  0  0  0  0  0  0  0  # atno 17395 bound_to 11000

$$$$
