AV-unprocessed.smi:2182|AV-procd|sdf|8863|dock3
  -GOLD-   2272012 53D 1   1.00000     0.00000
 Structure written by MMmdl.
 41 43  0  0  0  0  0  0  0  0  1 V2000
  153.5231  139.1318  154.6537 N   0  0  0  0  0  0  0  0  0  0  0  0
  152.4349  138.7527  154.5450 C   0  0  0  0  0  0  0  0  0  0  0  0
  151.0943  138.2788  154.4421 C   0  0  0  0  0  0  0  0  0  0  0  0
  150.1377  138.9861  153.8062 C   0  0  0  0  0  0  0  0  0  0  0  0
  148.8391  138.5406  153.6906 N   0  0  0  0  0  0  0  0  0  0  0  0
  147.8047  139.3805  153.1556 C   0  0  0  0  0  0  0  0  0  0  0  0
  148.1163  140.7998  152.7215 C   0  0  0  0  0  0  0  0  0  0  0  0
  147.3140  140.5534  153.9759 C   0  0  0  0  0  0  0  0  0  0  0  0
  148.4441  137.3380  154.3154 C   0  0  0  0  0  0  0  0  0  0  0  0
  147.2661  136.9705  154.3067 O   0  0  0  0  0  0  0  0  0  0  0  0
  149.4402  136.5708  154.9676 N   0  0  0  0  0  0  0  0  0  0  0  0
  149.0338  135.3062  155.6184 C   0  0  0  0  0  0  0  0  0  0  0  0
  149.0964  134.1034  154.6662 C   0  0  0  0  0  0  0  0  0  0  0  0
  150.0615  133.3381  154.6843 O   0  0  0  0  0  0  0  0  0  0  0  0
  148.0525  133.9535  153.8371 N   0  0  0  0  0  0  0  0  0  0  0  0
  147.8734  132.8555  152.8930 C   0  0  0  0  0  0  0  0  0  0  0  0
  146.5662  133.0021  152.0943 C   0  0  2  0  0  0  0  0  0  0  0  0
  146.3637  131.9806  150.9762 C   0  0  0  0  0  0  0  0  0  0  0  0
  145.3725  132.6741  150.0593 C   0  0  0  0  0  0  0  0  0  0  0  0
  145.5379  134.1610  150.3923 C   0  0  0  0  0  0  0  0  0  0  0  0
  146.5570  134.2292  151.3833 O   0  0  0  0  0  0  0  0  0  0  0  0
  150.7914  136.9917  155.0640 C   0  0  0  0  0  0  0  0  0  0  0  0
  151.6311  136.3066  155.6500 O   0  0  0  0  0  0  0  0  0  0  0  0
  150.3981  139.9378  153.3653 H   0  0  0  0  0  0  0  0  0  0  0  0
  147.0463  138.8638  152.5699 H   0  0  0  0  0  0  0  0  0  0  0  0
  149.1334  141.1665  152.8473 H   0  0  0  0  0  0  0  0  0  0  0  0
  147.5867  141.1854  151.8528 H   0  0  0  0  0  0  0  0  0  0  0  0
  146.2497  140.7774  153.9434 H   0  0  0  0  0  0  0  0  0  0  0  0
  147.8034  140.7550  154.9270 H   0  0  0  0  0  0  0  0  0  0  0  0
  149.6624  135.1153  156.4904 H   0  0  0  0  0  0  0  0  0  0  0  0
  148.0240  135.3629  156.0266 H   0  0  0  0  0  0  0  0  0  0  0  0
  147.3095  134.6353  153.8859 H   0  0  0  0  0  0  0  0  0  0  0  0
  148.7199  132.8673  152.2061 H   0  0  0  0  0  0  0  0  0  0  0  0
  147.9080  131.8906  153.4020 H   0  0  0  0  0  0  0  0  0  0  0  0
  145.7085  132.9876  152.7701 H   0  0  0  0  0  0  0  0  0  0  0  0
  147.3012  131.8154  150.4435 H   0  0  0  0  0  0  0  0  0  0  0  0
  146.0047  131.0167  151.3386 H   0  0  0  0  0  0  0  0  0  0  0  0
  145.5756  132.4586  149.0098 H   0  0  0  0  0  0  0  0  0  0  0  0
  144.3540  132.3507  150.2779 H   0  0  0  0  0  0  0  0  0  0  0  0
  145.8175  134.7522  149.5197 H   0  0  0  0  0  0  0  0  0  0  0  0
  144.6101  134.5695  150.7953 H   0  0  0  0  0  0  0  0  0  0  0  0
  1  2  3  0  0  0  0
  2  3  1  0  0  0  0
  3 22  1  0  0  0  0
  3  4  2  0  0  0  0
  4  5  1  0  0  0  0
  4 24  1  0  0  0  0
  5  6  1  0  0  0  0
  5  9  1  0  0  0  0
  6  8  1  0  0  0  0
  6  7  1  0  0  0  0
  6 25  1  0  0  0  0
  7  8  1  0  0  0  0
  7 26  1  0  0  0  0
  7 27  1  0  0  0  0
  8 28  1  0  0  0  0
  8 29  1  0  0  0  0
  9 10  2  0  0  0  0
  9 11  1  0  0  0  0
 11 12  1  0  0  0  0
 11 22  1  0  0  0  0
 12 13  1  0  0  0  0
 12 30  1  0  0  0  0
 12 31  1  0  0  0  0
 13 14  2  0  0  0  0
 13 15  1  0  0  0  0
 15 16  1  0  0  0  0
 15 32  1  0  0  0  0
 16 17  1  0  0  0  0
 16 33  1  0  0  0  0
 16 34  1  0  0  0  0
 17 21  1  0  0  0  0
 17 18  1  0  0  0  0
 17 35  1  0  0  0  0
 18 19  1  0  0  0  0
 18 36  1  0  0  0  0
 18 37  1  0  0  0  0
 19 20  1  0  0  0  0
 19 38  1  0  0  0  0
 19 39  1  0  0  0  0
 20 21  1  0  0  0  0
 20 40  1  0  0  0  0
 20 41  1  0  0  0  0
 22 23  2  0  0  0  0
M  END
> <s_m_source_file>
AV-unprocessed.smi

> <i_m_source_file_index>
2182

> <i_lp_mmshare_version>
43012

> <i_f3d_flags>
0

> <s_epik_input>
TiNDYzFbY0hdbihbQ0hdMltDSDJdW0NIMl0yKWMoPU8pbihjMT1PKVtDSDJdQyg9TylbTkhdW0NIMl1bQ0BASF0zW0NIMl1bQ0gyXVtDSDJdTzM=

> <s_epik_cmdline>
J2VwaWtfcHl0aG9uJywgJy1waCcsICc3LjAnLCAnLXRuJywgJzgnLCAnLW1hJywgJzIwMCcsICctbWV0YWxfYmluZGluZycsICctaW1hZScsICc8aW5maWxlLm1hZT4nLCAnLW9tYWUnLCAnPG91dGZpbGUubWFlPic=

> <r_lp_tautomer_probability>
1

> <r_epik_Ionization_Penalty>
2.69429e-08

> <r_epik_Ionization_Penalty_Charging>
8.38654e-11

> <r_epik_Ionization_Penalty_Neutral>
2.6859e-08

> <r_epik_State_Penalty>
-0

> <r_epik_Charging_Adjusted_Penalty>
8.38654e-11

> <i_epik_Tot_Q>
0

> <i_epik_Tot_abs_Q>
0

> <r_epik_Metal_State_Penalty>
-0

> <b_epik_Metal_Only>
0

> <s_lp_Force_Field>
OPLS_2005

> <r_lp_Energy>
43.5175

> <b_lp_Chiralities_Consistent>
1

> <s_lp_Variant>
AV-unprocessed.smi:2182-1

> <Gold.Version>
5.8.1

> <Gold.Id.Protein>
6NUR|6NUR_protein|mol2

> <Gold.PLP.Fitness>
41.4019

> <Gold.PLP.PLP>
-36.8477

> <Gold.PLP.part.hbond>
-3.0000

> <Gold.PLP.part.metal>
0.0000

> <Gold.PLP.part.buried>
-4.1546

> <Gold.PLP.part.nonpolar>
-30.7687

> <Gold.PLP.part.repulsive>
0.5363

> <Gold.PLP.ligand.clash>
0.0000

> <Gold.PLP.ligand.torsion>
0.9557

> <Gold.PLP.Chemscore.Hbond>
2.0000

> <Gold.PLP.Chemscore.CHOScore>
0.0749

> <Gold.PLP.Chemscore.Metal>
0.0000

> <Gold.Chemscore.Hbonds>
donor molecule, donor type, donor heavy atom, donor atom, acceptor molecule, acceptor atom, score
      P1  H  7997  8009       L1     1  1.00
      P1  H 10752 10765       L1    23  1.00
      L1  C     4    24       P1  7957  0.60

> <Gold.PLP.Chemscore.Internal.Correction>
0.2410

> <Gold.Rescore>
     Score         DG    S(hbond)    S(metal)    S(lipo)     H(rot)  DE(clash)    DE(int)     intcor
     13.91     -14.86       2.00        0.00      68.57       2.08       0.02       0.93       ----

> <Gold.Chemscore.Fitness>
13.9067

> <Gold.Chemscore.DG>
-14.8555

> <Gold.Chemscore.ZeroCoef>
-5.4800

> <Gold.Chemscore.Hbond>
1.9977

> <Gold.Chemscore.Metal>
0.0000

> <Gold.Chemscore.Lipo>
68.5665

> <Gold.Chemscore.Internal_Hbond>
0.0000

> <Gold.Chemscore.DEClash>
0.0224

> <Gold.Chemscore.DEInternal>
0.9264

> <Gold.Chemscore.Rot>
2.0778

> <Gold.Chemscore.Internal.Correction>
   9.000000E+99

> <Gold.Chemscore.Hbonds>
donor molecule, donor type, donor heavy atom, donor atom, acceptor molecule, acceptor atom, score
      P1  H  7997  8009       L1     1  0.99
      P1  H 10752 10765       L1    23  1.00

> <Gold.Chemscore.Hbond.Weighted>
-6.6722

> <Gold.Chemscore.Metal.Weighted>
-0.0000

> <Gold.Chemscore.Lipo.Weighted>
-8.0223

> <Gold.Chemscore.Internal_Hbond.Weighted>
0.0000

> <Gold.Chemscore.DEClash.Weighted>
0.0224

> <Gold.Chemscore.DEInternal.Weighted>
0.9264

> <Gold.Chemscore.Rot.Weighted>
5.3191

> <Gold.Chemscore.Internal.Correction.Weighted>
   9.000000E+99

> <Gold.Protein.RotatedTorsions>
[ 6907 6896 6895 6894 ] final   -6.52 input  -60.11 | X-H torsion
[ 7974 7965 7964 7962 ] final   23.08 input  175.53 | X-H torsion
[ 8008 7997 7996 7995 ] final -120.52 input   59.86 | X-H torsion
[ 10167 10162 10161 10158 ] final  -77.11 input  -65.29 | X-H torsion
[ 10718 10713 10712 10709 ] final -115.82 input   66.30 | X-H torsion
[ 10763 10752 10751 10750 ] final -154.54 input  -60.55 | X-H torsion
[ 11005 11000 10999 10996 ] final  -92.10 input  -57.11 | X-H torsion

> <Gold.Protein.ActiveResidues>
 VAL166  LYS551  ARG553  GLY616  TRP617  ASP618  TYR619  PRO620  LYS621  CYS622 
 ASP623  PHE694  ASN695  SER759  ASP760  ASP761  ALA762  ILE779  LEU786  VAL792 
 PHE793  MET794  SER795  GLU796  ALA797  LYS798  CYS799  TRP800  GLU811  SER814 

> <Gold.Protein.RotatedAtoms>
  151.4643  135.1041  159.9733 H   0  0  0  0  0  0  0  0  0  0  0  0  # atno 6907 bound_to 6896
  152.4841  133.8324  159.7120 H   0  0  0  0  0  0  0  0  0  0  0  0  # atno 6908 bound_to 6896
  150.8936  133.7150  159.2925 H   0  0  0  0  0  0  0  0  0  0  0  0  # atno 6909 bound_to 6896
  146.2000  139.7795  142.8768 H   0  0  0  0  0  0  0  0  0  0  0  0  # atno 7974 bound_to 7965
  155.1331  140.0400  157.2780 H   0  0  0  0  0  0  0  0  0  0  0  0  # atno 8008 bound_to 7997
  154.6528  140.2573  155.7169 H   0  0  0  0  0  0  0  0  0  0  0  0  # atno 8009 bound_to 7997
  156.2585  140.2833  156.0968 H   0  0  0  0  0  0  0  0  0  0  0  0  # atno 8010 bound_to 7997
  140.4798  143.2405  151.8075 H   0  0  0  0  0  0  0  0  0  0  0  0  # atno 10167 bound_to 10162
  156.0921  130.6102  150.8956 H   0  0  0  0  0  0  0  0  0  0  0  0  # atno 10718 bound_to 10713
  154.7851  135.3187  154.7904 H   0  0  0  0  0  0  0  0  0  0  0  0  # atno 10763 bound_to 10752
  153.8606  135.6853  153.4787 H   0  0  0  0  0  0  0  0  0  0  0  0  # atno 10764 bound_to 10752
  153.1500  135.4703  154.9561 H   0  0  0  0  0  0  0  0  0  0  0  0  # atno 10765 bound_to 10752
  141.1530  133.7799  156.9972 H   0  0  0  0  0  0  0  0  0  0  0  0  # atno 11005 bound_to 11000
  145.3514  141.0308  143.3336 LP  0  0  0  0  0  0  0  0  0  0  0  0  # atno 17320 bound_to 7965
  144.8663  139.5102  143.6788 LP  0  0  0  0  0  0  0  0  0  0  0  0  # atno 17321 bound_to 7965
  139.4831  144.4786  151.9335 LP  0  0  0  0  0  0  0  0  0  0  0  0  # atno 17342 bound_to 10162
  140.3872  144.2662  150.5903 LP  0  0  0  0  0  0  0  0  0  0  0  0  # atno 17343 bound_to 10162
  157.6073  131.0938  150.8856 LP  0  0  0  0  0  0  0  0  0  0  0  0  # atno 17370 bound_to 10713
  156.9002  130.5244  149.5283 LP  0  0  0  0  0  0  0  0  0  0  0  0  # atno 17371 bound_to 10713
  140.0964  134.9562  157.1855 LP  0  0  0  0  0  0  0  0  0  0  0  0  # atno 17394 bound_to 11000
  140.3377  134.2738  155.7217 LP  0  0  0  0  0  0  0  0  0  0  0  0  # atno 17395 bound_to 11000

$$$$
