#       Name:                AV-unprocessed.smi:3116
#       Creating user name   scv26
#       Creation time:       Fri Mar 27 17:25:42 2020


#       File generated by GOLD software.
#

@<TRIPOS>MOLECULE
AV-unprocessed.smi:3116
    37    37     1
SMALL
NO_CHARGES


@<TRIPOS>ATOM
      1 ****        -1.2637   1.5393   2.3354 C.3            1 S1                 0.0000
      2 ****        -1.2701   0.9920   0.8931 C.3            1 S1                 0.0000
      3 ****        -0.8113  -0.4052   0.8517 N.3            1 S1                 0.0000
      4 ****         0.6346  -0.5591   1.0087 C.3            1 S1                 0.0000
      5 ****         0.8546  -1.4323   2.2561 C.3            1 S1                 0.0000
      6 ****         1.2253  -1.1818  -0.2861 C.3            1 S1                 0.0000
      7 ****         2.7422  -1.4364  -0.1953 C.3            1 S1                 0.0000
      8 ****         0.9269  -0.3670  -1.4600 N.pl3          1 S1                 0.0000
      9 ****         0.1052  -0.6774  -2.5240 C.2            1 S1                 0.0000
     10 ****         0.1132   0.3915  -3.3735 C.2            1 S1                 0.0000
     11 ****         0.9803   1.3221  -2.7369 C.2            1 S1                 0.0000
     12 ****         1.4639   0.8675  -1.5929 N.2            1 S1                 0.0000
     13 ****        -2.6557   1.1000   0.2422 C.2            1 S1                 0.0000
     14 ****        -2.6985   1.0103  -1.0897 N.am           1 S1                 0.0000
     15 ****        -3.6732   1.2479   0.9175 O.2            1 S1                 0.0000
     16 ****        -1.6458   2.5604   2.3724 H              1 S1                 0.0000
     17 ****        -0.2560   1.5620   2.7500 H              1 S1                 0.0000
     18 ****        -1.8778   0.9295   2.9994 H              1 S1                 0.0000
     19 ****        -0.6021   1.6065   0.2870 H              1 S1                 0.0000
     20 ****        -1.2953  -0.9758   1.5299 H              1 S1                 0.0000
     21 ****         1.1142   0.4053   1.1850 H              1 S1                 0.0000
     22 ****         1.9126  -1.5175   2.5027 H              1 S1                 0.0000
     23 ****         0.4623  -2.4400   2.1135 H              1 S1                 0.0000
     24 ****         0.3611  -1.0041   3.1294 H              1 S1                 0.0000
     25 ****         0.7467  -2.1496  -0.4455 H              1 S1                 0.0000
     26 ****         2.9790  -2.1868   0.5582 H              1 S1                 0.0000
     27 ****         3.2871  -0.5264   0.0573 H              1 S1                 0.0000
     28 ****         3.1333  -1.8046  -1.1443 H              1 S1                 0.0000
     29 ****        -0.4154  -1.6218  -2.5851 H              1 S1                 0.0000
     30 ****        -0.4201   0.4934  -4.3069 H              1 S1                 0.0000
     31 ****         1.2696   2.3082  -3.0690 H              1 S1                 0.0000
     32 ****        -3.5857   1.0798  -1.5673 H              1 S1                 0.0000
     33 ****        -1.8446   0.8783  -1.6120 H              1 S1                 0.0000
     34 ****        -1.0366  -0.7239  -0.0690 LP             1 S1                 0.0000
     35 ****         2.0880   1.3331  -0.9655 LP             1 S1                 0.0000
     36 ****        -3.6087   1.3004   1.9140 LP             1 S1                 0.0000
     37 ****        -4.5649   1.3157   0.4699 LP             1 S1                 0.0000
@<TRIPOS>BOND
    1    1    2 1     
    2    1   16 1     
    3    1   17 1     
    4    1   18 1     
    5    2    3 1     
    6    2   13 1     
    7    2   19 1     
    8    3    4 1     
    9    3   20 1     
   10    4    5 1     
   11    4    6 1     
   12    4   21 1     
   13    5   22 1     
   14    5   23 1     
   15    5   24 1     
   16    6    7 1     
   17    6    8 1     
   18    6   25 1     
   19    7   26 1     
   20    7   27 1     
   21    7   28 1     
   22    8   12 1     
   23    8    9 1     
   24    9   10 2     
   25    9   29 1     
   26   10   11 1     
   27   10   30 1     
   28   11   12 2     
   29   11   31 1     
   30   13   14 am    
   31   13   15 2     
   32   14   32 1     
   33   14   33 1     
   34    3   34 1     
   35   12   35 1     
   36   15   36 1     
   37   15   37 1     
@<TRIPOS>SUBSTRUCTURE
      1 S1             1
@<TRIPOS>SET
LONE_PAIRS      STATIC     ATOMS    <user>   **** ""
4 34 35 36 37
DONOR_HYDROGENS      STATIC     ATOMS    <user>   **** ""
3 20 32 33
ATOM$BLUE        STATIC     ATOMS    COLORGROUP SYSTEM
4 34 35 36 37
ATOM$RED        STATIC     ATOMS    COLORGROUP SYSTEM
3 20 32 33
