#       Name:                AV-unprocessed.smi:2751
#       Creating user name   scv26
#       Creation time:       Fri Mar 27 15:04:51 2020


#       File generated by GOLD software.
#

@<TRIPOS>MOLECULE
AV-unprocessed.smi:2751
    41    42     1
SMALL
NO_CHARGES


@<TRIPOS>ATOM
      1 ****        -1.6565   1.6990   0.5525 O.2            1 S1                 0.0000
      2 ****        -2.1190   0.6735   1.0533 C.2            1 S1                 0.0000
      3 ****        -1.3660  -0.3681   1.4358 N.am           1 S1                 0.0000
      4 ****         0.0845  -0.4445   1.3034 C.3            1 S1                 0.0000
      5 ****         0.4987  -0.8654  -0.1172 C.3            1 S1                 0.0000
      6 ****         2.0203  -1.0051  -0.2814 C.3            1 S1                 0.0000
      7 ****         2.3993  -1.5666  -1.6661 C.3            1 S1                 0.0000
      8 ****         3.9225  -1.6201  -1.8280 C.3            1 S1                 0.0000
      9 ****         4.5223  -0.2434  -1.5246 C.3            1 S1                 0.0000
     10 ****         4.0384   0.2597  -0.1556 C.3            1 S1                 0.0000
     11 ****         2.6144   0.2822  -0.1218 O.3            1 S1                 0.0000
     12 ****        -3.4228   0.4452   1.2843 N.am           1 S1                 0.0000
     13 ****        -4.5130   1.3062   1.0008 C.2            1 S1                 0.0000
     14 ****        -4.4447   2.5240   0.4603 N.2            1 S1                 0.0000
     15 ****        -5.7635   2.9481   0.3855 C.2            1 S1                 0.0000
     16 ****        -6.5617   1.9537   0.8900 C.2            1 S1                 0.0000
     17 ****        -5.7792   0.9020   1.2859 O.3            1 S1                 0.0000
     18 ****        -1.8285  -1.1700   1.8386 H              1 S1                 0.0000
     19 ****         0.5360   0.5126   1.5702 H              1 S1                 0.0000
     20 ****         0.4516  -1.1722   2.0276 H              1 S1                 0.0000
     21 ****         0.0249  -1.8188  -0.3542 H              1 S1                 0.0000
     22 ****         0.1205  -0.1458  -0.8447 H              1 S1                 0.0000
     23 ****         2.3980  -1.6741   0.4942 H              1 S1                 0.0000
     24 ****         1.9769  -2.5630  -1.8000 H              1 S1                 0.0000
     25 ****         1.9709  -0.9382  -2.4484 H              1 S1                 0.0000
     26 ****         4.3383  -2.3609  -1.1440 H              1 S1                 0.0000
     27 ****         4.1879  -1.9387  -2.8363 H              1 S1                 0.0000
     28 ****         5.6114  -0.2922  -1.5467 H              1 S1                 0.0000
     29 ****         4.2240   0.4653  -2.2982 H              1 S1                 0.0000
     30 ****         4.4225  -0.3695   0.6490 H              1 S1                 0.0000
     31 ****         4.4107   1.2684   0.0248 H              1 S1                 0.0000
     32 ****        -3.6634  -0.4423   1.6999 H              1 S1                 0.0000
     33 ****        -6.0284   3.9145  -0.0174 H              1 S1                 0.0000
     34 ****        -7.6274   1.8452   1.0275 H              1 S1                 0.0000
     35 ****        -0.6702   1.7861   0.4123 LP             1 S1                 0.0000
     36 ****        -2.2672   2.4447   0.2861 LP             1 S1                 0.0000
     37 ****         2.3247   0.6574   0.7587 LP             1 S1                 0.0000
     38 ****         2.2897   0.8742  -0.8594 LP             1 S1                 0.0000
     39 ****        -3.6255   3.0204   0.1731 LP             1 S1                 0.0000
     40 ****        -5.8849   0.7296   2.2653 LP             1 S1                 0.0000
     41 ****        -6.0114   0.0744   0.7748 LP             1 S1                 0.0000
@<TRIPOS>BOND
    1    1    2 2     
    2    2    3 am    
    3    2   12 am    
    4    3    4 1     
    5    3   18 1     
    6    4    5 1     
    7    4   19 1     
    8    4   20 1     
    9    5    6 1     
   10    5   21 1     
   11    5   22 1     
   12    6   11 1     
   13    6    7 1     
   14    6   23 1     
   15    7    8 1     
   16    7   24 1     
   17    7   25 1     
   18    8    9 1     
   19    8   26 1     
   20    8   27 1     
   21    9   10 1     
   22    9   28 1     
   23    9   29 1     
   24   10   11 1     
   25   10   30 1     
   26   10   31 1     
   27   12   13 1     
   28   12   32 1     
   29   13   17 1     
   30   13   14 2     
   31   14   15 1     
   32   15   16 2     
   33   15   33 1     
   34   16   17 1     
   35   16   34 1     
   36    1   35 1     
   37    1   36 1     
   38   11   37 1     
   39   11   38 1     
   40   14   39 1     
   41   17   40 1     
   42   17   41 1     
@<TRIPOS>SUBSTRUCTURE
      1 S1             1
@<TRIPOS>SET
LONE_PAIRS      STATIC     ATOMS    <user>   **** ""
7 35 36 37 38 39 40 41
DONOR_HYDROGENS      STATIC     ATOMS    <user>   **** ""
2 18 32
ATOM$BLUE        STATIC     ATOMS    COLORGROUP SYSTEM
7 35 36 37 38 39 40 41
ATOM$RED        STATIC     ATOMS    COLORGROUP SYSTEM
2 18 32
