#       Name:                AV-unprocessed.smi:1887
#       Creating user name   scv26
#       Creation time:       Fri Mar 27 09:39:00 2020


#       File generated by GOLD software.
#

@<TRIPOS>MOLECULE
AV-unprocessed.smi:1887
    52    54     1
SMALL
NO_CHARGES


@<TRIPOS>ATOM
      1 ****        -2.3548   2.4825   1.4685 C.3            1 S1                 0.0000
      2 ****        -1.8941   1.2955   0.8494 O.3            1 S1                 0.0000
      3 ****        -2.3368   0.1236   1.5132 C.3            1 S1                 0.0000
      4 ****        -1.7770  -1.1138   0.7983 C.3            1 S1                 0.0000
      5 ****        -0.3168  -1.1251   0.7831 N.pl3          1 S1                 0.0000
      6 ****         0.5213  -0.6767  -0.1876 C.2            1 S1                 0.0000
      7 ****         0.0322  -0.0999  -1.3783 N.pl3          1 S1                 0.0000
      8 ****        -0.5715  -0.8717  -2.3055 N.2            1 S1                 0.0000
      9 ****        -0.8901  -0.0412  -3.2836 C.2            1 S1                 0.0000
     10 ****        -1.6042  -0.5796  -4.4898 C.3            1 S1                 0.0000
     11 ****        -0.4785   1.2973  -3.0165 C.2            1 S1                 0.0000
     12 ****        -0.6591   2.5036  -3.8969 C.3            1 S1                 0.0000
     13 ****         0.1124   1.2200  -1.7842 C.2            1 S1                 0.0000
     14 ****         0.7514   2.2846  -0.9489 C.3            1 S1                 0.0000
     15 ****         1.8224  -0.7954   0.0910 N.2            1 S1                 0.0000
     16 ****         1.8135  -1.3759   1.3512 C.2            1 S1                 0.0000
     17 ****         0.5423  -1.5745   1.7851 C.2            1 S1                 0.0000
     18 ****         0.2375  -2.1510   3.1003 C.2            1 S1                 0.0000
     19 ****        -0.9064  -2.3287   3.5134 O.2            1 S1                 0.0000
     20 ****         1.3472  -2.4594   3.8144 N.am           1 S1                 0.0000
     21 ****         2.6517  -2.2878   3.4393 C.2            1 S1                 0.0000
     22 ****         3.5593  -2.6126   4.2047 O.2            1 S1                 0.0000
     23 ****         2.8938  -1.7475   2.2019 N.am           1 S1                 0.0000
     24 ****         4.2710  -1.5392   1.7509 C.3            1 S1                 0.0000
     25 ****         1.1945  -2.8581   4.7292 H              1 S1                 0.0000
     26 ****        -1.9883   3.3476   0.9158 H              1 S1                 0.0000
     27 ****        -1.9908   2.5590   2.4938 H              1 S1                 0.0000
     28 ****        -3.4446   2.5251   1.4781 H              1 S1                 0.0000
     29 ****        -2.0086   0.1367   2.5536 H              1 S1                 0.0000
     30 ****        -3.4271   0.0866   1.5155 H              1 S1                 0.0000
     31 ****        -2.1340  -2.0254   1.2761 H              1 S1                 0.0000
     32 ****        -2.1568  -1.1530  -0.2212 H              1 S1                 0.0000
     33 ****        -1.7508   0.1915  -5.2458 H              1 S1                 0.0000
     34 ****        -2.5866  -0.9683  -4.2207 H              1 S1                 0.0000
     35 ****        -1.0396  -1.3902  -4.9511 H              1 S1                 0.0000
     36 ****        -0.0432   3.3434  -3.5755 H              1 S1                 0.0000
     37 ****        -1.6939   2.8462  -3.8993 H              1 S1                 0.0000
     38 ****        -0.3877   2.2918  -4.9312 H              1 S1                 0.0000
     39 ****         0.2980   3.2568  -1.1419 H              1 S1                 0.0000
     40 ****         1.8164   2.3579  -1.1692 H              1 S1                 0.0000
     41 ****         0.6412   2.0795   0.1160 H              1 S1                 0.0000
     42 ****         4.8389  -2.4696   1.8023 H              1 S1                 0.0000
     43 ****         4.7687  -0.8007   2.3808 H              1 S1                 0.0000
     44 ****         4.3260  -1.1840   0.7219 H              1 S1                 0.0000
     45 ****        -0.8941   1.3034   0.8473 LP             1 S1                 0.0000
     46 ****        -2.2292   1.2754  -0.0926 LP             1 S1                 0.0000
     47 ****        -0.7409  -1.8563  -2.2625 LP             1 S1                 0.0000
     48 ****         2.6075  -0.5315  -0.4693 LP             1 S1                 0.0000
     49 ****        -1.6885  -2.0761   2.9438 LP             1 S1                 0.0000
     50 ****        -1.0549  -2.7259   4.4190 LP             1 S1                 0.0000
     51 ****         3.3430  -3.0017   5.1001 LP             1 S1                 0.0000
     52 ****         4.5130  -2.4874   3.9311 LP             1 S1                 0.0000
@<TRIPOS>BOND
    1    1    2 1     
    2    1   26 1     
    3    1   27 1     
    4    1   28 1     
    5    2    3 1     
    6    3    4 1     
    7    3   29 1     
    8    3   30 1     
    9    4    5 1     
   10    4   31 1     
   11    4   32 1     
   12    5   17 1     
   13    5    6 1     
   14    6    7 1     
   15    6   15 2     
   16    7   13 1     
   17    7    8 1     
   18    8    9 2     
   19    9   10 1     
   20    9   11 1     
   21   10   33 1     
   22   10   34 1     
   23   10   35 1     
   24   11   12 1     
   25   11   13 2     
   26   12   36 1     
   27   12   37 1     
   28   12   38 1     
   29   13   14 1     
   30   14   39 1     
   31   14   40 1     
   32   14   41 1     
   33   15   16 1     
   34   16   23 1     
   35   16   17 2     
   36   17   18 1     
   37   18   19 2     
   38   18   20 1     
   39   20   25 1     
   40   20   21 1     
   41   21   22 2     
   42   21   23 1     
   43   23   24 1     
   44   24   42 1     
   45   24   43 1     
   46   24   44 1     
   47    2   45 1     
   48    2   46 1     
   49    8   47 1     
   50   15   48 1     
   51   19   49 1     
   52   19   50 1     
   53   22   51 1     
   54   22   52 1     
@<TRIPOS>SUBSTRUCTURE
      1 S1             1
@<TRIPOS>SET
LONE_PAIRS      STATIC     ATOMS    <user>   **** ""
8 45 46 47 48 49 50 51 52
DONOR_HYDROGENS      STATIC     ATOMS    <user>   **** ""
1 25
ATOM$BLUE        STATIC     ATOMS    COLORGROUP SYSTEM
8 45 46 47 48 49 50 51 52
ATOM$RED        STATIC     ATOMS    COLORGROUP SYSTEM
1 25
