AV-unprocessed.smi:647|AV-procd|sdf|3169|dock2
  -GOLD-   22720 0 93D 1   1.00000     0.00000
 Structure written by MMmdl.
 46 48  0  0  0  0  0  0  0  0  1 V2000
  144.4444  137.0496  152.3382 O   0  0  0  0  0  0  0  0  0  0  0  0
  145.6022  137.0277  151.9179 C   0  0  0  0  0  0  0  0  0  0  0  0
  146.3704  138.3326  151.6804 C   0  0  0  0  0  0  0  0  0  0  0  0
  147.5826  138.4282  152.4896 N   0  0  0  0  0  0  0  0  0  0  0  0
  147.8831  139.4490  153.3066 C   0  0  0  0  0  0  0  0  0  0  0  0
  147.1513  140.4265  153.4668 O   0  0  0  0  0  0  0  0  0  0  0  0
  149.0675  139.2565  153.9129 N   0  0  0  0  0  0  0  0  0  0  0  0
  149.7115  140.0963  154.8595 C   0  0  0  0  0  0  0  0  0  0  0  0
  148.8498  140.8519  155.6822 C   0  0  0  0  0  0  0  0  0  0  0  0
  149.4218  141.7101  156.6365 C   0  0  0  0  0  0  0  0  0  0  0  0
  150.8265  141.7587  156.7055 C   0  0  0  0  0  0  0  0  0  0  0  0
  151.5515  142.6266  157.6864 C   0  0  0  0  0  0  0  0  0  0  0  0
  151.4650  142.3719  159.1752 C   0  0  0  0  0  0  0  0  0  0  0  0
  150.7961  143.5852  158.5786 C   0  0  0  0  0  0  0  0  0  0  0  0
  151.6102  141.0071  155.9007 N   0  0  0  0  0  0  0  0  0  0  0  0
  151.0596  140.1944  154.9929 N   0  0  0  0  0  0  0  0  0  0  0  0
  146.2584  135.8957  151.6210 N   0  0  0  0  0  0  0  0  0  0  0  0
  145.7242  134.5454  151.7661 C   0  0  0  0  0  0  0  0  0  0  0  0
  146.7760  133.4950  151.3503 C   0  0  0  0  0  0  0  0  0  0  0  0
  146.2051  132.0695  151.4180 C   0  0  0  0  0  0  0  0  0  0  0  0
  144.9307  131.9375  150.5694 C   0  0  0  0  0  0  0  0  0  0  0  0
  143.8781  132.9769  150.9857 C   0  0  0  0  0  0  0  0  0  0  0  0
  144.4463  134.4039  150.9171 C   0  0  0  0  0  0  0  0  0  0  0  0
  146.6174  138.4412  150.6225 H   0  0  0  0  0  0  0  0  0  0  0  0
  145.7191  139.1684  151.9364 H   0  0  0  0  0  0  0  0  0  0  0  0
  148.2426  137.6687  152.4101 H   0  0  0  0  0  0  0  0  0  0  0  0
  149.5585  138.4059  153.6810 H   0  0  0  0  0  0  0  0  0  0  0  0
  147.7764  140.7792  155.5853 H   0  0  0  0  0  0  0  0  0  0  0  0
  148.8042  142.3083  157.2899 H   0  0  0  0  0  0  0  0  0  0  0  0
  152.5090  142.9540  157.2858 H   0  0  0  0  0  0  0  0  0  0  0  0
  150.8169  141.5707  159.5253 H   0  0  0  0  0  0  0  0  0  0  0  0
  152.3560  142.5487  159.7742 H   0  0  0  0  0  0  0  0  0  0  0  0
  151.2519  144.5508  158.7876 H   0  0  0  0  0  0  0  0  0  0  0  0
  149.7089  143.5813  158.5253 H   0  0  0  0  0  0  0  0  0  0  0  0
  147.2054  135.9752  151.2796 H   0  0  0  0  0  0  0  0  0  0  0  0
  145.4559  134.3819  152.8117 H   0  0  0  0  0  0  0  0  0  0  0  0
  147.1199  133.6986  150.3349 H   0  0  0  0  0  0  0  0  0  0  0  0
  147.6551  133.5649  151.9920 H   0  0  0  0  0  0  0  0  0  0  0  0
  146.9538  131.3531  151.0782 H   0  0  0  0  0  0  0  0  0  0  0  0
  145.9818  131.8152  152.4550 H   0  0  0  0  0  0  0  0  0  0  0  0
  145.1780  132.0692  149.5150 H   0  0  0  0  0  0  0  0  0  0  0  0
  144.5204  130.9320  150.6676 H   0  0  0  0  0  0  0  0  0  0  0  0
  143.0011  132.8951  150.3430 H   0  0  0  0  0  0  0  0  0  0  0  0
  143.5384  132.7671  152.0008 H   0  0  0  0  0  0  0  0  0  0  0  0
  143.6919  135.1155  151.2551 H   0  0  0  0  0  0  0  0  0  0  0  0
  144.6632  134.6548  149.8776 H   0  0  0  0  0  0  0  0  0  0  0  0
  1  2  2  0  0  0  0
  2  3  1  0  0  0  0
  2 17  1  0  0  0  0
  3  4  1  0  0  0  0
  3 24  1  0  0  0  0
  3 25  1  0  0  0  0
  4  5  1  0  0  0  0
  4 26  1  0  0  0  0
  5  6  2  0  0  0  0
  5  7  1  0  0  0  0
  7  8  1  0  0  0  0
  7 27  1  0  0  0  0
  8 16  1  0  0  0  0
  8  9  2  0  0  0  0
  9 10  1  0  0  0  0
  9 28  1  0  0  0  0
 10 11  2  0  0  0  0
 10 29  1  0  0  0  0
 11 12  1  0  0  0  0
 11 15  1  0  0  0  0
 12 14  1  0  0  0  0
 12 13  1  0  0  0  0
 12 30  1  0  0  0  0
 13 14  1  0  0  0  0
 13 31  1  0  0  0  0
 13 32  1  0  0  0  0
 14 33  1  0  0  0  0
 14 34  1  0  0  0  0
 15 16  2  0  0  0  0
 17 18  1  0  0  0  0
 17 35  1  0  0  0  0
 18 23  1  0  0  0  0
 18 19  1  0  0  0  0
 18 36  1  0  0  0  0
 19 20  1  0  0  0  0
 19 37  1  0  0  0  0
 19 38  1  0  0  0  0
 20 21  1  0  0  0  0
 20 39  1  0  0  0  0
 20 40  1  0  0  0  0
 21 22  1  0  0  0  0
 21 41  1  0  0  0  0
 21 42  1  0  0  0  0
 22 23  1  0  0  0  0
 22 43  1  0  0  0  0
 22 44  1  0  0  0  0
 23 45  1  0  0  0  0
 23 46  1  0  0  0  0
M  END
> <s_m_source_file>
AV-unprocessed.smi

> <i_m_source_file_index>
647

> <i_lp_mmshare_version>
43012

> <i_f3d_flags>
0

> <s_epik_input>
W0NIMl0xW0NIMl1bQ0gyXVtDSDJdW0NIMl1bQ0hdMVtOSF1DKD1PKVtDSDJdW05IXUMoPU8pW05IXWMyW2NIXVtjSF1jKG5uMilbQ0hdM1tDSDJdW0NIMl0z

> <s_epik_cmdline>
J2VwaWtfcHl0aG9uJywgJy1waCcsICc3LjAnLCAnLXRuJywgJzgnLCAnLW1hJywgJzIwMCcsICctbWV0YWxfYmluZGluZycsICctaW1hZScsICc8aW5maWxlLm1hZT4nLCAnLW9tYWUnLCAnPG91dGZpbGUubWFlPic=

> <r_lp_tautomer_probability>
1

> <r_epik_Ionization_Penalty>
0.00779169

> <r_epik_Ionization_Penalty_Charging>
0

> <r_epik_Ionization_Penalty_Neutral>
0.00779169

> <r_epik_State_Penalty>
-0

> <r_epik_Charging_Adjusted_Penalty>
0

> <i_epik_Tot_Q>
0

> <i_epik_Tot_abs_Q>
0

> <r_epik_Metal_State_Penalty>
-0

> <b_epik_Metal_Only>
0

> <s_lp_Force_Field>
OPLS_2005

> <r_lp_Energy>
15.7946

> <b_lp_Chiralities_Consistent>
1

> <s_lp_Variant>
AV-unprocessed.smi:647-1

> <Gold.Version>
5.8.1

> <Gold.Id.Protein>
6NUR|6NUR_protein|mol2

> <Gold.PLP.Fitness>
48.3890

> <Gold.PLP.PLP>
-40.1436

> <Gold.PLP.part.hbond>
-5.7201

> <Gold.PLP.part.metal>
0.0000

> <Gold.PLP.part.buried>
-1.9958

> <Gold.PLP.part.nonpolar>
-33.3561

> <Gold.PLP.part.repulsive>
1.2657

> <Gold.PLP.ligand.clash>
0.0000

> <Gold.PLP.ligand.torsion>
0.2740

> <Gold.PLP.Chemscore.Hbond>
2.8800

> <Gold.PLP.Chemscore.CHOScore>
0.0000

> <Gold.PLP.Chemscore.Metal>
0.0000

> <Gold.Chemscore.Hbonds>
donor molecule, donor type, donor heavy atom, donor atom, acceptor molecule, acceptor atom, score
      L1  H     4    26       P1  7948  1.00
      L1  H    17    35       P1  7948  0.88
      P1  H  7989  7998       L1    16  1.00

> <Gold.PLP.Chemscore.Internal.Correction>
0.1534

> <Gold.Rescore>
     Score         DG    S(hbond)    S(metal)    S(lipo)     H(rot)  DE(clash)    DE(int)     intcor
     17.20     -19.36       2.40        0.00      87.63       1.72       0.47       1.69       ----

> <Gold.Chemscore.Fitness>
17.2028

> <Gold.Chemscore.DG>
-19.3568

> <Gold.Chemscore.ZeroCoef>
-5.4800

> <Gold.Chemscore.Hbond>
2.4024

> <Gold.Chemscore.Metal>
0.0000

> <Gold.Chemscore.Lipo>
87.6292

> <Gold.Chemscore.Internal_Hbond>
0.0000

> <Gold.Chemscore.DEClash>
0.4669

> <Gold.Chemscore.DEInternal>
1.6871

> <Gold.Chemscore.Rot>
1.7187

> <Gold.Chemscore.Internal.Correction>
   9.000000E+99

> <Gold.Chemscore.Hbonds>
donor molecule, donor type, donor heavy atom, donor atom, acceptor molecule, acceptor atom, score
      L1  H     4    26       P1  7948  0.99
      L1  H    17    35       P1  7948  0.86
      P1  H  7989  7998       L1    16  0.19

> <Gold.Chemscore.Hbond.Weighted>
-8.0241

> <Gold.Chemscore.Metal.Weighted>
-0.0000

> <Gold.Chemscore.Lipo.Weighted>
-10.2526

> <Gold.Chemscore.Internal_Hbond.Weighted>
0.0000

> <Gold.Chemscore.DEClash.Weighted>
0.4669

> <Gold.Chemscore.DEInternal.Weighted>
1.6871

> <Gold.Chemscore.Rot.Weighted>
4.4000

> <Gold.Chemscore.Internal.Correction.Weighted>
   9.000000E+99

> <Gold.Protein.RotatedTorsions>
[ 6907 6896 6895 6894 ] final  -57.53 input  -60.11 | X-H torsion
[ 7974 7965 7964 7962 ] final -142.00 input  175.53 | X-H torsion
[ 8008 7997 7996 7995 ] final  116.17 input   59.86 | X-H torsion
[ 10167 10162 10161 10158 ] final -142.95 input  -65.29 | X-H torsion
[ 10718 10713 10712 10709 ] final   66.25 input   66.30 | X-H torsion
[ 10763 10752 10751 10750 ] final  149.95 input  -60.55 | X-H torsion
[ 11005 11000 10999 10996 ] final  -33.71 input  -57.11 | X-H torsion

> <Gold.Protein.ActiveResidues>
 VAL166  LYS551  ARG553  GLY616  TRP617  ASP618  TYR619  PRO620  LYS621  CYS622 
 ASP623  PHE694  ASN695  SER759  ASP760  ASP761  ALA762  ILE779  LEU786  VAL792 
 PHE793  MET794  SER795  GLU796  ALA797  LYS798  CYS799  TRP800  GLU811  SER814 

> <Gold.Protein.RotatedAtoms>
  150.8079  134.7215  159.6660 H   0  0  0  0  0  0  0  0  0  0  0  0  # atno 6907 bound_to 6896
  152.4199  134.5971  160.0000 H   0  0  0  0  0  0  0  0  0  0  0  0  # atno 6908 bound_to 6896
  151.6190  133.3303  159.3120 H   0  0  0  0  0  0  0  0  0  0  0  0  # atno 6909 bound_to 6896
  144.8476  140.6011  143.5411 H   0  0  0  0  0  0  0  0  0  0  0  0  # atno 7974 bound_to 7965
  156.2424  140.2923  156.0482 H   0  0  0  0  0  0  0  0  0  0  0  0  # atno 8008 bound_to 7997
  155.1911  140.0407  157.2917 H   0  0  0  0  0  0  0  0  0  0  0  0  # atno 8009 bound_to 7997
  154.6194  140.2472  155.7575 H   0  0  0  0  0  0  0  0  0  0  0  0  # atno 8010 bound_to 7997
  139.8040  143.7794  152.2660 H   0  0  0  0  0  0  0  0  0  0  0  0  # atno 10167 bound_to 10162
  157.6157  130.9257  150.0083 H   0  0  0  0  0  0  0  0  0  0  0  0  # atno 10718 bound_to 10713
  154.0796  135.2860  155.3293 H   0  0  0  0  0  0  0  0  0  0  0  0  # atno 10763 bound_to 10752
  154.6693  135.5305  153.8120 H   0  0  0  0  0  0  0  0  0  0  0  0  # atno 10764 bound_to 10752
  153.0454  135.6553  154.0972 H   0  0  0  0  0  0  0  0  0  0  0  0  # atno 10765 bound_to 10752
  140.9657  133.7138  156.1441 H   0  0  0  0  0  0  0  0  0  0  0  0  # atno 11005 bound_to 11000
  145.4565  139.1517  143.3890 LP  0  0  0  0  0  0  0  0  0  0  0  0  # atno 17320 bound_to 7965
  146.2757  140.4693  142.8796 LP  0  0  0  0  0  0  0  0  0  0  0  0  # atno 17321 bound_to 7965
  139.7923  144.7405  150.9938 LP  0  0  0  0  0  0  0  0  0  0  0  0  # atno 17342 bound_to 10162
  140.7819  143.4429  151.0524 LP  0  0  0  0  0  0  0  0  0  0  0  0  # atno 17343 bound_to 10162
  156.1278  130.3644  149.9781 LP  0  0  0  0  0  0  0  0  0  0  0  0  # atno 17370 bound_to 10713
  156.7848  130.9234  151.3646 LP  0  0  0  0  0  0  0  0  0  0  0  0  # atno 17371 bound_to 10713
  140.7403  134.4158  157.5555 LP  0  0  0  0  0  0  0  0  0  0  0  0  # atno 17394 bound_to 11000
  139.8894  134.8832  156.2425 LP  0  0  0  0  0  0  0  0  0  0  0  0  # atno 17395 bound_to 11000

$$$$
