AV-unprocessed.smi:372|AV-procd|sdf|2448|dock9
  -GOLD-   2262022383D 1   1.00000     0.00000
 Structure written by MMmdl.
 22 23  0  0  0  0  0  0  0  0  2 V2000
  151.1803  139.2209  157.3024 C   0  0  0  0  0  0  0  0  0  0  0  0
  152.4083  138.8145  158.1431 C   0  0  2  0  0  0  0  0  0  0  0  0
  152.8186  139.9549  159.0999 C   0  0  0  0  0  0  0  0  0  0  0  0
  153.9017  139.8273  160.0068 C   0  0  0  0  0  0  0  0  0  0  0  0
  154.2293  140.9142  160.8394 C   0  0  0  0  0  0  0  0  0  0  0  0
  153.4748  142.0973  160.7430 C   0  0  0  0  0  0  0  0  0  0  0  0
  152.4218  142.1396  159.8106 C   0  0  0  0  0  0  0  0  0  0  0  0
  152.1011  141.1032  159.0083 N   0  0  0  0  0  0  0  0  0  0  0  0
  153.4761  138.3947  157.2405 N   0  5  0  0  0  0  0  0  0  0  0  0
  153.8039  137.1088  157.5035 C   0  0  0  0  0  0  0  0  0  0  0  0
  154.6722  136.4279  156.9629 O   0  0  0  0  0  0  0  0  0  0  0  0
  153.0295  136.6158  158.4727 N   0  0  0  0  0  0  0  0  0  0  0  0
  152.1507  137.5140  158.9056 C   0  0  0  0  0  0  0  0  0  0  0  0
  151.2718  137.3337  159.7488 O   0  0  0  0  0  0  0  0  0  0  0  0
  150.3276  139.4742  157.9334 H   0  0  0  0  0  0  0  0  0  0  0  0
  150.8626  138.4186  156.6347 H   0  0  0  0  0  0  0  0  0  0  0  0
  151.4000  140.0930  156.6855 H   0  0  0  0  0  0  0  0  0  0  0  0
  154.4831  138.9201  160.0744 H   0  0  0  0  0  0  0  0  0  0  0  0
  155.0482  140.8409  161.5396 H   0  0  0  0  0  0  0  0  0  0  0  0
  153.6984  142.9505  161.3657 H   0  0  0  0  0  0  0  0  0  0  0  0
  151.8205  143.0304  159.7051 H   0  0  0  0  0  0  0  0  0  0  0  0
  153.0877  135.6686  158.8154 H   0  0  0  0  0  0  0  0  0  0  0  0
  1  2  1  0  0  0  0
  1 15  1  0  0  0  0
  1 16  1  0  0  0  0
  1 17  1  0  0  0  0
  2 13  1  0  0  0  0
  2  3  1  0  0  0  0
  2  9  1  0  0  0  0
  3  8  1  0  0  0  0
  3  4  2  0  0  0  0
  4  5  1  0  0  0  0
  4 18  1  0  0  0  0
  5  6  2  0  0  0  0
  5 19  1  0  0  0  0
  6  7  1  0  0  0  0
  6 20  1  0  0  0  0
  7  8  2  0  0  0  0
  7 21  1  0  0  0  0
  9 10  1  0  0  0  0
 10 11  2  0  0  0  0
 10 12  1  0  0  0  0
 12 13  1  0  0  0  0
 12 22  1  0  0  0  0
 13 14  2  0  0  0  0
M  CHG  1   9  -1
M  END
> <s_m_source_file>
AV-unprocessed.smi

> <i_m_source_file_index>
372

> <i_lp_mmshare_version>
43012

> <i_f3d_flags>
0

> <s_epik_input>
Tz1DMVtOSF1DKD1PKVtOSF1bQ0BAXTEoW0NIM10pYzJbY0hdW2NIXVtjSF1bY0hdbjI=

> <s_epik_cmdline>
J2VwaWtfcHl0aG9uJywgJy1waCcsICc3LjAnLCAnLXRuJywgJzgnLCAnLW1hJywgJzIwMCcsICctbWV0YWxfYmluZGluZycsICctaW1hZScsICc8aW5maWxlLm1hZT4nLCAnLW9tYWUnLCAnPG91dGZpbGUubWFlPic=

> <r_lp_tautomer_probability>
1

> <r_epik_Ionization_Penalty>
4.88994

> <r_epik_Ionization_Penalty_Charging>
4.8337

> <r_epik_Ionization_Penalty_Neutral>
0.0562367

> <r_epik_State_Penalty>
4.86848

> <r_epik_Charging_Adjusted_Penalty>
9.70218

> <i_epik_Tot_Q>
-1

> <i_epik_Tot_abs_Q>
1

> <r_epik_Metal_State_Penalty>
1.42536

> <b_epik_Metal_Only>
1

> <s_lp_Force_Field>
OPLS_2005

> <r_lp_Energy>
15.0122

> <b_lp_Chiralities_Consistent>
1

> <s_lp_Variant>
AV-unprocessed.smi:372-6

> <Gold.Version>
5.8.1

> <Gold.Id.Protein>
6NUR|6NUR_protein|mol2

> <Gold.PLP.Fitness>
33.8008

> <Gold.PLP.PLP>
-22.2286

> <Gold.PLP.part.hbond>
-2.9631

> <Gold.PLP.part.metal>
0.0000

> <Gold.PLP.part.buried>
-3.7608

> <Gold.PLP.part.nonpolar>
-16.3022

> <Gold.PLP.part.repulsive>
0.1339

> <Gold.PLP.ligand.clash>
0.0000

> <Gold.PLP.ligand.torsion>
0.0476

> <Gold.PLP.Chemscore.Hbond>
3.8713

> <Gold.PLP.Chemscore.CHOScore>
0.0000

> <Gold.PLP.Chemscore.Metal>
0.0000

> <Gold.Chemscore.Hbonds>
donor molecule, donor type, donor heavy atom, donor atom, acceptor molecule, acceptor atom, score
      P1  H  6896  6909       L1    14  0.56
      P1  H  7997  8008       L1     9  1.89
      P1  H 10752 10764       L1    11  1.00

> <Gold.PLP.Chemscore.Internal.Correction>
0.0536

> <Gold.Rescore>
     Score         DG    S(hbond)    S(metal)    S(lipo)     H(rot)  DE(clash)    DE(int)     intcor
     17.14     -17.17       2.48        0.00      51.13       1.00       0.00       0.03       ----

> <Gold.Chemscore.Fitness>
17.1446

> <Gold.Chemscore.DG>
-17.1713

> <Gold.Chemscore.ZeroCoef>
-5.4800

> <Gold.Chemscore.Hbond>
2.4758

> <Gold.Chemscore.Metal>
0.0000

> <Gold.Chemscore.Lipo>
51.1293

> <Gold.Chemscore.Internal_Hbond>
0.0000

> <Gold.Chemscore.DEClash>
0.0000

> <Gold.Chemscore.DEInternal>
0.0268

> <Gold.Chemscore.Rot>
1.0000

> <Gold.Chemscore.Internal.Correction>
   9.000000E+99

> <Gold.Chemscore.Hbonds>
donor molecule, donor type, donor heavy atom, donor atom, acceptor molecule, acceptor atom, score
      P1  H  6896  6909       L1    14  0.11
      P1  H  7997  8008       L1     9  0.49
      P1  H 10752 10764       L1    11  0.90

> <Gold.Chemscore.Hbond.Weighted>
-8.2692

> <Gold.Chemscore.Metal.Weighted>
-0.0000

> <Gold.Chemscore.Lipo.Weighted>
-5.9821

> <Gold.Chemscore.Internal_Hbond.Weighted>
0.0000

> <Gold.Chemscore.DEClash.Weighted>
0.0000

> <Gold.Chemscore.DEInternal.Weighted>
0.0268

> <Gold.Chemscore.Rot.Weighted>
2.5600

> <Gold.Chemscore.Internal.Correction.Weighted>
   9.000000E+99

> <Gold.Protein.RotatedTorsions>
[ 6907 6896 6895 6894 ] final  115.30 input  -60.11 | X-H torsion
[ 7974 7965 7964 7962 ] final -114.72 input  175.53 | X-H torsion
[ 8008 7997 7996 7995 ] final  -63.73 input   59.86 | X-H torsion
[ 10167 10162 10161 10158 ] final   -4.81 input  -65.29 | X-H torsion
[ 10718 10713 10712 10709 ] final -124.36 input   66.30 | X-H torsion
[ 10763 10752 10751 10750 ] final   40.72 input  -60.55 | X-H torsion
[ 11005 11000 10999 10996 ] final  103.17 input  -57.11 | X-H torsion

> <Gold.Protein.ActiveResidues>
 VAL166  LYS551  ARG553  GLY616  TRP617  ASP618  TYR619  PRO620  LYS621  CYS622 
 ASP623  PHE694  ASN695  SER759  ASP760  ASP761  ALA762  ILE779  LEU786  VAL792 
 PHE793  MET794  SER795  GLU796  ALA797  LYS798  CYS799  TRP800  GLU811  SER814 

> <Gold.Protein.RotatedAtoms>
  152.4750  133.8118  159.7006 H   0  0  0  0  0  0  0  0  0  0  0  0  # atno 6907 bound_to 6896
  150.8762  133.7426  159.2952 H   0  0  0  0  0  0  0  0  0  0  0  0  # atno 6908 bound_to 6896
  151.4945  135.1062  159.9864 H   0  0  0  0  0  0  0  0  0  0  0  0  # atno 6909 bound_to 6896
  145.1169  140.8645  143.3837 H   0  0  0  0  0  0  0  0  0  0  0  0  # atno 7974 bound_to 7965
  154.4571  140.0969  156.6787 H   0  0  0  0  0  0  0  0  0  0  0  0  # atno 8008 bound_to 7997
  155.5106  140.3476  155.4369 H   0  0  0  0  0  0  0  0  0  0  0  0  # atno 8009 bound_to 7997
  156.0798  140.1370  156.9715 H   0  0  0  0  0  0  0  0  0  0  0  0  # atno 8010 bound_to 7997
  140.6941  143.6381  150.8461 H   0  0  0  0  0  0  0  0  0  0  0  0  # atno 10167 bound_to 10162
  156.1581  130.6582  151.0010 H   0  0  0  0  0  0  0  0  0  0  0  0  # atno 10718 bound_to 10713
  152.9928  135.6183  154.2671 H   0  0  0  0  0  0  0  0  0  0  0  0  # atno 10763 bound_to 10752
  154.2405  135.2789  155.2857 H   0  0  0  0  0  0  0  0  0  0  0  0  # atno 10764 bound_to 10752
  154.5373  135.5771  153.6867 H   0  0  0  0  0  0  0  0  0  0  0  0  # atno 10765 bound_to 10752
  139.8782  134.9253  156.5169 H   0  0  0  0  0  0  0  0  0  0  0  0  # atno 11005 bound_to 11000
  145.0784  139.2978  143.5796 LP  0  0  0  0  0  0  0  0  0  0  0  0  # atno 17320 bound_to 7965
  146.3523  140.0282  142.8652 LP  0  0  0  0  0  0  0  0  0  0  0  0  # atno 17321 bound_to 7965
  140.0097  143.5656  152.2844 LP  0  0  0  0  0  0  0  0  0  0  0  0  # atno 17342 bound_to 10162
  139.6375  144.7651  151.2407 LP  0  0  0  0  0  0  0  0  0  0  0  0  # atno 17343 bound_to 10162
  157.6711  131.0861  150.7610 LP  0  0  0  0  0  0  0  0  0  0  0  0  # atno 17370 bound_to 10713
  156.7675  130.4818  149.5425 LP  0  0  0  0  0  0  0  0  0  0  0  0  # atno 17371 bound_to 10713
  140.8479  133.8155  155.9139 LP  0  0  0  0  0  0  0  0  0  0  0  0  # atno 17394 bound_to 11000
  140.9173  134.2185  157.4948 LP  0  0  0  0  0  0  0  0  0  0  0  0  # atno 17395 bound_to 11000

$$$$
