AV-unprocessed.smi:2124|AV-procd|sdf|8666|dock7
  -GOLD-   2272011413D 1   1.00000     0.00000
 Structure written by MMmdl.
 46 48  0  0  0  0  0  0  0  0  2 V2000
  148.2511  136.7180  161.5690 C   0  0  0  0  0  0  0  0  0  0  0  0
  148.0825  136.6049  160.0689 C   0  0  0  0  0  0  0  0  0  0  0  0
  147.1483  137.2612  159.4938 N   0  0  0  0  0  0  0  0  0  0  0  0
  146.9932  137.1664  158.1004 C   0  0  0  0  0  0  0  0  0  0  0  0
  145.8637  137.9881  157.5045 C   0  0  0  0  0  0  0  0  0  0  0  0
  147.8196  136.3830  157.3492 C   0  0  0  0  0  0  0  0  0  0  0  0
  147.6988  136.2537  155.8313 C   0  0  0  0  0  0  0  0  0  0  0  0
  147.3799  134.8492  155.3152 C   0  0  0  0  0  0  0  0  0  0  0  0
  146.8919  134.0099  156.0717 O   0  0  0  0  0  0  0  0  0  0  0  0
  147.6616  134.6074  154.0253 N   0  0  0  0  0  0  0  0  0  0  0  0
  147.4351  133.3450  153.3252 C   0  0  2  0  0  0  0  0  0  0  0  0
  148.7421  132.5342  153.2880 C   0  0  0  0  0  0  0  0  0  0  0  0
  146.8842  133.6392  151.9103 C   0  0  2  0  0  0  0  0  0  0  0  0
  145.7583  134.6979  151.8592 C   0  0  0  0  0  0  0  0  0  0  0  0
  144.6790  134.0157  150.9983 C   0  0  2  0  0  0  0  0  0  0  0  0
  143.9897  132.9223  151.8346 C   0  0  0  0  0  0  0  0  0  0  0  0
  145.0693  131.8278  151.9136 C   0  0  0  0  0  0  0  0  0  0  0  0
  146.2498  132.4534  151.1412 C   0  0  1  0  0  0  0  0  0  0  0  0
  145.5136  133.1898  150.0264 C   0  0  0  0  0  0  0  0  0  0  0  0
  148.8794  135.6371  158.0523 C   0  0  0  0  0  0  0  0  0  0  0  0
  149.6465  134.9070  157.4256 O   0  0  0  0  0  0  0  0  0  0  0  0
  148.9686  135.7872  159.4047 N   0  5  0  0  0  0  0  0  0  0  0  0
  147.4281  137.2773  162.0162 H   0  0  0  0  0  0  0  0  0  0  0  0
  149.1828  137.2325  161.8046 H   0  0  0  0  0  0  0  0  0  0  0  0
  148.2771  135.7276  162.0246 H   0  0  0  0  0  0  0  0  0  0  0  0
  146.2516  138.7137  156.7895 H   0  0  0  0  0  0  0  0  0  0  0  0
  145.3247  138.5367  158.2776 H   0  0  0  0  0  0  0  0  0  0  0  0
  145.1492  137.3431  156.9947 H   0  0  0  0  0  0  0  0  0  0  0  0
  146.9309  136.9467  155.4859 H   0  0  0  0  0  0  0  0  0  0  0  0
  148.6102  136.5967  155.3407 H   0  0  0  0  0  0  0  0  0  0  0  0
  148.0575  135.3613  153.4829 H   0  0  0  0  0  0  0  0  0  0  0  0
  146.6894  132.7771  153.8828 H   0  0  0  0  0  0  0  0  0  0  0  0
  148.5937  131.5631  152.8163 H   0  0  0  0  0  0  0  0  0  0  0  0
  149.1201  132.3484  154.2937 H   0  0  0  0  0  0  0  0  0  0  0  0
  149.5196  133.0595  152.7323 H   0  0  0  0  0  0  0  0  0  0  0  0
  147.7156  134.0066  151.3054 H   0  0  0  0  0  0  0  0  0  0  0  0
  145.3749  134.9611  152.8460 H   0  0  0  0  0  0  0  0  0  0  0  0
  146.1167  135.6148  151.3895 H   0  0  0  0  0  0  0  0  0  0  0  0
  143.9826  134.7144  150.5338 H   0  0  0  0  0  0  0  0  0  0  0  0
  143.6886  133.2819  152.8191 H   0  0  0  0  0  0  0  0  0  0  0  0
  143.0991  132.5466  151.3292 H   0  0  0  0  0  0  0  0  0  0  0  0
  145.3166  131.5492  152.9371 H   0  0  0  0  0  0  0  0  0  0  0  0
  144.7243  130.9240  151.4095 H   0  0  0  0  0  0  0  0  0  0  0  0
  146.9773  131.7213  150.7898 H   0  0  0  0  0  0  0  0  0  0  0  0
  144.9163  132.5323  149.3924 H   0  0  0  0  0  0  0  0  0  0  0  0
  146.1688  133.7944  149.3968 H   0  0  0  0  0  0  0  0  0  0  0  0
  1  2  1  0  0  0  0
  1 23  1  0  0  0  0
  1 24  1  0  0  0  0
  1 25  1  0  0  0  0
  2 22  1  0  0  0  0
  2  3  2  0  0  0  0
  3  4  1  0  0  0  0
  4  5  1  0  0  0  0
  4  6  2  0  0  0  0
  5 26  1  0  0  0  0
  5 27  1  0  0  0  0
  5 28  1  0  0  0  0
  6  7  1  0  0  0  0
  6 20  1  0  0  0  0
  7  8  1  0  0  0  0
  7 29  1  0  0  0  0
  7 30  1  0  0  0  0
  8  9  2  0  0  0  0
  8 10  1  0  0  0  0
 10 11  1  0  0  0  0
 10 31  1  0  0  0  0
 11 12  1  0  0  0  0
 11 13  1  0  0  0  0
 11 32  1  0  0  0  0
 12 33  1  0  0  0  0
 12 34  1  0  0  0  0
 12 35  1  0  0  0  0
 13 18  1  0  0  0  0
 13 14  1  0  0  0  0
 13 36  1  0  0  0  0
 14 15  1  0  0  0  0
 14 37  1  0  0  0  0
 14 38  1  0  0  0  0
 15 19  1  0  0  0  0
 15 16  1  0  0  0  0
 15 39  1  0  0  0  0
 16 17  1  0  0  0  0
 16 40  1  0  0  0  0
 16 41  1  0  0  0  0
 17 18  1  0  0  0  0
 17 42  1  0  0  0  0
 17 43  1  0  0  0  0
 18 19  1  0  0  0  0
 18 44  1  0  0  0  0
 19 45  1  0  0  0  0
 19 46  1  0  0  0  0
 20 21  2  0  0  0  0
 20 22  1  0  0  0  0
M  CHG  1  22  -1
M  END
> <s_m_source_file>
AV-unprocessed.smi

> <i_m_source_file_index>
2124

> <i_lp_mmshare_version>
43012

> <i_f3d_flags>
0

> <s_epik_input>
W0NIM11jMW5jKFtDSDNdKWMoYyg9TylbbkhdMSlbQ0gyXUMoPU8pW05IXVtDQEhdKFtDSDNdKVtDQEhdKFtDSDJdW0NASF0yMylbQ0BIXShbQ0gyXTMpW0NIMl1bQ0gyXTI=

> <s_epik_cmdline>
J2VwaWtfcHl0aG9uJywgJy1waCcsICc3LjAnLCAnLXRuJywgJzgnLCAnLW1hJywgJzIwMCcsICctbWV0YWxfYmluZGluZycsICctaW1hZScsICc8aW5maWxlLm1hZT4nLCAnLW9tYWUnLCAnPG91dGZpbGUubWFlPic=

> <r_lp_tautomer_probability>
0.839158

> <r_epik_Ionization_Penalty>
6.63797

> <r_epik_Ionization_Penalty_Charging>
7.48558e-08

> <r_epik_Ionization_Penalty_Neutral>
6.63797

> <r_epik_State_Penalty>
4.49496

> <r_epik_Charging_Adjusted_Penalty>
4.49496

> <i_epik_Tot_Q>
-1

> <i_epik_Tot_abs_Q>
1

> <r_epik_Metal_State_Penalty>
0.841241

> <b_epik_Metal_Only>
1

> <s_lp_Force_Field>
OPLS_2005

> <r_lp_Energy>
56.0848

> <b_lp_Chiralities_Consistent>
1

> <s_lp_Variant>
AV-unprocessed.smi:2124-17

> <Gold.Version>
5.8.1

> <Gold.Id.Protein>
6NUR|6NUR_protein|mol2

> <Gold.PLP.Fitness>
34.0568

> <Gold.PLP.PLP>
-26.5816

> <Gold.PLP.part.hbond>
-2.2734

> <Gold.PLP.part.metal>
0.0000

> <Gold.PLP.part.buried>
-0.4890

> <Gold.PLP.part.nonpolar>
-22.8329

> <Gold.PLP.part.repulsive>
0.0097

> <Gold.PLP.ligand.clash>
0.0000

> <Gold.PLP.ligand.torsion>
0.7565

> <Gold.PLP.Chemscore.Hbond>
2.9913

> <Gold.PLP.Chemscore.CHOScore>
0.0000

> <Gold.PLP.Chemscore.Metal>
0.0000

> <Gold.Chemscore.Hbonds>
donor molecule, donor type, donor heavy atom, donor atom, acceptor molecule, acceptor atom, score
      L1  H    10    31       P1  7948  0.99
      P1  H  6896  6907       L1    22  1.52
      P1  H  6934  6947       L1     3  0.33

> <Gold.PLP.Chemscore.Internal.Correction>
0.0146

> <Gold.Rescore>
     Score         DG    S(hbond)    S(metal)    S(lipo)     H(rot)  DE(clash)    DE(int)     intcor
     14.18     -16.47       1.85        0.00      76.21       1.61       1.57       0.72       ----

> <Gold.Chemscore.Fitness>
14.1754

> <Gold.Chemscore.DG>
-16.4677

> <Gold.Chemscore.ZeroCoef>
-5.4800

> <Gold.Chemscore.Hbond>
1.8505

> <Gold.Chemscore.Metal>
0.0000

> <Gold.Chemscore.Lipo>
76.2062

> <Gold.Chemscore.Internal_Hbond>
0.0000

> <Gold.Chemscore.DEClash>
1.5678

> <Gold.Chemscore.DEInternal>
0.7245

> <Gold.Chemscore.Rot>
1.6051

> <Gold.Chemscore.Internal.Correction>
   9.000000E+99

> <Gold.Chemscore.Hbonds>
donor molecule, donor type, donor heavy atom, donor atom, acceptor molecule, acceptor atom, score
      L1  H    10    31       P1  7948  0.92
      P1  H  6896  6907       L1    22  0.13
      P1  H  6934  6947       L1     3  0.06

> <Gold.Chemscore.Hbond.Weighted>
-6.1805

> <Gold.Chemscore.Metal.Weighted>
-0.0000

> <Gold.Chemscore.Lipo.Weighted>
-8.9161

> <Gold.Chemscore.Internal_Hbond.Weighted>
0.0000

> <Gold.Chemscore.DEClash.Weighted>
1.5678

> <Gold.Chemscore.DEInternal.Weighted>
0.7245

> <Gold.Chemscore.Rot.Weighted>
4.1090

> <Gold.Chemscore.Internal.Correction.Weighted>
   9.000000E+99

> <Gold.Protein.RotatedTorsions>
[ 6907 6896 6895 6894 ] final  -59.36 input  -60.11 | X-H torsion
[ 7974 7965 7964 7962 ] final  155.42 input  175.53 | X-H torsion
[ 8008 7997 7996 7995 ] final  -60.14 input   59.86 | X-H torsion
[ 10167 10162 10161 10158 ] final -127.13 input  -65.29 | X-H torsion
[ 10718 10713 10712 10709 ] final   68.24 input   66.30 | X-H torsion
[ 10763 10752 10751 10750 ] final   60.67 input  -60.55 | X-H torsion
[ 11005 11000 10999 10996 ] final  177.34 input  -57.11 | X-H torsion

> <Gold.Protein.ActiveResidues>
 VAL166  LYS551  ARG553  GLY616  TRP617  ASP618  TYR619  PRO620  LYS621  CYS622 
 ASP623  PHE694  ASN695  SER759  ASP760  ASP761  ALA762  ILE779  LEU786  VAL792 
 PHE793  MET794  SER795  GLU796  ALA797  LYS798  CYS799  TRP800  GLU811  SER814 

> <Gold.Protein.RotatedAtoms>
  150.7936  134.6979  159.6533 H   0  0  0  0  0  0  0  0  0  0  0  0  # atno 6907 bound_to 6896
  152.4045  134.6226  160.0064 H   0  0  0  0  0  0  0  0  0  0  0  0  # atno 6908 bound_to 6896
  151.6488  133.3285  159.3183 H   0  0  0  0  0  0  0  0  0  0  0  0  # atno 6909 bound_to 6896
  144.8026  139.7065  143.6175 H   0  0  0  0  0  0  0  0  0  0  0  0  # atno 7974 bound_to 7965
  154.4384  140.1046  156.6226 H   0  0  0  0  0  0  0  0  0  0  0  0  # atno 8008 bound_to 7997
  155.5691  140.3489  155.4492 H   0  0  0  0  0  0  0  0  0  0  0  0  # atno 8009 bound_to 7997
  156.0403  140.1280  157.0152 H   0  0  0  0  0  0  0  0  0  0  0  0  # atno 8010 bound_to 7997
  139.9641  143.5917  152.2435 H   0  0  0  0  0  0  0  0  0  0  0  0  # atno 10167 bound_to 10162
  157.6278  130.9363  150.0351 H   0  0  0  0  0  0  0  0  0  0  0  0  # atno 10718 bound_to 10713
  152.9928  135.5528  154.5911 H   0  0  0  0  0  0  0  0  0  0  0  0  # atno 10763 bound_to 10752
  154.5272  135.2811  155.1213 H   0  0  0  0  0  0  0  0  0  0  0  0  # atno 10764 bound_to 10752
  154.2543  135.6393  153.5304 H   0  0  0  0  0  0  0  0  0  0  0  0  # atno 10765 bound_to 10752
  140.3830  134.6930  157.4462 H   0  0  0  0  0  0  0  0  0  0  0  0  # atno 11005 bound_to 11000
  146.2311  139.5815  142.9554 LP  0  0  0  0  0  0  0  0  0  0  0  0  # atno 17320 bound_to 7965
  145.5515  141.0413  143.2275 LP  0  0  0  0  0  0  0  0  0  0  0  0  # atno 17321 bound_to 7965
  139.6531  144.7661  151.2109 LP  0  0  0  0  0  0  0  0  0  0  0  0  # atno 17342 bound_to 10162
  140.7543  143.6129  150.8588 LP  0  0  0  0  0  0  0  0  0  0  0  0  # atno 17343 bound_to 10162
  156.1461  130.3642  149.9508 LP  0  0  0  0  0  0  0  0  0  0  0  0  # atno 17370 bound_to 10713
  156.7539  130.9125  151.3638 LP  0  0  0  0  0  0  0  0  0  0  0  0  # atno 17371 bound_to 10713
  140.0464  134.6193  155.8916 LP  0  0  0  0  0  0  0  0  0  0  0  0  # atno 17394 bound_to 11000
  141.1917  133.6572  156.5468 LP  0  0  0  0  0  0  0  0  0  0  0  0  # atno 17395 bound_to 11000

$$$$
