AV-unprocessed.smi:500|AV-procd|sdf|2739|dock1
  -GOLD-   2262023193D 1   1.00000     0.00000
 Structure written by MMmdl.
 44 46  0  0  0  0  0  0  0  0  2 V2000
  147.1336  142.0944  154.1585 C   0  0  0  0  0  0  0  0  0  0  0  0
  148.1315  140.9374  154.0156 C   0  0  0  0  0  0  0  0  0  0  0  0
  149.4631  141.4042  154.1580 O   0  0  0  0  0  0  0  0  0  0  0  0
  150.2101  140.7412  155.1646 C   0  0  0  0  0  0  0  0  0  0  0  0
  149.5071  140.9129  156.5185 C   0  0  0  0  0  0  0  0  0  0  0  0
  150.4363  140.7455  157.6403 N   0  0  0  0  0  0  0  0  0  0  0  0
  150.7867  139.6362  158.3649 C   0  0  0  0  0  0  0  0  0  0  0  0
  150.2410  138.2380  158.1177 C   0  0  1  0  0  0  0  0  0  0  0  0
  151.3773  137.2553  157.8019 C   0  0  0  0  0  0  0  0  0  0  0  0
  149.4724  137.7186  159.2538 N   0  5  0  0  0  0  0  0  0  0  0  0
  148.9814  136.4500  159.3346 C   0  0  0  0  0  0  0  0  0  0  0  0
  149.1195  135.4977  158.5607 O   0  0  0  0  0  0  0  0  0  0  0  0
  148.2035  136.2337  160.5755 C   0  0  0  0  0  0  0  0  0  0  0  0
  147.7400  135.0934  161.1811 C   0  0  0  0  0  0  0  0  0  0  0  0
  147.0791  135.5000  162.3730 C   0  0  0  0  0  0  0  0  0  0  0  0
  147.1926  136.8592  162.4187 C   0  0  0  0  0  0  0  0  0  0  0  0
  147.8788  137.3198  161.3380 O   0  0  0  0  0  0  0  0  0  0  0  0
  151.7004  139.8543  159.3186 N   0  0  0  0  0  0  0  0  0  0  0  0
  151.9401  141.2084  159.2309 C   0  0  0  0  0  0  0  0  0  0  0  0
  152.7997  142.0392  159.9846 C   0  0  0  0  0  0  0  0  0  0  0  0
  152.8825  143.4192  159.7072 C   0  0  0  0  0  0  0  0  0  0  0  0
  152.1091  143.9856  158.6736 C   0  0  0  0  0  0  0  0  0  0  0  0
  151.2478  143.1735  157.9112 C   0  0  0  0  0  0  0  0  0  0  0  0
  151.1678  141.7957  158.1929 C   0  0  0  0  0  0  0  0  0  0  0  0
  146.1081  141.7268  154.1224 H   0  0  0  0  0  0  0  0  0  0  0  0
  147.2479  142.8313  153.3640 H   0  0  0  0  0  0  0  0  0  0  0  0
  147.2698  142.6077  155.1108 H   0  0  0  0  0  0  0  0  0  0  0  0
  147.9487  140.2151  154.8113 H   0  0  0  0  0  0  0  0  0  0  0  0
  147.9955  140.4058  153.0726 H   0  0  0  0  0  0  0  0  0  0  0  0
  150.2958  139.6833  154.9145 H   0  0  0  0  0  0  0  0  0  0  0  0
  151.2231  141.1395  155.2282 H   0  0  0  0  0  0  0  0  0  0  0  0
  148.9956  141.8731  156.5727 H   0  0  0  0  0  0  0  0  0  0  0  0
  148.7221  140.1626  156.6158 H   0  0  0  0  0  0  0  0  0  0  0  0
  149.6127  138.2818  157.2279 H   0  0  0  0  0  0  0  0  0  0  0  0
  151.9442  137.5845  156.9308 H   0  0  0  0  0  0  0  0  0  0  0  0
  150.9900  136.2594  157.5845 H   0  0  0  0  0  0  0  0  0  0  0  0
  152.0736  137.1679  158.6369 H   0  0  0  0  0  0  0  0  0  0  0  0
  147.8633  134.0867  160.8094 H   0  0  0  0  0  0  0  0  0  0  0  0
  146.5870  134.8767  163.1047 H   0  0  0  0  0  0  0  0  0  0  0  0
  146.8644  137.6178  163.1138 H   0  0  0  0  0  0  0  0  0  0  0  0
  153.3954  141.6123  160.7779 H   0  0  0  0  0  0  0  0  0  0  0  0
  153.5425  144.0450  160.2897 H   0  0  0  0  0  0  0  0  0  0  0  0
  152.1778  145.0433  158.4664 H   0  0  0  0  0  0  0  0  0  0  0  0
  150.6544  143.6051  157.1191 H   0  0  0  0  0  0  0  0  0  0  0  0
  1  2  1  0  0  0  0
  1 25  1  0  0  0  0
  1 26  1  0  0  0  0
  1 27  1  0  0  0  0
  2  3  1  0  0  0  0
  2 28  1  0  0  0  0
  2 29  1  0  0  0  0
  3  4  1  0  0  0  0
  4  5  1  0  0  0  0
  4 30  1  0  0  0  0
  4 31  1  0  0  0  0
  5  6  1  0  0  0  0
  5 32  1  0  0  0  0
  5 33  1  0  0  0  0
  6 24  1  0  0  0  0
  6  7  1  0  0  0  0
  7  8  1  0  0  0  0
  7 18  2  0  0  0  0
  8  9  1  0  0  0  0
  8 10  1  0  0  0  0
  8 34  1  0  0  0  0
  9 35  1  0  0  0  0
  9 36  1  0  0  0  0
  9 37  1  0  0  0  0
 10 11  1  0  0  0  0
 11 12  2  0  0  0  0
 11 13  1  0  0  0  0
 13 17  1  0  0  0  0
 13 14  2  0  0  0  0
 14 15  1  0  0  0  0
 14 38  1  0  0  0  0
 15 16  2  0  0  0  0
 15 39  1  0  0  0  0
 16 17  1  0  0  0  0
 16 40  1  0  0  0  0
 18 19  1  0  0  0  0
 19 24  2  0  0  0  0
 19 20  1  0  0  0  0
 20 21  2  0  0  0  0
 20 41  1  0  0  0  0
 21 22  1  0  0  0  0
 21 42  1  0  0  0  0
 22 23  2  0  0  0  0
 22 43  1  0  0  0  0
 23 24  1  0  0  0  0
 23 44  1  0  0  0  0
M  CHG  1  10  -1
M  END
> <s_m_source_file>
AV-unprocessed.smi

> <i_m_source_file_index>
500

> <i_lp_mmshare_version>
43012

> <i_f3d_flags>
0

> <s_epik_input>
W0NIM11bQ0gyXU9bQ0gyXVtDSDJdbihjKGMxMilbY0hdW2NIXVtjSF1bY0hdMiljKG4xKVtDQEhdKFtDSDNdKVtOSF1DKD1PKWMzW2NIXVtjSF1bY0hdbzM=

> <s_epik_cmdline>
J2VwaWtfcHl0aG9uJywgJy1waCcsICc3LjAnLCAnLXRuJywgJzgnLCAnLW1hJywgJzIwMCcsICctbWV0YWxfYmluZGluZycsICctaW1hZScsICc8aW5maWxlLm1hZT4nLCAnLW9tYWUnLCAnPG91dGZpbGUubWFlPic=

> <r_epik_Ionization_Penalty>
7.31223

> <r_epik_Ionization_Penalty_Charging>
6.43826

> <r_epik_Ionization_Penalty_Neutral>
0.873973

> <r_epik_State_Penalty>
6.5378

> <r_epik_Charging_Adjusted_Penalty>
12.9761

> <i_epik_Tot_Q>
-1

> <i_epik_Tot_abs_Q>
1

> <r_epik_Metal_State_Penalty>
2.55818

> <b_epik_Metal_Only>
1

> <s_lp_Force_Field>
OPLS_2005

> <r_lp_Energy>
16.2081

> <b_lp_Chiralities_Consistent>
1

> <s_lp_Variant>
AV-unprocessed.smi:500-6

> <Gold.Version>
5.8.1

> <Gold.Id.Protein>
6NUR|6NUR_protein|mol2

> <Gold.PLP.Fitness>
59.6201

> <Gold.PLP.PLP>
-51.7142

> <Gold.PLP.part.hbond>
-5.6439

> <Gold.PLP.part.metal>
0.0000

> <Gold.PLP.part.buried>
-3.1403

> <Gold.PLP.part.nonpolar>
-42.4958

> <Gold.PLP.part.repulsive>
0.1872

> <Gold.PLP.ligand.clash>
0.0000

> <Gold.PLP.ligand.torsion>
1.0084

> <Gold.PLP.Chemscore.Hbond>
3.2390

> <Gold.PLP.Chemscore.CHOScore>
0.0000

> <Gold.PLP.Chemscore.Metal>
0.0000

> <Gold.Chemscore.Hbonds>
donor molecule, donor type, donor heavy atom, donor atom, acceptor molecule, acceptor atom, score
      P1  H  6896  6909       L1    12  0.84
      P1  H  6931  6943       L1    17  0.96
      P1  H  6934  6947       L1    17  0.70
      P1  H  8011  8017       L1     3  0.54

> <Gold.PLP.Chemscore.Internal.Correction>
0.2057

> <Gold.Rescore>
     Score         DG    S(hbond)    S(metal)    S(lipo)     H(rot)  DE(clash)    DE(int)     intcor
     20.36     -22.69       2.23        0.00     123.72       1.84       0.21       2.12       ----

> <Gold.Chemscore.Fitness>
20.3595

> <Gold.Chemscore.DG>
-22.6859

> <Gold.Chemscore.ZeroCoef>
-5.4800

> <Gold.Chemscore.Hbond>
2.2263

> <Gold.Chemscore.Metal>
0.0000

> <Gold.Chemscore.Lipo>
123.7244

> <Gold.Chemscore.Internal_Hbond>
0.0000

> <Gold.Chemscore.DEClash>
0.2061

> <Gold.Chemscore.DEInternal>
2.1202

> <Gold.Chemscore.Rot>
1.8382

> <Gold.Chemscore.Internal.Correction>
   9.000000E+99

> <Gold.Chemscore.Hbonds>
donor molecule, donor type, donor heavy atom, donor atom, acceptor molecule, acceptor atom, score
      P1  H  6896  6909       L1    12  0.33
      P1  H  6931  6943       L1    17  0.49
      P1  H  6934  6947       L1    17  0.42
      P1  H  8011  8017       L1     3  0.21

> <Gold.Chemscore.Hbond.Weighted>
-7.4360

> <Gold.Chemscore.Metal.Weighted>
-0.0000

> <Gold.Chemscore.Lipo.Weighted>
-14.4757

> <Gold.Chemscore.Internal_Hbond.Weighted>
0.0000

> <Gold.Chemscore.DEClash.Weighted>
0.2061

> <Gold.Chemscore.DEInternal.Weighted>
2.1202

> <Gold.Chemscore.Rot.Weighted>
4.7059

> <Gold.Chemscore.Internal.Correction.Weighted>
   9.000000E+99

> <Gold.Protein.RotatedTorsions>
[ 6907 6896 6895 6894 ] final   35.52 input  -60.11 | X-H torsion
[ 7974 7965 7964 7962 ] final  101.23 input  175.53 | X-H torsion
[ 8008 7997 7996 7995 ] final -124.09 input   59.86 | X-H torsion
[ 10167 10162 10161 10158 ] final -125.03 input  -65.29 | X-H torsion
[ 10718 10713 10712 10709 ] final -107.80 input   66.30 | X-H torsion
[ 10763 10752 10751 10750 ] final -133.75 input  -60.55 | X-H torsion
[ 11005 11000 10999 10996 ] final  179.99 input  -57.11 | X-H torsion

> <Gold.Protein.ActiveResidues>
 VAL166  LYS551  ARG553  GLY616  TRP617  ASP618  TYR619  PRO620  LYS621  CYS622 
 ASP623  PHE694  ASN695  SER759  ASP760  ASP761  ALA762  ILE779  LEU786  VAL792 
 PHE793  MET794  SER795  GLU796  ALA797  LYS798  CYS799  TRP800  GLU811  SER814 

> <Gold.Protein.RotatedAtoms>
  152.1172  134.9232  160.0564 H   0  0  0  0  0  0  0  0  0  0  0  0  # atno 6907 bound_to 6896
  152.0386  133.3963  159.4336 H   0  0  0  0  0  0  0  0  0  0  0  0  # atno 6908 bound_to 6896
  150.6847  134.3361  159.4891 H   0  0  0  0  0  0  0  0  0  0  0  0  # atno 6909 bound_to 6896
  145.3751  139.2390  143.3434 H   0  0  0  0  0  0  0  0  0  0  0  0  # atno 7974 bound_to 7965
  155.1912  140.0413  157.2900 H   0  0  0  0  0  0  0  0  0  0  0  0  # atno 8008 bound_to 7997
  154.6138  140.2483  155.7608 H   0  0  0  0  0  0  0  0  0  0  0  0  # atno 8009 bound_to 7997
  156.2394  140.2909  156.0412 H   0  0  0  0  0  0  0  0  0  0  0  0  # atno 8010 bound_to 7997
  139.9865  143.5687  152.2358 H   0  0  0  0  0  0  0  0  0  0  0  0  # atno 10167 bound_to 10162
  156.0454  130.5681  150.7872 H   0  0  0  0  0  0  0  0  0  0  0  0  # atno 10718 bound_to 10713
  154.8728  135.3756  154.4623 H   0  0  0  0  0  0  0  0  0  0  0  0  # atno 10763 bound_to 10752
  153.5290  135.7028  153.5698 H   0  0  0  0  0  0  0  0  0  0  0  0  # atno 10764 bound_to 10752
  153.3911  135.3972  155.1889 H   0  0  0  0  0  0  0  0  0  0  0  0  # atno 10765 bound_to 10752
  140.4123  134.6680  157.4621 H   0  0  0  0  0  0  0  0  0  0  0  0  # atno 11005 bound_to 11000
  146.2867  140.4409  142.8755 LP  0  0  0  0  0  0  0  0  0  0  0  0  # atno 17320 bound_to 7965
  144.8548  140.7054  143.6145 LP  0  0  0  0  0  0  0  0  0  0  0  0  # atno 17321 bound_to 7965
  139.6371  144.7651  151.2415 LP  0  0  0  0  0  0  0  0  0  0  0  0  # atno 17342 bound_to 10162
  140.7470  143.6379  150.8362 LP  0  0  0  0  0  0  0  0  0  0  0  0  # atno 17343 bound_to 10162
  157.5323  131.0937  150.9938 LP  0  0  0  0  0  0  0  0  0  0  0  0  # atno 17370 bound_to 10713
  157.0242  130.5686  149.5335 LP  0  0  0  0  0  0  0  0  0  0  0  0  # atno 17371 bound_to 10713
  140.0258  134.6479  155.9174 LP  0  0  0  0  0  0  0  0  0  0  0  0  # atno 17394 bound_to 11000
  141.1816  133.6547  156.5044 LP  0  0  0  0  0  0  0  0  0  0  0  0  # atno 17395 bound_to 11000

$$$$
