AV-unprocessed.smi:72|AV-procd|sdf|672|dock10
  -GOLD-   2262016573D 1   1.00000     0.00000
 Structure written by MMmdl.
 29 30  0  0  0  0  0  0  0  0  1 V2000
  146.7068  139.7250  151.8127 N   0  0  0  0  0  0  0  0  0  0  0  0
  146.2714  138.5169  151.7557 C   0  0  0  0  0  0  0  0  0  0  0  0
  146.5169  137.6145  150.7109 N   0  0  0  0  0  0  0  0  0  0  0  0
  146.0405  136.4116  150.8027 C   0  0  0  0  0  0  0  0  0  0  0  0
  145.3009  135.9486  151.9720 N   0  0  0  0  0  0  0  0  0  0  0  0
  144.6929  134.5542  152.0681 C   0  0  1  0  0  0  0  0  0  0  0  0
  143.9038  134.3405  150.9412 O   0  0  0  0  0  0  0  0  0  0  0  0
  144.6846  133.6751  149.9603 C   0  0  2  0  0  0  0  0  0  0  0  0
  143.7817  132.9963  148.9141 C   0  0  0  0  0  0  0  0  0  0  0  0
  143.5201  133.8374  147.8091 O   0  0  0  0  0  0  0  0  0  0  0  0
  145.6480  132.7648  150.7455 C   0  0  1  0  0  0  0  0  0  0  0  0
  146.9228  132.7739  150.1343 O   0  0  0  0  0  0  0  0  0  0  0  0
  145.7169  133.3996  152.1407 C   0  0  2  0  0  0  0  0  0  0  0  0
  145.3429  132.4558  153.1241 O   0  0  0  0  0  0  0  0  0  0  0  0
  144.9696  136.8805  152.9895 C   0  0  0  0  0  0  0  0  0  0  0  0
  144.2634  136.5882  153.9542 O   0  0  0  0  0  0  0  0  0  0  0  0
  145.4870  138.1198  152.8451 N   0  0  0  0  0  0  0  0  0  0  0  0
  144.0697  134.5791  152.9634 H   0  0  0  0  0  0  0  0  0  0  0  0
  145.2529  134.4556  149.4511 H   0  0  0  0  0  0  0  0  0  0  0  0
  145.2849  131.7381  150.8015 H   0  0  0  0  0  0  0  0  0  0  0  0
  146.7082  133.7594  152.4150 H   0  0  0  0  0  0  0  0  0  0  0  0
  147.2624  139.9417  150.9979 H   0  0  0  0  0  0  0  0  0  0  0  0
  146.1610  135.6817  150.0037 H   0  0  0  0  0  0  0  0  0  0  0  0
  144.2324  132.0668  148.5656 H   0  0  0  0  0  0  0  0  0  0  0  0
  142.8258  132.7358  149.3694 H   0  0  0  0  0  0  0  0  0  0  0  0
  144.3329  134.2324  147.5323 H   0  0  0  0  0  0  0  0  0  0  0  0
  147.3393  131.9422  150.3019 H   0  0  0  0  0  0  0  0  0  0  0  0
  146.0251  131.8054  153.1920 H   0  0  0  0  0  0  0  0  0  0  0  0
  145.2819  138.7955  153.5663 H   0  0  0  0  0  0  0  0  0  0  0  0
  1  2  2  0  0  0  0
  1 22  1  0  0  0  0
  2 17  1  0  0  0  0
  2  3  1  0  0  0  0
  3  4  2  0  0  0  0
  4  5  1  0  0  0  0
  4 23  1  0  0  0  0
  5  6  1  0  0  0  0
  5 15  1  0  0  0  0
  6 18  1  0  0  0  0
  6 13  1  0  0  0  0
  6  7  1  0  0  0  0
  7  8  1  0  0  0  0
  8 19  1  0  0  0  0
  8  9  1  0  0  0  0
  8 11  1  0  0  0  0
  9 10  1  0  0  0  0
  9 24  1  0  0  0  0
  9 25  1  0  0  0  0
 10 26  1  0  0  0  0
 11 20  1  0  0  0  0
 11 12  1  0  0  0  0
 11 13  1  0  0  0  0
 12 27  1  0  0  0  0
 13 21  1  0  0  0  0
 13 14  1  0  0  0  0
 14 28  1  0  0  0  0
 15 16  2  0  0  0  0
 15 17  1  0  0  0  0
 17 29  1  0  0  0  0
M  END
> <s_m_source_file>
AV-unprocessed.smi

> <i_m_source_file_index>
72

> <i_lp_mmshare_version>
43012

> <i_f3d_flags>
0

> <s_epik_input>
W05IMl1jMW5bY0hdbihjKD1PKW4xKVtDQEBIXTJPW0NASF0oW0NIMl1bT0hdKVtDQEBIXShbT0hdKVtDQEhdMltPSF0=

> <s_epik_cmdline>
J2VwaWtfcHl0aG9uJywgJy1waCcsICc3LjAnLCAnLXRuJywgJzgnLCAnLW1hJywgJzIwMCcsICctbWV0YWxfYmluZGluZycsICctaW1hZScsICc8aW5maWxlLm1hZT4nLCAnLW9tYWUnLCAnPG91dGZpbGUubWFlPic=

> <r_lp_tautomer_probability>
7.17554e-07

> <r_epik_Ionization_Penalty>
0.0066451

> <r_epik_Ionization_Penalty_Charging>
0.00663793

> <r_epik_Ionization_Penalty_Neutral>
7.17052e-06

> <r_epik_State_Penalty>
0.419231

> <r_epik_Charging_Adjusted_Penalty>
0.425868

> <i_epik_Tot_Q>
0

> <i_epik_Tot_abs_Q>
0

> <r_epik_Metal_State_Penalty>
1.44144

> <b_epik_Metal_Only>
0

> <s_epik_Chemistry_Notes>
This compound contains an acetal/aminal-like group ( X-CH(R)-Y where X, Y are N, S, or O) that may be acid/base labile, releasing an aldehyde.

> <s_lp_Force_Field>
OPLS_2005

> <r_lp_Energy>
39.4446

> <b_lp_Chiralities_Consistent>
1

> <s_lp_Variant>
AV-unprocessed.smi:72-10

> <Gold.Version>
5.8.1

> <Gold.Id.Protein>
6NUR|6NUR_protein|mol2

> <Gold.PLP.Fitness>
41.1686

> <Gold.PLP.PLP>
-26.6521

> <Gold.PLP.part.hbond>
-9.4632

> <Gold.PLP.part.metal>
0.0000

> <Gold.PLP.part.buried>
-0.8648

> <Gold.PLP.part.nonpolar>
-19.5655

> <Gold.PLP.part.repulsive>
2.6772

> <Gold.PLP.ligand.clash>
0.0000

> <Gold.PLP.ligand.torsion>
0.4743

> <Gold.PLP.Chemscore.Hbond>
4.1290

> <Gold.PLP.Chemscore.CHOScore>
1.0000

> <Gold.PLP.Chemscore.Metal>
0.0000

> <Gold.Chemscore.Hbonds>
donor molecule, donor type, donor heavy atom, donor atom, acceptor molecule, acceptor atom, score
      L1  H     1    22       P1  7957  0.15
      L1  H    10    26       P1  7921  1.00
      L1  H    12    27       P1 10747  0.96
      P1  H  7954  7966       L1     3  1.00
      P1  H 10192 10197       L1    10  0.81
      L1  C     4    23       P1  7921  1.00

> <Gold.PLP.Chemscore.Internal.Correction>
0.0781

> <Gold.Rescore>
     Score         DG    S(hbond)    S(metal)    S(lipo)     H(rot)  DE(clash)    DE(int)     intcor
      8.55     -12.32       4.01        0.00      32.85       4.06       3.25       0.51       ----

> <Gold.Chemscore.Fitness>
8.5524

> <Gold.Chemscore.DG>
-12.3200

> <Gold.Chemscore.ZeroCoef>
-5.4800

> <Gold.Chemscore.Hbond>
4.0091

> <Gold.Chemscore.Metal>
0.0000

> <Gold.Chemscore.Lipo>
32.8475

> <Gold.Chemscore.Internal_Hbond>
0.0000

> <Gold.Chemscore.DEClash>
3.2537

> <Gold.Chemscore.DEInternal>
0.5139

> <Gold.Chemscore.Rot>
4.0600

> <Gold.Chemscore.Internal.Correction>
   9.000000E+99

> <Gold.Chemscore.Hbonds>
donor molecule, donor type, donor heavy atom, donor atom, acceptor molecule, acceptor atom, score
      L1  H     1    22       P1  7957  0.14
      L1  H    10    26       P1  7921  1.00
      L1  H    12    27       P1 10747  0.91
      P1  H  7954  7966       L1     3  0.83
      P1  H 10192 10197       L1    10  0.40

> <Gold.Chemscore.Hbond.Weighted>
-13.3904

> <Gold.Chemscore.Metal.Weighted>
-0.0000

> <Gold.Chemscore.Lipo.Weighted>
-3.8432

> <Gold.Chemscore.Internal_Hbond.Weighted>
0.0000

> <Gold.Chemscore.DEClash.Weighted>
3.2537

> <Gold.Chemscore.DEInternal.Weighted>
0.5139

> <Gold.Chemscore.Rot.Weighted>
10.3936

> <Gold.Chemscore.Internal.Correction.Weighted>
   9.000000E+99

> <Gold.Protein.RotatedTorsions>
[ 6907 6896 6895 6894 ] final  -10.43 input  -60.11 | X-H torsion
[ 7974 7965 7964 7962 ] final -114.14 input  175.53 | X-H torsion
[ 8008 7997 7996 7995 ] final -138.90 input   59.86 | X-H torsion
[ 10167 10162 10161 10158 ] final  115.18 input  -65.29 | X-H torsion
[ 10718 10713 10712 10709 ] final -118.03 input   66.30 | X-H torsion
[ 10763 10752 10751 10750 ] final  -53.34 input  -60.55 | X-H torsion
[ 11005 11000 10999 10996 ] final -160.08 input  -57.11 | X-H torsion

> <Gold.Protein.ActiveResidues>
 VAL166  LYS551  ARG553  GLY616  TRP617  ASP618  TYR619  PRO620  LYS621  CYS622 
 ASP623  PHE694  ASN695  SER759  ASP760  ASP761  ALA762  ILE779  LEU786  VAL792 
 PHE793  MET794  SER795  GLU796  ALA797  LYS798  CYS799  TRP800  GLU811  SER814 

> <Gold.Protein.RotatedAtoms>
  151.4021  135.0972  159.9558 H   0  0  0  0  0  0  0  0  0  0  0  0  # atno 6907 bound_to 6896
  152.5047  133.8878  159.7389 H   0  0  0  0  0  0  0  0  0  0  0  0  # atno 6908 bound_to 6896
  150.9354  133.6661  159.2830 H   0  0  0  0  0  0  0  0  0  0  0  0  # atno 6909 bound_to 6896
  145.1237  140.8684  143.3798 H   0  0  0  0  0  0  0  0  0  0  0  0  # atno 7974 bound_to 7965
  155.4360  140.0528  157.3014 H   0  0  0  0  0  0  0  0  0  0  0  0  # atno 8008 bound_to 7997
  154.4839  140.2093  155.9658 H   0  0  0  0  0  0  0  0  0  0  0  0  # atno 8009 bound_to 7997
  156.1246  140.3182  155.8263 H   0  0  0  0  0  0  0  0  0  0  0  0  # atno 8010 bound_to 7997
  139.6335  144.7117  151.2382 H   0  0  0  0  0  0  0  0  0  0  0  0  # atno 10167 bound_to 10162
  156.1076  130.6223  150.9239 H   0  0  0  0  0  0  0  0  0  0  0  0  # atno 10718 bound_to 10713
  154.1573  135.6480  153.4977 H   0  0  0  0  0  0  0  0  0  0  0  0  # atno 10763 bound_to 10752
  153.0120  135.5352  154.6747 H   0  0  0  0  0  0  0  0  0  0  0  0  # atno 10764 bound_to 10752
  154.6051  135.2948  155.0465 H   0  0  0  0  0  0  0  0  0  0  0  0  # atno 10765 bound_to 10752
  140.6354  134.4607  157.5231 H   0  0  0  0  0  0  0  0  0  0  0  0  # atno 11005 bound_to 11000
  145.0711  139.3030  143.5831 LP  0  0  0  0  0  0  0  0  0  0  0  0  # atno 17320 bound_to 7965
  146.3519  140.0186  142.8660 LP  0  0  0  0  0  0  0  0  0  0  0  0  # atno 17321 bound_to 7965
  140.7452  143.6437  150.8311 LP  0  0  0  0  0  0  0  0  0  0  0  0  # atno 17342 bound_to 10162
  140.0065  143.5688  152.2855 LP  0  0  0  0  0  0  0  0  0  0  0  0  # atno 17343 bound_to 10162
  157.6255  131.0926  150.8542 LP  0  0  0  0  0  0  0  0  0  0  0  0  # atno 17370 bound_to 10713
  156.8659  130.5129  149.5300 LP  0  0  0  0  0  0  0  0  0  0  0  0  # atno 17371 bound_to 10713
  139.9100  134.8365  156.1563 LP  0  0  0  0  0  0  0  0  0  0  0  0  # atno 17394 bound_to 11000
  141.0645  133.6826  156.2017 LP  0  0  0  0  0  0  0  0  0  0  0  0  # atno 17395 bound_to 11000

$$$$
