AV-unprocessed.smi:2767|AV-procd|sdf|10647|dock3
  -GOLD-   2272015 93D 1   1.00000     0.00000
 Structure written by MMmdl.
 34 36  0  0  0  0  0  0  0  0  1 V2000
  146.1207  136.7594  154.0993 O   0  0  0  0  0  0  0  0  0  0  0  0
  145.7206  137.5504  153.2447 C   0  0  0  0  0  0  0  0  0  0  0  0
  145.7321  138.8811  153.4061 N   0  0  0  0  0  0  0  0  0  0  0  0
  146.2488  139.5748  154.5803 C   0  0  0  0  0  0  0  0  0  0  0  0
  147.2284  140.7082  154.3006 C   0  0  0  0  0  0  0  0  0  0  0  0
  148.6226  140.5128  154.8911 C   0  0  0  0  0  0  0  0  0  0  0  0
  148.9356  141.0253  156.2777 C   0  0  0  0  0  0  0  0  0  0  0  0
  149.6334  141.6254  155.0805 C   0  0  0  0  0  0  0  0  0  0  0  0
  147.1581  141.3567  152.9321 C   0  0  0  0  0  0  0  0  0  0  0  0
  146.6427  142.1019  154.1331 C   0  0  0  0  0  0  0  0  0  0  0  0
  145.2284  137.2112  152.0401 N   0  0  0  0  0  0  0  0  0  0  0  0
  145.0904  135.9125  151.4818 C   0  0  0  0  0  0  0  0  0  0  0  0
  145.9738  134.9403  152.0037 C   0  0  0  0  0  0  0  0  0  0  0  0
  145.9158  133.6192  151.5188 C   0  0  0  0  0  0  0  0  0  0  0  0
  144.9740  133.3059  150.5227 C   0  0  0  0  0  0  0  0  0  0  0  0
  144.8814  132.0497  150.0255 F   0  0  0  0  0  0  0  0  0  0  0  0
  144.1309  134.3315  150.0566 C   0  0  0  0  0  0  0  0  0  0  0  0
  144.1854  135.5980  150.5208 N   0  0  0  0  0  0  0  0  0  0  0  0
  145.3833  139.4572  152.6542 H   0  0  0  0  0  0  0  0  0  0  0  0
  145.3933  139.9935  155.1109 H   0  0  0  0  0  0  0  0  0  0  0  0
  146.6984  138.8514  155.2630 H   0  0  0  0  0  0  0  0  0  0  0  0
  149.0670  139.5504  154.6438 H   0  0  0  0  0  0  0  0  0  0  0  0
  148.1814  141.6326  156.7746 H   0  0  0  0  0  0  0  0  0  0  0  0
  149.5159  140.3771  156.9309 H   0  0  0  0  0  0  0  0  0  0  0  0
  150.6826  141.3745  154.9408 H   0  0  0  0  0  0  0  0  0  0  0  0
  149.3662  142.6407  154.7998 H   0  0  0  0  0  0  0  0  0  0  0  0
  148.0865  141.7093  152.4875 H   0  0  0  0  0  0  0  0  0  0  0  0
  146.4226  140.9760  152.2260 H   0  0  0  0  0  0  0  0  0  0  0  0
  145.5638  142.2127  154.2224 H   0  0  0  0  0  0  0  0  0  0  0  0
  147.2128  142.9599  154.4787 H   0  0  0  0  0  0  0  0  0  0  0  0
  144.9335  137.9726  151.4467 H   0  0  0  0  0  0  0  0  0  0  0  0
  146.6910  135.1998  152.7690 H   0  0  0  0  0  0  0  0  0  0  0  0
  146.5815  132.8615  151.9047 H   0  0  0  0  0  0  0  0  0  0  0  0
  143.3945  134.1317  149.2923 H   0  0  0  0  0  0  0  0  0  0  0  0
  1  2  2  0  0  0  0
  2  3  1  0  0  0  0
  2 11  1  0  0  0  0
  3  4  1  0  0  0  0
  3 19  1  0  0  0  0
  4  5  1  0  0  0  0
  4 20  1  0  0  0  0
  4 21  1  0  0  0  0
  5 10  1  0  0  0  0
  5  6  1  0  0  0  0
  5  9  1  0  0  0  0
  6  8  1  0  0  0  0
  6  7  1  0  0  0  0
  6 22  1  0  0  0  0
  7  8  1  0  0  0  0
  7 23  1  0  0  0  0
  7 24  1  0  0  0  0
  8 25  1  0  0  0  0
  8 26  1  0  0  0  0
  9 10  1  0  0  0  0
  9 27  1  0  0  0  0
  9 28  1  0  0  0  0
 10 29  1  0  0  0  0
 10 30  1  0  0  0  0
 11 12  1  0  0  0  0
 11 31  1  0  0  0  0
 12 18  1  0  0  0  0
 12 13  2  0  0  0  0
 13 14  1  0  0  0  0
 13 32  1  0  0  0  0
 14 15  2  0  0  0  0
 14 33  1  0  0  0  0
 15 16  1  0  0  0  0
 15 17  1  0  0  0  0
 17 18  2  0  0  0  0
 17 34  1  0  0  0  0
M  END
> <s_m_source_file>
AV-unprocessed.smi

> <i_m_source_file_index>
2767

> <i_lp_mmshare_version>
43012

> <i_f3d_flags>
0

> <s_epik_input>
W0NIMl0xW0NIMl1bQ0hdMUMyKFtDSDJdW0NIMl0yKVtDSDJdW05IXUMoPU8pW05IXWMzW2NIXVtjSF1jKEYpW2NIXW4z

> <s_epik_cmdline>
J2VwaWtfcHl0aG9uJywgJy1waCcsICc3LjAnLCAnLXRuJywgJzgnLCAnLW1hJywgJzIwMCcsICctbWV0YWxfYmluZGluZycsICctaW1hZScsICc8aW5maWxlLm1hZT4nLCAnLW9tYWUnLCAnPG91dGZpbGUubWFlPic=

> <r_lp_tautomer_probability>
1

> <r_epik_Ionization_Penalty>
3.94364e-05

> <r_epik_Ionization_Penalty_Charging>
0

> <r_epik_Ionization_Penalty_Neutral>
3.94364e-05

> <r_epik_State_Penalty>
-0

> <r_epik_Charging_Adjusted_Penalty>
0

> <i_epik_Tot_Q>
0

> <i_epik_Tot_abs_Q>
0

> <r_epik_Metal_State_Penalty>
-0

> <b_epik_Metal_Only>
0

> <s_lp_Force_Field>
OPLS_2005

> <r_lp_Energy>
31.6765

> <b_lp_Chiralities_Consistent>
1

> <s_lp_Variant>
AV-unprocessed.smi:2767-1

> <Gold.Version>
5.8.1

> <Gold.Id.Protein>
6NUR|6NUR_protein|mol2

> <Gold.PLP.Fitness>
34.1796

> <Gold.PLP.PLP>
-27.7814

> <Gold.PLP.part.hbond>
-2.0000

> <Gold.PLP.part.metal>
0.0000

> <Gold.PLP.part.buried>
-3.4936

> <Gold.PLP.part.nonpolar>
-22.9365

> <Gold.PLP.part.repulsive>
0.6604

> <Gold.PLP.ligand.clash>
0.0000

> <Gold.PLP.ligand.torsion>
1.9633

> <Gold.PLP.Chemscore.Hbond>
1.6640

> <Gold.PLP.Chemscore.CHOScore>
0.9354

> <Gold.PLP.Chemscore.Metal>
0.0000

> <Gold.Chemscore.Hbonds>
donor molecule, donor type, donor heavy atom, donor atom, acceptor molecule, acceptor atom, score
      L1  H     3    19       P1 10175  0.62
      L1  H    11    31       P1 10171  0.95
      L1  C    17    34       P1 10186  0.91

> <Gold.PLP.Chemscore.Internal.Correction>
2.5267

> <Gold.Rescore>
     Score         DG    S(hbond)    S(metal)    S(lipo)     H(rot)  DE(clash)    DE(int)     intcor
     10.02     -14.58       1.56        0.00      65.25       1.46       1.21       3.35       ----

> <Gold.Chemscore.Fitness>
10.0247

> <Gold.Chemscore.DG>
-14.5826

> <Gold.Chemscore.ZeroCoef>
-5.4800

> <Gold.Chemscore.Hbond>
1.5593

> <Gold.Chemscore.Metal>
0.0000

> <Gold.Chemscore.Lipo>
65.2490

> <Gold.Chemscore.Internal_Hbond>
0.0000

> <Gold.Chemscore.DEClash>
1.2094

> <Gold.Chemscore.DEInternal>
3.3484

> <Gold.Chemscore.Rot>
1.4608

> <Gold.Chemscore.Internal.Correction>
   9.000000E+99

> <Gold.Chemscore.Hbonds>
donor molecule, donor type, donor heavy atom, donor atom, acceptor molecule, acceptor atom, score
      L1  H     3    19       P1 10175  0.60
      L1  H    11    31       P1 10171  0.85

> <Gold.Chemscore.Hbond.Weighted>
-5.2080

> <Gold.Chemscore.Metal.Weighted>
-0.0000

> <Gold.Chemscore.Lipo.Weighted>
-7.6341

> <Gold.Chemscore.Internal_Hbond.Weighted>
0.0000

> <Gold.Chemscore.DEClash.Weighted>
1.2094

> <Gold.Chemscore.DEInternal.Weighted>
3.3484

> <Gold.Chemscore.Rot.Weighted>
3.7396

> <Gold.Chemscore.Internal.Correction.Weighted>
   9.000000E+99

> <Gold.Protein.RotatedTorsions>
[ 6907 6896 6895 6894 ] final  -68.45 input  -60.11 | X-H torsion
[ 7974 7965 7964 7962 ] final  -30.12 input  175.53 | X-H torsion
[ 8008 7997 7996 7995 ] final   53.36 input   59.86 | X-H torsion
[ 10167 10162 10161 10158 ] final -151.98 input  -65.29 | X-H torsion
[ 10718 10713 10712 10709 ] final  -77.20 input   66.30 | X-H torsion
[ 10763 10752 10751 10750 ] final  171.81 input  -60.55 | X-H torsion
[ 11005 11000 10999 10996 ] final   20.02 input  -57.11 | X-H torsion

> <Gold.Protein.ActiveResidues>
 VAL166  LYS551  ARG553  GLY616  TRP617  ASP618  TYR619  PRO620  LYS621  CYS622 
 ASP623  PHE694  ASN695  SER759  ASP760  ASP761  ALA762  ILE779  LEU786  VAL792 
 PHE793  MET794  SER795  GLU796  ALA797  LYS798  CYS799  TRP800  GLU811  SER814 

> <Gold.Protein.RotatedAtoms>
  150.7355  134.5737  159.5902 H   0  0  0  0  0  0  0  0  0  0  0  0  # atno 6907 bound_to 6896
  152.3169  134.7426  160.0332 H   0  0  0  0  0  0  0  0  0  0  0  0  # atno 6908 bound_to 6896
  151.7955  133.3328  159.3548 H   0  0  0  0  0  0  0  0  0  0  0  0  # atno 6909 bound_to 6896
  146.1166  140.5500  142.8754 H   0  0  0  0  0  0  0  0  0  0  0  0  # atno 7974 bound_to 7965
  155.4670  140.3464  155.4320 H   0  0  0  0  0  0  0  0  0  0  0  0  # atno 8008 bound_to 7997
  156.1125  140.1465  156.9348 H   0  0  0  0  0  0  0  0  0  0  0  0  # atno 8009 bound_to 7997
  154.4766  140.0883  156.7256 H   0  0  0  0  0  0  0  0  0  0  0  0  # atno 8010 bound_to 7997
  139.7220  143.8942  152.2506 H   0  0  0  0  0  0  0  0  0  0  0  0  # atno 10167 bound_to 10162
  156.0152  130.4485  150.3309 H   0  0  0  0  0  0  0  0  0  0  0  0  # atno 10718 bound_to 10713
  154.4172  135.2757  155.1999 H   0  0  0  0  0  0  0  0  0  0  0  0  # atno 10763 bound_to 10752
  154.3960  135.6055  153.5873 H   0  0  0  0  0  0  0  0  0  0  0  0  # atno 10764 bound_to 10752
  152.9832  135.5915  154.4462 H   0  0  0  0  0  0  0  0  0  0  0  0  # atno 10765 bound_to 10752
  140.4072  134.1656  155.7666 H   0  0  0  0  0  0  0  0  0  0  0  0  # atno 11005 bound_to 11000
  144.7559  140.5305  143.6769 LP  0  0  0  0  0  0  0  0  0  0  0  0  # atno 17320 bound_to 7965
  145.5553  139.1478  143.3371 LP  0  0  0  0  0  0  0  0  0  0  0  0  # atno 17321 bound_to 7965
  139.8840  144.7002  150.8845 LP  0  0  0  0  0  0  0  0  0  0  0  0  # atno 17342 bound_to 10162
  140.7755  143.3638  151.1777 LP  0  0  0  0  0  0  0  0  0  0  0  0  # atno 17343 bound_to 10162
  157.1407  131.0295  151.2929 LP  0  0  0  0  0  0  0  0  0  0  0  0  # atno 17370 bound_to 10713
  157.4474  130.7579  149.7122 LP  0  0  0  0  0  0  0  0  0  0  0  0  # atno 17371 bound_to 10713
  141.1835  133.8364  157.1173 LP  0  0  0  0  0  0  0  0  0  0  0  0  # atno 17394 bound_to 11000
  140.0294  134.9908  157.0749 LP  0  0  0  0  0  0  0  0  0  0  0  0  # atno 17395 bound_to 11000

$$$$
