AV-unprocessed.smi:3277|AV-procd|sdf|12538|dock3
  -GOLD-   2272018453D 1   1.00000     0.00000
 Structure written by MMmdl.
 35 37  0  0  0  0  0  0  0  0  1 V2000
  148.8501  141.0937  154.1058 C   0  0  0  0  0  0  0  0  0  0  0  0
  149.0615  140.4955  155.4146 N   0  0  0  0  0  0  0  0  0  0  0  0
  150.2218  139.9589  155.8200 C   0  0  0  0  0  0  0  0  0  0  0  0
  151.2338  139.9289  155.1200 O   0  0  0  0  0  0  0  0  0  0  0  0
  150.2485  139.3671  157.2303 C   0  0  0  0  0  0  0  0  0  0  0  0
  151.3210  140.0657  158.0022 C   0  0  0  0  0  0  0  0  0  0  0  0
  151.3713  141.3904  158.1620 N   0  0  0  0  0  0  0  0  0  0  0  0
  152.4756  141.8112  158.9127 C   0  0  0  0  0  0  0  0  0  0  0  0
  152.7339  143.2725  159.1866 C   0  0  2  0  0  0  0  0  0  0  0  0
  152.5052  143.7204  160.6472 C   0  0  0  0  0  0  0  0  0  0  0  0
  151.6403  144.9847  160.4748 C   0  0  2  0  0  0  0  0  0  0  0  0
  150.2139  144.5746  160.0584 C   0  0  0  0  0  0  0  0  0  0  0  0
  150.3933  144.1623  158.5851 C   0  0  0  0  0  0  0  0  0  0  0  0
  151.9144  144.3071  158.3748 C   0  0  1  0  0  0  0  0  0  0  0  0
  152.1862  145.5762  159.1789 C   0  0  0  0  0  0  0  0  0  0  0  0
  153.2602  140.7651  159.3323 C   0  0  0  0  0  0  0  0  0  0  0  0
  152.6454  139.2250  158.7984 S   0  0  0  0  0  0  0  0  0  0  0  0
  147.8173  141.4297  154.0130 H   0  0  0  0  0  0  0  0  0  0  0  0
  149.0465  140.3715  153.3121 H   0  0  0  0  0  0  0  0  0  0  0  0
  149.5038  141.9553  153.9630 H   0  0  0  0  0  0  0  0  0  0  0  0
  148.2764  140.4810  156.0492 H   0  0  0  0  0  0  0  0  0  0  0  0
  149.2850  139.5093  157.7215 H   0  0  0  0  0  0  0  0  0  0  0  0
  150.4514  138.2960  157.1986 H   0  0  0  0  0  0  0  0  0  0  0  0
  153.7842  143.4655  158.9605 H   0  0  0  0  0  0  0  0  0  0  0  0
  151.9990  142.9732  161.2594 H   0  0  0  0  0  0  0  0  0  0  0  0
  153.4548  143.9510  161.1314 H   0  0  0  0  0  0  0  0  0  0  0  0
  151.6680  145.6526  161.3362 H   0  0  0  0  0  0  0  0  0  0  0  0
  149.8230  143.7617  160.6717 H   0  0  0  0  0  0  0  0  0  0  0  0
  149.5242  145.4156  160.1392 H   0  0  0  0  0  0  0  0  0  0  0  0
  150.0063  143.1694  158.3642 H   0  0  0  0  0  0  0  0  0  0  0  0
  149.8590  144.8575  157.9361 H   0  0  0  0  0  0  0  0  0  0  0  0
  152.2018  144.3612  157.3244 H   0  0  0  0  0  0  0  0  0  0  0  0
  151.6232  146.4430  158.8280 H   0  0  0  0  0  0  0  0  0  0  0  0
  153.2441  145.8390  159.2355 H   0  0  0  0  0  0  0  0  0  0  0  0
  154.1651  140.8083  159.9201 H   0  0  0  0  0  0  0  0  0  0  0  0
  1  2  1  0  0  0  0
  1 18  1  0  0  0  0
  1 19  1  0  0  0  0
  1 20  1  0  0  0  0
  2  3  1  0  0  0  0
  2 21  1  0  0  0  0
  3  4  2  0  0  0  0
  3  5  1  0  0  0  0
  5  6  1  0  0  0  0
  5 22  1  0  0  0  0
  5 23  1  0  0  0  0
  6 17  1  0  0  0  0
  6  7  2  0  0  0  0
  7  8  1  0  0  0  0
  8  9  1  0  0  0  0
  8 16  2  0  0  0  0
  9 14  1  0  0  0  0
  9 10  1  0  0  0  0
  9 24  1  0  0  0  0
 10 11  1  0  0  0  0
 10 25  1  0  0  0  0
 10 26  1  0  0  0  0
 11 15  1  0  0  0  0
 11 12  1  0  0  0  0
 11 27  1  0  0  0  0
 12 13  1  0  0  0  0
 12 28  1  0  0  0  0
 12 29  1  0  0  0  0
 13 14  1  0  0  0  0
 13 30  1  0  0  0  0
 13 31  1  0  0  0  0
 14 15  1  0  0  0  0
 14 32  1  0  0  0  0
 15 33  1  0  0  0  0
 15 34  1  0  0  0  0
 16 17  1  0  0  0  0
 16 35  1  0  0  0  0
M  END
> <s_m_source_file>
AV-unprocessed.smi

> <i_m_source_file_index>
3277

> <i_lp_mmshare_version>
43012

> <i_f3d_flags>
0

> <s_epik_input>
W0NIM11bTkhdQyg9TylbQ0gyXWMxbmMoW2NIXXMxKVtDQEhdKFtDSDJdW0NAQEhdMjMpW0NAQEhdKFtDSDJdMylbQ0gyXVtDSDJdMg==

> <s_epik_cmdline>
J2VwaWtfcHl0aG9uJywgJy1waCcsICc3LjAnLCAnLXRuJywgJzgnLCAnLW1hJywgJzIwMCcsICctbWV0YWxfYmluZGluZycsICctaW1hZScsICc8aW5maWxlLm1hZT4nLCAnLW9tYWUnLCAnPG91dGZpbGUubWFlPic=

> <r_lp_tautomer_probability>
1

> <r_epik_Ionization_Penalty>
8.50008e-05

> <r_epik_Ionization_Penalty_Charging>
0

> <r_epik_Ionization_Penalty_Neutral>
8.50008e-05

> <r_epik_State_Penalty>
-0

> <r_epik_Charging_Adjusted_Penalty>
0

> <i_epik_Tot_Q>
0

> <i_epik_Tot_abs_Q>
0

> <r_epik_Metal_State_Penalty>
-0

> <b_epik_Metal_Only>
0

> <s_lp_Force_Field>
OPLS_2005

> <r_lp_Energy>
46.0194

> <b_lp_Chiralities_Consistent>
1

> <s_lp_Variant>
AV-unprocessed.smi:3277-3

> <Gold.Version>
5.8.1

> <Gold.Id.Protein>
6NUR|6NUR_protein|mol2

> <Gold.PLP.Fitness>
41.4694

> <Gold.PLP.PLP>
-39.0255

> <Gold.PLP.part.hbond>
-1.0000

> <Gold.PLP.part.metal>
0.0000

> <Gold.PLP.part.buried>
-4.6072

> <Gold.PLP.part.nonpolar>
-33.0302

> <Gold.PLP.part.repulsive>
0.1173

> <Gold.PLP.ligand.clash>
0.0000

> <Gold.PLP.ligand.torsion>
0.2804

> <Gold.PLP.Chemscore.Hbond>
1.0000

> <Gold.PLP.Chemscore.CHOScore>
0.0000

> <Gold.PLP.Chemscore.Metal>
0.0000

> <Gold.Chemscore.Hbonds>
donor molecule, donor type, donor heavy atom, donor atom, acceptor molecule, acceptor atom, score
      P1  H  7989  7998       L1     4  1.00

> <Gold.PLP.Chemscore.Internal.Correction>
0.0047

> <Gold.Rescore>
     Score         DG    S(hbond)    S(metal)    S(lipo)     H(rot)  DE(clash)    DE(int)     intcor
     18.41     -19.29       1.00        0.00     120.45       1.41       0.25       0.62       ----

> <Gold.Chemscore.Fitness>
18.4078

> <Gold.Chemscore.DG>
-19.2863

> <Gold.Chemscore.ZeroCoef>
-5.4800

> <Gold.Chemscore.Hbond>
0.9967

> <Gold.Chemscore.Metal>
0.0000

> <Gold.Chemscore.Lipo>
120.4489

> <Gold.Chemscore.Internal_Hbond>
0.0000

> <Gold.Chemscore.DEClash>
0.2541

> <Gold.Chemscore.DEInternal>
0.6244

> <Gold.Chemscore.Rot>
1.4122

> <Gold.Chemscore.Internal.Correction>
   9.000000E+99

> <Gold.Chemscore.Hbonds>
donor molecule, donor type, donor heavy atom, donor atom, acceptor molecule, acceptor atom, score
      P1  H  7989  7998       L1     4  0.99

> <Gold.Chemscore.Hbond.Weighted>
-3.3289

> <Gold.Chemscore.Metal.Weighted>
-0.0000

> <Gold.Chemscore.Lipo.Weighted>
-14.0925

> <Gold.Chemscore.Internal_Hbond.Weighted>
0.0000

> <Gold.Chemscore.DEClash.Weighted>
0.2541

> <Gold.Chemscore.DEInternal.Weighted>
0.6244

> <Gold.Chemscore.Rot.Weighted>
3.6151

> <Gold.Chemscore.Internal.Correction.Weighted>
   9.000000E+99

> <Gold.Protein.RotatedTorsions>
[ 6907 6896 6895 6894 ] final  -50.53 input  -60.11 | X-H torsion
[ 7974 7965 7964 7962 ] final  -89.08 input  175.53 | X-H torsion
[ 8008 7997 7996 7995 ] final  126.82 input   59.86 | X-H torsion
[ 10167 10162 10161 10158 ] final -140.65 input  -65.29 | X-H torsion
[ 10718 10713 10712 10709 ] final   30.49 input   66.30 | X-H torsion
[ 10763 10752 10751 10750 ] final   23.10 input  -60.55 | X-H torsion
[ 11005 11000 10999 10996 ] final  -45.43 input  -57.11 | X-H torsion

> <Gold.Protein.ActiveResidues>
 VAL166  LYS551  ARG553  GLY616  TRP617  ASP618  TYR619  PRO620  LYS621  CYS622 
 ASP623  PHE694  ASN695  SER759  ASP760  ASP761  ALA762  ILE779  LEU786  VAL792 
 PHE793  MET794  SER795  GLU796  ALA797  LYS798  CYS799  TRP800  GLU811  SER814 

> <Gold.Protein.RotatedAtoms>
  150.8698  134.8069  159.7145 H   0  0  0  0  0  0  0  0  0  0  0  0  # atno 6907 bound_to 6896
  152.4707  134.4965  159.9721 H   0  0  0  0  0  0  0  0  0  0  0  0  # atno 6908 bound_to 6896
  151.5055  133.3457  159.2911 H   0  0  0  0  0  0  0  0  0  0  0  0  # atno 6909 bound_to 6896
  145.4446  140.9559  143.2056 H   0  0  0  0  0  0  0  0  0  0  0  0  # atno 7974 bound_to 7965
  156.2874  140.2683  156.2173 H   0  0  0  0  0  0  0  0  0  0  0  0  # atno 8008 bound_to 7997
  155.0203  140.0386  157.2453 H   0  0  0  0  0  0  0  0  0  0  0  0  # atno 8009 bound_to 7997
  154.7441  140.2730  155.6353 H   0  0  0  0  0  0  0  0  0  0  0  0  # atno 8010 bound_to 7997
  139.8260  143.7510  152.2666 H   0  0  0  0  0  0  0  0  0  0  0  0  # atno 10167 bound_to 10162
  157.2603  130.7158  149.6450 H   0  0  0  0  0  0  0  0  0  0  0  0  # atno 10718 bound_to 10713
  153.0864  135.6634  153.9941 H   0  0  0  0  0  0  0  0  0  0  0  0  # atno 10763 bound_to 10752
  153.9549  135.2980  155.3438 H   0  0  0  0  0  0  0  0  0  0  0  0  # atno 10764 bound_to 10752
  154.7272  135.5139  153.8978 H   0  0  0  0  0  0  0  0  0  0  0  0  # atno 10765 bound_to 10752
  141.0515  133.6741  156.3012 H   0  0  0  0  0  0  0  0  0  0  0  0  # atno 11005 bound_to 11000
  144.8100  139.5980  143.7034 LP  0  0  0  0  0  0  0  0  0  0  0  0  # atno 17320 bound_to 7965
  146.2537  139.6256  142.9409 LP  0  0  0  0  0  0  0  0  0  0  0  0  # atno 17321 bound_to 7965
  139.7703  144.7479  151.0235 LP  0  0  0  0  0  0  0  0  0  0  0  0  # atno 17342 bound_to 10162
  140.7810  143.4653  151.0221 LP  0  0  0  0  0  0  0  0  0  0  0  0  # atno 17343 bound_to 10162
  155.9664  130.4399  150.5280 LP  0  0  0  0  0  0  0  0  0  0  0  0  # atno 17370 bound_to 10713
  157.3183  131.0677  151.1951 LP  0  0  0  0  0  0  0  0  0  0  0  0  # atno 17371 bound_to 10713
  140.6047  134.5519  157.5523 LP  0  0  0  0  0  0  0  0  0  0  0  0  # atno 17394 bound_to 11000
  139.9354  134.7885  156.0817 LP  0  0  0  0  0  0  0  0  0  0  0  0  # atno 17395 bound_to 11000

$$$$
