AV-unprocessed.smi:234|AV-procd|sdf|1795|dock1
  -GOLD-   2262020363D 1   1.00000     0.00000
 Structure written by MMmdl.
 59 62  0  0  0  0  0  0  0  0  1 V2000
  151.8718  145.5917  160.1738 C   0  0  0  0  0  0  0  0  0  0  0  0
  151.7236  144.6368  158.9822 C   0  0  0  0  0  0  0  0  0  0  0  0
  152.6226  143.5380  159.0506 O   0  0  0  0  0  0  0  0  0  0  0  0
  152.0041  142.2619  159.1558 C   0  0  2  0  0  0  0  0  0  0  0  0
  152.8559  141.0814  158.6797 C   0  0  0  0  0  0  0  0  0  0  0  0
  151.5527  140.5153  158.1111 C   0  0  2  0  0  0  0  0  0  0  0  0
  151.7284  139.7970  156.8466 N   0  0  0  0  0  0  0  0  0  0  0  0
  152.5274  138.5794  156.8970 C   0  0  0  0  0  0  0  0  0  0  0  0
  150.6007  139.5964  156.1258 C   0  0  0  0  0  0  0  0  0  0  0  0
  150.4054  140.2635  154.9573 N   0  0  0  0  0  0  0  0  0  0  0  0
  149.2951  140.0518  154.2448 C   0  0  0  0  0  0  0  0  0  0  0  0
  148.2740  139.2349  154.5132 N   0  0  0  0  0  0  0  0  0  0  0  0
  148.4644  138.5728  155.6907 C   0  0  0  0  0  0  0  0  0  0  0  0
  149.5851  138.7028  156.5566 C   0  0  0  0  0  0  0  0  0  0  0  0
  149.4331  137.8790  157.6640 N   0  0  0  0  0  0  0  0  0  0  0  0
  148.2874  137.2878  157.4609 C   0  0  0  0  0  0  0  0  0  0  0  0
  147.6456  137.6329  156.2919 N   0  0  0  0  0  0  0  0  0  0  0  0
  146.3775  137.1100  155.8076 C   0  0  0  0  0  0  0  0  0  0  0  0
  146.5062  136.3146  154.4850 C   0  0  1  0  0  0  0  0  0  0  0  0
  146.9735  137.1981  153.4792 O   0  0  0  0  0  0  0  0  0  0  0  0
  147.5023  135.1561  154.6024 C   0  0  0  0  0  0  0  0  0  0  0  0
  146.6352  133.9075  154.4914 C   0  0  0  0  0  0  0  0  0  0  0  0
  145.5913  134.3209  153.6286 O   0  0  0  0  0  0  0  0  0  0  0  0
  145.1902  135.6142  154.0550 C   0  0  2  0  0  0  0  0  0  0  0  0
  144.3462  136.3047  152.9703 C   0  0  0  0  0  0  0  0  0  0  0  0
  151.0282  141.9757  157.9855 C   0  0  0  0  0  0  0  0  0  0  0  0
  149.5492  142.1965  158.3038 C   0  0  0  0  0  0  0  0  0  0  0  0
  151.3243  142.7329  156.6769 C   0  0  0  0  0  0  0  0  0  0  0  0
  151.2646  146.4849  160.0272 H   0  0  0  0  0  0  0  0  0  0  0  0
  152.9077  145.9097  160.2941 H   0  0  0  0  0  0  0  0  0  0  0  0
  151.5481  145.1305  161.1055 H   0  0  0  0  0  0  0  0  0  0  0  0
  150.6933  144.2934  158.8799 H   0  0  0  0  0  0  0  0  0  0  0  0
  151.9556  145.1842  158.0684 H   0  0  0  0  0  0  0  0  0  0  0  0
  151.5355  142.0831  160.1267 H   0  0  0  0  0  0  0  0  0  0  0  0
  153.5924  141.3552  157.9223 H   0  0  0  0  0  0  0  0  0  0  0  0
  153.2955  140.4815  159.4766 H   0  0  0  0  0  0  0  0  0  0  0  0
  151.0106  139.9452  158.8687 H   0  0  0  0  0  0  0  0  0  0  0  0
  152.0681  137.8454  157.5600 H   0  0  0  0  0  0  0  0  0  0  0  0
  153.5292  138.7939  157.2688 H   0  0  0  0  0  0  0  0  0  0  0  0
  152.6327  138.1306  155.9083 H   0  0  0  0  0  0  0  0  0  0  0  0
  149.2151  140.6149  153.3267 H   0  0  0  0  0  0  0  0  0  0  0  0
  147.8825  136.5669  158.1562 H   0  0  0  0  0  0  0  0  0  0  0  0
  145.9455  136.4828  156.5887 H   0  0  0  0  0  0  0  0  0  0  0  0
  145.6909  137.9471  155.6754 H   0  0  0  0  0  0  0  0  0  0  0  0
  147.7317  136.8088  153.0708 H   0  0  0  0  0  0  0  0  0  0  0  0
  148.2171  135.1650  153.7776 H   0  0  0  0  0  0  0  0  0  0  0  0
  148.0779  135.1707  155.5284 H   0  0  0  0  0  0  0  0  0  0  0  0
  147.1773  133.0517  154.0890 H   0  0  0  0  0  0  0  0  0  0  0  0
  146.2221  133.6308  155.4627 H   0  0  0  0  0  0  0  0  0  0  0  0
  144.5626  135.4581  154.9333 H   0  0  0  0  0  0  0  0  0  0  0  0
  144.0473  137.3067  153.2787 H   0  0  0  0  0  0  0  0  0  0  0  0
  143.4369  135.7376  152.7722 H   0  0  0  0  0  0  0  0  0  0  0  0
  144.8901  136.3886  152.0294 H   0  0  0  0  0  0  0  0  0  0  0  0
  148.9078  141.8977  157.4742 H   0  0  0  0  0  0  0  0  0  0  0  0
  149.3416  143.2454  158.5172 H   0  0  0  0  0  0  0  0  0  0  0  0
  149.2378  141.6203  159.1752 H   0  0  0  0  0  0  0  0  0  0  0  0
  150.6688  142.4142  155.8665 H   0  0  0  0  0  0  0  0  0  0  0  0
  152.3493  142.5844  156.3369 H   0  0  0  0  0  0  0  0  0  0  0  0
  151.1800  143.8067  156.7982 H   0  0  0  0  0  0  0  0  0  0  0  0
  1  2  1  0  0  0  0
  1 29  1  0  0  0  0
  1 30  1  0  0  0  0
  1 31  1  0  0  0  0
  2  3  1  0  0  0  0
  2 32  1  0  0  0  0
  2 33  1  0  0  0  0
  3  4  1  0  0  0  0
  4 26  1  0  0  0  0
  4  5  1  0  0  0  0
  4 34  1  0  0  0  0
  5  6  1  0  0  0  0
  5 35  1  0  0  0  0
  5 36  1  0  0  0  0
  6  7  1  0  0  0  0
  6 26  1  0  0  0  0
  6 37  1  0  0  0  0
  7  8  1  0  0  0  0
  7  9  1  0  0  0  0
  8 38  1  0  0  0  0
  8 39  1  0  0  0  0
  8 40  1  0  0  0  0
  9 14  1  0  0  0  0
  9 10  2  0  0  0  0
 10 11  1  0  0  0  0
 11 12  2  0  0  0  0
 11 41  1  0  0  0  0
 12 13  1  0  0  0  0
 13 17  1  0  0  0  0
 13 14  2  0  0  0  0
 14 15  1  0  0  0  0
 15 16  2  0  0  0  0
 16 17  1  0  0  0  0
 16 42  1  0  0  0  0
 17 18  1  0  0  0  0
 18 19  1  0  0  0  0
 18 43  1  0  0  0  0
 18 44  1  0  0  0  0
 19 24  1  0  0  0  0
 19 20  1  0  0  0  0
 19 21  1  0  0  0  0
 20 45  1  0  0  0  0
 21 22  1  0  0  0  0
 21 46  1  0  0  0  0
 21 47  1  0  0  0  0
 22 23  1  0  0  0  0
 22 48  1  0  0  0  0
 22 49  1  0  0  0  0
 23 24  1  0  0  0  0
 24 25  1  0  0  0  0
 24 50  1  0  0  0  0
 25 51  1  0  0  0  0
 25 52  1  0  0  0  0
 25 53  1  0  0  0  0
 26 27  1  0  0  0  0
 26 28  1  0  0  0  0
 27 54  1  0  0  0  0
 27 55  1  0  0  0  0
 27 56  1  0  0  0  0
 28 57  1  0  0  0  0
 28 58  1  0  0  0  0
 28 59  1  0  0  0  0
M  END
> <s_m_source_file>
AV-unprocessed.smi

> <i_m_source_file_index>
234

> <i_lp_mmshare_version>
43012

> <i_f3d_flags>
0

> <s_epik_input>
W0NIM11bQ0gyXU9bQ0BASF0oQzEoW0NIM10pW0NIM10pW0NIMl1bQ0BIXTFOKFtDSDNdKWMobltjSF1uMiljKGMyMyluW2NIXW4zW0NIMl1bQ0BAXTQoW09IXSlbQ0gyXVtDSDJdT1tDQEhdNFtDSDNd

> <s_epik_cmdline>
J2VwaWtfcHl0aG9uJywgJy1waCcsICc3LjAnLCAnLXRuJywgJzgnLCAnLW1hJywgJzIwMCcsICctbWV0YWxfYmluZGluZycsICctaW1hZScsICc8aW5maWxlLm1hZT4nLCAnLW9tYWUnLCAnPG91dGZpbGUubWFlPic=

> <r_lp_tautomer_probability>
1

> <r_epik_Ionization_Penalty>
0.00349132

> <r_epik_Ionization_Penalty_Charging>
0

> <r_epik_Ionization_Penalty_Neutral>
0.00349132

> <r_epik_State_Penalty>
0.00242418

> <r_epik_Charging_Adjusted_Penalty>
0.00242418

> <i_epik_Tot_Q>
0

> <i_epik_Tot_abs_Q>
0

> <r_epik_Metal_State_Penalty>
-0

> <b_epik_Metal_Only>
0

> <s_lp_Force_Field>
OPLS_2005

> <r_lp_Energy>
47.8509

> <b_lp_Chiralities_Consistent>
1

> <s_lp_Variant>
AV-unprocessed.smi:234-11

> <Gold.Version>
5.8.1

> <Gold.Id.Protein>
6NUR|6NUR_protein|mol2

> <Gold.PLP.Fitness>
38.7223

> <Gold.PLP.PLP>
-30.5496

> <Gold.PLP.part.hbond>
-2.0000

> <Gold.PLP.part.metal>
0.0000

> <Gold.PLP.part.buried>
-6.1379

> <Gold.PLP.part.nonpolar>
-22.6958

> <Gold.PLP.part.repulsive>
0.2747

> <Gold.PLP.ligand.clash>
0.0000

> <Gold.PLP.ligand.torsion>
0.7864

> <Gold.PLP.Chemscore.Hbond>
2.0000

> <Gold.PLP.Chemscore.CHOScore>
1.0000

> <Gold.PLP.Chemscore.Metal>
0.0000

> <Gold.Chemscore.Hbonds>
donor molecule, donor type, donor heavy atom, donor atom, acceptor molecule, acceptor atom, score
      L1  H    20    45       P1  7948  1.00
      P1  H  7989  7998       L1    10  1.00
      L1  C    11    41       P1  7957  1.00

> <Gold.PLP.Chemscore.Internal.Correction>
0.7455

> <Gold.Rescore>
     Score         DG    S(hbond)    S(metal)    S(lipo)     H(rot)  DE(clash)    DE(int)     intcor
     12.77     -14.17       1.56        0.00      86.97       2.62       0.63       0.77       ----

> <Gold.Chemscore.Fitness>
12.7671

> <Gold.Chemscore.DG>
-14.1665

> <Gold.Chemscore.ZeroCoef>
-5.4800

> <Gold.Chemscore.Hbond>
1.5639

> <Gold.Chemscore.Metal>
0.0000

> <Gold.Chemscore.Lipo>
86.9683

> <Gold.Chemscore.Internal_Hbond>
0.0000

> <Gold.Chemscore.DEClash>
0.6343

> <Gold.Chemscore.DEInternal>
0.7651

> <Gold.Chemscore.Rot>
2.6219

> <Gold.Chemscore.Internal.Correction>
   9.000000E+99

> <Gold.Chemscore.Hbonds>
donor molecule, donor type, donor heavy atom, donor atom, acceptor molecule, acceptor atom, score
      L1  H    20    45       P1  7948  1.00
      P1  H  7989  7998       L1    10  0.24

> <Gold.Chemscore.Hbond.Weighted>
-5.2233

> <Gold.Chemscore.Metal.Weighted>
-0.0000

> <Gold.Chemscore.Lipo.Weighted>
-10.1753

> <Gold.Chemscore.Internal_Hbond.Weighted>
0.0000

> <Gold.Chemscore.DEClash.Weighted>
0.6343

> <Gold.Chemscore.DEInternal.Weighted>
0.7651

> <Gold.Chemscore.Rot.Weighted>
6.7121

> <Gold.Chemscore.Internal.Correction.Weighted>
   9.000000E+99

> <Gold.Protein.RotatedTorsions>
[ 6907 6896 6895 6894 ] final  -33.30 input  -60.11 | X-H torsion
[ 7974 7965 7964 7962 ] final  -64.02 input  175.53 | X-H torsion
[ 8008 7997 7996 7995 ] final   85.97 input   59.86 | X-H torsion
[ 10167 10162 10161 10158 ] final -119.94 input  -65.29 | X-H torsion
[ 10718 10713 10712 10709 ] final  169.98 input   66.30 | X-H torsion
[ 10763 10752 10751 10750 ] final   79.74 input  -60.55 | X-H torsion
[ 11005 11000 10999 10996 ] final -111.14 input  -57.11 | X-H torsion

> <Gold.Protein.ActiveResidues>
 VAL166  LYS551  ARG553  GLY616  TRP617  ASP618  TYR619  PRO620  LYS621  CYS622 
 ASP623  PHE694  ASN695  SER759  ASP760  ASP761  ALA762  ILE779  LEU786  VAL792 
 PHE793  MET794  SER795  GLU796  ALA797  LYS798  CYS799  TRP800  GLU811  SER814 

> <Gold.Protein.RotatedAtoms>
  151.0674  134.9776  159.8291 H   0  0  0  0  0  0  0  0  0  0  0  0  # atno 6907 bound_to 6896
  152.5404  134.2341  159.8846 H   0  0  0  0  0  0  0  0  0  0  0  0  # atno 6908 bound_to 6896
  151.2364  133.4379  159.2639 H   0  0  0  0  0  0  0  0  0  0  0  0  # atno 6909 bound_to 6896
  145.7718  140.8808  143.0376 H   0  0  0  0  0  0  0  0  0  0  0  0  # atno 7974 bound_to 7965
  155.9569  140.3396  155.6456 H   0  0  0  0  0  0  0  0  0  0  0  0  # atno 8008 bound_to 7997
  155.6849  140.0742  157.2489 H   0  0  0  0  0  0  0  0  0  0  0  0  # atno 8009 bound_to 7997
  154.4134  140.1668  156.2010 H   0  0  0  0  0  0  0  0  0  0  0  0  # atno 8010 bound_to 7997
  140.0412  143.5152  152.2129 H   0  0  0  0  0  0  0  0  0  0  0  0  # atno 10167 bound_to 10162
  157.0148  131.0215  151.2792 H   0  0  0  0  0  0  0  0  0  0  0  0  # atno 10718 bound_to 10713
  153.0977  135.4828  154.8809 H   0  0  0  0  0  0  0  0  0  0  0  0  # atno 10763 bound_to 10752
  154.7343  135.3067  154.8840 H   0  0  0  0  0  0  0  0  0  0  0  0  # atno 10764 bound_to 10752
  153.9467  135.6828  153.4797 H   0  0  0  0  0  0  0  0  0  0  0  0  # atno 10765 bound_to 10752
  141.0751  133.9314  157.2406 H   0  0  0  0  0  0  0  0  0  0  0  0  # atno 11005 bound_to 11000
  144.6811  139.9866  143.7484 LP  0  0  0  0  0  0  0  0  0  0  0  0  # atno 17320 bound_to 7965
  146.0162  139.3212  143.0840 LP  0  0  0  0  0  0  0  0  0  0  0  0  # atno 17321 bound_to 7965
  139.6013  144.7583  151.3166 LP  0  0  0  0  0  0  0  0  0  0  0  0  # atno 17342 bound_to 10162
  140.7259  143.7004  150.7849 LP  0  0  0  0  0  0  0  0  0  0  0  0  # atno 17343 bound_to 10162
  157.5294  130.8048  149.7899 LP  0  0  0  0  0  0  0  0  0  0  0  0  # atno 17370 bound_to 10713
  156.0123  130.3828  150.2224 LP  0  0  0  0  0  0  0  0  0  0  0  0  # atno 17371 bound_to 10713
  139.9564  135.0164  156.9138 LP  0  0  0  0  0  0  0  0  0  0  0  0  # atno 17394 bound_to 11000
  140.5590  134.0553  155.7393 LP  0  0  0  0  0  0  0  0  0  0  0  0  # atno 17395 bound_to 11000

$$$$
