AV-unprocessed.smi:3314|AV-procd|sdf|12736|dock2
  -GOLD-   2272019 83D 1   1.00000     0.00000
 Structure written by MMmdl.
 37 38  0  0  0  0  0  0  0  0  1 V2000
  151.8605  145.5763  159.7000 C   0  0  0  0  0  0  0  0  0  0  0  0
  151.8715  144.1736  159.1294 C   0  0  0  0  0  0  0  0  0  0  0  0
  152.7366  143.1889  159.6440 C   0  0  0  0  0  0  0  0  0  0  0  0
  152.6999  141.9044  159.0665 C   0  0  0  0  0  0  0  0  0  0  0  0
  153.5999  140.7962  159.5712 C   0  0  0  0  0  0  0  0  0  0  0  0
  151.8776  141.5784  158.0465 N   0  0  0  0  0  0  0  0  0  0  0  0
  151.0404  142.5189  157.5429 C   0  0  0  0  0  0  0  0  0  0  0  0
  150.1400  142.2798  156.4717 N   0  0  0  0  0  0  0  0  0  0  0  0
  150.2414  141.3750  155.4800 C   0  0  0  0  0  0  0  0  0  0  0  0
  151.1744  140.5807  155.3525 O   0  0  0  0  0  0  0  0  0  0  0  0
  149.0908  141.3914  154.4666 C   0  0  1  0  0  0  0  0  0  0  0  0
  148.5589  139.9830  154.1172 C   0  0  0  0  0  0  0  0  0  0  0  0
  147.4292  140.0495  153.1993 N   0  0  0  0  0  0  0  0  0  0  0  0
  146.9325  138.7241  152.8626 C   0  0  0  0  0  0  0  0  0  0  0  0
  146.3843  140.8870  153.7733 C   0  0  0  0  0  0  0  0  0  0  0  0
  146.9114  142.2871  154.1327 C   0  0  0  0  0  0  0  0  0  0  0  0
  148.0275  142.1715  155.0109 O   0  0  0  0  0  0  0  0  0  0  0  0
  151.0121  143.8309  158.0663 C   0  0  0  0  0  0  0  0  0  0  0  0
  152.5632  145.6741  160.5281 H   0  0  0  0  0  0  0  0  0  0  0  0
  150.8647  145.8277  160.0659 H   0  0  0  0  0  0  0  0  0  0  0  0
  152.1368  146.2981  158.9310 H   0  0  0  0  0  0  0  0  0  0  0  0
  153.4096  143.4116  160.4593 H   0  0  0  0  0  0  0  0  0  0  0  0
  154.2712  141.1560  160.3515 H   0  0  0  0  0  0  0  0  0  0  0  0
  154.2070  140.3988  158.7573 H   0  0  0  0  0  0  0  0  0  0  0  0
  153.0025  139.9827  159.9836 H   0  0  0  0  0  0  0  0  0  0  0  0
  149.3223  142.8714  156.4505 H   0  0  0  0  0  0  0  0  0  0  0  0
  149.4530  141.8735  153.5564 H   0  0  0  0  0  0  0  0  0  0  0  0
  149.3586  139.3905  153.6708 H   0  0  0  0  0  0  0  0  0  0  0  0
  148.2576  139.4647  155.0296 H   0  0  0  0  0  0  0  0  0  0  0  0
  146.1097  138.7900  152.1500 H   0  0  0  0  0  0  0  0  0  0  0  0
  146.5739  138.1996  153.7493 H   0  0  0  0  0  0  0  0  0  0  0  0
  147.7187  138.1217  152.4063 H   0  0  0  0  0  0  0  0  0  0  0  0
  145.5557  140.9799  153.0702 H   0  0  0  0  0  0  0  0  0  0  0  0
  145.9813  140.4135  154.6699 H   0  0  0  0  0  0  0  0  0  0  0  0
  147.2042  142.8314  153.2338 H   0  0  0  0  0  0  0  0  0  0  0  0
  146.1322  142.8716  154.6221 H   0  0  0  0  0  0  0  0  0  0  0  0
  150.3403  144.5712  157.6561 H   0  0  0  0  0  0  0  0  0  0  0  0
  1  2  1  0  0  0  0
  1 19  1  0  0  0  0
  1 20  1  0  0  0  0
  1 21  1  0  0  0  0
  2 18  1  0  0  0  0
  2  3  2  0  0  0  0
  3  4  1  0  0  0  0
  3 22  1  0  0  0  0
  4  5  1  0  0  0  0
  4  6  2  0  0  0  0
  5 23  1  0  0  0  0
  5 24  1  0  0  0  0
  5 25  1  0  0  0  0
  6  7  1  0  0  0  0
  7  8  1  0  0  0  0
  7 18  2  0  0  0  0
  8  9  1  0  0  0  0
  8 26  1  0  0  0  0
  9 10  2  0  0  0  0
  9 11  1  0  0  0  0
 11 17  1  0  0  0  0
 11 12  1  0  0  0  0
 11 27  1  0  0  0  0
 12 13  1  0  0  0  0
 12 28  1  0  0  0  0
 12 29  1  0  0  0  0
 13 14  1  0  0  0  0
 13 15  1  0  0  0  0
 14 30  1  0  0  0  0
 14 31  1  0  0  0  0
 14 32  1  0  0  0  0
 15 16  1  0  0  0  0
 15 33  1  0  0  0  0
 15 34  1  0  0  0  0
 16 17  1  0  0  0  0
 16 35  1  0  0  0  0
 16 36  1  0  0  0  0
 18 37  1  0  0  0  0
M  END
> <s_m_source_file>
AV-unprocessed.smi

> <i_m_source_file_index>
3314

> <i_lp_mmshare_version>
43012

> <i_f3d_flags>
0

> <s_epik_input>
W0NIM11jMVtjSF1jKFtDSDNdKW5jKFtjSF0xKVtOSF1DKD1PKVtDQEBIXTJbQ0gyXU4oW0NIM10pW0NIMl1bQ0gyXU8y

> <s_epik_cmdline>
J2VwaWtfcHl0aG9uJywgJy1waCcsICc3LjAnLCAnLXRuJywgJzgnLCAnLW1hJywgJzIwMCcsICctbWV0YWxfYmluZGluZycsICctaW1hZScsICc8aW5maWxlLm1hZT4nLCAnLW9tYWUnLCAnPG91dGZpbGUubWFlPic=

> <r_epik_Ionization_Penalty>
0.55509

> <r_epik_Ionization_Penalty_Charging>
0

> <r_epik_Ionization_Penalty_Neutral>
0.55509

> <r_epik_State_Penalty>
0.632277

> <r_epik_Charging_Adjusted_Penalty>
0.632277

> <i_epik_Tot_Q>
0

> <i_epik_Tot_abs_Q>
0

> <r_epik_Metal_State_Penalty>
0.606221

> <b_epik_Metal_Only>
0

> <s_lp_Force_Field>
OPLS_2005

> <r_lp_Energy>
21.1919

> <b_lp_Chiralities_Consistent>
1

> <s_lp_Variant>
AV-unprocessed.smi:3314-6

> <Gold.Version>
5.8.1

> <Gold.Id.Protein>
6NUR|6NUR_protein|mol2

> <Gold.PLP.Fitness>
42.7505

> <Gold.PLP.PLP>
-38.8281

> <Gold.PLP.part.hbond>
-2.0000

> <Gold.PLP.part.metal>
0.0000

> <Gold.PLP.part.buried>
-2.5683

> <Gold.PLP.part.nonpolar>
-36.7085

> <Gold.PLP.part.repulsive>
3.8207

> <Gold.PLP.ligand.clash>
0.0000

> <Gold.PLP.ligand.torsion>
0.4781

> <Gold.PLP.Chemscore.Hbond>
1.6256

> <Gold.PLP.Chemscore.CHOScore>
0.0000

> <Gold.PLP.Chemscore.Metal>
0.0000

> <Gold.Chemscore.Hbonds>
donor molecule, donor type, donor heavy atom, donor atom, acceptor molecule, acceptor atom, score
      L1  H     8    26       P1  8028  0.65
      P1  H  7989  7998       L1    10  0.88

> <Gold.PLP.Chemscore.Internal.Correction>
0.0020

> <Gold.Rescore>
     Score         DG    S(hbond)    S(metal)    S(lipo)     H(rot)  DE(clash)    DE(int)     intcor
     15.10     -18.27       1.02        0.00     102.01       1.00       1.57       1.60       ----

> <Gold.Chemscore.Fitness>
15.0999

> <Gold.Chemscore.DG>
-18.2690

> <Gold.Chemscore.ZeroCoef>
-5.4800

> <Gold.Chemscore.Hbond>
1.0220

> <Gold.Chemscore.Metal>
0.0000

> <Gold.Chemscore.Lipo>
102.0119

> <Gold.Chemscore.Internal_Hbond>
0.0000

> <Gold.Chemscore.DEClash>
1.5707

> <Gold.Chemscore.DEInternal>
1.5984

> <Gold.Chemscore.Rot>
1.0000

> <Gold.Chemscore.Internal.Correction>
   9.000000E+99

> <Gold.Chemscore.Hbonds>
donor molecule, donor type, donor heavy atom, donor atom, acceptor molecule, acceptor atom, score
      L1  H     8    26       P1  8028  0.62
      P1  H  7989  7998       L1    10  0.22

> <Gold.Chemscore.Hbond.Weighted>
-3.4136

> <Gold.Chemscore.Metal.Weighted>
-0.0000

> <Gold.Chemscore.Lipo.Weighted>
-11.9354

> <Gold.Chemscore.Internal_Hbond.Weighted>
0.0000

> <Gold.Chemscore.DEClash.Weighted>
1.5707

> <Gold.Chemscore.DEInternal.Weighted>
1.5984

> <Gold.Chemscore.Rot.Weighted>
2.5600

> <Gold.Chemscore.Internal.Correction.Weighted>
   9.000000E+99

> <Gold.Protein.RotatedTorsions>
[ 6907 6896 6895 6894 ] final -148.51 input  -60.11 | X-H torsion
[ 7974 7965 7964 7962 ] final   -0.95 input  175.53 | X-H torsion
[ 8008 7997 7996 7995 ] final  -28.62 input   59.86 | X-H torsion
[ 10167 10162 10161 10158 ] final  141.13 input  -65.29 | X-H torsion
[ 10718 10713 10712 10709 ] final  -37.91 input   66.30 | X-H torsion
[ 10763 10752 10751 10750 ] final   47.98 input  -60.55 | X-H torsion
[ 11005 11000 10999 10996 ] final -135.82 input  -57.11 | X-H torsion

> <Gold.Protein.ActiveResidues>
 VAL166  LYS551  ARG553  GLY616  TRP617  ASP618  TYR619  PRO620  LYS621  CYS622 
 ASP623  PHE694  ASN695  SER759  ASP760  ASP761  ALA762  ILE779  LEU786  VAL792 
 PHE793  MET794  SER795  GLU796  ALA797  LYS798  CYS799  TRP800  GLU811  SER814 

> <Gold.Protein.RotatedAtoms>
  151.1708  133.4785  159.2593 H   0  0  0  0  0  0  0  0  0  0  0  0  # atno 6907 bound_to 6896
  151.1358  135.0154  159.8613 H   0  0  0  0  0  0  0  0  0  0  0  0  # atno 6908 bound_to 6896
  152.5461  134.1606  159.8609 H   0  0  0  0  0  0  0  0  0  0  0  0  # atno 6909 bound_to 6896
  146.2422  140.1346  142.8337 H   0  0  0  0  0  0  0  0  0  0  0  0  # atno 7974 bound_to 7965
  154.4324  140.1840  156.1118 H   0  0  0  0  0  0  0  0  0  0  0  0  # atno 8008 bound_to 7997
  156.0212  140.3340  155.7015 H   0  0  0  0  0  0  0  0  0  0  0  0  # atno 8009 bound_to 7997
  155.5974  140.0637  157.2733 H   0  0  0  0  0  0  0  0  0  0  0  0  # atno 8010 bound_to 7997
  139.5029  144.6191  151.6094 H   0  0  0  0  0  0  0  0  0  0  0  0  # atno 10167 bound_to 10162
  156.3097  130.4251  149.8062 H   0  0  0  0  0  0  0  0  0  0  0  0  # atno 10718 bound_to 10713
  152.9795  135.5959  154.3852 H   0  0  0  0  0  0  0  0  0  0  0  0  # atno 10763 bound_to 10752
  154.3513  135.2767  155.2372 H   0  0  0  0  0  0  0  0  0  0  0  0  # atno 10764 bound_to 10752
  154.4411  135.6013  153.6185 H   0  0  0  0  0  0  0  0  0  0  0  0  # atno 10765 bound_to 10752
  140.8863  134.1869  157.4558 H   0  0  0  0  0  0  0  0  0  0  0  0  # atno 11005 bound_to 11000
  145.0297  140.8861  143.5117 LP  0  0  0  0  0  0  0  0  0  0  0  0  # atno 17320 bound_to 7965
  145.1408  139.2573  143.5491 LP  0  0  0  0  0  0  0  0  0  0  0  0  # atno 17321 bound_to 7965
  140.5888  143.9817  150.6312 LP  0  0  0  0  0  0  0  0  0  0  0  0  # atno 17342 bound_to 10162
  140.2990  143.3273  152.0990 LP  0  0  0  0  0  0  0  0  0  0  0  0  # atno 17343 bound_to 10162
  156.5410  130.8299  151.3269 LP  0  0  0  0  0  0  0  0  0  0  0  0  # atno 17370 bound_to 10713
  157.7388  130.9820  150.2275 LP  0  0  0  0  0  0  0  0  0  0  0  0  # atno 17371 bound_to 10713
  139.8724  134.9839  156.5217 LP  0  0  0  0  0  0  0  0  0  0  0  0  # atno 17394 bound_to 11000
  140.8401  133.8211  155.9067 LP  0  0  0  0  0  0  0  0  0  0  0  0  # atno 17395 bound_to 11000

$$$$
