#       Name:                AV-unprocessed.smi:1830
#       Creating user name   scv26
#       Creation time:       Fri Mar 27 09:14:06 2020


#       File generated by GOLD software.
#

@<TRIPOS>MOLECULE
AV-unprocessed.smi:1830
    59    62     1
SMALL
NO_CHARGES


@<TRIPOS>ATOM
      1 ****         0.3376   2.5330  -0.1718 O.2            1 S1                 0.0000
      2 ****        -0.1999   1.4265  -0.2074 C.2            1 S1                 0.0000
      3 ****         0.4801   0.2783  -0.3311 N.am           1 S1                 0.0000
      4 ****         1.9315   0.1772  -0.4444 C.3            1 S1                 0.0000
      5 ****         2.6312   0.3380   0.9241 C.3            1 S1                 0.0000
      6 ****         4.1754   0.2963   0.8211 C.3            1 S1                 0.0000
      7 ****         4.6087  -1.0972   0.6095 N.4            1 S1                 1.0000
      8 ****         6.0517  -1.3639   0.4810 C.3            1 S1                 0.0000
      9 ****         6.2179  -2.8429   0.8832 C.3            1 S1                 0.0000
     10 ****         4.8388  -3.2941   1.3967 C.3            1 S1                 0.0000
     11 ****         4.1252  -1.9752   1.6771 C.3            1 S1                 0.0000
     12 ****         2.5922  -1.9711   1.6743 C.3            1 S1                 0.0000
     13 ****         2.1542  -0.6247   1.8778 O.3            1 S1                 0.0000
     14 ****        -1.5241   1.2078  -0.1473 N.am           1 S1                 0.0000
     15 ****        -2.5664   2.1741  -0.0602 C.ar           1 S1                 0.0000
     16 ****        -2.3876   3.3851   0.6572 C.ar           1 S1                 0.0000
     17 ****        -3.4265   4.3331   0.7067 C.ar           1 S1                 0.0000
     18 ****        -4.6327   4.0550   0.0415 C.ar           1 S1                 0.0000
     19 ****        -4.7803   2.8855  -0.6144 N.pl3          1 S1                 1.0000
     20 ****        -3.8233   1.9266  -0.6854 C.ar           1 S1                 0.0000
     21 ****        -4.1262   0.7437  -1.3974 N.3            1 S1                 0.0000
     22 ****        -5.3390   0.6562  -2.2025 C.3            1 S1                 0.0000
     23 ****        -5.4964  -0.8283  -2.5180 C.3            1 S1                 0.0000
     24 ****        -4.9780  -1.4910  -1.2449 C.3            1 S1                 0.0000
     25 ****        -3.8690  -0.5472  -0.7667 C.3            1 S1                 0.0000
     26 ****        -0.0404  -0.5865  -0.3528 H              1 S1                 0.0000
     27 ****         2.1724  -0.7834  -0.8987 H              1 S1                 0.0000
     28 ****         2.2949   0.9346  -1.1412 H              1 S1                 0.0000
     29 ****         2.3630   1.3189   1.3176 H              1 S1                 0.0000
     30 ****         4.5303   0.9292   0.0070 H              1 S1                 0.0000
     31 ****         4.6215   0.6783   1.7408 H              1 S1                 0.0000
     32 ****         6.3976  -1.1629  -0.5332 H              1 S1                 0.0000
     33 ****         6.6119  -0.7241   1.1648 H              1 S1                 0.0000
     34 ****         6.5392  -3.4563   0.0409 H              1 S1                 0.0000
     35 ****         6.9731  -2.9369   1.6644 H              1 S1                 0.0000
     36 ****         4.3158  -3.8474   0.6152 H              1 S1                 0.0000
     37 ****         4.9026  -3.9345   2.2770 H              1 S1                 0.0000
     38 ****         4.4805  -1.5895   2.6353 H              1 S1                 0.0000
     39 ****         2.1915  -2.3755   0.7445 H              1 S1                 0.0000
     40 ****         2.2093  -2.5932   2.4832 H              1 S1                 0.0000
     41 ****        -1.8242   0.2546  -0.2893 H              1 S1                 0.0000
     42 ****        -1.4665   3.6005   1.1772 H              1 S1                 0.0000
     43 ****        -3.2977   5.2604   1.2459 H              1 S1                 0.0000
     44 ****        -5.4817   4.7230   0.0213 H              1 S1                 0.0000
     45 ****        -6.2023   1.0021  -1.6324 H              1 S1                 0.0000
     46 ****        -5.2603   1.2565  -3.1094 H              1 S1                 0.0000
     47 ****        -6.5231  -1.1058  -2.7593 H              1 S1                 0.0000
     48 ****        -4.8628  -1.0998  -3.3636 H              1 S1                 0.0000
     49 ****        -5.7754  -1.5273  -0.5014 H              1 S1                 0.0000
     50 ****        -4.6258  -2.5100  -1.4081 H              1 S1                 0.0000
     51 ****        -2.8987  -0.9152  -1.1014 H              1 S1                 0.0000
     52 ****        -3.8510  -0.4766   0.3219 H              1 S1                 0.0000
     53 ****         4.1812  -1.4221  -0.2459 H              1 S1                 0.0000
     54 ****        -5.6714   2.7089  -1.0785 H              1 S1                 0.0000
     55 ****         1.3327   2.6078  -0.2366 LP             1 S1                 0.0000
     56 ****        -0.2207   3.3573  -0.0781 LP             1 S1                 0.0000
     57 ****         1.1547  -0.6190   1.8461 LP             1 S1                 0.0000
     58 ****         2.4606  -0.3360   2.7849 LP             1 S1                 0.0000
     59 ****        -3.3842   0.9246  -2.0429 LP             1 S1                 0.0000
@<TRIPOS>BOND
    1    1    2 2     
    2    2    3 am    
    3    2   14 am    
    4    3    4 1     
    5    3   26 1     
    6    4    5 1     
    7    4   27 1     
    8    4   28 1     
    9    5   13 1     
   10    5    6 1     
   11    5   29 1     
   12    6    7 1     
   13    6   30 1     
   14    6   31 1     
   15    7   11 1     
   16    7    8 1     
   17    7   53 1     
   18    8    9 1     
   19    8   32 1     
   20    8   33 1     
   21    9   10 1     
   22    9   34 1     
   23    9   35 1     
   24   10   11 1     
   25   10   36 1     
   26   10   37 1     
   27   11   12 1     
   28   11   38 1     
   29   12   13 1     
   30   12   39 1     
   31   12   40 1     
   32   14   15 1     
   33   14   41 1     
   34   15   20 ar    
   35   15   16 ar    
   36   16   17 ar    
   37   16   42 1     
   38   17   18 ar    
   39   17   43 1     
   40   18   19 ar    
   41   18   44 1     
   42   19   20 ar    
   43   19   54 1     
   44   20   21 1     
   45   21   25 1     
   46   21   22 1     
   47   22   23 1     
   48   22   45 1     
   49   22   46 1     
   50   23   24 1     
   51   23   47 1     
   52   23   48 1     
   53   24   25 1     
   54   24   49 1     
   55   24   50 1     
   56   25   51 1     
   57   25   52 1     
   58    1   55 1     
   59    1   56 1     
   60   13   57 1     
   61   13   58 1     
   62   21   59 1     
@<TRIPOS>SUBSTRUCTURE
      1 S1             1
@<TRIPOS>SET
LONE_PAIRS      STATIC     ATOMS    <user>   **** ""
5 55 56 57 58 59
DONOR_HYDROGENS      STATIC     ATOMS    <user>   **** ""
4 26 53 41 54
ATOM$BLUE        STATIC     ATOMS    COLORGROUP SYSTEM
5 55 56 57 58 59
ATOM$RED        STATIC     ATOMS    COLORGROUP SYSTEM
4 26 53 41 54
