#       Name:                AV-unprocessed.smi:1224
#       Creating user name   scv26
#       Creation time:       Fri Mar 27 04:19:26 2020


#       File generated by GOLD software.
#

@<TRIPOS>MOLECULE
AV-unprocessed.smi:1224
    47    49     1
SMALL
NO_CHARGES


@<TRIPOS>ATOM
      1 ****        -2.1342   3.9474   3.1399 C.3            1 S1                 0.0000
      2 ****        -2.1672   2.6554   2.3424 C.ar           1 S1                 0.0000
      3 ****        -2.7882   2.6466   1.0730 C.ar           1 S1                 0.0000
      4 ****        -2.8396   1.4660   0.3000 C.ar           1 S1                 0.0000
      5 ****        -3.3904   1.2326  -0.9485 N.2            1 S1                 0.0000
      6 ****        -3.1181  -0.0571  -1.1246 C.2            1 S1                 0.0000
      7 ****        -2.4465  -0.6856  -0.1403 N.pl3          1 S1                 0.0000
      8 ****        -2.0342  -2.0775  -0.1095 C.3            1 S1                 0.0000
      9 ****        -0.5131  -2.2508  -0.2904 C.3            1 S1                 0.0000
     10 ****        -0.2345  -3.6335  -0.2197 O.3            1 S1                 0.0000
     11 ****         0.0131  -1.7176  -1.6371 C.3            1 S1                 0.0000
     12 ****         1.4522  -1.4800  -1.5840 N.3            1 S1                 0.0000
     13 ****         1.9841  -0.9115  -2.8171 C.3            1 S1                 0.0000
     14 ****         3.4608  -0.7106  -2.7476 C.2            1 S1                 0.0000
     15 ****         4.4346  -1.6699  -2.6293 C.2            1 S1                 0.0000
     16 ****         5.7532  -1.1287  -2.5899 C.2            1 S1                 0.0000
     17 ****         5.7685   0.2380  -2.6784 C.2            1 S1                 0.0000
     18 ****         4.1577   0.8886  -2.8131 S.3            1 S1                 0.0000
     19 ****        -2.2458   0.2855   0.8346 C.ar           1 S1                 0.0000
     20 ****        -1.6269   0.2810   2.0970 C.ar           1 S1                 0.0000
     21 ****        -1.5853   1.4689   2.8567 C.ar           1 S1                 0.0000
     22 ****        -0.9140   1.4537   4.2186 C.3            1 S1                 0.0000
     23 ****        -2.6249   4.7599   2.6031 H              1 S1                 0.0000
     24 ****        -1.1050   4.2495   3.3347 H              1 S1                 0.0000
     25 ****        -2.6450   3.8208   4.0947 H              1 S1                 0.0000
     26 ****        -3.2321   3.5497   0.6809 H              1 S1                 0.0000
     27 ****        -3.4170  -0.5736  -2.0251 H              1 S1                 0.0000
     28 ****        -2.3524  -2.5018   0.8438 H              1 S1                 0.0000
     29 ****        -2.5739  -2.6188  -0.8883 H              1 S1                 0.0000
     30 ****        -0.0011  -1.7528   0.5343 H              1 S1                 0.0000
     31 ****         0.6970  -3.7541  -0.3264 H              1 S1                 0.0000
     32 ****        -0.2390  -2.4044  -2.4464 H              1 S1                 0.0000
     33 ****        -0.4792  -0.7746  -1.8740 H              1 S1                 0.0000
     34 ****         1.6565  -0.8533  -0.8120 H              1 S1                 0.0000
     35 ****         1.7527  -1.5663  -3.6579 H              1 S1                 0.0000
     36 ****         1.4953   0.0406  -3.0269 H              1 S1                 0.0000
     37 ****         4.2466  -2.7320  -2.5702 H              1 S1                 0.0000
     38 ****         6.6308  -1.7516  -2.4991 H              1 S1                 0.0000
     39 ****         6.6225   0.8993  -2.6733 H              1 S1                 0.0000
     40 ****        -1.1877  -0.6296   2.4767 H              1 S1                 0.0000
     41 ****        -0.5239   0.4642   4.4586 H              1 S1                 0.0000
     42 ****        -1.6240   1.7310   4.9981 H              1 S1                 0.0000
     43 ****        -0.0808   2.1565   4.2422 H              1 S1                 0.0000
     44 ****        -3.8673   1.8666  -1.5573 LP             1 S1                 0.0000
     45 ****        -0.7234  -4.1147  -0.9474 LP             1 S1                 0.0000
     46 ****        -0.5224  -3.9915   0.6685 LP             1 S1                 0.0000
     47 ****         1.8939  -2.3680  -1.4563 LP             1 S1                 0.0000
@<TRIPOS>BOND
    1    1    2 1     
    2    1   23 1     
    3    1   24 1     
    4    1   25 1     
    5    2   21 ar    
    6    2    3 ar    
    7    3    4 ar    
    8    3   26 1     
    9    4   19 ar    
   10    4    5 1     
   11    5    6 2     
   12    6    7 1     
   13    6   27 1     
   14    7    8 1     
   15    7   19 1     
   16    8    9 1     
   17    8   28 1     
   18    8   29 1     
   19    9   10 1     
   20    9   11 1     
   21    9   30 1     
   22   10   31 1     
   23   11   12 1     
   24   11   32 1     
   25   11   33 1     
   26   12   13 1     
   27   12   34 1     
   28   13   14 1     
   29   13   35 1     
   30   13   36 1     
   31   14   18 1     
   32   14   15 2     
   33   15   16 1     
   34   15   37 1     
   35   16   17 2     
   36   16   38 1     
   37   17   18 1     
   38   17   39 1     
   39   19   20 ar    
   40   20   21 ar    
   41   20   40 1     
   42   21   22 1     
   43   22   41 1     
   44   22   42 1     
   45   22   43 1     
   46    5   44 1     
   47   10   45 1     
   48   10   46 1     
   49   12   47 1     
@<TRIPOS>SUBSTRUCTURE
      1 S1             1
@<TRIPOS>SET
LONE_PAIRS      STATIC     ATOMS    <user>   **** ""
4 44 45 46 47
DONOR_HYDROGENS      STATIC     ATOMS    <user>   **** ""
2 31 34
ATOM$BLUE        STATIC     ATOMS    COLORGROUP SYSTEM
4 44 45 46 47
ATOM$RED        STATIC     ATOMS    COLORGROUP SYSTEM
2 31 34
