AV-unprocessed.smi:2909|AV-procd|sdf|11174|dock9
  -GOLD-   2272016 63D 1   1.00000     0.00000
 Structure written by MMmdl.
 44 45  0  0  0  0  0  0  0  0  1 V2000
  152.5014  131.6283  152.4358 C   0  0  0  0  0  0  0  0  0  0  0  0
  151.9337  132.9177  152.9516 C   0  0  0  0  0  0  0  0  0  0  0  0
  152.2409  133.5897  154.1708 C   0  0  0  0  0  0  0  0  0  0  0  0
  151.4513  134.7055  154.1506 C   0  0  0  0  0  0  0  0  0  0  0  0
  151.2874  135.8221  155.1346 C   0  0  0  0  0  0  0  0  0  0  0  0
  151.5477  137.1935  154.5031 C   0  0  0  0  0  0  0  0  0  0  0  0
  152.5420  137.3628  153.7981 O   0  0  0  0  0  0  0  0  0  0  0  0
  150.6399  138.1545  154.7391 N   0  0  0  0  0  0  0  0  0  0  0  0
  150.6782  139.5168  154.2124 C   0  0  2  0  0  0  0  0  0  0  0  0
  152.0120  140.1889  154.5747 C   0  0  0  0  0  0  0  0  0  0  0  0
  152.1360  140.4690  156.0829 C   0  0  0  0  0  0  0  0  0  0  0  0
  150.9588  141.3116  156.6342 C   0  0  2  0  0  0  0  0  0  0  0  0
  151.0820  141.5636  158.1660 C   0  0  0  0  0  0  0  0  0  0  0  0
  149.9812  142.4954  158.7087 C   0  0  0  0  0  0  0  0  0  0  0  0
  152.4561  142.1356  158.5659 C   0  0  0  0  0  0  0  0  0  0  0  0
  149.6204  140.6300  156.2549 C   0  0  0  0  0  0  0  0  0  0  0  0
  149.5020  140.3536  154.7457 C   0  0  0  0  0  0  0  0  0  0  0  0
  150.7461  134.6535  152.9693 N   0  0  0  0  0  0  0  0  0  0  0  0
  151.0305  133.5655  152.2305 N   0  0  0  0  0  0  0  0  0  0  0  0
  150.0773  135.3442  152.6587 H   0  0  0  0  0  0  0  0  0  0  0  0
  153.0928  131.1244  153.2003 H   0  0  0  0  0  0  0  0  0  0  0  0
  153.1491  131.8025  151.5764 H   0  0  0  0  0  0  0  0  0  0  0  0
  151.7106  130.9449  152.1253 H   0  0  0  0  0  0  0  0  0  0  0  0
  152.9334  133.2946  154.9455 H   0  0  0  0  0  0  0  0  0  0  0  0
  151.9690  135.6901  155.9755 H   0  0  0  0  0  0  0  0  0  0  0  0
  150.2777  135.8010  155.5467 H   0  0  0  0  0  0  0  0  0  0  0  0
  149.8556  137.9237  155.3318 H   0  0  0  0  0  0  0  0  0  0  0  0
  150.6110  139.4693  153.1238 H   0  0  0  0  0  0  0  0  0  0  0  0
  152.8466  139.5710  154.2411 H   0  0  0  0  0  0  0  0  0  0  0  0
  152.0973  141.1305  154.0307 H   0  0  0  0  0  0  0  0  0  0  0  0
  152.2012  139.5263  156.6277 H   0  0  0  0  0  0  0  0  0  0  0  0
  153.0833  140.9814  156.2444 H   0  0  0  0  0  0  0  0  0  0  0  0
  150.9855  142.2813  156.1347 H   0  0  0  0  0  0  0  0  0  0  0  0
  150.9717  140.6055  158.6761 H   0  0  0  0  0  0  0  0  0  0  0  0
  149.9638  143.4440  158.1713 H   0  0  0  0  0  0  0  0  0  0  0  0
  150.1391  142.7173  159.7645 H   0  0  0  0  0  0  0  0  0  0  0  0
  148.9915  142.0459  158.6353 H   0  0  0  0  0  0  0  0  0  0  0  0
  152.6812  143.0488  158.0141 H   0  0  0  0  0  0  0  0  0  0  0  0
  153.2631  141.4255  158.3891 H   0  0  0  0  0  0  0  0  0  0  0  0
  152.4879  142.3773  159.6287 H   0  0  0  0  0  0  0  0  0  0  0  0
  149.5121  139.6966  156.8089 H   0  0  0  0  0  0  0  0  0  0  0  0
  148.7760  141.2558  156.5407 H   0  0  0  0  0  0  0  0  0  0  0  0
  149.4700  141.3044  154.2122 H   0  0  0  0  0  0  0  0  0  0  0  0
  148.5549  139.8571  154.5310 H   0  0  0  0  0  0  0  0  0  0  0  0
  1 21  1  0  0  0  0
  1 22  1  0  0  0  0
  1 23  1  0  0  0  0
  1  2  1  0  0  0  0
  2 19  2  0  0  0  0
  2  3  1  0  0  0  0
  3  4  2  0  0  0  0
  3 24  1  0  0  0  0
  4 18  1  0  0  0  0
  4  5  1  0  0  0  0
  5  6  1  0  0  0  0
  5 25  1  0  0  0  0
  5 26  1  0  0  0  0
  6  7  2  0  0  0  0
  6  8  1  0  0  0  0
  8  9  1  0  0  0  0
  8 27  1  0  0  0  0
  9 17  1  0  0  0  0
  9 10  1  0  0  0  0
  9 28  1  0  0  0  0
 10 11  1  0  0  0  0
 10 29  1  0  0  0  0
 10 30  1  0  0  0  0
 11 12  1  0  0  0  0
 11 31  1  0  0  0  0
 11 32  1  0  0  0  0
 12 13  1  0  0  0  0
 12 16  1  0  0  0  0
 12 33  1  0  0  0  0
 13 14  1  0  0  0  0
 13 15  1  0  0  0  0
 13 34  1  0  0  0  0
 14 35  1  0  0  0  0
 14 36  1  0  0  0  0
 14 37  1  0  0  0  0
 15 38  1  0  0  0  0
 15 39  1  0  0  0  0
 15 40  1  0  0  0  0
 16 17  1  0  0  0  0
 16 41  1  0  0  0  0
 16 42  1  0  0  0  0
 17 43  1  0  0  0  0
 17 44  1  0  0  0  0
 18 19  1  0  0  0  0
 18 20  1  0  0  0  0
M  END
> <s_m_source_file>
AV-unprocessed.smi

> <i_m_source_file_index>
2909

> <i_lp_mmshare_version>
43012

> <i_f3d_flags>
0

> <s_epik_input>
W0NIM11jMVtjSF1jKG5bbkhdMSlbQ0gyXUMoPU8pW05IXVtDQEBIXTJbQ0gyXVtDSDJdW0NAQEhdKFtDSF0oW0NIM10pW0NIM10pW0NIMl1bQ0gyXTI=

> <s_epik_cmdline>
J2VwaWtfcHl0aG9uJywgJy1waCcsICc3LjAnLCAnLXRuJywgJzgnLCAnLW1hJywgJzIwMCcsICctbWV0YWxfYmluZGluZycsICctaW1hZScsICc8aW5maWxlLm1hZT4nLCAnLW9tYWUnLCAnPG91dGZpbGUubWFlPic=

> <r_lp_tautomer_probability>
0.5

> <r_epik_Ionization_Penalty>
0.00013296

> <r_epik_Ionization_Penalty_Charging>
0

> <r_epik_Ionization_Penalty_Neutral>
0.00013296

> <r_epik_State_Penalty>
0.41068

> <r_epik_Charging_Adjusted_Penalty>
0.41068

> <i_epik_Tot_Q>
0

> <i_epik_Tot_abs_Q>
0

> <r_epik_Metal_State_Penalty>
0.41066

> <b_epik_Metal_Only>
0

> <s_lp_Force_Field>
OPLS_2005

> <r_lp_Energy>
9.99393

> <b_lp_Chiralities_Consistent>
1

> <s_lp_Variant>
AV-unprocessed.smi:2909-4

> <Gold.Version>
5.8.1

> <Gold.Id.Protein>
6NUR|6NUR_protein|mol2

> <Gold.PLP.Fitness>
40.0570

> <Gold.PLP.PLP>
-34.4663

> <Gold.PLP.part.hbond>
-2.0000

> <Gold.PLP.part.metal>
0.0000

> <Gold.PLP.part.buried>
-2.7539

> <Gold.PLP.part.nonpolar>
-29.8705

> <Gold.PLP.part.repulsive>
0.3754

> <Gold.PLP.ligand.clash>
0.0000

> <Gold.PLP.ligand.torsion>
0.2035

> <Gold.PLP.Chemscore.Hbond>
1.9920

> <Gold.PLP.Chemscore.CHOScore>
0.0000

> <Gold.PLP.Chemscore.Metal>
0.0000

> <Gold.Chemscore.Hbonds>
donor molecule, donor type, donor heavy atom, donor atom, acceptor molecule, acceptor atom, score
      P1  H 10752 10763       L1     7  0.07

> <Gold.PLP.Chemscore.Internal.Correction>
0.0216

> <Gold.Rescore>
     Score         DG    S(hbond)    S(metal)    S(lipo)     H(rot)  DE(clash)    DE(int)     intcor
     17.13     -17.79       1.84        0.00      85.43       1.50       0.02       0.64       ----

> <Gold.Chemscore.Fitness>
17.1271

> <Gold.Chemscore.DG>
-17.7884

> <Gold.Chemscore.ZeroCoef>
-5.4800

> <Gold.Chemscore.Hbond>
1.8430

> <Gold.Chemscore.Metal>
0.0000

> <Gold.Chemscore.Lipo>
85.4327

> <Gold.Chemscore.Internal_Hbond>
0.0000

> <Gold.Chemscore.DEClash>
0.0212

> <Gold.Chemscore.DEInternal>
0.6401

> <Gold.Chemscore.Rot>
1.5011

> <Gold.Chemscore.Internal.Correction>
   9.000000E+99

> <Gold.Chemscore.Hbond.Weighted>
-6.1556

> <Gold.Chemscore.Metal.Weighted>
-0.0000

> <Gold.Chemscore.Lipo.Weighted>
-9.9956

> <Gold.Chemscore.Internal_Hbond.Weighted>
0.0000

> <Gold.Chemscore.DEClash.Weighted>
0.0212

> <Gold.Chemscore.DEInternal.Weighted>
0.6401

> <Gold.Chemscore.Rot.Weighted>
3.8429

> <Gold.Chemscore.Internal.Correction.Weighted>
   9.000000E+99

> <Gold.Protein.RotatedTorsions>
[ 6907 6896 6895 6894 ] final  117.65 input  -60.11 | X-H torsion
[ 7974 7965 7964 7962 ] final   48.17 input  175.53 | X-H torsion
[ 8008 7997 7996 7995 ] final  130.37 input   59.86 | X-H torsion
[ 10167 10162 10161 10158 ] final -168.13 input  -65.29 | X-H torsion
[ 10718 10713 10712 10709 ] final   35.90 input   66.30 | X-H torsion
[ 10763 10752 10751 10750 ] final   49.86 input  -60.55 | X-H torsion
[ 11005 11000 10999 10996 ] final  138.65 input  -57.11 | X-H torsion

> <Gold.Protein.ActiveResidues>
 VAL166  LYS551  ARG553  GLY616  TRP617  ASP618  TYR619  PRO620  LYS621  CYS622 
 ASP623  PHE694  ASN695  SER759  ASP760  ASP761  ALA762  ILE779  LEU786  VAL792 
 PHE793  MET794  SER795  GLU796  ALA797  LYS798  CYS799  TRP800  GLU811  SER814 

> <Gold.Protein.RotatedAtoms>
  152.4597  133.7797  159.6843 H   0  0  0  0  0  0  0  0  0  0  0  0  # atno 6907 bound_to 6896
  150.8537  133.7738  159.3023 H   0  0  0  0  0  0  0  0  0  0  0  0  # atno 6908 bound_to 6896
  151.5325  135.1071  159.9958 H   0  0  0  0  0  0  0  0  0  0  0  0  # atno 6909 bound_to 6896
  146.0229  139.4672  142.9886 H   0  0  0  0  0  0  0  0  0  0  0  0  # atno 7974 bound_to 7965
  156.2953  140.2597  156.2751 H   0  0  0  0  0  0  0  0  0  0  0  0  # atno 8008 bound_to 7997
  154.9657  140.0392  157.2229 H   0  0  0  0  0  0  0  0  0  0  0  0  # atno 8009 bound_to 7997
  154.7905  140.2811  155.6000 H   0  0  0  0  0  0  0  0  0  0  0  0  # atno 8010 bound_to 7997
  139.6005  144.1021  152.1737 H   0  0  0  0  0  0  0  0  0  0  0  0  # atno 10167 bound_to 10162
  157.3283  130.7484  149.6830 H   0  0  0  0  0  0  0  0  0  0  0  0  # atno 10718 bound_to 10713
  152.9785  135.5898  154.4158 H   0  0  0  0  0  0  0  0  0  0  0  0  # atno 10763 bound_to 10752
  154.3788  135.2767  155.2225 H   0  0  0  0  0  0  0  0  0  0  0  0  # atno 10764 bound_to 10752
  154.4148  135.6073  153.6029 H   0  0  0  0  0  0  0  0  0  0  0  0  # atno 10765 bound_to 10752
  140.0199  134.9401  157.0452 H   0  0  0  0  0  0  0  0  0  0  0  0  # atno 11005 bound_to 11000
  145.7164  141.0089  143.1426 LP  0  0  0  0  0  0  0  0  0  0  0  0  # atno 17320 bound_to 7965
  144.6997  139.8818  143.7447 LP  0  0  0  0  0  0  0  0  0  0  0  0  # atno 17321 bound_to 7965
  140.0616  144.5852  150.7258 LP  0  0  0  0  0  0  0  0  0  0  0  0  # atno 17342 bound_to 10162
  140.7246  143.2622  151.4165 LP  0  0  0  0  0  0  0  0  0  0  0  0  # atno 17343 bound_to 10162
  155.9693  130.4202  150.4414 LP  0  0  0  0  0  0  0  0  0  0  0  0  # atno 17370 bound_to 10713
  157.2442  131.0532  151.2418 LP  0  0  0  0  0  0  0  0  0  0  0  0  # atno 17371 bound_to 10713
  140.4406  134.1685  155.7173 LP  0  0  0  0  0  0  0  0  0  0  0  0  # atno 17394 bound_to 11000
  141.1767  133.8500  157.1398 LP  0  0  0  0  0  0  0  0  0  0  0  0  # atno 17395 bound_to 11000

$$$$
