AV-unprocessed.smi:40|AV-procd|sdf|367|dock8
  -GOLD-   2262016203D 1   1.00000     0.00000
 Structure written by MMmdl.
 47 48  0  0  0  0  0  0  0  0  1 V2000
  152.4280  144.8674  159.2113 C   0  0  0  0  0  0  0  0  0  0  0  0
  151.8445  144.8238  160.6277 C   0  0  0  0  0  0  0  0  0  0  0  0
  152.5667  143.8134  161.5303 C   0  0  0  0  0  0  0  0  0  0  0  0
  152.4733  142.3765  161.0003 C   0  0  0  0  0  0  0  0  0  0  0  0
  153.4610  142.1149  159.8536 C   0  0  0  0  0  0  0  0  0  0  0  0
  152.9240  141.1664  158.9429 O   0  0  0  0  0  0  0  0  0  0  0  0
  151.8674  141.4716  158.1598 C   0  0  0  0  0  0  0  0  0  0  0  0
  151.3697  142.5945  158.0810 O   0  0  0  0  0  0  0  0  0  0  0  0
  151.4129  140.3194  157.3980 N   0  0  0  0  0  0  0  0  0  0  0  0
  150.3911  140.2247  156.5115 C   0  0  0  0  0  0  0  0  0  0  0  0
  150.3212  140.9669  155.4182 N   0  0  0  0  0  0  0  0  0  0  0  0
  149.3133  140.8817  154.4966 C   0  0  0  0  0  0  0  0  0  0  0  0
  149.2857  141.6425  153.5311 O   0  0  0  0  0  0  0  0  0  0  0  0
  148.3124  139.9018  154.7060 N   0  0  0  0  0  0  0  0  0  0  0  0
  147.1660  139.8174  153.7099 C   0  0  2  0  0  0  0  0  0  0  0  0
  145.9490  139.8081  154.4033 O   0  0  0  0  0  0  0  0  0  0  0  0
  145.3320  138.5220  154.3697 C   0  0  2  0  0  0  0  0  0  0  0  0
  145.7228  137.6815  155.5961 C   0  0  0  0  0  0  0  0  0  0  0  0
  145.8177  137.9185  153.0538 C   0  0  1  0  0  0  0  0  0  0  0  0
  144.9153  138.2946  152.0271 O   0  0  0  0  0  0  0  0  0  0  0  0
  147.2153  138.5127  152.8791 C   0  0  1  0  0  0  0  0  0  0  0  0
  147.5220  138.7238  151.5128 O   0  0  0  0  0  0  0  0  0  0  0  0
  148.3571  139.1294  155.8609 C   0  0  0  0  0  0  0  0  0  0  0  0
  149.3589  139.2421  156.7598 C   0  0  0  0  0  0  0  0  0  0  0  0
  149.3871  138.4655  157.8569 F   0  0  0  0  0  0  0  0  0  0  0  0
  147.2430  140.7299  153.1161 H   0  0  0  0  0  0  0  0  0  0  0  0
  144.2479  138.6446  154.3776 H   0  0  0  0  0  0  0  0  0  0  0  0
  145.8448  136.8285  153.0856 H   0  0  0  0  0  0  0  0  0  0  0  0
  147.9478  137.8323  153.3161 H   0  0  0  0  0  0  0  0  0  0  0  0
  151.9032  145.5992  158.5969 H   0  0  0  0  0  0  0  0  0  0  0  0
  152.3428  143.8975  158.7204 H   0  0  0  0  0  0  0  0  0  0  0  0
  153.4827  145.1433  159.2295 H   0  0  0  0  0  0  0  0  0  0  0  0
  151.9050  145.8187  161.0706 H   0  0  0  0  0  0  0  0  0  0  0  0
  150.7841  144.5746  160.5724 H   0  0  0  0  0  0  0  0  0  0  0  0
  153.6157  144.0959  161.6269 H   0  0  0  0  0  0  0  0  0  0  0  0
  152.1411  143.8560  162.5337 H   0  0  0  0  0  0  0  0  0  0  0  0
  152.6720  141.6755  161.8120 H   0  0  0  0  0  0  0  0  0  0  0  0
  151.4556  142.1783  160.6619 H   0  0  0  0  0  0  0  0  0  0  0  0
  153.7271  143.0437  159.3467 H   0  0  0  0  0  0  0  0  0  0  0  0
  154.3871  141.7047  160.2567 H   0  0  0  0  0  0  0  0  0  0  0  0
  151.9370  139.4755  157.5787 H   0  0  0  0  0  0  0  0  0  0  0  0
  145.2326  136.7082  155.5694 H   0  0  0  0  0  0  0  0  0  0  0  0
  145.4201  138.1757  156.5193 H   0  0  0  0  0  0  0  0  0  0  0  0
  146.7975  137.5061  155.6443 H   0  0  0  0  0  0  0  0  0  0  0  0
  144.3966  139.0210  152.3386 H   0  0  0  0  0  0  0  0  0  0  0  0
  148.0604  138.0064  151.2148 H   0  0  0  0  0  0  0  0  0  0  0  0
  147.5862  138.4070  156.0789 H   0  0  0  0  0  0  0  0  0  0  0  0
  1  2  1  0  0  0  0
  1 30  1  0  0  0  0
  1 31  1  0  0  0  0
  1 32  1  0  0  0  0
  2  3  1  0  0  0  0
  2 33  1  0  0  0  0
  2 34  1  0  0  0  0
  3  4  1  0  0  0  0
  3 35  1  0  0  0  0
  3 36  1  0  0  0  0
  4  5  1  0  0  0  0
  4 37  1  0  0  0  0
  4 38  1  0  0  0  0
  5  6  1  0  0  0  0
  5 39  1  0  0  0  0
  5 40  1  0  0  0  0
  6  7  1  0  0  0  0
  7  8  2  0  0  0  0
  7  9  1  0  0  0  0
  9 10  1  0  0  0  0
  9 41  1  0  0  0  0
 10 24  1  0  0  0  0
 10 11  2  0  0  0  0
 11 12  1  0  0  0  0
 12 13  2  0  0  0  0
 12 14  1  0  0  0  0
 14 15  1  0  0  0  0
 14 23  1  0  0  0  0
 15 26  1  0  0  0  0
 15 21  1  0  0  0  0
 15 16  1  0  0  0  0
 16 17  1  0  0  0  0
 17 27  1  0  0  0  0
 17 18  1  0  0  0  0
 17 19  1  0  0  0  0
 18 42  1  0  0  0  0
 18 43  1  0  0  0  0
 18 44  1  0  0  0  0
 19 28  1  0  0  0  0
 19 20  1  0  0  0  0
 19 21  1  0  0  0  0
 20 45  1  0  0  0  0
 21 29  1  0  0  0  0
 21 22  1  0  0  0  0
 22 46  1  0  0  0  0
 23 24  2  0  0  0  0
 23 47  1  0  0  0  0
 24 25  1  0  0  0  0
M  END
> <s_m_source_file>
AV-unprocessed.smi

> <i_m_source_file_index>
40

> <i_lp_mmshare_version>
43012

> <i_f3d_flags>
0

> <s_epik_input>
W0NIM11bQ0gyXVtDSDJdW0NIMl1bQ0gyXU9DKD1PKVtOSF1jMW5jKD1PKW4oW2NIXWMxRilbQ0BASF0yT1tDQEhdKFtDSDNdKVtDQEBIXShbT0hdKVtDQEhdMltPSF0=

> <s_epik_cmdline>
J2VwaWtfcHl0aG9uJywgJy1waCcsICc3LjAnLCAnLXRuJywgJzgnLCAnLW1hJywgJzIwMCcsICctbWV0YWxfYmluZGluZycsICctaW1hZScsICc8aW5maWxlLm1hZT4nLCAnLW9tYWUnLCAnPG91dGZpbGUubWFlPic=

> <r_lp_tautomer_probability>
1

> <r_epik_Ionization_Penalty>
2.29506e-06

> <r_epik_Ionization_Penalty_Charging>
8.26867e-09

> <r_epik_Ionization_Penalty_Neutral>
2.2868e-06

> <r_epik_State_Penalty>
-0

> <r_epik_Charging_Adjusted_Penalty>
8.26867e-09

> <i_epik_Tot_Q>
0

> <i_epik_Tot_abs_Q>
0

> <r_epik_Metal_State_Penalty>
-0

> <b_epik_Metal_Only>
0

> <s_epik_Chemistry_Notes>
This compound has an ester and may undergo hydrolysis at high or low pH. This compound contains an acetal/aminal-like group ( X-CH(R)-Y where X, Y are N, S, or O) that may be acid/base labile, releasing an aldehyde.

> <s_lp_Force_Field>
OPLS_2005

> <r_lp_Energy>
38.6642

> <b_lp_Chiralities_Consistent>
1

> <s_lp_Variant>
AV-unprocessed.smi:40-1

> <Gold.Version>
5.8.1

> <Gold.Id.Protein>
6NUR|6NUR_protein|mol2

> <Gold.PLP.Fitness>
45.3543

> <Gold.PLP.PLP>
-39.3873

> <Gold.PLP.part.hbond>
-7.2079

> <Gold.PLP.part.metal>
0.0000

> <Gold.PLP.part.buried>
-6.9612

> <Gold.PLP.part.nonpolar>
-28.2185

> <Gold.PLP.part.repulsive>
1.6701

> <Gold.PLP.ligand.clash>
0.0000

> <Gold.PLP.ligand.torsion>
1.1339

> <Gold.PLP.Chemscore.Hbond>
2.7120

> <Gold.PLP.Chemscore.CHOScore>
0.0000

> <Gold.PLP.Chemscore.Metal>
0.0000

> <Gold.Chemscore.Hbonds>
donor molecule, donor type, donor heavy atom, donor atom, acceptor molecule, acceptor atom, score
      L1  H    20    45       P1 10175  1.00
      L1  H    22    46       P1  7948  0.87
      P1  H  7989  7998       L1    11  0.02
      P1  H  8011  8017       L1    13  0.74

> <Gold.PLP.Chemscore.Internal.Correction>
0.0987

> <Gold.Rescore>
     Score         DG    S(hbond)    S(metal)    S(lipo)     H(rot)  DE(clash)    DE(int)     intcor
      8.02     -14.30       2.94        0.00      72.21       3.70       1.68       4.60       ----

> <Gold.Chemscore.Fitness>
8.0201

> <Gold.Chemscore.DG>
-14.3018

> <Gold.Chemscore.ZeroCoef>
-5.4800

> <Gold.Chemscore.Hbond>
2.9444

> <Gold.Chemscore.Metal>
0.0000

> <Gold.Chemscore.Lipo>
72.2093

> <Gold.Chemscore.Internal_Hbond>
0.0000

> <Gold.Chemscore.DEClash>
1.6776

> <Gold.Chemscore.DEInternal>
4.6041

> <Gold.Chemscore.Rot>
3.6957

> <Gold.Chemscore.Internal.Correction>
   9.000000E+99

> <Gold.Chemscore.Hbonds>
donor molecule, donor type, donor heavy atom, donor atom, acceptor molecule, acceptor atom, score
      L1  H    20    45       P1 10175  0.98
      L1  H    22    46       P1  7948  0.78
      P1  H  8011  8017       L1    13  0.68

> <Gold.Chemscore.Hbond.Weighted>
-9.8342

> <Gold.Chemscore.Metal.Weighted>
-0.0000

> <Gold.Chemscore.Lipo.Weighted>
-8.4485

> <Gold.Chemscore.Internal_Hbond.Weighted>
0.0000

> <Gold.Chemscore.DEClash.Weighted>
1.6776

> <Gold.Chemscore.DEInternal.Weighted>
4.6041

> <Gold.Chemscore.Rot.Weighted>
9.4610

> <Gold.Chemscore.Internal.Correction.Weighted>
   9.000000E+99

> <Gold.Protein.RotatedTorsions>
[ 6907 6896 6895 6894 ] final  -53.13 input  -60.11 | X-H torsion
[ 7974 7965 7964 7962 ] final  123.18 input  175.53 | X-H torsion
[ 8008 7997 7996 7995 ] final  -63.84 input   59.86 | X-H torsion
[ 10167 10162 10161 10158 ] final  148.99 input  -65.29 | X-H torsion
[ 10718 10713 10712 10709 ] final -136.79 input   66.30 | X-H torsion
[ 10763 10752 10751 10750 ] final   59.69 input  -60.55 | X-H torsion
[ 11005 11000 10999 10996 ] final  -35.09 input  -57.11 | X-H torsion

> <Gold.Protein.ActiveResidues>
 VAL166  LYS551  ARG553  GLY616  TRP617  ASP618  TYR619  PRO620  LYS621  CYS622 
 ASP623  PHE694  ASN695  SER759  ASP760  ASP761  ALA762  ILE779  LEU786  VAL792 
 PHE793  MET794  SER795  GLU796  ALA797  LYS798  CYS799  TRP800  GLU811  SER814 

> <Gold.Protein.RotatedAtoms>
  150.8455  134.7762  159.6966 H   0  0  0  0  0  0  0  0  0  0  0  0  # atno 6907 bound_to 6896
  152.4532  134.5344  159.9830 H   0  0  0  0  0  0  0  0  0  0  0  0  # atno 6908 bound_to 6896
  151.5476  133.3385  159.2982 H   0  0  0  0  0  0  0  0  0  0  0  0  # atno 6909 bound_to 6896
  145.0989  139.3533  143.4822 H   0  0  0  0  0  0  0  0  0  0  0  0  # atno 7974 bound_to 7965
  154.4577  140.0966  156.6805 H   0  0  0  0  0  0  0  0  0  0  0  0  # atno 8008 bound_to 7997
  155.5087  140.3476  155.4366 H   0  0  0  0  0  0  0  0  0  0  0  0  # atno 8009 bound_to 7997
  156.0810  140.1373  156.9701 H   0  0  0  0  0  0  0  0  0  0  0  0  # atno 8010 bound_to 7997
  139.4867  144.5637  151.7185 H   0  0  0  0  0  0  0  0  0  0  0  0  # atno 10167 bound_to 10162
  156.2809  130.7320  151.1317 H   0  0  0  0  0  0  0  0  0  0  0  0  # atno 10718 bound_to 10713
  152.9901  135.5563  154.5753 H   0  0  0  0  0  0  0  0  0  0  0  0  # atno 10763 bound_to 10752
  154.5145  135.2804  155.1317 H   0  0  0  0  0  0  0  0  0  0  0  0  # atno 10764 bound_to 10752
  154.2695  135.6366  153.5357 H   0  0  0  0  0  0  0  0  0  0  0  0  # atno 10765 bound_to 10752
  140.9768  133.7078  156.1617 H   0  0  0  0  0  0  0  0  0  0  0  0  # atno 11005 bound_to 11000
  146.3530  140.0857  142.8615 LP  0  0  0  0  0  0  0  0  0  0  0  0  # atno 17320 bound_to 7965
  145.0979  140.9327  143.4730 LP  0  0  0  0  0  0  0  0  0  0  0  0  # atno 17321 bound_to 7965
  140.5211  144.0878  150.6023 LP  0  0  0  0  0  0  0  0  0  0  0  0  # atno 17342 bound_to 10162
  140.3836  143.2789  152.0142 LP  0  0  0  0  0  0  0  0  0  0  0  0  # atno 17343 bound_to 10162
  157.7314  131.0608  150.5679 LP  0  0  0  0  0  0  0  0  0  0  0  0  # atno 17370 bound_to 10713
  156.5785  130.4298  149.5987 LP  0  0  0  0  0  0  0  0  0  0  0  0  # atno 17371 bound_to 10713
  140.7246  134.4321  157.5572 LP  0  0  0  0  0  0  0  0  0  0  0  0  # atno 17394 bound_to 11000
  139.8934  134.8732  156.2226 LP  0  0  0  0  0  0  0  0  0  0  0  0  # atno 17395 bound_to 11000

$$$$
