AV-unprocessed.smi:2737|AV-procd|sdf|10547|dock2
  -GOLD-   2272014593D 1   1.00000     0.00000
 Structure written by MMmdl.
 43 44  0  0  0  0  0  0  0  0  1 V2000
  157.0645  137.9359  164.1918 C   0  0  0  0  0  0  0  0  0  0  0  0
  156.3546  137.6602  162.9877 O   0  0  0  0  0  0  0  0  0  0  0  0
  155.5497  136.4755  162.9414 C   0  0  0  0  0  0  0  0  0  0  0  0
  156.4185  135.2030  163.0482 C   0  0  0  0  0  0  0  0  0  0  0  0
  154.6176  136.5798  164.1588 C   0  0  0  0  0  0  0  0  0  0  0  0
  154.7401  136.5091  161.6720 C   0  0  0  0  0  0  0  0  0  0  0  0
  154.0301  137.5360  161.2055 N   0  0  0  0  0  0  0  0  0  0  0  0
  153.6550  137.0698  159.9822 C   0  0  0  0  0  0  0  0  0  0  0  0
  152.7930  137.8533  159.0451 C   0  0  0  0  0  0  0  0  0  0  0  0
  153.2869  139.2972  158.9432 C   0  0  0  0  0  0  0  0  0  0  0  0
  154.4458  139.5285  158.5988 O   0  0  0  0  0  0  0  0  0  0  0  0
  152.3987  140.2576  159.2453 N   0  0  0  0  0  0  0  0  0  0  0  0
  152.6695  141.6920  159.2354 C   0  0  0  0  0  0  0  0  0  0  0  0
  152.7572  142.2099  160.6837 C   0  0  0  0  0  0  0  0  0  0  0  0
  152.9929  143.7287  160.7242 C   0  0  0  0  0  0  0  0  0  0  0  0
  151.9083  144.4821  159.9378 C   0  0  0  0  0  0  0  0  0  0  0  0
  151.8166  143.9714  158.4913 C   0  0  0  0  0  0  0  0  0  0  0  0
  151.5811  142.4529  158.4488 C   0  0  0  0  0  0  0  0  0  0  0  0
  154.1066  135.8642  159.6602 N   0  0  0  0  0  0  0  0  0  0  0  0
  154.8734  135.4991  160.7752 O   0  0  0  0  0  0  0  0  0  0  0  0
  157.7328  138.7804  164.0245 H   0  0  0  0  0  0  0  0  0  0  0  0
  157.6748  137.0941  164.5193 H   0  0  0  0  0  0  0  0  0  0  0  0
  156.3896  138.2156  165.0008 H   0  0  0  0  0  0  0  0  0  0  0  0
  155.7973  134.3097  163.1206 H   0  0  0  0  0  0  0  0  0  0  0  0
  157.0523  135.2324  163.9348 H   0  0  0  0  0  0  0  0  0  0  0  0
  157.0629  135.0704  162.1789 H   0  0  0  0  0  0  0  0  0  0  0  0
  153.9287  135.7357  164.2046 H   0  0  0  0  0  0  0  0  0  0  0  0
  154.0203  137.4918  164.1216 H   0  0  0  0  0  0  0  0  0  0  0  0
  155.1849  136.5955  165.0899 H   0  0  0  0  0  0  0  0  0  0  0  0
  152.8042  137.3910  158.0569 H   0  0  0  0  0  0  0  0  0  0  0  0
  151.7589  137.8321  159.3920 H   0  0  0  0  0  0  0  0  0  0  0  0
  151.4693  139.9729  159.5192 H   0  0  0  0  0  0  0  0  0  0  0  0
  153.6358  141.8633  158.7565 H   0  0  0  0  0  0  0  0  0  0  0  0
  151.8354  141.9740  161.2178 H   0  0  0  0  0  0  0  0  0  0  0  0
  153.5613  141.6996  161.2158 H   0  0  0  0  0  0  0  0  0  0  0  0
  153.0111  144.0747  161.7581 H   0  0  0  0  0  0  0  0  0  0  0  0
  153.9736  143.9570  160.3047 H   0  0  0  0  0  0  0  0  0  0  0  0
  150.9441  144.3556  160.4316 H   0  0  0  0  0  0  0  0  0  0  0  0
  152.1204  145.5515  159.9421 H   0  0  0  0  0  0  0  0  0  0  0  0
  151.0129  144.4872  157.9651 H   0  0  0  0  0  0  0  0  0  0  0  0
  152.7380  144.2124  157.9598 H   0  0  0  0  0  0  0  0  0  0  0  0
  151.5597  142.1185  157.4110 H   0  0  0  0  0  0  0  0  0  0  0  0
  150.5983  142.2280  158.8656 H   0  0  0  0  0  0  0  0  0  0  0  0
  1  2  1  0  0  0  0
  1 21  1  0  0  0  0
  1 22  1  0  0  0  0
  1 23  1  0  0  0  0
  2  3  1  0  0  0  0
  3  4  1  0  0  0  0
  3  5  1  0  0  0  0
  3  6  1  0  0  0  0
  4 24  1  0  0  0  0
  4 25  1  0  0  0  0
  4 26  1  0  0  0  0
  5 27  1  0  0  0  0
  5 28  1  0  0  0  0
  5 29  1  0  0  0  0
  6 20  1  0  0  0  0
  6  7  2  0  0  0  0
  7  8  1  0  0  0  0
  8  9  1  0  0  0  0
  8 19  2  0  0  0  0
  9 10  1  0  0  0  0
  9 30  1  0  0  0  0
  9 31  1  0  0  0  0
 10 11  2  0  0  0  0
 10 12  1  0  0  0  0
 12 13  1  0  0  0  0
 12 32  1  0  0  0  0
 13 18  1  0  0  0  0
 13 14  1  0  0  0  0
 13 33  1  0  0  0  0
 14 15  1  0  0  0  0
 14 34  1  0  0  0  0
 14 35  1  0  0  0  0
 15 16  1  0  0  0  0
 15 36  1  0  0  0  0
 15 37  1  0  0  0  0
 16 17  1  0  0  0  0
 16 38  1  0  0  0  0
 16 39  1  0  0  0  0
 17 18  1  0  0  0  0
 17 40  1  0  0  0  0
 17 41  1  0  0  0  0
 18 42  1  0  0  0  0
 18 43  1  0  0  0  0
 19 20  1  0  0  0  0
M  END
> <s_m_source_file>
AV-unprocessed.smi

> <i_m_source_file_index>
2737

> <i_lp_mmshare_version>
43012

> <i_f3d_flags>
0

> <s_epik_input>
W0NIM11PQyhbQ0gzXSkoW0NIM10pYzFuYyhubzEpW0NIMl1DKD1PKVtOSF1bQ0hdMltDSDJdW0NIMl1bQ0gyXVtDSDJdW0NIMl0y

> <s_epik_cmdline>
J2VwaWtfcHl0aG9uJywgJy1waCcsICc3LjAnLCAnLXRuJywgJzgnLCAnLW1hJywgJzIwMCcsICctbWV0YWxfYmluZGluZycsICctaW1hZScsICc8aW5maWxlLm1hZT4nLCAnLW9tYWUnLCAnPG91dGZpbGUubWFlPic=

> <r_lp_tautomer_probability>
1

> <r_epik_Ionization_Penalty>
6.23621e-08

> <r_epik_Ionization_Penalty_Charging>
0

> <r_epik_Ionization_Penalty_Neutral>
6.23621e-08

> <r_epik_State_Penalty>
-0

> <r_epik_Charging_Adjusted_Penalty>
0

> <i_epik_Tot_Q>
0

> <i_epik_Tot_abs_Q>
0

> <r_epik_Metal_State_Penalty>
-0

> <b_epik_Metal_Only>
0

> <s_lp_Force_Field>
OPLS_2005

> <r_lp_Energy>
12.1287

> <b_lp_Chiralities_Consistent>
1

> <s_lp_Variant>
AV-unprocessed.smi:2737-1

> <Gold.Version>
5.8.1

> <Gold.Id.Protein>
6NUR|6NUR_protein|mol2

> <Gold.PLP.Fitness>
43.9100

> <Gold.PLP.PLP>
-38.6358

> <Gold.PLP.part.hbond>
-2.0000

> <Gold.PLP.part.metal>
0.0000

> <Gold.PLP.part.buried>
-5.5001

> <Gold.PLP.part.nonpolar>
-31.1014

> <Gold.PLP.part.repulsive>
0.1354

> <Gold.PLP.ligand.clash>
0.0000

> <Gold.PLP.ligand.torsion>
0.4751

> <Gold.PLP.Chemscore.Hbond>
2.0000

> <Gold.PLP.Chemscore.CHOScore>
0.0000

> <Gold.PLP.Chemscore.Metal>
0.0000

> <Gold.Chemscore.Hbonds>
donor molecule, donor type, donor heavy atom, donor atom, acceptor molecule, acceptor atom, score
      P1  H  6896  6909       L1    19  0.91
      P1  H  7997  8008       L1    11  0.91

> <Gold.PLP.Chemscore.Internal.Correction>
0.2246

> <Gold.Rescore>
     Score         DG    S(hbond)    S(metal)    S(lipo)     H(rot)  DE(clash)    DE(int)     intcor
     17.17     -17.76       1.69        0.00      97.24       1.86       0.07       0.52       ----

> <Gold.Chemscore.Fitness>
17.1693

> <Gold.Chemscore.DG>
-17.7567

> <Gold.Chemscore.ZeroCoef>
-5.4800

> <Gold.Chemscore.Hbond>
1.6946

> <Gold.Chemscore.Metal>
0.0000

> <Gold.Chemscore.Lipo>
97.2422

> <Gold.Chemscore.Internal_Hbond>
0.0000

> <Gold.Chemscore.DEClash>
0.0686

> <Gold.Chemscore.DEInternal>
0.5187

> <Gold.Chemscore.Rot>
1.8596

> <Gold.Chemscore.Internal.Correction>
   9.000000E+99

> <Gold.Chemscore.Hbonds>
donor molecule, donor type, donor heavy atom, donor atom, acceptor molecule, acceptor atom, score
      P1  H  6896  6909       L1    19  0.06
      P1  H  7997  8008       L1    11  0.87

> <Gold.Chemscore.Hbond.Weighted>
-5.6598

> <Gold.Chemscore.Metal.Weighted>
-0.0000

> <Gold.Chemscore.Lipo.Weighted>
-11.3773

> <Gold.Chemscore.Internal_Hbond.Weighted>
0.0000

> <Gold.Chemscore.DEClash.Weighted>
0.0686

> <Gold.Chemscore.DEInternal.Weighted>
0.5187

> <Gold.Chemscore.Rot.Weighted>
4.7605

> <Gold.Chemscore.Internal.Correction.Weighted>
   9.000000E+99

> <Gold.Protein.RotatedTorsions>
[ 6907 6896 6895 6894 ] final  174.98 input  -60.11 | X-H torsion
[ 7974 7965 7964 7962 ] final   75.10 input  175.53 | X-H torsion
[ 8008 7997 7996 7995 ] final -108.20 input   59.86 | X-H torsion
[ 10167 10162 10161 10158 ] final  -82.51 input  -65.29 | X-H torsion
[ 10718 10713 10712 10709 ] final   14.26 input   66.30 | X-H torsion
[ 10763 10752 10751 10750 ] final -171.80 input  -60.55 | X-H torsion
[ 11005 11000 10999 10996 ] final -157.54 input  -57.11 | X-H torsion

> <Gold.Protein.ActiveResidues>
 VAL166  LYS551  ARG553  GLY616  TRP617  ASP618  TYR619  PRO620  LYS621  CYS622 
 ASP623  PHE694  ASN695  SER759  ASP760  ASP761  ALA762  ILE779  LEU786  VAL792 
 PHE793  MET794  SER795  GLU796  ALA797  LYS798  CYS799  TRP800  GLU811  SER814 

> <Gold.Protein.RotatedAtoms>
  151.7435  133.3323  159.3371 H   0  0  0  0  0  0  0  0  0  0  0  0  # atno 6907 bound_to 6896
  150.7564  134.6256  159.6168 H   0  0  0  0  0  0  0  0  0  0  0  0  # atno 6908 bound_to 6896
  152.3515  134.7001  160.0286 H   0  0  0  0  0  0  0  0  0  0  0  0  # atno 6909 bound_to 6896
  145.7199  139.2644  143.1602 H   0  0  0  0  0  0  0  0  0  0  0  0  # atno 7974 bound_to 7965
  154.9407  140.0403  157.2095 H   0  0  0  0  0  0  0  0  0  0  0  0  # atno 8008 bound_to 7997
  154.8072  140.2862  155.5857 H   0  0  0  0  0  0  0  0  0  0  0  0  # atno 8009 bound_to 7997
  156.2968  140.2544  156.2952 H   0  0  0  0  0  0  0  0  0  0  0  0  # atno 8010 bound_to 7997
  140.4313  143.2548  151.8756 H   0  0  0  0  0  0  0  0  0  0  0  0  # atno 10167 bound_to 10162
  157.0366  130.6214  149.5744 H   0  0  0  0  0  0  0  0  0  0  0  0  # atno 10718 bound_to 10713
  154.6264  135.2881  155.0267 H   0  0  0  0  0  0  0  0  0  0  0  0  # atno 10763 bound_to 10752
  154.1443  135.6513  153.4953 H   0  0  0  0  0  0  0  0  0  0  0  0  # atno 10764 bound_to 10752
  153.0259  135.5340  154.7074 H   0  0  0  0  0  0  0  0  0  0  0  0  # atno 10765 bound_to 10752
  140.6635  134.4324  157.5234 H   0  0  0  0  0  0  0  0  0  0  0  0  # atno 11005 bound_to 11000
  146.0636  140.7945  142.9723 LP  0  0  0  0  0  0  0  0  0  0  0  0  # atno 17320 bound_to 7965
  144.6919  140.3234  143.7228 LP  0  0  0  0  0  0  0  0  0  0  0  0  # atno 17321 bound_to 7965
  139.4785  144.5332  151.8637 LP  0  0  0  0  0  0  0  0  0  0  0  0  # atno 17342 bound_to 10162
  140.4424  144.1968  150.5892 LP  0  0  0  0  0  0  0  0  0  0  0  0  # atno 17343 bound_to 10162
  156.0052  130.5137  150.7803 LP  0  0  0  0  0  0  0  0  0  0  0  0  # atno 17370 bound_to 10713
  157.5137  131.0927  151.0167 LP  0  0  0  0  0  0  0  0  0  0  0  0  # atno 17371 bound_to 10713
  139.9005  134.8567  156.1917 LP  0  0  0  0  0  0  0  0  0  0  0  0  # atno 17394 bound_to 11000
  141.0447  133.6919  156.1662 LP  0  0  0  0  0  0  0  0  0  0  0  0  # atno 17395 bound_to 11000

$$$$
