AV-unprocessed.smi:1617|AV-procd|sdf|6484|dock5
  -GOLD-   22720 7143D 1   1.00000     0.00000
 Structure written by MMmdl.
 47 49  0  0  0  0  0  0  0  0  1 V2000
  147.1046  138.3536  155.5449 O   0  0  0  0  0  0  0  0  0  0  0  0
  147.8778  138.0777  154.6280 C   0  0  0  0  0  0  0  0  0  0  0  0
  149.1727  138.4329  154.5679 N   0  0  0  0  0  0  0  0  0  0  0  0
  149.9202  139.2167  155.4882 C   0  0  0  0  0  0  0  0  0  0  0  0
  151.2606  139.6194  155.2910 C   0  0  0  0  0  0  0  0  0  0  0  0
  151.8998  140.3811  156.2882 C   0  0  0  0  0  0  0  0  0  0  0  0
  151.1891  140.7219  157.4672 C   0  0  0  0  0  0  0  0  0  0  0  0
  151.7751  141.4781  158.5092 N   0  0  0  0  0  0  0  0  0  0  0  0
  152.8821  140.8942  159.2630 C   0  0  0  0  0  0  0  0  0  0  0  0
  153.1586  141.7054  160.5404 C   0  0  0  0  0  0  0  0  0  0  0  0
  153.3710  143.0721  160.2076 O   0  0  0  0  0  0  0  0  0  0  0  0
  152.2198  143.6480  159.6011 C   0  0  0  0  0  0  0  0  0  0  0  0
  151.9038  142.9184  158.2842 C   0  0  0  0  0  0  0  0  0  0  0  0
  149.9089  140.3192  157.6537 N   0  0  0  0  0  0  0  0  0  0  0  0
  149.3007  139.5883  156.6968 C   0  0  0  0  0  0  0  0  0  0  0  0
  147.5237  137.3555  153.5542 N   0  0  0  0  0  0  0  0  0  0  0  0
  146.1838  136.8233  153.2935 C   0  0  2  0  0  0  0  0  0  0  0  0
  146.2510  135.2872  153.4548 C   0  0  0  0  0  0  0  0  0  0  0  0
  144.8891  134.6335  153.7468 C   0  0  0  0  0  0  0  0  0  0  0  0
  143.8576  134.7474  152.6138 C   0  0  0  0  0  0  0  0  0  0  0  0
  143.4601  136.1960  152.2822 C   0  0  0  0  0  0  0  0  0  0  0  0
  144.4735  136.8734  151.4841 N   0  0  0  0  0  0  0  0  0  0  0  0
  145.7295  137.1643  151.8547 C   0  0  0  0  0  0  0  0  0  0  0  0
  146.5068  137.6892  151.0572 O   0  0  0  0  0  0  0  0  0  0  0  0
  149.6990  138.0609  153.7909 H   0  0  0  0  0  0  0  0  0  0  0  0
  151.8163  139.3516  154.4061 H   0  0  0  0  0  0  0  0  0  0  0  0
  152.9199  140.6898  156.1202 H   0  0  0  0  0  0  0  0  0  0  0  0
  152.6490  139.8682  159.5489 H   0  0  0  0  0  0  0  0  0  0  0  0
  153.7723  140.8693  158.6332 H   0  0  0  0  0  0  0  0  0  0  0  0
  152.3301  141.6153  161.2450 H   0  0  0  0  0  0  0  0  0  0  0  0
  154.0455  141.3203  161.0435 H   0  0  0  0  0  0  0  0  0  0  0  0
  151.3710  143.5993  160.2853 H   0  0  0  0  0  0  0  0  0  0  0  0
  152.4111  144.7034  159.4074 H   0  0  0  0  0  0  0  0  0  0  0  0
  152.7016  143.0902  157.5606 H   0  0  0  0  0  0  0  0  0  0  0  0
  150.9936  143.3448  157.8630 H   0  0  0  0  0  0  0  0  0  0  0  0
  148.2814  139.2962  156.9034 H   0  0  0  0  0  0  0  0  0  0  0  0
  148.2245  137.1785  152.8499 H   0  0  0  0  0  0  0  0  0  0  0  0
  145.4859  137.2473  154.0179 H   0  0  0  0  0  0  0  0  0  0  0  0
  146.7141  134.8219  152.5827 H   0  0  0  0  0  0  0  0  0  0  0  0
  146.9054  135.0463  154.2940 H   0  0  0  0  0  0  0  0  0  0  0  0
  145.0510  133.5766  153.9608 H   0  0  0  0  0  0  0  0  0  0  0  0
  144.4723  135.0593  154.6603 H   0  0  0  0  0  0  0  0  0  0  0  0
  144.2235  134.2429  151.7183 H   0  0  0  0  0  0  0  0  0  0  0  0
  142.9616  134.2046  152.9167 H   0  0  0  0  0  0  0  0  0  0  0  0
  142.5413  136.1900  151.6955 H   0  0  0  0  0  0  0  0  0  0  0  0
  143.2415  136.7638  153.1877 H   0  0  0  0  0  0  0  0  0  0  0  0
  144.2060  137.1200  150.5420 H   0  0  0  0  0  0  0  0  0  0  0  0
  1  2  2  0  0  0  0
  2  3  1  0  0  0  0
  2 16  1  0  0  0  0
  3  4  1  0  0  0  0
  3 25  1  0  0  0  0
  4 15  1  0  0  0  0
  4  5  2  0  0  0  0
  5  6  1  0  0  0  0
  5 26  1  0  0  0  0
  6  7  2  0  0  0  0
  6 27  1  0  0  0  0
  7  8  1  0  0  0  0
  7 14  1  0  0  0  0
  8 13  1  0  0  0  0
  8  9  1  0  0  0  0
  9 10  1  0  0  0  0
  9 28  1  0  0  0  0
  9 29  1  0  0  0  0
 10 11  1  0  0  0  0
 10 30  1  0  0  0  0
 10 31  1  0  0  0  0
 11 12  1  0  0  0  0
 12 13  1  0  0  0  0
 12 32  1  0  0  0  0
 12 33  1  0  0  0  0
 13 34  1  0  0  0  0
 13 35  1  0  0  0  0
 14 15  2  0  0  0  0
 15 36  1  0  0  0  0
 16 17  1  0  0  0  0
 16 37  1  0  0  0  0
 17 23  1  0  0  0  0
 17 18  1  0  0  0  0
 17 38  1  0  0  0  0
 18 19  1  0  0  0  0
 18 39  1  0  0  0  0
 18 40  1  0  0  0  0
 19 20  1  0  0  0  0
 19 41  1  0  0  0  0
 19 42  1  0  0  0  0
 20 21  1  0  0  0  0
 20 43  1  0  0  0  0
 20 44  1  0  0  0  0
 21 22  1  0  0  0  0
 21 45  1  0  0  0  0
 21 46  1  0  0  0  0
 22 23  1  0  0  0  0
 22 47  1  0  0  0  0
 23 24  2  0  0  0  0
M  END
> <s_m_source_file>
AV-unprocessed.smi

> <i_m_source_file_index>
1617

> <i_lp_mmshare_version>
43012

> <i_f3d_flags>
0

> <s_epik_input>
Tz1DMVtOSF1bQ0gyXVtDSDJdW0NIMl1bQ0gyXVtDQEhdMVtOSF1DKD1PKVtOSF1jMltjSF1bY0hdYyhuW2NIXTIpTjNbQ0gyXVtDSDJdT1tDSDJdW0NIMl0z

> <s_epik_cmdline>
J2VwaWtfcHl0aG9uJywgJy1waCcsICc3LjAnLCAnLXRuJywgJzgnLCAnLW1hJywgJzIwMCcsICctbWV0YWxfYmluZGluZycsICctaW1hZScsICc8aW5maWxlLm1hZT4nLCAnLW9tYWUnLCAnPG91dGZpbGUubWFlPic=

> <r_lp_tautomer_probability>
1

> <r_epik_Ionization_Penalty>
0.00171733

> <r_epik_Ionization_Penalty_Charging>
0

> <r_epik_Ionization_Penalty_Neutral>
0.00171733

> <r_epik_State_Penalty>
0.00113787

> <r_epik_Charging_Adjusted_Penalty>
0.00113787

> <i_epik_Tot_Q>
0

> <i_epik_Tot_abs_Q>
0

> <r_epik_Metal_State_Penalty>
-0

> <b_epik_Metal_Only>
0

> <s_lp_Force_Field>
OPLS_2005

> <r_lp_Energy>
27.2722

> <b_lp_Chiralities_Consistent>
1

> <s_lp_Variant>
AV-unprocessed.smi:1617-1

> <Gold.Version>
5.8.1

> <Gold.Id.Protein>
6NUR|6NUR_protein|mol2

> <Gold.PLP.Fitness>
38.8984

> <Gold.PLP.PLP>
-31.1357

> <Gold.PLP.part.hbond>
-2.6416

> <Gold.PLP.part.metal>
0.0000

> <Gold.PLP.part.buried>
-4.0467

> <Gold.PLP.part.nonpolar>
-26.1156

> <Gold.PLP.part.repulsive>
2.3025

> <Gold.PLP.ligand.clash>
0.0000

> <Gold.PLP.ligand.torsion>
0.3593

> <Gold.PLP.Chemscore.Hbond>
2.6720

> <Gold.PLP.Chemscore.CHOScore>
0.0000

> <Gold.PLP.Chemscore.Metal>
0.0000

> <Gold.Chemscore.Hbonds>
donor molecule, donor type, donor heavy atom, donor atom, acceptor molecule, acceptor atom, score
      L1  H    16    37       P1  7948  1.00
      L1  H    22    47       P1 10171  0.67
      P1  H  7954  7966       L1    24  0.99

> <Gold.PLP.Chemscore.Internal.Correction>
0.4653

> <Gold.Rescore>
     Score         DG    S(hbond)    S(metal)    S(lipo)     H(rot)  DE(clash)    DE(int)     intcor
     17.23     -20.25       2.73        0.00      75.97       1.27       1.24       1.77       ----

> <Gold.Chemscore.Fitness>
17.2347

> <Gold.Chemscore.DG>
-20.2466

> <Gold.Chemscore.ZeroCoef>
-5.4800

> <Gold.Chemscore.Hbond>
2.7320

> <Gold.Chemscore.Metal>
0.0000

> <Gold.Chemscore.Lipo>
75.9719

> <Gold.Chemscore.Internal_Hbond>
0.0000

> <Gold.Chemscore.DEClash>
1.2437

> <Gold.Chemscore.DEInternal>
1.7682

> <Gold.Chemscore.Rot>
1.2684

> <Gold.Chemscore.Internal.Correction>
   9.000000E+99

> <Gold.Chemscore.Hbonds>
donor molecule, donor type, donor heavy atom, donor atom, acceptor molecule, acceptor atom, score
      L1  H    16    37       P1  7948  0.91
      L1  H    22    47       P1 10171  0.66
      P1  H  7954  7966       L1    24  0.93

> <Gold.Chemscore.Hbond.Weighted>
-9.1250

> <Gold.Chemscore.Metal.Weighted>
-0.0000

> <Gold.Chemscore.Lipo.Weighted>
-8.8887

> <Gold.Chemscore.Internal_Hbond.Weighted>
0.0000

> <Gold.Chemscore.DEClash.Weighted>
1.2437

> <Gold.Chemscore.DEInternal.Weighted>
1.7682

> <Gold.Chemscore.Rot.Weighted>
3.2471

> <Gold.Chemscore.Internal.Correction.Weighted>
   9.000000E+99

> <Gold.Protein.RotatedTorsions>
[ 6907 6896 6895 6894 ] final  156.00 input  -60.11 | X-H torsion
[ 7974 7965 7964 7962 ] final -121.37 input  175.53 | X-H torsion
[ 8008 7997 7996 7995 ] final  -99.02 input   59.86 | X-H torsion
[ 10167 10162 10161 10158 ] final -140.42 input  -65.29 | X-H torsion
[ 10718 10713 10712 10709 ] final  -40.52 input   66.30 | X-H torsion
[ 10763 10752 10751 10750 ] final  133.41 input  -60.55 | X-H torsion
[ 11005 11000 10999 10996 ] final   86.44 input  -57.11 | X-H torsion

> <Gold.Protein.ActiveResidues>
 VAL166  LYS551  ARG553  GLY616  TRP617  ASP618  TYR619  PRO620  LYS621  CYS622 
 ASP623  PHE694  ASN695  SER759  ASP760  ASP761  ALA762  ILE779  LEU786  VAL792 
 PHE793  MET794  SER795  GLU796  ALA797  LYS798  CYS799  TRP800  GLU811  SER814 

> <Gold.Protein.RotatedAtoms>
  152.0360  133.3957  159.4316 H   0  0  0  0  0  0  0  0  0  0  0  0  # atno 6907 bound_to 6896
  150.6879  134.3468  159.4901 H   0  0  0  0  0  0  0  0  0  0  0  0  # atno 6908 bound_to 6896
  152.1260  134.9169  160.0611 H   0  0  0  0  0  0  0  0  0  0  0  0  # atno 6909 bound_to 6896
  145.0410  140.8144  143.4266 H   0  0  0  0  0  0  0  0  0  0  0  0  # atno 7974 bound_to 7965
  154.8091  140.0451  157.1329 H   0  0  0  0  0  0  0  0  0  0  0  0  # atno 8008 bound_to 7997
  154.9389  140.3050  155.5110 H   0  0  0  0  0  0  0  0  0  0  0  0  # atno 8009 bound_to 7997
  156.2970  140.2309  156.4456 H   0  0  0  0  0  0  0  0  0  0  0  0  # atno 8010 bound_to 7997
  139.8283  143.7481  152.2666 H   0  0  0  0  0  0  0  0  0  0  0  0  # atno 10167 bound_to 10162
  156.2805  130.4216  149.8342 H   0  0  0  0  0  0  0  0  0  0  0  0  # atno 10718 bound_to 10713
  153.8067  135.3134  155.3396 H   0  0  0  0  0  0  0  0  0  0  0  0  # atno 10763 bound_to 10752
  154.8068  135.4693  154.0415 H   0  0  0  0  0  0  0  0  0  0  0  0  # atno 10764 bound_to 10752
  153.1780  135.6889  153.8605 H   0  0  0  0  0  0  0  0  0  0  0  0  # atno 10765 bound_to 10752
  139.8944  134.8355  156.2721 H   0  0  0  0  0  0  0  0  0  0  0  0  # atno 11005 bound_to 11000
  145.1647  139.2438  143.5373 LP  0  0  0  0  0  0  0  0  0  0  0  0  # atno 17320 bound_to 7965
  146.3509  140.1383  142.8595 LP  0  0  0  0  0  0  0  0  0  0  0  0  # atno 17321 bound_to 7965
  139.7681  144.7485  151.0265 LP  0  0  0  0  0  0  0  0  0  0  0  0  # atno 17342 bound_to 10162
  140.7808  143.4676  151.0191 LP  0  0  0  0  0  0  0  0  0  0  0  0  # atno 17343 bound_to 10162
  156.5791  130.8458  151.3378 LP  0  0  0  0  0  0  0  0  0  0  0  0  # atno 17370 bound_to 10713
  157.7313  130.9698  150.1872 LP  0  0  0  0  0  0  0  0  0  0  0  0  # atno 17371 bound_to 10713
  141.0094  133.7104  156.1087 LP  0  0  0  0  0  0  0  0  0  0  0  0  # atno 17394 bound_to 11000
  140.7388  134.4173  157.5557 LP  0  0  0  0  0  0  0  0  0  0  0  0  # atno 17395 bound_to 11000

$$$$
