AV-unprocessed.smi:2889|AV-procd|sdf|11108|dock8
  -GOLD-   2272015573D 1   1.00000     0.00000
 Structure written by MMmdl.
 36 37  0  0  0  0  0  0  0  0  1 V2000
  155.0249  140.1102  161.0401 C   0  0  0  0  0  0  0  0  0  0  0  0
  153.8292  141.4158  161.4337 S   0  0  0  0  0  0  0  0  0  0  0  0
  153.2292  141.8605  159.7721 C   0  0  2  0  0  0  0  0  0  0  0  0
  152.6619  143.2926  159.7981 C   0  0  0  0  0  0  0  0  0  0  0  0
  152.0963  143.7109  158.4330 C   0  0  0  0  0  0  0  0  0  0  0  0
  151.0215  142.7231  157.9587 C   0  0  0  0  0  0  0  0  0  0  0  0
  151.5761  141.2923  157.9046 C   0  0  0  0  0  0  0  0  0  0  0  0
  152.1672  140.8581  159.2601 C   0  0  1  0  0  0  0  0  0  0  0  0
  152.7549  139.5233  159.1195 N   0  0  0  0  0  0  0  0  0  0  0  0
  151.7840  138.2427  158.4950 S   0  0  0  0  0  0  0  0  0  0  0  0
  151.9486  137.0812  159.3828 O   0  0  0  0  0  0  0  0  0  0  0  0
  150.4422  138.7874  158.2384 O   0  0  0  0  0  0  0  0  0  0  0  0
  152.6063  137.8723  156.8892 C   0  0  0  0  0  0  0  0  0  0  0  0
  151.7215  138.3120  155.7586 C   0  0  0  0  0  0  0  0  0  0  0  0
  151.1358  137.5171  154.7346 C   0  0  0  0  0  0  0  0  0  0  0  0
  150.4400  138.4232  153.9872 C   0  0  0  0  0  0  0  0  0  0  0  0
  150.5838  139.6718  154.4989 O   0  0  0  0  0  0  0  0  0  0  0  0
  151.4051  139.5910  155.6292 N   0  0  0  0  0  0  0  0  0  0  0  0
  155.4955  139.7489  161.9544 H   0  0  0  0  0  0  0  0  0  0  0  0
  155.8039  140.4932  160.3810 H   0  0  0  0  0  0  0  0  0  0  0  0
  154.5380  139.2670  160.5518 H   0  0  0  0  0  0  0  0  0  0  0  0
  154.0835  141.8550  159.0934 H   0  0  0  0  0  0  0  0  0  0  0  0
  151.8742  143.3615  160.5498 H   0  0  0  0  0  0  0  0  0  0  0  0
  153.4391  143.9946  160.1023 H   0  0  0  0  0  0  0  0  0  0  0  0
  151.6756  144.7149  158.4974 H   0  0  0  0  0  0  0  0  0  0  0  0
  152.9024  143.7592  157.6996 H   0  0  0  0  0  0  0  0  0  0  0  0
  150.1656  142.7592  158.6339 H   0  0  0  0  0  0  0  0  0  0  0  0
  150.6533  143.0169  156.9754 H   0  0  0  0  0  0  0  0  0  0  0  0
  150.7843  140.6056  157.6031 H   0  0  0  0  0  0  0  0  0  0  0  0
  152.3443  141.2351  157.1319 H   0  0  0  0  0  0  0  0  0  0  0  0
  151.3601  140.8147  159.9927 H   0  0  0  0  0  0  0  0  0  0  0  0
  153.6582  139.5664  158.6485 H   0  0  0  0  0  0  0  0  0  0  0  0
  153.5691  138.3837  156.8674 H   0  0  0  0  0  0  0  0  0  0  0  0
  152.7967  136.8002  156.8411 H   0  0  0  0  0  0  0  0  0  0  0  0
  151.2108  136.4514  154.5771 H   0  0  0  0  0  0  0  0  0  0  0  0
  149.8237  138.3398  153.1043 H   0  0  0  0  0  0  0  0  0  0  0  0
  1  2  1  0  0  0  0
  1 19  1  0  0  0  0
  1 20  1  0  0  0  0
  1 21  1  0  0  0  0
  2  3  1  0  0  0  0
  3  8  1  0  0  0  0
  3  4  1  0  0  0  0
  3 22  1  0  0  0  0
  4  5  1  0  0  0  0
  4 23  1  0  0  0  0
  4 24  1  0  0  0  0
  5  6  1  0  0  0  0
  5 25  1  0  0  0  0
  5 26  1  0  0  0  0
  6  7  1  0  0  0  0
  6 27  1  0  0  0  0
  6 28  1  0  0  0  0
  7  8  1  0  0  0  0
  7 29  1  0  0  0  0
  7 30  1  0  0  0  0
  8  9  1  0  0  0  0
  8 31  1  0  0  0  0
  9 10  1  0  0  0  0
  9 32  1  0  0  0  0
 10 11  2  0  0  0  0
 10 12  2  0  0  0  0
 10 13  1  0  0  0  0
 13 14  1  0  0  0  0
 13 33  1  0  0  0  0
 13 34  1  0  0  0  0
 14 18  2  0  0  0  0
 14 15  1  0  0  0  0
 15 16  2  0  0  0  0
 15 35  1  0  0  0  0
 16 17  1  0  0  0  0
 16 36  1  0  0  0  0
 17 18  1  0  0  0  0
M  END
> <s_m_source_file>
AV-unprocessed.smi

> <i_m_source_file_index>
2889

> <i_lp_mmshare_version>
43012

> <i_f3d_flags>
0

> <s_epik_input>
W0NIM11TW0NAQEhdMVtDSDJdW0NIMl1bQ0gyXVtDSDJdW0NASF0xW05IXVMoPU8pKD1PKVtDSDJdYzJbY0hdW2NIXW9uMg==

> <s_epik_cmdline>
J2VwaWtfcHl0aG9uJywgJy1waCcsICc3LjAnLCAnLXRuJywgJzgnLCAnLW1hJywgJzIwMCcsICctbWV0YWxfYmluZGluZycsICctaW1hZScsICc8aW5maWxlLm1hZT4nLCAnLW9tYWUnLCAnPG91dGZpbGUubWFlPic=

> <r_lp_tautomer_probability>
1

> <r_epik_Ionization_Penalty>
0.000229547

> <r_epik_Ionization_Penalty_Charging>
0

> <r_epik_Ionization_Penalty_Neutral>
0.000229547

> <r_epik_State_Penalty>
-0

> <r_epik_Charging_Adjusted_Penalty>
0

> <i_epik_Tot_Q>
0

> <i_epik_Tot_abs_Q>
0

> <r_epik_Metal_State_Penalty>
0.145979

> <b_epik_Metal_Only>
0

> <s_lp_Force_Field>
OPLS_2005

> <r_lp_Energy>
3.33114

> <b_lp_Chiralities_Consistent>
1

> <s_lp_Variant>
AV-unprocessed.smi:2889-1

> <Gold.Version>
5.8.1

> <Gold.Id.Protein>
6NUR|6NUR_protein|mol2

> <Gold.PLP.Fitness>
47.3993

> <Gold.PLP.PLP>
-36.3898

> <Gold.PLP.part.hbond>
-2.0000

> <Gold.PLP.part.metal>
0.0000

> <Gold.PLP.part.buried>
-6.3973

> <Gold.PLP.part.nonpolar>
-29.1895

> <Gold.PLP.part.repulsive>
0.1338

> <Gold.PLP.ligand.clash>
0.0000

> <Gold.PLP.ligand.torsion>
0.4769

> <Gold.PLP.Chemscore.Hbond>
1.9750

> <Gold.PLP.Chemscore.CHOScore>
1.9599

> <Gold.PLP.Chemscore.Metal>
0.0000

> <Gold.Chemscore.Hbonds>
donor molecule, donor type, donor heavy atom, donor atom, acceptor molecule, acceptor atom, score
      P1  H  6896  6907       L1    11  0.99
      P1  H  7989  7998       L1    17  0.90
      L1  C    16    36       P1  7948  0.95
      L1  C    16    36       P1  7957  0.86

> <Gold.PLP.Chemscore.Internal.Correction>
0.1586

> <Gold.Rescore>
     Score         DG    S(hbond)    S(metal)    S(lipo)     H(rot)  DE(clash)    DE(int)     intcor
     19.01     -21.50       2.66        0.00     100.61       1.81       0.05       2.43       ----

> <Gold.Chemscore.Fitness>
19.0141

> <Gold.Chemscore.DG>
-21.4969

> <Gold.Chemscore.ZeroCoef>
-5.4800

> <Gold.Chemscore.Hbond>
2.6552

> <Gold.Chemscore.Metal>
0.0000

> <Gold.Chemscore.Lipo>
100.6101

> <Gold.Chemscore.Internal_Hbond>
0.0000

> <Gold.Chemscore.DEClash>
0.0515

> <Gold.Chemscore.DEInternal>
2.4313

> <Gold.Chemscore.Rot>
1.8058

> <Gold.Chemscore.Internal.Correction>
   9.000000E+99

> <Gold.Chemscore.Hbonds>
donor molecule, donor type, donor heavy atom, donor atom, acceptor molecule, acceptor atom, score
      P1  H  6896  6907       L1    11  0.92
      P1  H  7989  7998       L1    17  0.17

> <Gold.Chemscore.Hbond.Weighted>
-8.8684

> <Gold.Chemscore.Metal.Weighted>
-0.0000

> <Gold.Chemscore.Lipo.Weighted>
-11.7714

> <Gold.Chemscore.Internal_Hbond.Weighted>
0.0000

> <Gold.Chemscore.DEClash.Weighted>
0.0515

> <Gold.Chemscore.DEInternal.Weighted>
2.4313

> <Gold.Chemscore.Rot.Weighted>
4.6228

> <Gold.Chemscore.Internal.Correction.Weighted>
   9.000000E+99

> <Gold.Protein.RotatedTorsions>
[ 6907 6896 6895 6894 ] final    9.24 input  -60.11 | X-H torsion
[ 7974 7965 7964 7962 ] final -115.29 input  175.53 | X-H torsion
[ 8008 7997 7996 7995 ] final  174.07 input   59.86 | X-H torsion
[ 10167 10162 10161 10158 ] final  109.53 input  -65.29 | X-H torsion
[ 10718 10713 10712 10709 ] final   78.72 input   66.30 | X-H torsion
[ 10763 10752 10751 10750 ] final  -11.12 input  -60.55 | X-H torsion
[ 11005 11000 10999 10996 ] final  -17.79 input  -57.11 | X-H torsion

> <Gold.Protein.ActiveResidues>
 VAL166  LYS551  ARG553  GLY616  TRP617  ASP618  TYR619  PRO620  LYS621  CYS622 
 ASP623  PHE694  ASN695  SER759  ASP760  ASP761  ALA762  ILE779  LEU786  VAL792 
 PHE793  MET794  SER795  GLU796  ALA797  LYS798  CYS799  TRP800  GLU811  SER814 

> <Gold.Protein.RotatedAtoms>
  151.7190  135.0898  160.0280 H   0  0  0  0  0  0  0  0  0  0  0  0  # atno 6907 bound_to 6896
  152.3614  133.6297  159.6026 H   0  0  0  0  0  0  0  0  0  0  0  0  # atno 6908 bound_to 6896
  150.7607  133.9334  159.3475 H   0  0  0  0  0  0  0  0  0  0  0  0  # atno 6909 bound_to 6896
  145.1102  140.8606  143.3874 H   0  0  0  0  0  0  0  0  0  0  0  0  # atno 7974 bound_to 7965
  156.1012  140.1444  156.9465 H   0  0  0  0  0  0  0  0  0  0  0  0  # atno 8008 bound_to 7997
  154.4703  140.0912  156.7173 H   0  0  0  0  0  0  0  0  0  0  0  0  # atno 8009 bound_to 7997
  155.4757  140.3443  155.4334 H   0  0  0  0  0  0  0  0  0  0  0  0  # atno 8010 bound_to 7997
  139.6759  144.7122  151.1603 H   0  0  0  0  0  0  0  0  0  0  0  0  # atno 10167 bound_to 10162
  157.6754  130.9881  150.1827 H   0  0  0  0  0  0  0  0  0  0  0  0  # atno 10718 bound_to 10713
  153.4792  135.7017  153.5948 H   0  0  0  0  0  0  0  0  0  0  0  0  # atno 10763 bound_to 10752
  153.4169  135.3835  155.2086 H   0  0  0  0  0  0  0  0  0  0  0  0  # atno 10764 bound_to 10752
  154.8722  135.3918  154.4239 H   0  0  0  0  0  0  0  0  0  0  0  0  # atno 10765 bound_to 10752
  140.8203  133.8073  155.9653 H   0  0  0  0  0  0  0  0  0  0  0  0  # atno 11005 bound_to 11000
  145.0856  139.2927  143.5761 LP  0  0  0  0  0  0  0  0  0  0  0  0  # atno 17320 bound_to 7965
  146.3526  140.0377  142.8645 LP  0  0  0  0  0  0  0  0  0  0  0  0  # atno 17321 bound_to 7965
  140.7635  143.5772  150.8932 LP  0  0  0  0  0  0  0  0  0  0  0  0  # atno 17342 bound_to 10162
  139.9441  143.6348  152.3046 LP  0  0  0  0  0  0  0  0  0  0  0  0  # atno 17343 bound_to 10162
  156.2556  130.3705  149.8185 LP  0  0  0  0  0  0  0  0  0  0  0  0  # atno 17370 bound_to 10713
  156.5945  130.8520  151.3416 LP  0  0  0  0  0  0  0  0  0  0  0  0  # atno 17371 bound_to 10713
  140.9106  134.2266  157.4988 LP  0  0  0  0  0  0  0  0  0  0  0  0  # atno 17394 bound_to 11000
  139.8709  134.9748  156.4860 LP  0  0  0  0  0  0  0  0  0  0  0  0  # atno 17395 bound_to 11000

$$$$
