AV-unprocessed.smi:1641|AV-procd|sdf|6565|dock2
  -GOLD-   22720 7253D 1   1.00000     0.00000
 Structure written by MMmdl.
 40 41  0  0  0  0  0  0  0  0  2 V2000
  144.1306  142.0620  163.3870 C   0  0  0  0  0  0  0  0  0  0  0  0
  145.0398  142.0181  162.2071 C   0  0  0  0  0  0  0  0  0  0  0  0
  146.2641  141.4881  162.2603 N   0  0  0  0  0  0  0  0  0  0  0  0
  146.9191  141.5622  161.0393 N   0  0  0  0  0  0  0  0  0  0  0  0
  146.1873  142.1536  160.0845 C   0  0  0  0  0  0  0  0  0  0  0  0
  146.6396  142.3165  158.8301 N   0  5  0  0  0  0  0  0  0  0  0  0
  147.5089  141.4250  158.3017 C   0  0  0  0  0  0  0  0  0  0  0  0
  147.5535  140.2161  158.5412 O   0  0  0  0  0  0  0  0  0  0  0  0
  148.3820  141.9678  157.4429 N   0  0  0  0  0  0  0  0  0  0  0  0
  149.4231  141.2423  156.7278 C   0  0  0  0  0  0  0  0  0  0  0  0
  150.7132  142.0768  156.6826 C   0  0  0  0  0  0  0  0  0  0  0  0
  151.1533  142.6054  157.9728 N   0  0  0  0  0  0  0  0  0  0  0  0
  151.4768  144.0294  157.9123 C   0  0  0  0  0  0  0  0  0  0  0  0
  151.9819  144.5856  159.2592 C   0  0  1  0  0  0  0  0  0  0  0  0
  150.8645  144.7648  160.3009 C   0  0  0  0  0  0  0  0  0  0  0  0
  153.0508  143.7817  159.7621 O   0  0  0  0  0  0  0  0  0  0  0  0
  152.7731  142.3848  159.8428 C   0  0  2  0  0  0  0  0  0  0  0  0
  154.0405  141.6729  160.3278 C   0  0  0  0  0  0  0  0  0  0  0  0
  152.3153  141.8765  158.4645 C   0  0  0  0  0  0  0  0  0  0  0  0
  144.5887  142.6564  160.6349 S   0  0  0  0  0  0  0  0  0  0  0  0
  144.5704  142.6735  164.1751 H   0  0  0  0  0  0  0  0  0  0  0  0
  143.9672  141.0550  163.7714 H   0  0  0  0  0  0  0  0  0  0  0  0
  143.1673  142.4901  163.1092 H   0  0  0  0  0  0  0  0  0  0  0  0
  148.3136  142.9604  157.2732 H   0  0  0  0  0  0  0  0  0  0  0  0
  149.5854  140.2899  157.2325 H   0  0  0  0  0  0  0  0  0  0  0  0
  149.0887  141.0222  155.7124 H   0  0  0  0  0  0  0  0  0  0  0  0
  151.5011  141.4393  156.2784 H   0  0  0  0  0  0  0  0  0  0  0  0
  150.5957  142.8949  155.9704 H   0  0  0  0  0  0  0  0  0  0  0  0
  152.2449  144.1927  157.1547 H   0  0  0  0  0  0  0  0  0  0  0  0
  150.6080  144.6066  157.5972 H   0  0  0  0  0  0  0  0  0  0  0  0
  152.4042  145.5738  159.0751 H   0  0  0  0  0  0  0  0  0  0  0  0
  150.1143  145.4718  159.9458 H   0  0  0  0  0  0  0  0  0  0  0  0
  151.2651  145.1508  161.2383 H   0  0  0  0  0  0  0  0  0  0  0  0
  150.3509  143.8283  160.5166 H   0  0  0  0  0  0  0  0  0  0  0  0
  151.9832  142.2142  160.5750 H   0  0  0  0  0  0  0  0  0  0  0  0
  153.8757  140.5993  160.4220 H   0  0  0  0  0  0  0  0  0  0  0  0
  154.3486  142.0486  161.3037 H   0  0  0  0  0  0  0  0  0  0  0  0
  154.8689  141.8254  159.6354 H   0  0  0  0  0  0  0  0  0  0  0  0
  152.0798  140.8139  158.5364 H   0  0  0  0  0  0  0  0  0  0  0  0
  153.1358  141.9657  157.7507 H   0  0  0  0  0  0  0  0  0  0  0  0
  1  2  1  0  0  0  0
  1 21  1  0  0  0  0
  1 22  1  0  0  0  0
  1 23  1  0  0  0  0
  2 20  1  0  0  0  0
  2  3  2  0  0  0  0
  3  4  1  0  0  0  0
  4  5  2  0  0  0  0
  5  6  1  0  0  0  0
  5 20  1  0  0  0  0
  6  7  1  0  0  0  0
  7  8  2  0  0  0  0
  7  9  1  0  0  0  0
  9 10  1  0  0  0  0
  9 24  1  0  0  0  0
 10 11  1  0  0  0  0
 10 25  1  0  0  0  0
 10 26  1  0  0  0  0
 11 12  1  0  0  0  0
 11 27  1  0  0  0  0
 11 28  1  0  0  0  0
 12 19  1  0  0  0  0
 12 13  1  0  0  0  0
 13 14  1  0  0  0  0
 13 29  1  0  0  0  0
 13 30  1  0  0  0  0
 14 15  1  0  0  0  0
 14 16  1  0  0  0  0
 14 31  1  0  0  0  0
 15 32  1  0  0  0  0
 15 33  1  0  0  0  0
 15 34  1  0  0  0  0
 16 17  1  0  0  0  0
 17 18  1  0  0  0  0
 17 19  1  0  0  0  0
 17 35  1  0  0  0  0
 18 36  1  0  0  0  0
 18 37  1  0  0  0  0
 18 38  1  0  0  0  0
 19 39  1  0  0  0  0
 19 40  1  0  0  0  0
M  CHG  1   6  -1
M  END
> <s_m_source_file>
AV-unprocessed.smi

> <i_m_source_file_index>
1641

> <i_lp_mmshare_version>
43012

> <i_f3d_flags>
0

> <s_epik_input>
W0NIM11jMW5uYyhzMSlbTkhdQyg9TylbTkhdW0NIMl1bQ0gyXU4yW0NIMl1bQ0BASF0oW0NIM10pT1tDQEBIXShbQ0gzXSlbQ0gyXTI=

> <s_epik_cmdline>
J2VwaWtfcHl0aG9uJywgJy1waCcsICc3LjAnLCAnLXRuJywgJzgnLCAnLW1hJywgJzIwMCcsICctbWV0YWxfYmluZGluZycsICctaW1hZScsICc8aW5maWxlLm1hZT4nLCAnLW9tYWUnLCAnPG91dGZpbGUubWFlPic=

> <r_lp_tautomer_probability>
1

> <r_epik_Ionization_Penalty>
3.81681

> <r_epik_Ionization_Penalty_Charging>
3.36369

> <r_epik_Ionization_Penalty_Neutral>
0.45313

> <r_epik_State_Penalty>
3.571

> <r_epik_Charging_Adjusted_Penalty>
6.93469

> <i_epik_Tot_Q>
-1

> <i_epik_Tot_abs_Q>
1

> <r_epik_Metal_State_Penalty>
0.710322

> <b_epik_Metal_Only>
1

> <s_lp_Force_Field>
OPLS_2005

> <r_lp_Energy>
20.315

> <b_lp_Chiralities_Consistent>
1

> <s_lp_Variant>
AV-unprocessed.smi:1641-10

> <Gold.Version>
5.8.1

> <Gold.Id.Protein>
6NUR|6NUR_protein|mol2

> <Gold.PLP.Fitness>
48.0070

> <Gold.PLP.PLP>
-42.1905

> <Gold.PLP.part.hbond>
-4.4630

> <Gold.PLP.part.metal>
0.0000

> <Gold.PLP.part.buried>
-6.7101

> <Gold.PLP.part.nonpolar>
-33.2445

> <Gold.PLP.part.repulsive>
0.2832

> <Gold.PLP.ligand.clash>
0.0000

> <Gold.PLP.ligand.torsion>
1.2536

> <Gold.PLP.Chemscore.Hbond>
2.7294

> <Gold.PLP.Chemscore.CHOScore>
0.0000

> <Gold.PLP.Chemscore.Metal>
0.0000

> <Gold.Chemscore.Hbonds>
donor molecule, donor type, donor heavy atom, donor atom, acceptor molecule, acceptor atom, score
      P1  H  6933  6944       L1     4  0.10

> <Gold.PLP.Chemscore.Internal.Correction>
0.1355

> <Gold.Rescore>
     Score         DG    S(hbond)    S(metal)    S(lipo)     H(rot)  DE(clash)    DE(int)     intcor
     14.82     -17.58       1.40        0.00      97.91       1.57       0.16       2.60       ----

> <Gold.Chemscore.Fitness>
14.8218

> <Gold.Chemscore.DG>
-17.5794

> <Gold.Chemscore.ZeroCoef>
-5.4800

> <Gold.Chemscore.Hbond>
1.3951

> <Gold.Chemscore.Metal>
0.0000

> <Gold.Chemscore.Lipo>
97.9088

> <Gold.Chemscore.Internal_Hbond>
0.0000

> <Gold.Chemscore.DEClash>
0.1608

> <Gold.Chemscore.DEInternal>
2.5968

> <Gold.Chemscore.Rot>
1.5686

> <Gold.Chemscore.Internal.Correction>
   9.000000E+99

> <Gold.Chemscore.Hbonds>
donor molecule, donor type, donor heavy atom, donor atom, acceptor molecule, acceptor atom, score
      L1  H     9    24       P1  8028  0.01
      P1  H  6933  6944       L1     4  0.05

> <Gold.Chemscore.Hbond.Weighted>
-4.6598

> <Gold.Chemscore.Metal.Weighted>
-0.0000

> <Gold.Chemscore.Lipo.Weighted>
-11.4553

> <Gold.Chemscore.Internal_Hbond.Weighted>
0.0000

> <Gold.Chemscore.DEClash.Weighted>
0.1608

> <Gold.Chemscore.DEInternal.Weighted>
2.5968

> <Gold.Chemscore.Rot.Weighted>
4.0157

> <Gold.Chemscore.Internal.Correction.Weighted>
   9.000000E+99

> <Gold.Protein.RotatedTorsions>
[ 6907 6896 6895 6894 ] final -120.50 input  -60.11 | X-H torsion
[ 7974 7965 7964 7962 ] final -141.30 input  175.53 | X-H torsion
[ 8008 7997 7996 7995 ] final  149.03 input   59.86 | X-H torsion
[ 10167 10162 10161 10158 ] final  -96.50 input  -65.29 | X-H torsion
[ 10718 10713 10712 10709 ] final  -13.40 input   66.30 | X-H torsion
[ 10763 10752 10751 10750 ] final   40.44 input  -60.55 | X-H torsion
[ 11005 11000 10999 10996 ] final  -87.80 input  -57.11 | X-H torsion

> <Gold.Protein.ActiveResidues>
 VAL166  LYS551  ARG553  GLY616  TRP617  ASP618  TYR619  PRO620  LYS621  CYS622 
 ASP623  PHE694  ASN695  SER759  ASP760  ASP761  ALA762  ILE779  LEU786  VAL792 
 PHE793  MET794  SER795  GLU796  ALA797  LYS798  CYS799  TRP800  GLU811  SER814 

> <Gold.Protein.RotatedAtoms>
  150.8398  133.7954  159.3064 H   0  0  0  0  0  0  0  0  0  0  0  0  # atno 6907 bound_to 6896
  151.5658  135.1062  159.9993 H   0  0  0  0  0  0  0  0  0  0  0  0  # atno 6908 bound_to 6896
  152.4464  133.7503  159.6746 H   0  0  0  0  0  0  0  0  0  0  0  0  # atno 6909 bound_to 6896
  144.8530  140.6096  143.5378 H   0  0  0  0  0  0  0  0  0  0  0  0  # atno 7974 bound_to 7965
  156.2770  140.2113  156.5793 H   0  0  0  0  0  0  0  0  0  0  0  0  # atno 8008 bound_to 7997
  154.7072  140.0515  157.0538 H   0  0  0  0  0  0  0  0  0  0  0  0  # atno 8009 bound_to 7997
  155.0655  140.3171  155.4650 H   0  0  0  0  0  0  0  0  0  0  0  0  # atno 8010 bound_to 7997
  140.2932  143.3208  152.0325 H   0  0  0  0  0  0  0  0  0  0  0  0  # atno 10167 bound_to 10162
  156.6308  130.4901  149.6130 H   0  0  0  0  0  0  0  0  0  0  0  0  # atno 10718 bound_to 10713
  152.9936  135.6191  154.2627 H   0  0  0  0  0  0  0  0  0  0  0  0  # atno 10763 bound_to 10752
  154.2362  135.2790  155.2873 H   0  0  0  0  0  0  0  0  0  0  0  0  # atno 10764 bound_to 10752
  154.5408  135.5761  153.6895 H   0  0  0  0  0  0  0  0  0  0  0  0  # atno 10765 bound_to 10752
  141.1611  133.7532  156.9359 H   0  0  0  0  0  0  0  0  0  0  0  0  # atno 11005 bound_to 11000
  145.4462  139.1529  143.3943 LP  0  0  0  0  0  0  0  0  0  0  0  0  # atno 17320 bound_to 7965
  146.2800  140.4586  142.8780 LP  0  0  0  0  0  0  0  0  0  0  0  0  # atno 17321 bound_to 7965
  139.4933  144.6510  151.6676 LP  0  0  0  0  0  0  0  0  0  0  0  0  # atno 17342 bound_to 10162
  140.5715  144.0101  150.6219 LP  0  0  0  0  0  0  0  0  0  0  0  0  # atno 17343 bound_to 10162
  156.2236  130.6752  151.1393 LP  0  0  0  0  0  0  0  0  0  0  0  0  # atno 17370 bound_to 10713
  157.7200  131.0687  150.6173 LP  0  0  0  0  0  0  0  0  0  0  0  0  # atno 17371 bound_to 10713
  140.1354  134.9328  157.2395 LP  0  0  0  0  0  0  0  0  0  0  0  0  # atno 17394 bound_to 11000
  140.2901  134.3250  155.7318 LP  0  0  0  0  0  0  0  0  0  0  0  0  # atno 17395 bound_to 11000

$$$$
