AV-unprocessed.smi:177|AV-procd|sdf|1439|dock9
  -GOLD-   2262019223D 1   1.00000     0.00000
 Structure written by MMmdl.
 61 65  0  0  0  0  0  0  0  0  1 V2000
  151.9284  143.8678  158.7838 C   0  0  0  0  0  0  0  0  0  0  0  0
  151.6864  142.5803  158.2376 O   0  0  0  0  0  0  0  0  0  0  0  0
  152.0192  141.5041  159.1055 C   0  0  2  0  0  0  0  0  0  0  0  0
  153.4630  141.7256  159.5828 C   0  0  0  0  0  0  0  0  0  0  0  0
  153.9245  140.5891  160.5076 C   0  0  0  0  0  0  0  0  0  0  0  0
  153.7809  139.2081  159.8449 C   0  0  2  0  0  0  0  0  0  0  0  0
  154.7363  139.0834  158.7943 O   0  0  0  0  0  0  0  0  0  0  0  0
  154.7362  137.7783  158.2256 C   0  0  0  0  0  0  0  0  0  0  0  0
  153.3611  137.4788  157.6084 C   0  0  0  0  0  0  0  0  0  0  0  0
  152.3039  137.6862  158.5986 N   0  0  0  0  0  0  0  0  0  0  0  0
  151.0652  137.1986  158.3203 C   0  0  0  0  0  0  0  0  0  0  0  0
  150.2522  136.8082  159.3389 N   0  0  0  0  0  0  0  0  0  0  0  0
  149.0384  136.3118  159.0861 C   0  0  0  0  0  0  0  0  0  0  0  0
  148.4462  136.1194  157.9071 N   0  0  0  0  0  0  0  0  0  0  0  0
  149.2514  136.5105  156.8787 C   0  0  0  0  0  0  0  0  0  0  0  0
  150.5586  137.0641  156.9953 C   0  0  0  0  0  0  0  0  0  0  0  0
  151.0508  137.3729  155.7325 N   0  0  0  0  0  0  0  0  0  0  0  0
  150.0982  137.0094  154.9189 C   0  0  0  0  0  0  0  0  0  0  0  0
  148.9882  136.4611  155.5203 N   0  0  0  0  0  0  0  0  0  0  0  0
  147.7862  135.9806  154.8540 C   0  0  0  0  0  0  0  0  0  0  0  0
  147.7537  134.4561  154.5276 C   0  0  0  0  0  0  0  0  0  0  0  0
  146.6307  134.1314  153.4969 C   0  0  0  0  0  0  0  0  0  0  0  0
  146.8130  134.7509  152.2396 O   0  0  0  0  0  0  0  0  0  0  0  0
  149.1400  133.9565  154.0450 C   0  0  0  0  0  0  0  0  0  0  0  0
  149.2425  132.4222  154.0228 C   0  0  0  0  0  0  0  0  0  0  0  0
  148.9831  131.9051  155.3213 O   0  0  0  0  0  0  0  0  0  0  0  0
  147.6684  132.1941  155.7778 C   0  0  0  0  0  0  0  0  0  0  0  0
  147.4542  133.7186  155.8579 C   0  0  0  0  0  0  0  0  0  0  0  0
  152.3560  138.9804  159.2855 C   0  0  2  0  0  0  0  0  0  0  0  0
  151.9042  140.1500  158.3791 C   0  0  0  0  0  0  0  0  0  0  0  0
  151.6872  144.6267  158.0398 H   0  0  0  0  0  0  0  0  0  0  0  0
  152.9774  143.9909  159.0556 H   0  0  0  0  0  0  0  0  0  0  0  0
  151.3142  144.0604  159.6630 H   0  0  0  0  0  0  0  0  0  0  0  0
  151.3623  141.5155  159.9775 H   0  0  0  0  0  0  0  0  0  0  0  0
  154.1306  141.7921  158.7225 H   0  0  0  0  0  0  0  0  0  0  0  0
  153.5388  142.6791  160.1063 H   0  0  0  0  0  0  0  0  0  0  0  0
  154.9590  140.7503  160.8121 H   0  0  0  0  0  0  0  0  0  0  0  0
  153.3297  140.6106  161.4214 H   0  0  0  0  0  0  0  0  0  0  0  0
  153.9994  138.4497  160.5992 H   0  0  0  0  0  0  0  0  0  0  0  0
  155.5103  137.7231  157.4605 H   0  0  0  0  0  0  0  0  0  0  0  0
  154.9887  137.0385  158.9869 H   0  0  0  0  0  0  0  0  0  0  0  0
  153.1904  138.1204  156.7434 H   0  0  0  0  0  0  0  0  0  0  0  0
  153.3448  136.4481  157.2517 H   0  0  0  0  0  0  0  0  0  0  0  0
  148.4600  136.0257  159.9521 H   0  0  0  0  0  0  0  0  0  0  0  0
  150.1838  137.1216  153.8479 H   0  0  0  0  0  0  0  0  0  0  0  0
  146.9388  136.2455  155.4880 H   0  0  0  0  0  0  0  0  0  0  0  0
  147.6577  136.5588  153.9378 H   0  0  0  0  0  0  0  0  0  0  0  0
  146.5635  133.0628  153.3027 H   0  0  0  0  0  0  0  0  0  0  0  0
  145.6580  134.4270  153.8916 H   0  0  0  0  0  0  0  0  0  0  0  0
  147.4597  135.4341  152.3314 H   0  0  0  0  0  0  0  0  0  0  0  0
  149.3835  134.3544  153.0597 H   0  0  0  0  0  0  0  0  0  0  0  0
  149.9117  134.3334  154.7174 H   0  0  0  0  0  0  0  0  0  0  0  0
  148.5578  131.9853  153.2950 H   0  0  0  0  0  0  0  0  0  0  0  0
  150.2480  132.1235  153.7261 H   0  0  0  0  0  0  0  0  0  0  0  0
  146.9330  131.7123  155.1332 H   0  0  0  0  0  0  0  0  0  0  0  0
  147.5426  131.7532  156.7668 H   0  0  0  0  0  0  0  0  0  0  0  0
  148.1096  134.1013  156.6417 H   0  0  0  0  0  0  0  0  0  0  0  0
  146.4371  133.9317  156.1889 H   0  0  0  0  0  0  0  0  0  0  0  0
  151.6872  138.9596  160.1439 H   0  0  0  0  0  0  0  0  0  0  0  0
  150.8763  139.9818  158.0589 H   0  0  0  0  0  0  0  0  0  0  0  0
  152.5073  140.1831  157.4715 H   0  0  0  0  0  0  0  0  0  0  0  0
  1  2  1  0  0  0  0
  1 31  1  0  0  0  0
  1 32  1  0  0  0  0
  1 33  1  0  0  0  0
  2  3  1  0  0  0  0
  3 30  1  0  0  0  0
  3  4  1  0  0  0  0
  3 34  1  0  0  0  0
  4  5  1  0  0  0  0
  4 35  1  0  0  0  0
  4 36  1  0  0  0  0
  5  6  1  0  0  0  0
  5 37  1  0  0  0  0
  5 38  1  0  0  0  0
  6 29  1  0  0  0  0
  6  7  1  0  0  0  0
  6 39  1  0  0  0  0
  7  8  1  0  0  0  0
  8  9  1  0  0  0  0
  8 40  1  0  0  0  0
  8 41  1  0  0  0  0
  9 10  1  0  0  0  0
  9 42  1  0  0  0  0
  9 43  1  0  0  0  0
 10 11  1  0  0  0  0
 10 29  1  0  0  0  0
 11 16  1  0  0  0  0
 11 12  2  0  0  0  0
 12 13  1  0  0  0  0
 13 14  2  0  0  0  0
 13 44  1  0  0  0  0
 14 15  1  0  0  0  0
 15 19  1  0  0  0  0
 15 16  2  0  0  0  0
 16 17  1  0  0  0  0
 17 18  2  0  0  0  0
 18 19  1  0  0  0  0
 18 45  1  0  0  0  0
 19 20  1  0  0  0  0
 20 21  1  0  0  0  0
 20 46  1  0  0  0  0
 20 47  1  0  0  0  0
 21 28  1  0  0  0  0
 21 22  1  0  0  0  0
 21 24  1  0  0  0  0
 22 23  1  0  0  0  0
 22 48  1  0  0  0  0
 22 49  1  0  0  0  0
 23 50  1  0  0  0  0
 24 25  1  0  0  0  0
 24 51  1  0  0  0  0
 24 52  1  0  0  0  0
 25 26  1  0  0  0  0
 25 53  1  0  0  0  0
 25 54  1  0  0  0  0
 26 27  1  0  0  0  0
 27 28  1  0  0  0  0
 27 55  1  0  0  0  0
 27 56  1  0  0  0  0
 28 57  1  0  0  0  0
 28 58  1  0  0  0  0
 29 30  1  0  0  0  0
 29 59  1  0  0  0  0
 30 60  1  0  0  0  0
 30 61  1  0  0  0  0
M  END
> <s_m_source_file>
AV-unprocessed.smi

> <i_m_source_file_index>
177

> <i_lp_mmshare_version>
43012

> <i_f3d_flags>
0

> <s_epik_input>
W0NIM11PW0NASF0oW0NIMl1bQ0gyXTEpW0NIMl1bQ0BIXShbQ0BASF0xMilOKFtDSDJdW0NIMl1PMiljKG5bY0hdbjMpYyhjMzQpbltjSF1uNFtDSDJdQzUoW0NIMl1bT0hdKVtDSDJdW0NIMl1PW0NIMl1bQ0gyXTU=

> <s_epik_cmdline>
J2VwaWtfcHl0aG9uJywgJy1waCcsICc3LjAnLCAnLXRuJywgJzgnLCAnLW1hJywgJzIwMCcsICctbWV0YWxfYmluZGluZycsICctaW1hZScsICc8aW5maWxlLm1hZT4nLCAnLW9tYWUnLCAnPG91dGZpbGUubWFlPic=

> <r_lp_tautomer_probability>
1

> <r_epik_Ionization_Penalty>
0.0065899

> <r_epik_Ionization_Penalty_Charging>
0

> <r_epik_Ionization_Penalty_Neutral>
0.0065899

> <r_epik_State_Penalty>
0.00470042

> <r_epik_Charging_Adjusted_Penalty>
0.00470042

> <i_epik_Tot_Q>
0

> <i_epik_Tot_abs_Q>
0

> <r_epik_Metal_State_Penalty>
-0

> <b_epik_Metal_Only>
0

> <s_lp_Force_Field>
OPLS_2005

> <r_lp_Energy>
44.7828

> <b_lp_Chiralities_Consistent>
1

> <s_lp_Variant>
AV-unprocessed.smi:177-3

> <Gold.Version>
5.8.1

> <Gold.Id.Protein>
6NUR|6NUR_protein|mol2

> <Gold.PLP.Fitness>
45.4227

> <Gold.PLP.PLP>
-34.9951

> <Gold.PLP.part.hbond>
-3.0000

> <Gold.PLP.part.metal>
0.0000

> <Gold.PLP.part.buried>
-5.1948

> <Gold.PLP.part.nonpolar>
-26.9666

> <Gold.PLP.part.repulsive>
0.0845

> <Gold.PLP.ligand.clash>
0.0000

> <Gold.PLP.ligand.torsion>
1.0456

> <Gold.PLP.Chemscore.Hbond>
2.9025

> <Gold.PLP.Chemscore.CHOScore>
1.1044

> <Gold.PLP.Chemscore.Metal>
0.0000

> <Gold.Chemscore.Hbonds>
donor molecule, donor type, donor heavy atom, donor atom, acceptor molecule, acceptor atom, score
      L1  H    23    50       P1  7948  1.00
      P1  H  6896  6908       L1    12  0.90
      P1  H  7997  8010       L1     7  0.90
      L1  C    18    45       P1  7948  1.00
      L1  C    18    45       P1  7949  0.09

> <Gold.PLP.Chemscore.Internal.Correction>
0.4981

> <Gold.Rescore>
     Score         DG    S(hbond)    S(metal)    S(lipo)     H(rot)  DE(clash)    DE(int)     intcor
     13.82     -16.00       2.11        0.00      86.15       2.58       0.07       2.10       ----

> <Gold.Chemscore.Fitness>
13.8218

> <Gold.Chemscore.DG>
-15.9986

> <Gold.Chemscore.ZeroCoef>
-5.4800

> <Gold.Chemscore.Hbond>
2.1093

> <Gold.Chemscore.Metal>
0.0000

> <Gold.Chemscore.Lipo>
86.1514

> <Gold.Chemscore.Internal_Hbond>
0.0000

> <Gold.Chemscore.DEClash>
0.0728

> <Gold.Chemscore.DEInternal>
2.1040

> <Gold.Chemscore.Rot>
2.5806

> <Gold.Chemscore.Internal.Correction>
   9.000000E+99

> <Gold.Chemscore.Hbonds>
donor molecule, donor type, donor heavy atom, donor atom, acceptor molecule, acceptor atom, score
      L1  H    23    50       P1  7948  0.94
      P1  H  6896  6908       L1    12  0.04
      P1  H  7997  8010       L1     7  0.18

> <Gold.Chemscore.Hbond.Weighted>
-7.0451

> <Gold.Chemscore.Metal.Weighted>
-0.0000

> <Gold.Chemscore.Lipo.Weighted>
-10.0797

> <Gold.Chemscore.Internal_Hbond.Weighted>
0.0000

> <Gold.Chemscore.DEClash.Weighted>
0.0728

> <Gold.Chemscore.DEInternal.Weighted>
2.1040

> <Gold.Chemscore.Rot.Weighted>
6.6062

> <Gold.Chemscore.Internal.Correction.Weighted>
   9.000000E+99

> <Gold.Protein.RotatedTorsions>
[ 6907 6896 6895 6894 ] final -144.17 input  -60.11 | X-H torsion
[ 7974 7965 7964 7962 ] final -139.71 input  175.53 | X-H torsion
[ 8008 7997 7996 7995 ] final    3.36 input   59.86 | X-H torsion
[ 10167 10162 10161 10158 ] final   51.36 input  -65.29 | X-H torsion
[ 10718 10713 10712 10709 ] final  -77.53 input   66.30 | X-H torsion
[ 10763 10752 10751 10750 ] final -176.50 input  -60.55 | X-H torsion
[ 11005 11000 10999 10996 ] final -149.50 input  -57.11 | X-H torsion

> <Gold.Protein.ActiveResidues>
 VAL166  LYS551  ARG553  GLY616  TRP617  ASP618  TYR619  PRO620  LYS621  CYS622 
 ASP623  PHE694  ASN695  SER759  ASP760  ASP761  ALA762  ILE779  LEU786  VAL792 
 PHE793  MET794  SER795  GLU796  ALA797  LYS798  CYS799  TRP800  GLU811  SER814 

> <Gold.Protein.RotatedAtoms>
  151.1104  133.5177  159.2605 H   0  0  0  0  0  0  0  0  0  0  0  0  # atno 6907 bound_to 6896
  151.1973  135.0427  159.8867 H   0  0  0  0  0  0  0  0  0  0  0  0  # atno 6908 bound_to 6896
  152.5450  134.0937  159.8341 H   0  0  0  0  0  0  0  0  0  0  0  0  # atno 6909 bound_to 6896
  144.8655  140.6286  143.5301 H   0  0  0  0  0  0  0  0  0  0  0  0  # atno 7974 bound_to 7965
  154.7027  140.2676  155.6704 H   0  0  0  0  0  0  0  0  0  0  0  0  # atno 8008 bound_to 7997
  156.2770  140.2769  156.1567 H   0  0  0  0  0  0  0  0  0  0  0  0  # atno 8009 bound_to 7997
  155.0742  140.0372  157.2608 H   0  0  0  0  0  0  0  0  0  0  0  0  # atno 8010 bound_to 7997
  140.2627  144.3355  150.6313 H   0  0  0  0  0  0  0  0  0  0  0  0  # atno 10167 bound_to 10162
  156.0142  130.4494  150.3358 H   0  0  0  0  0  0  0  0  0  0  0  0  # atno 10718 bound_to 10713
  154.5715  135.2828  155.0822 H   0  0  0  0  0  0  0  0  0  0  0  0  # atno 10763 bound_to 10752
  154.2193  135.6394  153.5143 H   0  0  0  0  0  0  0  0  0  0  0  0  # atno 10764 bound_to 10752
  153.0059  135.5510  154.6341 H   0  0  0  0  0  0  0  0  0  0  0  0  # atno 10765 bound_to 10752
  140.7501  134.3416  157.5128 H   0  0  0  0  0  0  0  0  0  0  0  0  # atno 11005 bound_to 11000
  145.4230  139.1561  143.4064 LP  0  0  0  0  0  0  0  0  0  0  0  0  # atno 17320 bound_to 7965
  146.2892  140.4341  142.8746 LP  0  0  0  0  0  0  0  0  0  0  0  0  # atno 17321 bound_to 7965
  140.5953  143.2167  151.7176 LP  0  0  0  0  0  0  0  0  0  0  0  0  # atno 17342 bound_to 10162
  139.5012  144.3877  152.0312 LP  0  0  0  0  0  0  0  0  0  0  0  0  # atno 17343 bound_to 10162
  157.1455  131.0307  151.2908 LP  0  0  0  0  0  0  0  0  0  0  0  0  # atno 17370 bound_to 10713
  157.4436  130.7558  149.7090 LP  0  0  0  0  0  0  0  0  0  0  0  0  # atno 17371 bound_to 10713
  139.8789  134.9136  156.3088 LP  0  0  0  0  0  0  0  0  0  0  0  0  # atno 17394 bound_to 11000
  140.9758  133.7298  156.0600 LP  0  0  0  0  0  0  0  0  0  0  0  0  # atno 17395 bound_to 11000

$$$$
