#       Name:                AV-unprocessed.smi:2630
#       Creating user name   scv26
#       Creation time:       Fri Mar 27 14:25:43 2020


#       File generated by GOLD software.
#

@<TRIPOS>MOLECULE
AV-unprocessed.smi:2630
    41    42     1
SMALL
NO_CHARGES


@<TRIPOS>ATOM
      1 ****        -3.0072   1.7002   2.2494 C.3            1 S1                 0.0000
      2 ****        -2.5843   0.3488   2.2344 O.3            1 S1                 0.0000
      3 ****        -2.8615  -0.2967   1.0029 C.3            1 S1                 0.0000
      4 ****        -2.3431  -1.7445   1.0422 C.3            1 S1                 0.0000
      5 ****        -0.8656  -1.7994   1.0627 N.am           1 S1                 0.0000
      6 ****        -0.1583  -1.6936  -0.1643 C.2            1 S1                 0.0000
      7 ****        -0.8515  -1.5466  -1.3547 N.pl3          1 S1                 0.0000
      8 ****         1.1930  -1.7323  -0.1557 C.2            1 S1                 0.0000
      9 ****         2.2490  -1.5956  -1.5813 S.3            1 S1                 0.0000
     10 ****         2.3774   0.1555  -1.7346 C.ar           1 S1                 0.0000
     11 ****         1.4891   0.8553  -2.5752 C.ar           1 S1                 0.0000
     12 ****         1.5899   2.2555  -2.6923 C.ar           1 S1                 0.0000
     13 ****         2.5783   2.9541  -1.9710 C.ar           1 S1                 0.0000
     14 ****         3.4674   2.2528  -1.1328 C.ar           1 S1                 0.0000
     15 ****         3.3680   0.8528  -1.0146 C.ar           1 S1                 0.0000
     16 ****         1.9245  -1.8875   1.1032 C.2            1 S1                 0.0000
     17 ****         3.1552  -1.9359   1.1262 O.2            1 S1                 0.0000
     18 ****         1.1758  -1.9722   2.2363 N.pl3          1 S1                -1.0000
     19 ****        -0.1900  -1.9256   2.2490 C.2            1 S1                 0.0000
     20 ****        -0.8264  -1.9941   3.3012 O.2            1 S1                 0.0000
     21 ****        -2.7683   2.1470   3.2144 H              1 S1                 0.0000
     22 ****        -4.0845   1.7782   2.0992 H              1 S1                 0.0000
     23 ****        -2.5017   2.2798   1.4759 H              1 S1                 0.0000
     24 ****        -3.9393  -0.3020   0.8343 H              1 S1                 0.0000
     25 ****        -2.4086   0.2512   0.1752 H              1 S1                 0.0000
     26 ****        -2.7866  -2.2670   1.8910 H              1 S1                 0.0000
     27 ****        -2.7234  -2.2920   0.1798 H              1 S1                 0.0000
     28 ****        -1.8604  -1.5118  -1.3773 H              1 S1                 0.0000
     29 ****        -0.3757  -1.3555  -2.2244 H              1 S1                 0.0000
     30 ****         0.7296   0.3223  -3.1280 H              1 S1                 0.0000
     31 ****         0.9090   2.7937  -3.3348 H              1 S1                 0.0000
     32 ****         2.6545   4.0277  -2.0602 H              1 S1                 0.0000
     33 ****         4.2250   2.7878  -0.5794 H              1 S1                 0.0000
     34 ****         4.0490   0.3172  -0.3692 H              1 S1                 0.0000
     35 ****        -3.0561  -0.1424   2.9666 LP             1 S1                 0.0000
     36 ****        -1.5978   0.3203   2.3958 LP             1 S1                 0.0000
     37 ****         3.6743  -1.8688   0.2741 LP             1 S1                 0.0000
     38 ****         3.6352  -2.0423   1.9970 LP             1 S1                 0.0000
     39 ****         1.6522  -2.0744   3.1096 LP             1 S1                 0.0000
     40 ****        -1.8256  -1.9575   3.2845 LP             1 S1                 0.0000
     41 ****        -0.3439  -2.0863   4.1723 LP             1 S1                 0.0000
@<TRIPOS>BOND
    1    1    2 1     
    2    1   21 1     
    3    1   22 1     
    4    1   23 1     
    5    2    3 1     
    6    3    4 1     
    7    3   24 1     
    8    3   25 1     
    9    4    5 1     
   10    4   26 1     
   11    4   27 1     
   12    5   19 am    
   13    5    6 1     
   14    6    7 1     
   15    6    8 2     
   16    7   28 1     
   17    7   29 1     
   18    8    9 1     
   19    8   16 1     
   20    9   10 1     
   21   10   15 ar    
   22   10   11 ar    
   23   11   12 ar    
   24   11   30 1     
   25   12   13 ar    
   26   12   31 1     
   27   13   14 ar    
   28   13   32 1     
   29   14   15 ar    
   30   14   33 1     
   31   15   34 1     
   32   16   17 2     
   33   16   18 1     
   34   18   19 1     
   35   19   20 2     
   36    2   35 1     
   37    2   36 1     
   38   17   37 1     
   39   17   38 1     
   40   18   39 1     
   41   20   40 1     
   42   20   41 1     
@<TRIPOS>SUBSTRUCTURE
      1 S1             1
@<TRIPOS>SET
LONE_PAIRS      STATIC     ATOMS    <user>   **** ""
7 35 36 37 38 39 40 41
DONOR_HYDROGENS      STATIC     ATOMS    <user>   **** ""
2 28 29
ATOM$BLUE        STATIC     ATOMS    COLORGROUP SYSTEM
7 35 36 37 38 39 40 41
ATOM$RED        STATIC     ATOMS    COLORGROUP SYSTEM
2 28 29
