AV-unprocessed.smi:3056|AV-procd|sdf|11654|dock4
  -GOLD-   2272017 53D 1   1.00000     0.00000
 Structure written by MMmdl.
 47 48  0  0  0  0  0  0  0  0  1 V2000
  154.9140  141.1378  162.2045 C   0  0  0  0  0  0  0  0  0  0  0  0
  153.7316  141.9458  161.7529 C   0  0  0  0  0  0  0  0  0  0  0  0
  153.0493  142.9685  162.4699 C   0  0  0  0  0  0  0  0  0  0  0  0
  152.0452  143.4928  161.7873 N   0  0  0  0  0  0  0  0  0  0  0  0
  152.0438  142.8218  160.6131 N   0  0  0  0  0  0  0  0  0  0  0  0
  151.0722  143.1509  159.5737 C   0  0  1  0  0  0  0  0  0  0  0  0
  150.2278  144.3649  160.0080 C   0  0  0  0  0  0  0  0  0  0  0  0
  151.7673  143.3483  158.1992 C   0  0  2  0  0  0  0  0  0  0  0  0
  152.4533  144.7208  158.0582 C   0  0  0  0  0  0  0  0  0  0  0  0
  150.7569  143.2375  157.1495 N   0  0  0  0  0  0  0  0  0  0  0  0
  150.0281  141.9622  157.1893 C   0  0  0  0  0  0  0  0  0  0  0  0
  149.9660  141.2631  155.8207 C   0  0  0  0  0  0  0  0  0  0  0  0
  150.9953  140.7739  155.3503 O   0  0  0  0  0  0  0  0  0  0  0  0
  148.7799  141.2066  155.1690 N   0  0  0  0  0  0  0  0  0  0  0  0
  147.5236  141.6952  155.7422 C   0  0  0  0  0  0  0  0  0  0  0  0
  146.6015  140.4841  155.9689 C   0  0  0  0  0  0  0  0  0  0  0  0
  146.3988  139.7953  154.7360 O   0  0  0  0  0  0  0  0  0  0  0  0
  147.6095  139.3396  154.1321 C   0  0  1  0  0  0  0  0  0  0  0  0
  147.2522  138.6041  152.8361 C   0  0  0  0  0  0  0  0  0  0  0  0
  148.5306  140.5507  153.8821 C   0  0  0  0  0  0  0  0  0  0  0  0
  153.0561  141.8858  160.5670 C   0  0  0  0  0  0  0  0  0  0  0  0
  154.6646  140.5017  163.0538 H   0  0  0  0  0  0  0  0  0  0  0  0
  155.7429  141.7756  162.5116 H   0  0  0  0  0  0  0  0  0  0  0  0
  155.2869  140.4862  161.4137 H   0  0  0  0  0  0  0  0  0  0  0  0
  153.2553  143.3450  163.4609 H   0  0  0  0  0  0  0  0  0  0  0  0
  150.3928  142.3004  159.4953 H   0  0  0  0  0  0  0  0  0  0  0  0
  149.3759  144.5186  159.3465 H   0  0  0  0  0  0  0  0  0  0  0  0
  150.8169  145.2825  160.0117 H   0  0  0  0  0  0  0  0  0  0  0  0
  149.8277  144.2221  161.0124 H   0  0  0  0  0  0  0  0  0  0  0  0
  152.5170  142.5639  158.0805 H   0  0  0  0  0  0  0  0  0  0  0  0
  153.2732  144.8320  158.7672 H   0  0  0  0  0  0  0  0  0  0  0  0
  151.7506  145.5366  158.2312 H   0  0  0  0  0  0  0  0  0  0  0  0
  152.8814  144.8583  157.0652 H   0  0  0  0  0  0  0  0  0  0  0  0
  151.1798  143.4035  156.2474 H   0  0  0  0  0  0  0  0  0  0  0  0
  150.4988  141.2900  157.9069 H   0  0  0  0  0  0  0  0  0  0  0  0
  149.0085  142.1555  157.5262 H   0  0  0  0  0  0  0  0  0  0  0  0
  147.6629  142.2347  156.6798 H   0  0  0  0  0  0  0  0  0  0  0  0
  147.0581  142.4012  155.0528 H   0  0  0  0  0  0  0  0  0  0  0  0
  147.0287  139.8045  156.7080 H   0  0  0  0  0  0  0  0  0  0  0  0
  145.6355  140.8098  156.3548 H   0  0  0  0  0  0  0  0  0  0  0  0
  148.1013  138.6373  154.8077 H   0  0  0  0  0  0  0  0  0  0  0  0
  148.1465  138.2232  152.3421 H   0  0  0  0  0  0  0  0  0  0  0  0
  146.7375  139.2633  152.1368 H   0  0  0  0  0  0  0  0  0  0  0  0
  146.5981  137.7556  153.0378 H   0  0  0  0  0  0  0  0  0  0  0  0
  148.0453  141.2588  153.2086 H   0  0  0  0  0  0  0  0  0  0  0  0
  149.4370  140.2338  153.3683 H   0  0  0  0  0  0  0  0  0  0  0  0
  153.2137  141.2625  159.6992 H   0  0  0  0  0  0  0  0  0  0  0  0
  1  2  1  0  0  0  0
  1 22  1  0  0  0  0
  1 23  1  0  0  0  0
  1 24  1  0  0  0  0
  2 21  2  0  0  0  0
  2  3  1  0  0  0  0
  3  4  2  0  0  0  0
  3 25  1  0  0  0  0
  4  5  1  0  0  0  0
  5  6  1  0  0  0  0
  5 21  1  0  0  0  0
  6  7  1  0  0  0  0
  6  8  1  0  0  0  0
  6 26  1  0  0  0  0
  7 27  1  0  0  0  0
  7 28  1  0  0  0  0
  7 29  1  0  0  0  0
  8  9  1  0  0  0  0
  8 10  1  0  0  0  0
  8 30  1  0  0  0  0
  9 31  1  0  0  0  0
  9 32  1  0  0  0  0
  9 33  1  0  0  0  0
 10 11  1  0  0  0  0
 10 34  1  0  0  0  0
 11 12  1  0  0  0  0
 11 35  1  0  0  0  0
 11 36  1  0  0  0  0
 12 13  2  0  0  0  0
 12 14  1  0  0  0  0
 14 20  1  0  0  0  0
 14 15  1  0  0  0  0
 15 16  1  0  0  0  0
 15 37  1  0  0  0  0
 15 38  1  0  0  0  0
 16 17  1  0  0  0  0
 16 39  1  0  0  0  0
 16 40  1  0  0  0  0
 17 18  1  0  0  0  0
 18 19  1  0  0  0  0
 18 20  1  0  0  0  0
 18 41  1  0  0  0  0
 19 42  1  0  0  0  0
 19 43  1  0  0  0  0
 19 44  1  0  0  0  0
 20 45  1  0  0  0  0
 20 46  1  0  0  0  0
 21 47  1  0  0  0  0
M  END
> <s_m_source_file>
AV-unprocessed.smi

> <i_m_source_file_index>
3056

> <i_lp_mmshare_version>
43012

> <i_f3d_flags>
0

> <s_epik_input>
W0NIM11jMVtjSF1ubihbY0hdMSlbQ0BIXShbQ0gzXSlbQ0BIXShbQ0gzXSlbTkhdW0NIMl1DKD1PKU4yW0NIMl1bQ0gyXU9bQ0BASF0oW0NIM10pW0NIMl0y

> <s_epik_cmdline>
J2VwaWtfcHl0aG9uJywgJy1waCcsICc3LjAnLCAnLXRuJywgJzgnLCAnLW1hJywgJzIwMCcsICctbWV0YWxfYmluZGluZycsICctaW1hZScsICc8aW5maWxlLm1hZT4nLCAnLW9tYWUnLCAnPG91dGZpbGUubWFlPic=

> <r_lp_tautomer_probability>
1

> <r_epik_Ionization_Penalty>
0.667689

> <r_epik_Ionization_Penalty_Charging>
0

> <r_epik_Ionization_Penalty_Neutral>
0.667689

> <r_epik_State_Penalty>
0.684601

> <r_epik_Charging_Adjusted_Penalty>
0.684601

> <i_epik_Tot_Q>
0

> <i_epik_Tot_abs_Q>
0

> <r_epik_Metal_State_Penalty>
0.681448

> <b_epik_Metal_Only>
0

> <s_lp_Force_Field>
OPLS_2005

> <r_lp_Energy>
29.4013

> <b_lp_Chiralities_Consistent>
1

> <s_lp_Variant>
AV-unprocessed.smi:3056-10

> <Gold.Version>
5.8.1

> <Gold.Id.Protein>
6NUR|6NUR_protein|mol2

> <Gold.PLP.Fitness>
45.6047

> <Gold.PLP.PLP>
-44.6817

> <Gold.PLP.part.hbond>
-2.0000

> <Gold.PLP.part.metal>
0.0000

> <Gold.PLP.part.buried>
0.0136

> <Gold.PLP.part.nonpolar>
-42.2016

> <Gold.PLP.part.repulsive>
0.2972

> <Gold.PLP.ligand.clash>
0.0000

> <Gold.PLP.ligand.torsion>
0.8623

> <Gold.PLP.Chemscore.Hbond>
0.8480

> <Gold.PLP.Chemscore.CHOScore>
0.0000

> <Gold.PLP.Chemscore.Metal>
0.0000

> <Gold.Chemscore.Hbonds>
donor molecule, donor type, donor heavy atom, donor atom, acceptor molecule, acceptor atom, score
      P1  H  7989  7998       L1    13  0.82

> <Gold.PLP.Chemscore.Internal.Correction>
0.1037

> <Gold.Rescore>
     Score         DG    S(hbond)    S(metal)    S(lipo)     H(rot)  DE(clash)    DE(int)     intcor
     16.41     -17.36       0.85        0.00     114.09       1.68       0.36       0.59       ----

> <Gold.Chemscore.Fitness>
16.4139

> <Gold.Chemscore.DG>
-17.3629

> <Gold.Chemscore.ZeroCoef>
-5.4800

> <Gold.Chemscore.Hbond>
0.8485

> <Gold.Chemscore.Metal>
0.0000

> <Gold.Chemscore.Lipo>
114.0858

> <Gold.Chemscore.Internal_Hbond>
0.0000

> <Gold.Chemscore.DEClash>
0.3638

> <Gold.Chemscore.DEInternal>
0.5851

> <Gold.Chemscore.Rot>
1.6793

> <Gold.Chemscore.Internal.Correction>
   9.000000E+99

> <Gold.Chemscore.Hbonds>
donor molecule, donor type, donor heavy atom, donor atom, acceptor molecule, acceptor atom, score
      P1  H  7989  7998       L1    13  0.80

> <Gold.Chemscore.Hbond.Weighted>
-2.8339

> <Gold.Chemscore.Metal.Weighted>
-0.0000

> <Gold.Chemscore.Lipo.Weighted>
-13.3480

> <Gold.Chemscore.Internal_Hbond.Weighted>
0.0000

> <Gold.Chemscore.DEClash.Weighted>
0.3638

> <Gold.Chemscore.DEInternal.Weighted>
0.5851

> <Gold.Chemscore.Rot.Weighted>
4.2990

> <Gold.Chemscore.Internal.Correction.Weighted>
   9.000000E+99

> <Gold.Protein.RotatedTorsions>
[ 6907 6896 6895 6894 ] final -150.86 input  -60.11 | X-H torsion
[ 7974 7965 7964 7962 ] final -118.25 input  175.53 | X-H torsion
[ 8008 7997 7996 7995 ] final  -68.56 input   59.86 | X-H torsion
[ 10167 10162 10161 10158 ] final -124.44 input  -65.29 | X-H torsion
[ 10718 10713 10712 10709 ] final  125.24 input   66.30 | X-H torsion
[ 10763 10752 10751 10750 ] final -101.60 input  -60.55 | X-H torsion
[ 11005 11000 10999 10996 ] final -141.44 input  -57.11 | X-H torsion

> <Gold.Protein.ActiveResidues>
 VAL166  LYS551  ARG553  GLY616  TRP617  ASP618  TYR619  PRO620  LYS621  CYS622 
 ASP623  PHE694  ASN695  SER759  ASP760  ASP761  ALA762  ILE779  LEU786  VAL792 
 PHE793  MET794  SER795  GLU796  ALA797  LYS798  CYS799  TRP800  GLU811  SER814 

> <Gold.Protein.RotatedAtoms>
  151.2047  133.4590  159.2596 H   0  0  0  0  0  0  0  0  0  0  0  0  # atno 6907 bound_to 6896
  151.1035  134.9986  159.8470 H   0  0  0  0  0  0  0  0  0  0  0  0  # atno 6908 bound_to 6896
  152.5445  134.1971  159.8750 H   0  0  0  0  0  0  0  0  0  0  0  0  # atno 6909 bound_to 6896
  145.0759  140.8392  143.4067 H   0  0  0  0  0  0  0  0  0  0  0  0  # atno 7974 bound_to 7965
  154.4876  140.0870  156.7522 H   0  0  0  0  0  0  0  0  0  0  0  0  # atno 8008 bound_to 7997
  155.4310  140.3450  155.4262 H   0  0  0  0  0  0  0  0  0  0  0  0  # atno 8009 bound_to 7997
  156.1284  140.1494  156.9090 H   0  0  0  0  0  0  0  0  0  0  0  0  # atno 8010 bound_to 7997
  139.9927  143.5623  152.2335 H   0  0  0  0  0  0  0  0  0  0  0  0  # atno 10167 bound_to 10162
  157.5519  131.1093  150.8687 H   0  0  0  0  0  0  0  0  0  0  0  0  # atno 10718 bound_to 10713
  154.7670  135.4892  153.9574 H   0  0  0  0  0  0  0  0  0  0  0  0  # atno 10763 bound_to 10752
  153.1320  135.6755  153.9170 H   0  0  0  0  0  0  0  0  0  0  0  0  # atno 10764 bound_to 10752
  153.8871  135.3125  155.3425 H   0  0  0  0  0  0  0  0  0  0  0  0  # atno 10765 bound_to 10752
  140.8324  134.2500  157.4850 H   0  0  0  0  0  0  0  0  0  0  0  0  # atno 11005 bound_to 11000
  145.1236  139.2677  143.5576 LP  0  0  0  0  0  0  0  0  0  0  0  0  # atno 17320 bound_to 7965
  146.3530  140.0867  142.8615 LP  0  0  0  0  0  0  0  0  0  0  0  0  # atno 17321 bound_to 7965
  139.6328  144.7646  151.2500 LP  0  0  0  0  0  0  0  0  0  0  0  0  # atno 17342 bound_to 10162
  140.7448  143.6450  150.8300 LP  0  0  0  0  0  0  0  0  0  0  0  0  # atno 17343 bound_to 10162
  156.9209  130.5315  149.5279 LP  0  0  0  0  0  0  0  0  0  0  0  0  # atno 17370 bound_to 10713
  156.0584  130.5642  150.9141 LP  0  0  0  0  0  0  0  0  0  0  0  0  # atno 17371 bound_to 10713
  139.8704  134.9593  156.4328 LP  0  0  0  0  0  0  0  0  0  0  0  0  # atno 17394 bound_to 11000
  140.8983  133.7798  155.9651 LP  0  0  0  0  0  0  0  0  0  0  0  0  # atno 17395 bound_to 11000

$$$$
