AV-unprocessed.smi:3031|AV-procd|sdf|11546|dock8
  -GOLD-   2272016503D 1   1.00000     0.00000
 Structure written by MMmdl.
 47 48  0  0  0  0  0  0  0  0  2 V2000
  151.5395  142.2948  158.7837 C   0  0  0  0  0  0  0  0  0  0  0  0
  150.9826  141.4937  157.6426 C   0  0  0  0  0  0  0  0  0  0  0  0
  150.7053  140.0975  157.6075 C   0  0  0  0  0  0  0  0  0  0  0  0
  150.2149  139.6991  156.4452 N   0  0  0  0  0  0  0  0  0  0  0  0
  150.1648  140.8224  155.6979 N   0  0  0  0  0  0  0  0  0  0  0  0
  149.6660  140.7663  154.3352 C   0  0  0  0  0  0  0  0  0  0  0  0
  148.1267  140.6148  154.2594 C   0  0  1  0  0  0  0  0  0  0  0  0
  147.3874  141.9088  154.6425 C   0  0  0  0  0  0  0  0  0  0  0  0
  147.6858  140.1930  152.9258 N   0  0  0  0  0  0  0  0  0  0  0  0
  146.4856  139.3568  152.8908 C   0  0  0  0  0  0  0  0  0  0  0  0
  146.7471  138.0329  152.1532 C   0  0  2  0  0  0  0  0  0  0  0  0
  146.6287  138.2905  150.7686 O   0  0  0  0  0  0  0  0  0  0  0  0
  145.7334  136.9297  152.5259 C   0  0  0  0  0  0  0  0  0  0  0  0
  146.2229  135.5692  152.1866 N   0  3  0  0  0  0  0  0  0  0  0  0
  146.0561  134.5849  153.2849 C   0  0  0  0  0  0  0  0  0  0  0  0
  146.6248  133.2170  152.8707 C   0  0  0  0  0  0  0  0  0  0  0  0
  145.9852  132.7747  151.6799 O   0  0  0  0  0  0  0  0  0  0  0  0
  146.2100  133.6647  150.5941 C   0  0  0  0  0  0  0  0  0  0  0  0
  145.6295  135.0486  150.9319 C   0  0  0  0  0  0  0  0  0  0  0  0
  150.6180  141.9208  156.3971 C   0  0  0  0  0  0  0  0  0  0  0  0
  152.0744  141.6667  159.4963 H   0  0  0  0  0  0  0  0  0  0  0  0
  150.7516  142.8081  159.3351 H   0  0  0  0  0  0  0  0  0  0  0  0
  152.2394  143.0560  158.4387 H   0  0  0  0  0  0  0  0  0  0  0  0
  150.8448  139.3656  158.3893 H   0  0  0  0  0  0  0  0  0  0  0  0
  149.9822  141.6677  153.8073 H   0  0  0  0  0  0  0  0  0  0  0  0
  150.1635  139.9286  153.8469 H   0  0  0  0  0  0  0  0  0  0  0  0
  147.8299  139.8510  154.9797 H   0  0  0  0  0  0  0  0  0  0  0  0
  147.5840  142.1946  155.6760 H   0  0  0  0  0  0  0  0  0  0  0  0
  146.3080  141.7870  154.5468 H   0  0  0  0  0  0  0  0  0  0  0  0
  147.6863  142.7409  154.0043 H   0  0  0  0  0  0  0  0  0  0  0  0
  148.4482  139.7177  152.4537 H   0  0  0  0  0  0  0  0  0  0  0  0
  146.1330  139.1406  153.8992 H   0  0  0  0  0  0  0  0  0  0  0  0
  145.6841  139.8993  152.3870 H   0  0  0  0  0  0  0  0  0  0  0  0
  147.7700  137.7133  152.3514 H   0  0  0  0  0  0  0  0  0  0  0  0
  145.7111  138.3272  150.5448 H   0  0  0  0  0  0  0  0  0  0  0  0
  145.4949  136.9637  153.5900 H   0  0  0  0  0  0  0  0  0  0  0  0
  144.7969  137.1263  152.0012 H   0  0  0  0  0  0  0  0  0  0  0  0
  146.5628  134.9260  154.1867 H   0  0  0  0  0  0  0  0  0  0  0  0
  144.9978  134.4864  153.5318 H   0  0  0  0  0  0  0  0  0  0  0  0
  147.7041  133.2722  152.7202 H   0  0  0  0  0  0  0  0  0  0  0  0
  146.4504  132.4837  153.6582 H   0  0  0  0  0  0  0  0  0  0  0  0
  147.2773  133.7313  150.3765 H   0  0  0  0  0  0  0  0  0  0  0  0
  145.7281  133.2625  149.7028 H   0  0  0  0  0  0  0  0  0  0  0  0
  144.5454  134.9840  151.0386 H   0  0  0  0  0  0  0  0  0  0  0  0
  145.8313  135.7386  150.1117 H   0  0  0  0  0  0  0  0  0  0  0  0
  150.6450  142.9051  155.9535 H   0  0  0  0  0  0  0  0  0  0  0  0
  147.2147  135.6586  152.0152 H   0  0  0  0  0  0  0  0  0  0  0  0
  1  2  1  0  0  0  0
  1 21  1  0  0  0  0
  1 22  1  0  0  0  0
  1 23  1  0  0  0  0
  2 20  2  0  0  0  0
  2  3  1  0  0  0  0
  3  4  2  0  0  0  0
  3 24  1  0  0  0  0
  4  5  1  0  0  0  0
  5  6  1  0  0  0  0
  5 20  1  0  0  0  0
  6  7  1  0  0  0  0
  6 25  1  0  0  0  0
  6 26  1  0  0  0  0
  7  8  1  0  0  0  0
  7  9  1  0  0  0  0
  7 27  1  0  0  0  0
  8 28  1  0  0  0  0
  8 29  1  0  0  0  0
  8 30  1  0  0  0  0
  9 10  1  0  0  0  0
  9 31  1  0  0  0  0
 10 11  1  0  0  0  0
 10 32  1  0  0  0  0
 10 33  1  0  0  0  0
 11 12  1  0  0  0  0
 11 13  1  0  0  0  0
 11 34  1  0  0  0  0
 12 35  1  0  0  0  0
 13 14  1  0  0  0  0
 13 36  1  0  0  0  0
 13 37  1  0  0  0  0
 14 19  1  0  0  0  0
 14 15  1  0  0  0  0
 14 47  1  0  0  0  0
 15 16  1  0  0  0  0
 15 38  1  0  0  0  0
 15 39  1  0  0  0  0
 16 17  1  0  0  0  0
 16 40  1  0  0  0  0
 16 41  1  0  0  0  0
 17 18  1  0  0  0  0
 18 19  1  0  0  0  0
 18 42  1  0  0  0  0
 18 43  1  0  0  0  0
 19 44  1  0  0  0  0
 19 45  1  0  0  0  0
 20 46  1  0  0  0  0
M  CHG  1  14   1
M  END
> <s_m_source_file>
AV-unprocessed.smi

> <i_m_source_file_index>
3031

> <i_lp_mmshare_version>
43012

> <i_f3d_flags>
0

> <s_epik_input>
W0NIM11jMVtjSF1ubihbY0hdMSlbQ0gyXVtDQEhdKFtDSDNdKVtOSF1bQ0gyXVtDQEhdKFtPSF0pW0NIMl1OMltDSDJdW0NIMl1PW0NIMl1bQ0gyXTI=

> <s_epik_cmdline>
J2VwaWtfcHl0aG9uJywgJy1waCcsICc3LjAnLCAnLXRuJywgJzgnLCAnLW1hJywgJzIwMCcsICctbWV0YWxfYmluZGluZycsICctaW1hZScsICc8aW5maWxlLm1hZT4nLCAnLW9tYWUnLCAnPG91dGZpbGUubWFlPic=

> <r_epik_Ionization_Penalty>
0.467051

> <r_epik_Ionization_Penalty_Charging>
0.202493

> <r_epik_Ionization_Penalty_Neutral>
0.264558

> <r_epik_State_Penalty>
1.34287

> <r_epik_Charging_Adjusted_Penalty>
1.54537

> <i_epik_Tot_Q>
1

> <i_epik_Tot_abs_Q>
1

> <r_epik_Metal_State_Penalty>
1.34281

> <b_epik_Metal_Only>
0

> <s_lp_Force_Field>
OPLS_2005

> <r_lp_Energy>
23.2864

> <b_lp_Chiralities_Consistent>
1

> <s_lp_Variant>
AV-unprocessed.smi:3031-6

> <Gold.Version>
5.8.1

> <Gold.Id.Protein>
6NUR|6NUR_protein|mol2

> <Gold.PLP.Fitness>
47.7415

> <Gold.PLP.PLP>
-34.3143

> <Gold.PLP.part.hbond>
-4.1919

> <Gold.PLP.part.metal>
0.0000

> <Gold.PLP.part.buried>
0.8769

> <Gold.PLP.part.nonpolar>
-31.5082

> <Gold.PLP.part.repulsive>
0.1397

> <Gold.PLP.ligand.clash>
0.0000

> <Gold.PLP.ligand.torsion>
2.0399

> <Gold.PLP.Chemscore.Hbond>
4.7760

> <Gold.PLP.Chemscore.CHOScore>
0.9970

> <Gold.PLP.Chemscore.Metal>
0.0000

> <Gold.Chemscore.Hbonds>
donor molecule, donor type, donor heavy atom, donor atom, acceptor molecule, acceptor atom, score
      L1  H     9    31       P1  7957  0.77
      L1  H    12    35       P1 10171  1.00
      L1  H    14    47       P1  7948  2.00
      P1  H  7954  7966       L1    12  1.00
      L1  C    20    46       P1  8028  0.98

> <Gold.PLP.Chemscore.Internal.Correction>
0.1880

> <Gold.Rescore>
     Score         DG    S(hbond)    S(metal)    S(lipo)     H(rot)  DE(clash)    DE(int)     intcor
     17.77     -20.91       3.65        0.00      85.56       2.65       1.37       1.77       ----

> <Gold.Chemscore.Fitness>
17.7663

> <Gold.Chemscore.DG>
-20.9079

> <Gold.Chemscore.ZeroCoef>
-5.4800

> <Gold.Chemscore.Hbond>
3.6548

> <Gold.Chemscore.Metal>
0.0000

> <Gold.Chemscore.Lipo>
85.5573

> <Gold.Chemscore.Internal_Hbond>
0.0000

> <Gold.Chemscore.DEClash>
1.3738

> <Gold.Chemscore.DEInternal>
1.7678

> <Gold.Chemscore.Rot>
2.6521

> <Gold.Chemscore.Internal.Correction>
   9.000000E+99

> <Gold.Chemscore.Hbonds>
donor molecule, donor type, donor heavy atom, donor atom, acceptor molecule, acceptor atom, score
      L1  H     9    31       P1  7957  0.76
      L1  H    12    35       P1 10171  0.97
      L1  H    14    47       P1  7948  1.00
      P1  H  7954  7966       L1    12  0.78

> <Gold.Chemscore.Hbond.Weighted>
-12.2071

> <Gold.Chemscore.Metal.Weighted>
-0.0000

> <Gold.Chemscore.Lipo.Weighted>
-10.0102

> <Gold.Chemscore.Internal_Hbond.Weighted>
0.0000

> <Gold.Chemscore.DEClash.Weighted>
1.3738

> <Gold.Chemscore.DEInternal.Weighted>
1.7678

> <Gold.Chemscore.Rot.Weighted>
6.7894

> <Gold.Chemscore.Internal.Correction.Weighted>
   9.000000E+99

> <Gold.Protein.RotatedTorsions>
[ 6907 6896 6895 6894 ] final  -59.42 input  -60.11 | X-H torsion
[ 7974 7965 7964 7962 ] final  159.11 input  175.53 | X-H torsion
[ 8008 7997 7996 7995 ] final  128.22 input   59.86 | X-H torsion
[ 10167 10162 10161 10158 ] final  135.47 input  -65.29 | X-H torsion
[ 10718 10713 10712 10709 ] final   86.41 input   66.30 | X-H torsion
[ 10763 10752 10751 10750 ] final -177.59 input  -60.55 | X-H torsion
[ 11005 11000 10999 10996 ] final   -2.45 input  -57.11 | X-H torsion

> <Gold.Protein.ActiveResidues>
 VAL166  LYS551  ARG553  GLY616  TRP617  ASP618  TYR619  PRO620  LYS621  CYS622 
 ASP623  PHE694  ASN695  SER759  ASP760  ASP761  ALA762  ILE779  LEU786  VAL792 
 PHE793  MET794  SER795  GLU796  ALA797  LYS798  CYS799  TRP800  GLU811  SER814 

> <Gold.Protein.RotatedAtoms>
  150.7931  134.6970  159.6528 H   0  0  0  0  0  0  0  0  0  0  0  0  # atno 6907 bound_to 6896
  152.4040  134.6235  160.0067 H   0  0  0  0  0  0  0  0  0  0  0  0  # atno 6908 bound_to 6896
  151.6498  133.3284  159.3185 H   0  0  0  0  0  0  0  0  0  0  0  0  # atno 6909 bound_to 6896
  144.7808  139.7572  143.6260 H   0  0  0  0  0  0  0  0  0  0  0  0  # atno 7974 bound_to 7965
  156.2910  140.2650  156.2401 H   0  0  0  0  0  0  0  0  0  0  0  0  # atno 8008 bound_to 7997
  154.9986  140.0388  157.2369 H   0  0  0  0  0  0  0  0  0  0  0  0  # atno 8009 bound_to 7997
  154.7621  140.2762  155.6210 H   0  0  0  0  0  0  0  0  0  0  0  0  # atno 8010 bound_to 7997
  139.5216  144.6515  151.5288 H   0  0  0  0  0  0  0  0  0  0  0  0  # atno 10167 bound_to 10162
  157.6928  131.0214  150.2969 H   0  0  0  0  0  0  0  0  0  0  0  0  # atno 10718 bound_to 10713
  154.5582  135.2818  155.0944 H   0  0  0  0  0  0  0  0  0  0  0  0  # atno 10763 bound_to 10752
  154.2363  135.6365  153.5196 H   0  0  0  0  0  0  0  0  0  0  0  0  # atno 10764 bound_to 10752
  153.0021  135.5549  154.6168 H   0  0  0  0  0  0  0  0  0  0  0  0  # atno 10765 bound_to 10752
  140.6585  133.9341  155.8422 H   0  0  0  0  0  0  0  0  0  0  0  0  # atno 11005 bound_to 11000
  146.2015  139.5313  142.9740 LP  0  0  0  0  0  0  0  0  0  0  0  0  # atno 17320 bound_to 7965
  145.6056  141.0348  143.1995 LP  0  0  0  0  0  0  0  0  0  0  0  0  # atno 17321 bound_to 7965
  140.6322  143.9054  150.6615 LP  0  0  0  0  0  0  0  0  0  0  0  0  # atno 17342 bound_to 10162
  140.2362  143.3698  152.1525 LP  0  0  0  0  0  0  0  0  0  0  0  0  # atno 17343 bound_to 10162
  156.3491  130.3828  149.7344 LP  0  0  0  0  0  0  0  0  0  0  0  0  # atno 17370 bound_to 10713
  156.4828  130.8049  151.3062 LP  0  0  0  0  0  0  0  0  0  0  0  0  # atno 17371 bound_to 10713
  141.0483  134.0521  157.3816 LP  0  0  0  0  0  0  0  0  0  0  0  0  # atno 17394 bound_to 11000
  139.9021  135.0168  156.7318 LP  0  0  0  0  0  0  0  0  0  0  0  0  # atno 17395 bound_to 11000

$$$$
