AV-unprocessed.smi:866|AV-procd|sdf|3992|dock10
  -GOLD-   22720 1473D 1   1.00000     0.00000
 Structure written by MMmdl.
 34 34  0  0  0  0  0  0  0  0  2 V2000
  151.4584  145.6256  160.0018 C   0  0  0  0  0  0  0  0  0  0  0  0
  151.3889  144.1778  159.6097 C   0  0  0  0  0  0  0  0  0  0  0  0
  151.7885  143.0443  160.3732 C   0  0  0  0  0  0  0  0  0  0  0  0
  151.5957  141.9012  159.7355 N   0  0  0  0  0  0  0  0  0  0  0  0
  151.0707  142.2628  158.5462 N   0  0  0  0  0  0  0  0  0  0  0  0
  150.7282  141.2442  157.5727 C   0  0  0  0  0  0  0  0  0  0  0  0
  150.6165  141.8262  156.1564 C   0  0  0  0  0  0  0  0  0  0  0  0
  149.2022  141.9600  155.7517 N   0  3  0  0  0  0  0  0  0  0  0  0
  148.8411  141.2919  154.4780 C   0  0  2  0  0  0  0  0  0  0  0  0
  147.4695  141.7729  153.9742 C   0  0  0  0  0  0  0  0  0  0  0  0
  148.8496  139.7541  154.6451 C   0  0  0  0  0  0  0  0  0  0  0  0
  150.1946  139.0781  154.3419 C   0  0  0  0  0  0  0  0  0  0  0  0
  150.1791  138.0969  153.4370 N   0  0  0  0  0  0  0  0  0  0  0  0
  151.2295  139.4272  154.9073 O   0  0  0  0  0  0  0  0  0  0  0  0
  150.9311  143.6307  158.4445 C   0  0  0  0  0  0  0  0  0  0  0  0
  151.8323  145.7534  161.0179 H   0  0  0  0  0  0  0  0  0  0  0  0
  150.4787  146.1017  159.9585 H   0  0  0  0  0  0  0  0  0  0  0  0
  152.1202  146.1888  159.3435 H   0  0  0  0  0  0  0  0  0  0  0  0
  152.2113  143.0190  161.3668 H   0  0  0  0  0  0  0  0  0  0  0  0
  151.4888  140.4626  157.6076 H   0  0  0  0  0  0  0  0  0  0  0  0
  149.7854  140.7835  157.8700 H   0  0  0  0  0  0  0  0  0  0  0  0
  151.1072  142.7989  156.1201 H   0  0  0  0  0  0  0  0  0  0  0  0
  151.1305  141.1774  155.4457 H   0  0  0  0  0  0  0  0  0  0  0  0
  148.6465  141.5346  156.4805 H   0  0  0  0  0  0  0  0  0  0  0  0
  149.5890  141.5548  153.7277 H   0  0  0  0  0  0  0  0  0  0  0  0
  147.1963  141.2682  153.0469 H   0  0  0  0  0  0  0  0  0  0  0  0
  147.4650  142.8428  153.7665 H   0  0  0  0  0  0  0  0  0  0  0  0
  146.6846  141.5704  154.7038 H   0  0  0  0  0  0  0  0  0  0  0  0
  148.5466  139.4919  155.6600 H   0  0  0  0  0  0  0  0  0  0  0  0
  148.1062  139.3130  153.9796 H   0  0  0  0  0  0  0  0  0  0  0  0
  151.0315  137.6088  153.2024 H   0  0  0  0  0  0  0  0  0  0  0  0
  149.3090  137.8382  152.9937 H   0  0  0  0  0  0  0  0  0  0  0  0
  150.5235  144.0982  157.5604 H   0  0  0  0  0  0  0  0  0  0  0  0
  148.9595  142.9385  155.6931 H   0  0  0  0  0  0  0  0  0  0  0  0
  1  2  1  0  0  0  0
  1 16  1  0  0  0  0
  1 17  1  0  0  0  0
  1 18  1  0  0  0  0
  2 15  2  0  0  0  0
  2  3  1  0  0  0  0
  3  4  2  0  0  0  0
  3 19  1  0  0  0  0
  4  5  1  0  0  0  0
  5  6  1  0  0  0  0
  5 15  1  0  0  0  0
  6  7  1  0  0  0  0
  6 20  1  0  0  0  0
  6 21  1  0  0  0  0
  7  8  1  0  0  0  0
  7 22  1  0  0  0  0
  7 23  1  0  0  0  0
  8  9  1  0  0  0  0
  8 24  1  0  0  0  0
  8 34  1  0  0  0  0
  9 10  1  0  0  0  0
  9 11  1  0  0  0  0
  9 25  1  0  0  0  0
 10 26  1  0  0  0  0
 10 27  1  0  0  0  0
 10 28  1  0  0  0  0
 11 12  1  0  0  0  0
 11 29  1  0  0  0  0
 11 30  1  0  0  0  0
 12 13  1  0  0  0  0
 12 14  2  0  0  0  0
 13 31  1  0  0  0  0
 13 32  1  0  0  0  0
 15 33  1  0  0  0  0
M  CHG  1   8   1
M  END
> <s_m_source_file>
AV-unprocessed.smi

> <i_m_source_file_index>
866

> <i_lp_mmshare_version>
43012

> <i_f3d_flags>
0

> <s_epik_input>
W0NIM11jMVtjSF1ubihbY0hdMSlbQ0gyXVtDSDJdW05IXVtDQEhdKFtDSDNdKVtDSDJdQyg9TylbTkgyXQ==

> <s_epik_cmdline>
J2VwaWtfcHl0aG9uJywgJy1waCcsICc3LjAnLCAnLXRuJywgJzgnLCAnLW1hJywgJzIwMCcsICctbWV0YWxfYmluZGluZycsICctaW1hZScsICc8aW5maWxlLm1hZT4nLCAnLW9tYWUnLCAnPG91dGZpbGUubWFlPic=

> <r_lp_tautomer_probability>
1

> <r_epik_Ionization_Penalty>
0.0061413

> <r_epik_Ionization_Penalty_Charging>
0.00613574

> <r_epik_Ionization_Penalty_Neutral>
5.56035e-06

> <r_epik_State_Penalty>
0.00452343

> <r_epik_Charging_Adjusted_Penalty>
0.0106592

> <i_epik_Tot_Q>
1

> <i_epik_Tot_abs_Q>
1

> <r_epik_Metal_State_Penalty>
-0

> <b_epik_Metal_Only>
0

> <s_lp_Force_Field>
OPLS_2005

> <r_lp_Energy>
1.4749

> <b_lp_Chiralities_Consistent>
1

> <s_lp_Variant>
AV-unprocessed.smi:866-1

> <Gold.Version>
5.8.1

> <Gold.Id.Protein>
6NUR|6NUR_protein|mol2

> <Gold.PLP.Fitness>
48.7567

> <Gold.PLP.PLP>
-37.6450

> <Gold.PLP.part.hbond>
-5.0000

> <Gold.PLP.part.metal>
0.0000

> <Gold.PLP.part.buried>
-2.2758

> <Gold.PLP.part.nonpolar>
-29.9649

> <Gold.PLP.part.repulsive>
0.3224

> <Gold.PLP.ligand.clash>
0.0000

> <Gold.PLP.ligand.torsion>
1.4858

> <Gold.PLP.Chemscore.Hbond>
3.6816

> <Gold.PLP.Chemscore.CHOScore>
1.0000

> <Gold.PLP.Chemscore.Metal>
0.0000

> <Gold.Chemscore.Hbonds>
donor molecule, donor type, donor heavy atom, donor atom, acceptor molecule, acceptor atom, score
      L1  H     8    34       P1  8028  2.00
      L1  H    13    31       P1  7949  0.08
      L1  H    13    32       P1  7948  0.53
      P1  H  7989  7998       L1    14  0.61
      L1  C    15    33       P1  8028  0.93

> <Gold.PLP.Chemscore.Internal.Correction>
0.0386

> <Gold.Rescore>
     Score         DG    S(hbond)    S(metal)    S(lipo)     H(rot)  DE(clash)    DE(int)     intcor
     14.49     -16.35       2.68        0.00      76.95       2.77       0.37       1.49       ----

> <Gold.Chemscore.Fitness>
14.4850

> <Gold.Chemscore.DG>
-16.3467

> <Gold.Chemscore.ZeroCoef>
-5.4800

> <Gold.Chemscore.Hbond>
2.6843

> <Gold.Chemscore.Metal>
0.0000

> <Gold.Chemscore.Lipo>
76.9466

> <Gold.Chemscore.Internal_Hbond>
0.0000

> <Gold.Chemscore.DEClash>
0.3671

> <Gold.Chemscore.DEInternal>
1.4946

> <Gold.Chemscore.Rot>
2.7740

> <Gold.Chemscore.Internal.Correction>
   9.000000E+99

> <Gold.Chemscore.Hbonds>
donor molecule, donor type, donor heavy atom, donor atom, acceptor molecule, acceptor atom, score
      L1  H     8    34       P1  8028  1.00
      L1  H    13    31       P1  7949  0.03
      L1  H    13    32       P1  7948  0.49
      P1  H  7989  7998       L1    14  0.05

> <Gold.Chemscore.Hbond.Weighted>
-8.9654

> <Gold.Chemscore.Metal.Weighted>
-0.0000

> <Gold.Chemscore.Lipo.Weighted>
-9.0027

> <Gold.Chemscore.Internal_Hbond.Weighted>
0.0000

> <Gold.Chemscore.DEClash.Weighted>
0.3671

> <Gold.Chemscore.DEInternal.Weighted>
1.4946

> <Gold.Chemscore.Rot.Weighted>
7.1014

> <Gold.Chemscore.Internal.Correction.Weighted>
   9.000000E+99

> <Gold.Protein.RotatedTorsions>
[ 6907 6896 6895 6894 ] final -120.86 input  -60.11 | X-H torsion
[ 7974 7965 7964 7962 ] final -138.52 input  175.53 | X-H torsion
[ 8008 7997 7996 7995 ] final   -7.87 input   59.86 | X-H torsion
[ 10167 10162 10161 10158 ] final -136.99 input  -65.29 | X-H torsion
[ 10718 10713 10712 10709 ] final  -85.54 input   66.30 | X-H torsion
[ 10763 10752 10751 10750 ] final   52.52 input  -60.55 | X-H torsion
[ 11005 11000 10999 10996 ] final  150.79 input  -57.11 | X-H torsion

> <Gold.Protein.ActiveResidues>
 VAL166  LYS551  ARG553  GLY616  TRP617  ASP618  TYR619  PRO620  LYS621  CYS622 
 ASP623  PHE694  ASN695  SER759  ASP760  ASP761  ALA762  ILE779  LEU786  VAL792 
 PHE793  MET794  SER795  GLU796  ALA797  LYS798  CYS799  TRP800  GLU811  SER814 

> <Gold.Protein.RotatedAtoms>
  150.8431  133.7905  159.3053 H   0  0  0  0  0  0  0  0  0  0  0  0  # atno 6907 bound_to 6896
  151.5600  135.1064  159.9980 H   0  0  0  0  0  0  0  0  0  0  0  0  # atno 6908 bound_to 6896
  152.4490  133.7550  159.6771 H   0  0  0  0  0  0  0  0  0  0  0  0  # atno 6909 bound_to 6896
  144.8752  140.6426  143.5241 H   0  0  0  0  0  0  0  0  0  0  0  0  # atno 7974 bound_to 7965
  154.5796  140.2396  155.8073 H   0  0  0  0  0  0  0  0  0  0  0  0  # atno 8008 bound_to 7997
  156.2169  140.3009  155.9817 H   0  0  0  0  0  0  0  0  0  0  0  0  # atno 8009 bound_to 7997
  155.2565  140.0412  157.2983 H   0  0  0  0  0  0  0  0  0  0  0  0  # atno 8010 bound_to 7997
  139.8622  143.7062  152.2649 H   0  0  0  0  0  0  0  0  0  0  0  0  # atno 10167 bound_to 10162
  155.9996  130.4734  150.4578 H   0  0  0  0  0  0  0  0  0  0  0  0  # atno 10718 bound_to 10713
  152.9789  135.5809  154.4592 H   0  0  0  0  0  0  0  0  0  0  0  0  # atno 10763 bound_to 10752
  154.4171  135.2771  155.2002 H   0  0  0  0  0  0  0  0  0  0  0  0  # atno 10764 bound_to 10752
  154.3767  135.6156  153.5822 H   0  0  0  0  0  0  0  0  0  0  0  0  # atno 10765 bound_to 10752
  140.1162  134.8893  157.2007 H   0  0  0  0  0  0  0  0  0  0  0  0  # atno 11005 bound_to 11000
  145.4056  139.1589  143.4154 LP  0  0  0  0  0  0  0  0  0  0  0  0  # atno 17320 bound_to 7965
  146.2958  140.4156  142.8722 LP  0  0  0  0  0  0  0  0  0  0  0  0  # atno 17321 bound_to 7965
  139.7363  144.7570  151.0723 LP  0  0  0  0  0  0  0  0  0  0  0  0  # atno 17342 bound_to 10162
  140.7773  143.5027  150.9751 LP  0  0  0  0  0  0  0  0  0  0  0  0  # atno 17343 bound_to 10162
  157.2605  131.0566  151.2323 LP  0  0  0  0  0  0  0  0  0  0  0  0  # atno 17370 bound_to 10713
  157.3439  130.7047  149.6399 LP  0  0  0  0  0  0  0  0  0  0  0  0  # atno 17371 bound_to 10713
  140.3025  134.3115  155.7286 LP  0  0  0  0  0  0  0  0  0  0  0  0  # atno 17394 bound_to 11000
  141.2141  133.7601  156.9661 LP  0  0  0  0  0  0  0  0  0  0  0  0  # atno 17395 bound_to 11000

$$$$
