AV-unprocessed.smi:193|AV-procd|sdf|1512|dock6
  -GOLD-   2262019343D 1   1.00000     0.00000
 Structure written by MMmdl.
 61 65  0  0  0  0  0  0  0  0  1 V2000
  144.7870  132.0758  150.0089 C   0  0  0  0  0  0  0  0  0  0  0  0
  145.4474  131.7414  151.3558 C   0  0  2  0  0  0  0  0  0  0  0  0
  146.5433  132.7848  151.6636 C   0  0  0  0  0  0  0  0  0  0  0  0
  146.9447  132.8463  153.0711 N   0  0  0  0  0  0  0  0  0  0  0  0
  147.1467  134.0766  153.6151 C   0  0  0  0  0  0  0  0  0  0  0  0
  146.3556  135.1115  153.2236 N   0  0  0  0  0  0  0  0  0  0  0  0
  146.5366  136.3346  153.7288 C   0  0  0  0  0  0  0  0  0  0  0  0
  147.4344  136.7406  154.6273 N   0  0  0  0  0  0  0  0  0  0  0  0
  148.2273  135.7093  155.0349 C   0  0  0  0  0  0  0  0  0  0  0  0
  148.1543  134.3598  154.5844 C   0  0  0  0  0  0  0  0  0  0  0  0
  149.1207  133.5983  155.2328 N   0  0  0  0  0  0  0  0  0  0  0  0
  149.7357  134.4488  156.0076 C   0  0  0  0  0  0  0  0  0  0  0  0
  149.2556  135.7378  155.9614 N   0  0  0  0  0  0  0  0  0  0  0  0
  149.7507  136.8784  156.7187 C   0  0  0  0  0  0  0  0  0  0  0  0
  151.1819  137.3336  156.3218 C   0  0  0  0  0  0  0  0  0  0  0  0
  152.0822  136.3187  156.7264 O   0  0  0  0  0  0  0  0  0  0  0  0
  151.3278  137.4909  154.7952 C   0  0  0  0  0  0  0  0  0  0  0  0
  150.6392  138.7707  154.2873 C   0  0  0  0  0  0  0  0  0  0  0  0
  151.1549  139.9070  154.9722 O   0  0  0  0  0  0  0  0  0  0  0  0
  150.9206  139.8663  156.3756 C   0  0  0  0  0  0  0  0  0  0  0  0
  151.6340  138.6495  156.9911 C   0  0  0  0  0  0  0  0  0  0  0  0
  146.7786  131.6980  153.9624 C   0  0  0  0  0  0  0  0  0  0  0  0
  147.2873  130.3865  153.3482 C   0  0  0  0  0  0  0  0  0  0  0  0
  146.2168  129.7071  152.6247 N   0  0  0  0  0  0  0  0  0  0  0  0
  146.6060  128.3185  152.4300 C   0  0  2  0  0  0  0  0  0  0  0  0
  147.4317  127.6663  153.5159 C   0  0  0  0  0  0  0  0  0  0  0  0
  148.0736  128.0278  152.1973 C   0  0  1  0  0  0  0  0  0  0  0  0
  148.5023  126.9463  151.2297 C   0  0  0  0  0  0  0  0  0  0  0  0
  146.0111  130.3040  151.3060 C   0  0  0  0  0  0  0  0  0  0  0  0
  145.5114  132.0472  149.1944 H   0  0  0  0  0  0  0  0  0  0  0  0
  144.3415  133.0709  150.0238 H   0  0  0  0  0  0  0  0  0  0  0  0
  143.9915  131.3686  149.7724 H   0  0  0  0  0  0  0  0  0  0  0  0
  144.6609  131.8019  152.1099 H   0  0  0  0  0  0  0  0  0  0  0  0
  147.4245  132.6024  151.0478 H   0  0  0  0  0  0  0  0  0  0  0  0
  146.1613  133.7631  151.3692 H   0  0  0  0  0  0  0  0  0  0  0  0
  145.8666  137.0970  153.3590 H   0  0  0  0  0  0  0  0  0  0  0  0
  150.5586  134.1555  156.6434 H   0  0  0  0  0  0  0  0  0  0  0  0
  149.0470  137.7007  156.5811 H   0  0  0  0  0  0  0  0  0  0  0  0
  149.7041  136.6245  157.7773 H   0  0  0  0  0  0  0  0  0  0  0  0
  152.2066  136.3845  157.6608 H   0  0  0  0  0  0  0  0  0  0  0  0
  152.3854  137.5462  154.5318 H   0  0  0  0  0  0  0  0  0  0  0  0
  150.9305  136.6172  154.2772 H   0  0  0  0  0  0  0  0  0  0  0  0
  150.8255  138.8936  153.2203 H   0  0  0  0  0  0  0  0  0  0  0  0
  149.5570  138.7171  154.4110 H   0  0  0  0  0  0  0  0  0  0  0  0
  151.3025  140.7851  156.8207 H   0  0  0  0  0  0  0  0  0  0  0  0
  149.8490  139.8440  156.5738 H   0  0  0  0  0  0  0  0  0  0  0  0
  151.4797  138.6227  158.0696 H   0  0  0  0  0  0  0  0  0  0  0  0
  152.7078  138.7801  156.8477 H   0  0  0  0  0  0  0  0  0  0  0  0
  147.3642  131.8718  154.8660 H   0  0  0  0  0  0  0  0  0  0  0  0
  145.7396  131.6121  154.2835 H   0  0  0  0  0  0  0  0  0  0  0  0
  148.1753  130.5336  152.7309 H   0  0  0  0  0  0  0  0  0  0  0  0
  147.5904  129.7436  154.1758 H   0  0  0  0  0  0  0  0  0  0  0  0
  145.9115  127.6546  151.9173 H   0  0  0  0  0  0  0  0  0  0  0  0
  147.7003  128.2659  154.3836 H   0  0  0  0  0  0  0  0  0  0  0  0
  147.2452  126.6138  153.7192 H   0  0  0  0  0  0  0  0  0  0  0  0
  148.7449  128.8846  152.2164 H   0  0  0  0  0  0  0  0  0  0  0  0
  147.8028  126.1102  151.2475 H   0  0  0  0  0  0  0  0  0  0  0  0
  149.4928  126.5773  151.4960 H   0  0  0  0  0  0  0  0  0  0  0  0
  148.5404  127.3462  150.2163 H   0  0  0  0  0  0  0  0  0  0  0  0
  145.2938  129.6751  150.7768 H   0  0  0  0  0  0  0  0  0  0  0  0
  146.9323  130.2722  150.7220 H   0  0  0  0  0  0  0  0  0  0  0  0
  1  2  1  0  0  0  0
  1 30  1  0  0  0  0
  1 31  1  0  0  0  0
  1 32  1  0  0  0  0
  2 29  1  0  0  0  0
  2  3  1  0  0  0  0
  2 33  1  0  0  0  0
  3  4  1  0  0  0  0
  3 34  1  0  0  0  0
  3 35  1  0  0  0  0
  4  5  1  0  0  0  0
  4 22  1  0  0  0  0
  5 10  1  0  0  0  0
  5  6  2  0  0  0  0
  6  7  1  0  0  0  0
  7  8  2  0  0  0  0
  7 36  1  0  0  0  0
  8  9  1  0  0  0  0
  9 13  1  0  0  0  0
  9 10  2  0  0  0  0
 10 11  1  0  0  0  0
 11 12  2  0  0  0  0
 12 13  1  0  0  0  0
 12 37  1  0  0  0  0
 13 14  1  0  0  0  0
 14 15  1  0  0  0  0
 14 38  1  0  0  0  0
 14 39  1  0  0  0  0
 15 21  1  0  0  0  0
 15 16  1  0  0  0  0
 15 17  1  0  0  0  0
 16 40  1  0  0  0  0
 17 18  1  0  0  0  0
 17 41  1  0  0  0  0
 17 42  1  0  0  0  0
 18 19  1  0  0  0  0
 18 43  1  0  0  0  0
 18 44  1  0  0  0  0
 19 20  1  0  0  0  0
 20 21  1  0  0  0  0
 20 45  1  0  0  0  0
 20 46  1  0  0  0  0
 21 47  1  0  0  0  0
 21 48  1  0  0  0  0
 22 23  1  0  0  0  0
 22 49  1  0  0  0  0
 22 50  1  0  0  0  0
 23 24  1  0  0  0  0
 23 51  1  0  0  0  0
 23 52  1  0  0  0  0
 24 25  1  0  0  0  0
 24 29  1  0  0  0  0
 25 27  1  0  0  0  0
 25 26  1  0  0  0  0
 25 53  1  0  0  0  0
 26 27  1  0  0  0  0
 26 54  1  0  0  0  0
 26 55  1  0  0  0  0
 27 28  1  0  0  0  0
 27 56  1  0  0  0  0
 28 57  1  0  0  0  0
 28 58  1  0  0  0  0
 28 59  1  0  0  0  0
 29 60  1  0  0  0  0
 29 61  1  0  0  0  0
M  END
> <s_m_source_file>
AV-unprocessed.smi

> <i_m_source_file_index>
193

> <i_lp_mmshare_version>
43012

> <i_f3d_flags>
0

> <s_epik_input>
W0NIM11bQ0BASF0xW0NIMl1bQ0BIXTFOKFtDSDJdMilbQ0gyXVtDSDJdTihbQ0gyXVtDQEhdMltDSDNdKWMobltjSF1uMyljKGMzNCluW2NIXW40W0NIMl1DNShbT0hdKVtDSDJdW0NIMl1PW0NIMl1bQ0gyXTU=

> <s_epik_cmdline>
J2VwaWtfcHl0aG9uJywgJy1waCcsICc3LjAnLCAnLXRuJywgJzgnLCAnLW1hJywgJzIwMCcsICctbWV0YWxfYmluZGluZycsICctaW1hZScsICc8aW5maWxlLm1hZT4nLCAnLW9tYWUnLCAnPG91dGZpbGUubWFlPic=

> <r_lp_tautomer_probability>
1

> <r_epik_Ionization_Penalty>
1.45227

> <r_epik_Ionization_Penalty_Charging>
0

> <r_epik_Ionization_Penalty_Neutral>
1.45227

> <r_epik_State_Penalty>
2.02377

> <r_epik_Charging_Adjusted_Penalty>
2.02377

> <i_epik_Tot_Q>
0

> <i_epik_Tot_abs_Q>
0

> <r_epik_Metal_State_Penalty>
2.01937

> <b_epik_Metal_Only>
0

> <s_lp_Force_Field>
OPLS_2005

> <r_lp_Energy>
48.8748

> <b_lp_Chiralities_Consistent>
1

> <s_lp_Variant>
AV-unprocessed.smi:193-17

> <Gold.Version>
5.8.1

> <Gold.Id.Protein>
6NUR|6NUR_protein|mol2

> <Gold.PLP.Fitness>
49.3009

> <Gold.PLP.PLP>
-46.0176

> <Gold.PLP.part.hbond>
-1.8227

> <Gold.PLP.part.metal>
0.0000

> <Gold.PLP.part.buried>
-6.8449

> <Gold.PLP.part.nonpolar>
-37.9928

> <Gold.PLP.part.repulsive>
0.4610

> <Gold.PLP.ligand.clash>
1.1238

> <Gold.PLP.ligand.torsion>
1.4257

> <Gold.PLP.Chemscore.Hbond>
2.0000

> <Gold.PLP.Chemscore.CHOScore>
0.0000

> <Gold.PLP.Chemscore.Metal>
0.0000

> <Gold.Chemscore.Hbonds>
donor molecule, donor type, donor heavy atom, donor atom, acceptor molecule, acceptor atom, score
      P1  H  7989  7998       L1    19  0.85
      P1  H 10752 10765       L1    16  0.68

> <Gold.PLP.Chemscore.Internal.Correction>
1.2587

> <Gold.Rescore>
     Score         DG    S(hbond)    S(metal)    S(lipo)     H(rot)  DE(clash)    DE(int)     intcor
     19.23     -21.09       1.96        0.00     119.11       1.91       0.08       1.79       ----

> <Gold.Chemscore.Fitness>
19.2344

> <Gold.Chemscore.DG>
-21.0946

> <Gold.Chemscore.ZeroCoef>
-5.4800

> <Gold.Chemscore.Hbond>
1.9639

> <Gold.Chemscore.Metal>
0.0000

> <Gold.Chemscore.Lipo>
119.1145

> <Gold.Chemscore.Internal_Hbond>
0.0000

> <Gold.Chemscore.DEClash>
0.0750

> <Gold.Chemscore.DEInternal>
1.7851

> <Gold.Chemscore.Rot>
1.9068

> <Gold.Chemscore.Internal.Correction>
   9.000000E+99

> <Gold.Chemscore.Hbonds>
donor molecule, donor type, donor heavy atom, donor atom, acceptor molecule, acceptor atom, score
      P1  H  7989  7998       L1    19  0.15
      P1  H 10752 10765       L1    16  0.67

> <Gold.Chemscore.Hbond.Weighted>
-6.5596

> <Gold.Chemscore.Metal.Weighted>
-0.0000

> <Gold.Chemscore.Lipo.Weighted>
-13.9364

> <Gold.Chemscore.Internal_Hbond.Weighted>
0.0000

> <Gold.Chemscore.DEClash.Weighted>
0.0750

> <Gold.Chemscore.DEInternal.Weighted>
1.7851

> <Gold.Chemscore.Rot.Weighted>
4.8814

> <Gold.Chemscore.Internal.Correction.Weighted>
   9.000000E+99

> <Gold.Protein.RotatedTorsions>
[ 6907 6896 6895 6894 ] final   84.44 input  -60.11 | X-H torsion
[ 7974 7965 7964 7962 ] final -144.06 input  175.53 | X-H torsion
[ 8008 7997 7996 7995 ] final  -54.83 input   59.86 | X-H torsion
[ 10167 10162 10161 10158 ] final -162.64 input  -65.29 | X-H torsion
[ 10718 10713 10712 10709 ] final -117.92 input   66.30 | X-H torsion
[ 10763 10752 10751 10750 ] final -132.38 input  -60.55 | X-H torsion
[ 11005 11000 10999 10996 ] final  -97.06 input  -57.11 | X-H torsion

> <Gold.Protein.ActiveResidues>
 VAL166  LYS551  ARG553  GLY616  TRP617  ASP618  TYR619  PRO620  LYS621  CYS622 
 ASP623  PHE694  ASN695  SER759  ASP760  ASP761  ALA762  ILE779  LEU786  VAL792 
 PHE793  MET794  SER795  GLU796  ALA797  LYS798  CYS799  TRP800  GLU811  SER814 

> <Gold.Protein.RotatedAtoms>
  152.5352  134.2740  159.8981 H   0  0  0  0  0  0  0  0  0  0  0  0  # atno 6907 bound_to 6896
  151.2696  133.4255  159.2628 H   0  0  0  0  0  0  0  0  0  0  0  0  # atno 6908 bound_to 6896
  151.0380  134.9601  159.8203 H   0  0  0  0  0  0  0  0  0  0  0  0  # atno 6909 bound_to 6896
  144.8324  140.5757  143.5506 H   0  0  0  0  0  0  0  0  0  0  0  0  # atno 7974 bound_to 7965
  154.4175  140.1167  156.5379 H   0  0  0  0  0  0  0  0  0  0  0  0  # atno 8008 bound_to 7997
  155.6538  140.3496  155.4738 H   0  0  0  0  0  0  0  0  0  0  0  0  # atno 8009 bound_to 7997
  155.9770  140.1153  157.0750 H   0  0  0  0  0  0  0  0  0  0  0  0  # atno 8010 bound_to 7997
  139.6378  144.0317  152.2068 H   0  0  0  0  0  0  0  0  0  0  0  0  # atno 10167 bound_to 10162
  156.1069  130.6217  150.9226 H   0  0  0  0  0  0  0  0  0  0  0  0  # atno 10718 bound_to 10713
  154.8743  135.3799  154.4401 H   0  0  0  0  0  0  0  0  0  0  0  0  # atno 10763 bound_to 10752
  153.5086  135.7030  153.5798 H   0  0  0  0  0  0  0  0  0  0  0  0  # atno 10764 bound_to 10752
  153.4097  135.3928  155.2008 H   0  0  0  0  0  0  0  0  0  0  0  0  # atno 10765 bound_to 10752
  141.1391  133.8143  157.0655 H   0  0  0  0  0  0  0  0  0  0  0  0  # atno 11005 bound_to 11000
  145.4867  139.1491  143.3732 LP  0  0  0  0  0  0  0  0  0  0  0  0  # atno 17320 bound_to 7965
  146.2626  140.5004  142.8847 LP  0  0  0  0  0  0  0  0  0  0  0  0  # atno 17321 bound_to 7965
  139.9999  144.6301  150.7739 LP  0  0  0  0  0  0  0  0  0  0  0  0  # atno 17342 bound_to 10162
  140.7474  143.2906  151.3340 LP  0  0  0  0  0  0  0  0  0  0  0  0  # atno 17343 bound_to 10162
  157.6246  131.0927  150.8557 LP  0  0  0  0  0  0  0  0  0  0  0  0  # atno 17370 bound_to 10713
  156.8675  130.5134  149.5299 LP  0  0  0  0  0  0  0  0  0  0  0  0  # atno 17371 bound_to 10713
  140.0544  134.9788  157.1195 LP  0  0  0  0  0  0  0  0  0  0  0  0  # atno 17394 bound_to 11000
  140.3941  134.2153  155.7165 LP  0  0  0  0  0  0  0  0  0  0  0  0  # atno 17395 bound_to 11000

$$$$
