AV-unprocessed.smi:191|AV-procd|sdf|1494|dock1
  -GOLD-   2262019313D 1   1.00000     0.00000
 Structure written by MMmdl.
 46 48  0  0  0  0  0  0  0  0  1 V2000
  147.7116  136.3597  163.1206 C   0  0  0  0  0  0  0  0  0  0  0  0
  147.6874  135.0440  162.3275 C   0  0  0  0  0  0  0  0  0  0  0  0
  146.5920  134.9851  161.3550 N   0  0  0  0  0  0  0  0  0  0  0  0
  145.2341  134.7747  161.8589 C   0  0  0  0  0  0  0  0  0  0  0  0
  144.3363  136.0167  161.6971 C   0  0  1  0  0  0  0  0  0  0  0  0
  143.2571  136.0665  162.7850 C   0  0  0  0  0  0  0  0  0  0  0  0
  145.1002  137.2751  161.6626 C   0  0  0  0  0  0  0  0  0  0  0  0
  145.7012  138.2638  161.6389 N   0  0  0  0  0  0  0  0  0  0  0  0
  146.8080  135.3587  160.0581 C   0  0  0  0  0  0  0  0  0  0  0  0
  145.9437  134.9118  159.1064 N   0  0  0  0  0  0  0  0  0  0  0  0
  146.0980  135.2421  157.8225 C   0  0  0  0  0  0  0  0  0  0  0  0
  147.0368  136.0071  157.2680 N   0  0  0  0  0  0  0  0  0  0  0  0
  147.9084  136.4727  158.2062 C   0  0  0  0  0  0  0  0  0  0  0  0
  147.8719  136.2028  159.6069 C   0  0  0  0  0  0  0  0  0  0  0  0
  148.9236  136.8726  160.2251 N   0  0  0  0  0  0  0  0  0  0  0  0
  149.5413  137.4893  159.2568 C   0  0  0  0  0  0  0  0  0  0  0  0
  149.0033  137.2965  158.0067 N   0  0  0  0  0  0  0  0  0  0  0  0
  149.4805  137.8657  156.7550 C   0  0  0  0  0  0  0  0  0  0  0  0
  150.2707  136.8756  155.8791 C   0  0  0  0  0  0  0  0  0  0  0  0
  151.0206  137.6723  154.7924 C   0  0  0  0  0  0  0  0  0  0  0  0
  151.8773  136.8567  154.0178 O   0  0  0  0  0  0  0  0  0  0  0  0
  151.0965  135.8410  156.6575 C   0  0  0  0  0  0  0  0  0  0  0  0
  150.4965  134.7372  155.9439 O   0  0  0  0  0  0  0  0  0  0  0  0
  149.5060  135.6349  155.3954 C   0  0  0  0  0  0  0  0  0  0  0  0
  148.5374  136.3633  163.8321 H   0  0  0  0  0  0  0  0  0  0  0  0
  146.7913  136.5044  163.6863 H   0  0  0  0  0  0  0  0  0  0  0  0
  147.8389  137.2204  162.4642 H   0  0  0  0  0  0  0  0  0  0  0  0
  148.6466  134.8819  161.8346 H   0  0  0  0  0  0  0  0  0  0  0  0
  147.5823  134.2144  163.0259 H   0  0  0  0  0  0  0  0  0  0  0  0
  144.7928  133.9553  161.2918 H   0  0  0  0  0  0  0  0  0  0  0  0
  145.2277  134.4228  162.8880 H   0  0  0  0  0  0  0  0  0  0  0  0
  143.8302  135.9587  160.7337 H   0  0  0  0  0  0  0  0  0  0  0  0
  142.5974  136.9226  162.6405 H   0  0  0  0  0  0  0  0  0  0  0  0
  143.7010  136.1520  163.7774 H   0  0  0  0  0  0  0  0  0  0  0  0
  142.6406  135.1673  162.7693 H   0  0  0  0  0  0  0  0  0  0  0  0
  145.3633  134.8354  157.1433 H   0  0  0  0  0  0  0  0  0  0  0  0
  150.4091  138.1080  159.4329 H   0  0  0  0  0  0  0  0  0  0  0  0
  148.6254  138.2628  156.2070 H   0  0  0  0  0  0  0  0  0  0  0  0
  150.0962  138.7312  157.0034 H   0  0  0  0  0  0  0  0  0  0  0  0
  150.3237  138.1504  154.1042 H   0  0  0  0  0  0  0  0  0  0  0  0
  151.6212  138.4661  155.2377 H   0  0  0  0  0  0  0  0  0  0  0  0
  151.3752  136.4776  153.3126 H   0  0  0  0  0  0  0  0  0  0  0  0
  152.1735  135.9086  156.4993 H   0  0  0  0  0  0  0  0  0  0  0  0
  150.8678  135.8022  157.7236 H   0  0  0  0  0  0  0  0  0  0  0  0
  148.5348  135.4943  155.8707 H   0  0  0  0  0  0  0  0  0  0  0  0
  149.4221  135.5562  154.3109 H   0  0  0  0  0  0  0  0  0  0  0  0
  1  2  1  0  0  0  0
  1 25  1  0  0  0  0
  1 26  1  0  0  0  0
  1 27  1  0  0  0  0
  2  3  1  0  0  0  0
  2 28  1  0  0  0  0
  2 29  1  0  0  0  0
  3  4  1  0  0  0  0
  3  9  1  0  0  0  0
  4  5  1  0  0  0  0
  4 30  1  0  0  0  0
  4 31  1  0  0  0  0
  5  6  1  0  0  0  0
  5  7  1  0  0  0  0
  5 32  1  0  0  0  0
  6 33  1  0  0  0  0
  6 34  1  0  0  0  0
  6 35  1  0  0  0  0
  7  8  3  0  0  0  0
  9 14  1  0  0  0  0
  9 10  2  0  0  0  0
 10 11  1  0  0  0  0
 11 12  2  0  0  0  0
 11 36  1  0  0  0  0
 12 13  1  0  0  0  0
 13 17  1  0  0  0  0
 13 14  2  0  0  0  0
 14 15  1  0  0  0  0
 15 16  2  0  0  0  0
 16 17  1  0  0  0  0
 16 37  1  0  0  0  0
 17 18  1  0  0  0  0
 18 19  1  0  0  0  0
 18 38  1  0  0  0  0
 18 39  1  0  0  0  0
 19 24  1  0  0  0  0
 19 20  1  0  0  0  0
 19 22  1  0  0  0  0
 20 21  1  0  0  0  0
 20 40  1  0  0  0  0
 20 41  1  0  0  0  0
 21 42  1  0  0  0  0
 22 23  1  0  0  0  0
 22 43  1  0  0  0  0
 22 44  1  0  0  0  0
 23 24  1  0  0  0  0
 24 45  1  0  0  0  0
 24 46  1  0  0  0  0
M  END
> <s_m_source_file>
AV-unprocessed.smi

> <i_m_source_file_index>
191

> <i_lp_mmshare_version>
43012

> <i_f3d_flags>
0

> <s_epik_input>
TiNDW0NAQEhdKFtDSDNdKVtDSDJdTihbQ0gyXVtDSDNdKWMobltjSF1uMSljKGMxMiluW2NIXW4yW0NIMl1DMyhbQ0gyXVtPSF0pW0NIMl1PW0NIMl0z

> <s_epik_cmdline>
J2VwaWtfcHl0aG9uJywgJy1waCcsICc3LjAnLCAnLXRuJywgJzgnLCAnLW1hJywgJzIwMCcsICctbWV0YWxfYmluZGluZycsICctaW1hZScsICc8aW5maWxlLm1hZT4nLCAnLW9tYWUnLCAnPG91dGZpbGUubWFlPic=

> <r_lp_tautomer_probability>
1

> <r_epik_Ionization_Penalty>
0.000569684

> <r_epik_Ionization_Penalty_Charging>
0

> <r_epik_Ionization_Penalty_Neutral>
0.000569684

> <r_epik_State_Penalty>
0.000286009

> <r_epik_Charging_Adjusted_Penalty>
0.000286009

> <i_epik_Tot_Q>
0

> <i_epik_Tot_abs_Q>
0

> <r_epik_Metal_State_Penalty>
-0

> <b_epik_Metal_Only>
0

> <s_lp_Force_Field>
OPLS_2005

> <r_lp_Energy>
30.7711

> <b_lp_Chiralities_Consistent>
1

> <s_lp_Variant>
AV-unprocessed.smi:191-2

> <Gold.Version>
5.8.1

> <Gold.Id.Protein>
6NUR|6NUR_protein|mol2

> <Gold.PLP.Fitness>
40.4790

> <Gold.PLP.PLP>
-33.3388

> <Gold.PLP.part.hbond>
-4.0000

> <Gold.PLP.part.metal>
0.0000

> <Gold.PLP.part.buried>
-6.6846

> <Gold.PLP.part.nonpolar>
-22.5611

> <Gold.PLP.part.repulsive>
0.0351

> <Gold.PLP.ligand.clash>
0.0000

> <Gold.PLP.ligand.torsion>
1.5626

> <Gold.PLP.Chemscore.Hbond>
3.0616

> <Gold.PLP.Chemscore.CHOScore>
0.0000

> <Gold.PLP.Chemscore.Metal>
0.0000

> <Gold.Chemscore.Hbonds>
donor molecule, donor type, donor heavy atom, donor atom, acceptor molecule, acceptor atom, score
      L1  H    21    42       P1  7949  1.00
      P1  H  6931  6943       L1    15  0.46
      P1  H  6934  6947       L1     8  0.58
      P1  H 10752 10765       L1    21  1.00

> <Gold.PLP.Chemscore.Internal.Correction>
1.0807

> <Gold.Rescore>
     Score         DG    S(hbond)    S(metal)    S(lipo)     H(rot)  DE(clash)    DE(int)     intcor
      9.27     -12.91       2.60        0.00      57.42       3.11       0.02       3.63       ----

> <Gold.Chemscore.Fitness>
9.2721

> <Gold.Chemscore.DG>
-12.9147

> <Gold.Chemscore.ZeroCoef>
-5.4800

> <Gold.Chemscore.Hbond>
2.5957

> <Gold.Chemscore.Metal>
0.0000

> <Gold.Chemscore.Lipo>
57.4205

> <Gold.Chemscore.Internal_Hbond>
0.0000

> <Gold.Chemscore.DEClash>
0.0164

> <Gold.Chemscore.DEInternal>
3.6262

> <Gold.Chemscore.Rot>
3.1067

> <Gold.Chemscore.Internal.Correction>
   9.000000E+99

> <Gold.Chemscore.Hbonds>
donor molecule, donor type, donor heavy atom, donor atom, acceptor molecule, acceptor atom, score
      L1  H    21    42       P1  7949  0.71
      P1  H  6931  6943       L1    15  0.19
      P1  H  6934  6947       L1     8  0.58
      P1  H 10752 10765       L1    21  0.25

> <Gold.Chemscore.Hbond.Weighted>
-8.6697

> <Gold.Chemscore.Metal.Weighted>
-0.0000

> <Gold.Chemscore.Lipo.Weighted>
-6.7182

> <Gold.Chemscore.Internal_Hbond.Weighted>
0.0000

> <Gold.Chemscore.DEClash.Weighted>
0.0164

> <Gold.Chemscore.DEInternal.Weighted>
3.6262

> <Gold.Chemscore.Rot.Weighted>
7.9532

> <Gold.Chemscore.Internal.Correction.Weighted>
   9.000000E+99

> <Gold.Protein.RotatedTorsions>
[ 6907 6896 6895 6894 ] final   13.93 input  -60.11 | X-H torsion
[ 7974 7965 7964 7962 ] final  -78.61 input  175.53 | X-H torsion
[ 8008 7997 7996 7995 ] final  -23.88 input   59.86 | X-H torsion
[ 10167 10162 10161 10158 ] final   54.66 input  -65.29 | X-H torsion
[ 10718 10713 10712 10709 ] final   96.66 input   66.30 | X-H torsion
[ 10763 10752 10751 10750 ] final  161.31 input  -60.55 | X-H torsion
[ 11005 11000 10999 10996 ] final   95.17 input  -57.11 | X-H torsion

> <Gold.Protein.ActiveResidues>
 VAL166  LYS551  ARG553  GLY616  TRP617  ASP618  TYR619  PRO620  LYS621  CYS622 
 ASP623  PHE694  ASN695  SER759  ASP760  ASP761  ALA762  ILE779  LEU786  VAL792 
 PHE793  MET794  SER795  GLU796  ALA797  LYS798  CYS799  TRP800  GLU811  SER814 

> <Gold.Protein.RotatedAtoms>
  151.7942  135.0727  160.0391 H   0  0  0  0  0  0  0  0  0  0  0  0  # atno 6907 bound_to 6896
  152.3135  133.5773  159.5705 H   0  0  0  0  0  0  0  0  0  0  0  0  # atno 6908 bound_to 6896
  150.7332  134.0033  159.3687 H   0  0  0  0  0  0  0  0  0  0  0  0  # atno 6909 bound_to 6896
  145.5841  140.9442  143.1328 H   0  0  0  0  0  0  0  0  0  0  0  0  # atno 7974 bound_to 7965
  154.4560  140.1969  156.0378 H   0  0  0  0  0  0  0  0  0  0  0  0  # atno 8008 bound_to 7997
  156.0747  140.3280  155.7591 H   0  0  0  0  0  0  0  0  0  0  0  0  # atno 8009 bound_to 7997
  155.5207  140.0569  157.2898 H   0  0  0  0  0  0  0  0  0  0  0  0  # atno 8010 bound_to 7997
  140.2277  144.3720  150.6426 H   0  0  0  0  0  0  0  0  0  0  0  0  # atno 10167 bound_to 10162
  157.6924  131.0585  150.4526 H   0  0  0  0  0  0  0  0  0  0  0  0  # atno 10718 bound_to 10713
  154.2610  135.2768  155.2778 H   0  0  0  0  0  0  0  0  0  0  0  0  # atno 10763 bound_to 10752
  154.5384  135.5710  153.6821 H   0  0  0  0  0  0  0  0  0  0  0  0  # atno 10764 bound_to 10752
  152.9962  135.6245  154.2761 H   0  0  0  0  0  0  0  0  0  0  0  0  # atno 10765 bound_to 10752
  139.8791  134.8884  156.3971 H   0  0  0  0  0  0  0  0  0  0  0  0  # atno 11005 bound_to 11000
  144.7380  139.7529  143.7321 LP  0  0  0  0  0  0  0  0  0  0  0  0  # atno 17320 bound_to 7965
  146.1695  139.4839  142.9937 LP  0  0  0  0  0  0  0  0  0  0  0  0  # atno 17321 bound_to 7965
  140.6208  143.2176  151.6698 LP  0  0  0  0  0  0  0  0  0  0  0  0  # atno 17342 bound_to 10162
  139.5121  144.3487  152.0672 LP  0  0  0  0  0  0  0  0  0  0  0  0  # atno 17343 bound_to 10162
  156.4876  130.4088  149.6425 LP  0  0  0  0  0  0  0  0  0  0  0  0  # atno 17370 bound_to 10713
  156.3448  130.7401  151.2351 LP  0  0  0  0  0  0  0  0  0  0  0  0  # atno 17371 bound_to 10713
  140.9293  133.7591  156.0004 LP  0  0  0  0  0  0  0  0  0  0  0  0  # atno 17394 bound_to 11000
  140.8350  134.3134  157.5335 LP  0  0  0  0  0  0  0  0  0  0  0  0  # atno 17395 bound_to 11000

$$$$
