#       Name:                AV-unprocessed.smi:1639
#       Creating user name   scv26
#       Creation time:       Fri Mar 27 07:23:35 2020


#       File generated by GOLD software.
#

@<TRIPOS>MOLECULE
AV-unprocessed.smi:1639
    42    43     1
SMALL
NO_CHARGES


@<TRIPOS>ATOM
      1 ****        -3.1483   2.8895   2.8249 C.3            1 S1                 0.0000
      2 ****        -3.2965   2.2053   1.4591 C.3            1 S1                 0.0000
      3 ****        -2.6930   0.9184   1.4493 O.3            1 S1                 0.0000
      4 ****        -1.2713   0.9184   1.4122 C.3            1 S1                 0.0000
      5 ****        -0.7376   0.2427   2.6874 C.3            1 S1                 0.0000
      6 ****         0.7885   0.0815   2.6024 C.3            1 S1                 0.0000
      7 ****         1.1895  -0.6683   1.3200 C.3            1 S1                 0.0000
      8 ****         0.6297  -0.0145   0.1398 N.3            1 S1                 0.0000
      9 ****         1.0983  -0.5621  -1.0601 C.ar           1 S1                 0.0000
     10 ****         0.7777  -1.8676  -1.4903 C.ar           1 S1                 0.0000
     11 ****         1.3193  -2.2797  -2.7204 C.ar           1 S1                 0.0000
     12 ****         1.0456  -3.6563  -3.2884 C.3            1 S1                 0.0000
     13 ****         2.1078  -1.4660  -3.4517 N.ar           1 S1                 0.0000
     14 ****         2.3745  -0.2400  -2.9879 C.ar           1 S1                 0.0000
     15 ****         3.1785   0.5810  -3.7416 N.pl3          1 S1                 0.0000
     16 ****         1.8947   0.2244  -1.8249 N.pl3          1 S1                 1.0000
     17 ****        -0.8226   0.1400   0.1632 C.3            1 S1                 0.0000
     18 ****        -3.6709   3.8461   2.8354 H              1 S1                 0.0000
     19 ****        -2.1040   3.0831   3.0694 H              1 S1                 0.0000
     20 ****        -3.5692   2.2714   3.6182 H              1 S1                 0.0000
     21 ****        -4.3567   2.0746   1.2416 H              1 S1                 0.0000
     22 ****        -2.8922   2.8274   0.6591 H              1 S1                 0.0000
     23 ****        -0.8687   1.9317   1.3515 H              1 S1                 0.0000
     24 ****        -1.0066   0.8253   3.5688 H              1 S1                 0.0000
     25 ****        -1.2018  -0.7370   2.8074 H              1 S1                 0.0000
     26 ****         1.2608   1.0647   2.6140 H              1 S1                 0.0000
     27 ****         1.1587  -0.4511   3.4787 H              1 S1                 0.0000
     28 ****         2.2766  -0.7074   1.2387 H              1 S1                 0.0000
     29 ****         0.8351  -1.6989   1.3694 H              1 S1                 0.0000
     30 ****         0.1460  -2.5193  -0.9042 H              1 S1                 0.0000
     31 ****         0.3971  -4.2332  -2.6283 H              1 S1                 0.0000
     32 ****         1.9778  -4.2073  -3.4162 H              1 S1                 0.0000
     33 ****         0.5574  -3.5767  -4.2601 H              1 S1                 0.0000
     34 ****         3.5542   0.2590  -4.6219 H              1 S1                 0.0000
     35 ****         3.3976   1.5156  -3.4284 H              1 S1                 0.0000
     36 ****        -1.2937  -0.8438   0.1529 H              1 S1                 0.0000
     37 ****        -1.1516   0.6621  -0.7364 H              1 S1                 0.0000
     38 ****         2.1185   1.1664  -1.5038 H              1 S1                 0.0000
     39 ****        -3.0238   0.4274   0.6435 LP             1 S1                 0.0000
     40 ****        -2.9812   0.4349   2.2759 LP             1 S1                 0.0000
     41 ****         0.9820   0.9204   0.1823 LP             1 S1                 0.0000
     42 ****         2.4862  -1.7735  -4.3247 LP             1 S1                 0.0000
@<TRIPOS>BOND
    1    1    2 1     
    2    1   18 1     
    3    1   19 1     
    4    1   20 1     
    5    2    3 1     
    6    2   21 1     
    7    2   22 1     
    8    3    4 1     
    9    4   17 1     
   10    4    5 1     
   11    4   23 1     
   12    5    6 1     
   13    5   24 1     
   14    5   25 1     
   15    6    7 1     
   16    6   26 1     
   17    6   27 1     
   18    7    8 1     
   19    7   28 1     
   20    7   29 1     
   21    8    9 1     
   22    8   17 1     
   23    9   16 ar    
   24    9   10 ar    
   25   10   11 ar    
   26   10   30 1     
   27   11   12 1     
   28   11   13 ar    
   29   12   31 1     
   30   12   32 1     
   31   12   33 1     
   32   13   14 ar    
   33   14   15 1     
   34   14   16 ar    
   35   15   34 1     
   36   15   35 1     
   37   16   38 1     
   38   17   36 1     
   39   17   37 1     
   40    3   39 1     
   41    3   40 1     
   42    8   41 1     
   43   13   42 1     
@<TRIPOS>SUBSTRUCTURE
      1 S1             1
@<TRIPOS>SET
LONE_PAIRS      STATIC     ATOMS    <user>   **** ""
4 39 40 41 42
DONOR_HYDROGENS      STATIC     ATOMS    <user>   **** ""
3 34 35 38
ATOM$BLUE        STATIC     ATOMS    COLORGROUP SYSTEM
4 39 40 41 42
ATOM$RED        STATIC     ATOMS    COLORGROUP SYSTEM
3 34 35 38
