AV-unprocessed.smi:916|AV-procd|sdf|4161|dock1
  -GOLD-   22720 2 63D 1   1.00000     0.00000
 Structure written by MMmdl.
 43 44  0  0  0  0  0  0  0  0  1 V2000
  143.8226  132.7100  148.4821 C   0  0  0  0  0  0  0  0  0  0  0  0
  144.6087  132.2548  149.7167 C   0  0  0  0  0  0  0  0  0  0  0  0
  144.5862  133.2747  150.8144 C   0  0  0  0  0  0  0  0  0  0  0  0
  143.4787  133.7605  151.4660 C   0  0  0  0  0  0  0  0  0  0  0  0
  143.8987  134.9380  152.6810 S   0  0  0  0  0  0  0  0  0  0  0  0
  145.5875  134.7253  152.2476 C   0  0  0  0  0  0  0  0  0  0  0  0
  146.6261  135.4439  152.8955 N   0  0  0  0  0  0  0  0  0  0  0  0
  146.6156  135.9924  154.1231 C   0  0  0  0  0  0  0  0  0  0  0  0
  145.6757  135.9409  154.9172 O   0  0  0  0  0  0  0  0  0  0  0  0
  147.7731  136.6167  154.3850 N   0  0  0  0  0  0  0  0  0  0  0  0
  148.0944  137.3198  155.6235 C   0  0  0  0  0  0  0  0  0  0  0  0
  149.4032  138.1264  155.5061 C   0  0  1  0  0  0  0  0  0  0  0  0
  150.5542  137.3799  154.8575 C   0  0  0  0  0  0  0  0  0  0  0  0
  151.4805  138.5198  154.4496 C   0  0  0  0  0  0  0  0  0  0  0  0
  150.6261  139.6123  154.1286 O   0  0  0  0  0  0  0  0  0  0  0  0
  149.2990  139.3499  154.5819 C   0  0  2  0  0  0  0  0  0  0  0  0
  148.6582  140.6171  155.1942 C   0  0  0  0  0  0  0  0  0  0  0  0
  148.3254  141.6444  154.1007 C   0  0  0  0  0  0  0  0  0  0  0  0
  149.5123  141.2635  156.2999 C   0  0  0  0  0  0  0  0  0  0  0  0
  145.7841  133.8333  151.2704 N   0  0  0  0  0  0  0  0  0  0  0  0
  143.8522  131.9503  147.7008 H   0  0  0  0  0  0  0  0  0  0  0  0
  144.2367  133.6297  148.0675 H   0  0  0  0  0  0  0  0  0  0  0  0
  142.7766  132.8945  148.7287 H   0  0  0  0  0  0  0  0  0  0  0  0
  144.1959  131.3112  150.0753 H   0  0  0  0  0  0  0  0  0  0  0  0
  145.6386  132.0401  149.4288 H   0  0  0  0  0  0  0  0  0  0  0  0
  142.4442  133.4965  151.3051 H   0  0  0  0  0  0  0  0  0  0  0  0
  147.4742  135.5564  152.3599 H   0  0  0  0  0  0  0  0  0  0  0  0
  148.4884  136.6070  153.6725 H   0  0  0  0  0  0  0  0  0  0  0  0
  147.2693  137.9649  155.9307 H   0  0  0  0  0  0  0  0  0  0  0  0
  148.1971  136.5685  156.4065 H   0  0  0  0  0  0  0  0  0  0  0  0
  149.7241  138.4349  156.5006 H   0  0  0  0  0  0  0  0  0  0  0  0
  151.0353  136.6643  155.5247 H   0  0  0  0  0  0  0  0  0  0  0  0
  150.2109  136.8435  153.9717 H   0  0  0  0  0  0  0  0  0  0  0  0
  152.1153  138.8115  155.2873 H   0  0  0  0  0  0  0  0  0  0  0  0
  152.1245  138.2556  153.6107 H   0  0  0  0  0  0  0  0  0  0  0  0
  148.7271  139.0543  153.7005 H   0  0  0  0  0  0  0  0  0  0  0  0
  147.7102  140.3225  155.6453 H   0  0  0  0  0  0  0  0  0  0  0  0
  149.2277  141.9966  153.5997 H   0  0  0  0  0  0  0  0  0  0  0  0
  147.8167  142.5133  154.5191 H   0  0  0  0  0  0  0  0  0  0  0  0
  147.6698  141.2158  153.3421 H   0  0  0  0  0  0  0  0  0  0  0  0
  150.4946  141.5542  155.9264 H   0  0  0  0  0  0  0  0  0  0  0  0
  149.6610  140.5941  157.1462 H   0  0  0  0  0  0  0  0  0  0  0  0
  149.0302  142.1613  156.6876 H   0  0  0  0  0  0  0  0  0  0  0  0
  1  2  1  0  0  0  0
  1 21  1  0  0  0  0
  1 22  1  0  0  0  0
  1 23  1  0  0  0  0
  2  3  1  0  0  0  0
  2 24  1  0  0  0  0
  2 25  1  0  0  0  0
  3 20  1  0  0  0  0
  3  4  2  0  0  0  0
  4  5  1  0  0  0  0
  4 26  1  0  0  0  0
  5  6  1  0  0  0  0
  6  7  1  0  0  0  0
  6 20  2  0  0  0  0
  7  8  1  0  0  0  0
  7 27  1  0  0  0  0
  8  9  2  0  0  0  0
  8 10  1  0  0  0  0
 10 11  1  0  0  0  0
 10 28  1  0  0  0  0
 11 12  1  0  0  0  0
 11 29  1  0  0  0  0
 11 30  1  0  0  0  0
 12 16  1  0  0  0  0
 12 13  1  0  0  0  0
 12 31  1  0  0  0  0
 13 14  1  0  0  0  0
 13 32  1  0  0  0  0
 13 33  1  0  0  0  0
 14 15  1  0  0  0  0
 14 34  1  0  0  0  0
 14 35  1  0  0  0  0
 15 16  1  0  0  0  0
 16 17  1  0  0  0  0
 16 36  1  0  0  0  0
 17 18  1  0  0  0  0
 17 19  1  0  0  0  0
 17 37  1  0  0  0  0
 18 38  1  0  0  0  0
 18 39  1  0  0  0  0
 18 40  1  0  0  0  0
 19 41  1  0  0  0  0
 19 42  1  0  0  0  0
 19 43  1  0  0  0  0
M  END
> <s_m_source_file>
AV-unprocessed.smi

> <i_m_source_file_index>
916

> <i_lp_mmshare_version>
43012

> <i_f3d_flags>
0

> <s_epik_input>
W0NIM11bQ0gyXWMxW2NIXXNjKG4xKVtOSF1DKD1PKVtOSF1bQ0gyXVtDQEBIXTJbQ0gyXVtDSDJdT1tDQEhdMltDSF0oW0NIM10pW0NIM10=

> <s_epik_cmdline>
J2VwaWtfcHl0aG9uJywgJy1waCcsICc3LjAnLCAnLXRuJywgJzgnLCAnLW1hJywgJzIwMCcsICctbWV0YWxfYmluZGluZycsICctaW1hZScsICc8aW5maWxlLm1hZT4nLCAnLW9tYWUnLCAnPG91dGZpbGUubWFlPic=

> <r_lp_tautomer_probability>
0.999

> <r_epik_Ionization_Penalty>
0.000518907

> <r_epik_Ionization_Penalty_Charging>
0

> <r_epik_Ionization_Penalty_Neutral>
0.000518907

> <r_epik_State_Penalty>
0.000177984

> <r_epik_Charging_Adjusted_Penalty>
0.000177984

> <i_epik_Tot_Q>
0

> <i_epik_Tot_abs_Q>
0

> <r_epik_Metal_State_Penalty>
-0

> <b_epik_Metal_Only>
0

> <s_lp_Force_Field>
OPLS_2005

> <r_lp_Energy>
16.7847

> <b_lp_Chiralities_Consistent>
1

> <s_lp_Variant>
AV-unprocessed.smi:916-4

> <Gold.Version>
5.8.1

> <Gold.Id.Protein>
6NUR|6NUR_protein|mol2

> <Gold.PLP.Fitness>
44.4144

> <Gold.PLP.PLP>
-33.4517

> <Gold.PLP.part.hbond>
-3.0000

> <Gold.PLP.part.metal>
0.0000

> <Gold.PLP.part.buried>
-3.6384

> <Gold.PLP.part.nonpolar>
-26.1873

> <Gold.PLP.part.repulsive>
0.3790

> <Gold.PLP.ligand.clash>
0.0000

> <Gold.PLP.ligand.torsion>
0.3444

> <Gold.PLP.Chemscore.Hbond>
2.9760

> <Gold.PLP.Chemscore.CHOScore>
0.8841

> <Gold.PLP.Chemscore.Metal>
0.0000

> <Gold.Chemscore.Hbonds>
donor molecule, donor type, donor heavy atom, donor atom, acceptor molecule, acceptor atom, score
      L1  H     7    27       P1  7948  1.00
      L1  H    10    28       P1  7948  0.98
      P1  H  7989  7998       L1    15  1.00
      L1  C     4    26       P1 10186  0.92

> <Gold.PLP.Chemscore.Internal.Correction>
0.0712

> <Gold.Rescore>
     Score         DG    S(hbond)    S(metal)    S(lipo)     H(rot)  DE(clash)    DE(int)     intcor
     20.73     -21.20       2.93        0.00      84.09       1.52       0.12       0.35       ----

> <Gold.Chemscore.Fitness>
20.7251

> <Gold.Chemscore.DG>
-21.1992

> <Gold.Chemscore.ZeroCoef>
-5.4800

> <Gold.Chemscore.Hbond>
2.9288

> <Gold.Chemscore.Metal>
0.0000

> <Gold.Chemscore.Lipo>
84.0851

> <Gold.Chemscore.Internal_Hbond>
0.0000

> <Gold.Chemscore.DEClash>
0.1232

> <Gold.Chemscore.DEInternal>
0.3510

> <Gold.Chemscore.Rot>
1.5238

> <Gold.Chemscore.Internal.Correction>
   9.000000E+99

> <Gold.Chemscore.Hbonds>
donor molecule, donor type, donor heavy atom, donor atom, acceptor molecule, acceptor atom, score
      L1  H     7    27       P1  7948  0.99
      L1  H    10    28       P1  7948  0.92
      P1  H  7989  7998       L1    15  0.60

> <Gold.Chemscore.Hbond.Weighted>
-9.7821

> <Gold.Chemscore.Metal.Weighted>
-0.0000

> <Gold.Chemscore.Lipo.Weighted>
-9.8380

> <Gold.Chemscore.Internal_Hbond.Weighted>
0.0000

> <Gold.Chemscore.DEClash.Weighted>
0.1232

> <Gold.Chemscore.DEInternal.Weighted>
0.3510

> <Gold.Chemscore.Rot.Weighted>
3.9008

> <Gold.Chemscore.Internal.Correction.Weighted>
   9.000000E+99

> <Gold.Protein.RotatedTorsions>
[ 6907 6896 6895 6894 ] final  135.32 input  -60.11 | X-H torsion
[ 7974 7965 7964 7962 ] final  -23.54 input  175.53 | X-H torsion
[ 8008 7997 7996 7995 ] final    5.72 input   59.86 | X-H torsion
[ 10167 10162 10161 10158 ] final -155.42 input  -65.29 | X-H torsion
[ 10718 10713 10712 10709 ] final  -50.72 input   66.30 | X-H torsion
[ 10763 10752 10751 10750 ] final   81.77 input  -60.55 | X-H torsion
[ 11005 11000 10999 10996 ] final -157.40 input  -57.11 | X-H torsion

> <Gold.Protein.ActiveResidues>
 VAL166  LYS551  ARG553  GLY616  TRP617  ASP618  TYR619  PRO620  LYS621  CYS622 
 ASP623  PHE694  ASN695  SER759  ASP760  ASP761  ALA762  ILE779  LEU786  VAL792 
 PHE793  MET794  SER795  GLU796  ALA797  LYS798  CYS799  TRP800  GLU811  SER814 

> <Gold.Protein.RotatedAtoms>
  152.3017  133.5662  159.5622 H   0  0  0  0  0  0  0  0  0  0  0  0  # atno 6907 bound_to 6896
  150.7281  134.0281  159.3733 H   0  0  0  0  0  0  0  0  0  0  0  0  # atno 6908 bound_to 6896
  151.8180  135.0661  160.0472 H   0  0  0  0  0  0  0  0  0  0  0  0  # atno 6909 bound_to 6896
  146.1610  140.4629  142.8571 H   0  0  0  0  0  0  0  0  0  0  0  0  # atno 7974 bound_to 7965
  154.7319  140.2732  155.6449 H   0  0  0  0  0  0  0  0  0  0  0  0  # atno 8008 bound_to 7997
  156.2852  140.2714  156.1947 H   0  0  0  0  0  0  0  0  0  0  0  0  # atno 8009 bound_to 7997
  155.0371  140.0371  157.2485 H   0  0  0  0  0  0  0  0  0  0  0  0  # atno 8010 bound_to 7997
  139.6933  143.9384  152.2395 H   0  0  0  0  0  0  0  0  0  0  0  0  # atno 10167 bound_to 10162
  156.1775  130.4150  149.9556 H   0  0  0  0  0  0  0  0  0  0  0  0  # atno 10718 bound_to 10713
  153.1145  135.4753  154.9091 H   0  0  0  0  0  0  0  0  0  0  0  0  # atno 10763 bound_to 10752
  154.7514  135.3107  154.8552 H   0  0  0  0  0  0  0  0  0  0  0  0  # atno 10764 bound_to 10752
  153.9133  135.6863  153.4804 H   0  0  0  0  0  0  0  0  0  0  0  0  # atno 10765 bound_to 10752
  140.6650  134.4308  157.5233 H   0  0  0  0  0  0  0  0  0  0  0  0  # atno 11005 bound_to 11000
  144.8027  140.6243  143.6467 LP  0  0  0  0  0  0  0  0  0  0  0  0  # atno 17320 bound_to 7965
  145.4588  139.1515  143.3878 LP  0  0  0  0  0  0  0  0  0  0  0  0  # atno 17321 bound_to 7965
  139.9206  144.6802  150.8465 LP  0  0  0  0  0  0  0  0  0  0  0  0  # atno 17342 bound_to 10162
  140.7689  143.3377  151.2273 LP  0  0  0  0  0  0  0  0  0  0  0  0  # atno 17343 bound_to 10162
  156.7337  130.9053  151.3627 LP  0  0  0  0  0  0  0  0  0  0  0  0  # atno 17370 bound_to 10713
  157.6845  130.9172  150.0352 LP  0  0  0  0  0  0  0  0  0  0  0  0  # atno 17371 bound_to 10713
  139.9000  134.8578  156.1937 LP  0  0  0  0  0  0  0  0  0  0  0  0  # atno 17394 bound_to 11000
  141.0436  133.6925  156.1642 LP  0  0  0  0  0  0  0  0  0  0  0  0  # atno 17395 bound_to 11000

$$$$
