#       Name:                AV-unprocessed.smi:2774
#       Creating user name   scv26
#       Creation time:       Fri Mar 27 15:12:48 2020


#       File generated by GOLD software.
#

@<TRIPOS>MOLECULE
AV-unprocessed.smi:2774
    38    39     1
SMALL
NO_CHARGES


@<TRIPOS>ATOM
      1 ****        -2.6038  -0.5949   0.4562 O.3            1 S1                 0.0000
      2 ****        -1.9991   0.3593  -0.3948 C.3            1 S1                 0.0000
      3 ****        -0.4741   0.3020  -0.1977 C.3            1 S1                 0.0000
      4 ****         0.0701  -1.0195  -0.5798 N.4            1 S1                 1.0000
      5 ****         1.5400  -1.1563  -0.4774 C.3            1 S1                 0.0000
      6 ****         1.9825  -1.3361   0.9921 C.3            1 S1                 0.0000
      7 ****         3.5094  -1.4315   1.1484 C.3            1 S1                 0.0000
      8 ****         4.1072  -2.6244   0.3902 C.3            1 S1                 0.0000
      9 ****         3.8053  -2.4810  -1.3908 S.3            1 S1                 0.0000
     10 ****         1.9979  -2.3428  -1.3447 C.3            1 S1                 0.0000
     11 ****        -2.5344   1.7593  -0.1395 C.ar           1 S1                 0.0000
     12 ****        -2.6651   2.2636   1.1729 C.ar           1 S1                 0.0000
     13 ****        -3.1622   3.5708   1.3463 C.ar           1 S1                 0.0000
     14 ****        -3.5183   4.3704   0.3184 N.ar           1 S1                 0.0000
     15 ****        -3.3894   3.8845  -0.9346 C.ar           1 S1                 0.0000
     16 ****        -2.9036   2.5919  -1.2170 C.ar           1 S1                 0.0000
     17 ****        -3.5373  -0.5815   0.3056 H              1 S1                 0.0000
     18 ****        -2.2406   0.0793  -1.4212 H              1 S1                 0.0000
     19 ****         0.0013   1.0644  -0.8164 H              1 S1                 0.0000
     20 ****        -0.2234   0.5304   0.8383 H              1 S1                 0.0000
     21 ****        -0.3668  -1.7320  -0.0121 H              1 S1                 0.0000
     22 ****         1.9920  -0.2493  -0.8822 H              1 S1                 0.0000
     23 ****         1.6329  -0.5001   1.5974 H              1 S1                 0.0000
     24 ****         1.5171  -2.2292   1.4117 H              1 S1                 0.0000
     25 ****         3.9740  -0.5064   0.8049 H              1 S1                 0.0000
     26 ****         3.7565  -1.5204   2.2068 H              1 S1                 0.0000
     27 ****         5.1829  -2.6794   0.5590 H              1 S1                 0.0000
     28 ****         3.6785  -3.5601   0.7507 H              1 S1                 0.0000
     29 ****         1.5819  -3.2784  -0.9683 H              1 S1                 0.0000
     30 ****         1.6422  -2.2253  -2.3689 H              1 S1                 0.0000
     31 ****        -2.3915   1.6668   2.0308 H              1 S1                 0.0000
     32 ****        -3.2753   3.9855   2.3371 H              1 S1                 0.0000
     33 ****        -3.6808   4.5457  -1.7371 H              1 S1                 0.0000
     34 ****        -2.8193   2.2536  -2.2393 H              1 S1                 0.0000
     35 ****        -0.1863  -1.1794  -1.5435 H              1 S1                 0.0000
     36 ****        -2.4126  -0.3652   1.4105 LP             1 S1                 0.0000
     37 ****        -2.2423  -1.5050   0.2535 LP             1 S1                 0.0000
     38 ****        -3.8667   5.2937   0.4800 LP             1 S1                 0.0000
@<TRIPOS>BOND
    1    1    2 1     
    2    1   17 1     
    3    2    3 1     
    4    2   11 1     
    5    2   18 1     
    6    3    4 1     
    7    3   19 1     
    8    3   20 1     
    9    4    5 1     
   10    4   21 1     
   11    4   35 1     
   12    5   10 1     
   13    5    6 1     
   14    5   22 1     
   15    6    7 1     
   16    6   23 1     
   17    6   24 1     
   18    7    8 1     
   19    7   25 1     
   20    7   26 1     
   21    8    9 1     
   22    8   27 1     
   23    8   28 1     
   24    9   10 1     
   25   10   29 1     
   26   10   30 1     
   27   11   16 ar    
   28   11   12 ar    
   29   12   13 ar    
   30   12   31 1     
   31   13   14 ar    
   32   13   32 1     
   33   14   15 ar    
   34   15   16 ar    
   35   15   33 1     
   36   16   34 1     
   37    1   36 1     
   38    1   37 1     
   39   14   38 1     
@<TRIPOS>SUBSTRUCTURE
      1 S1             1
@<TRIPOS>SET
LONE_PAIRS      STATIC     ATOMS    <user>   **** ""
3 36 37 38
DONOR_HYDROGENS      STATIC     ATOMS    <user>   **** ""
3 17 21 35
ATOM$BLUE        STATIC     ATOMS    COLORGROUP SYSTEM
3 36 37 38
ATOM$RED        STATIC     ATOMS    COLORGROUP SYSTEM
3 17 21 35
