AV-unprocessed.smi:3129|AV-procd|sdf|11924|dock4
  -GOLD-   2272017303D 1   1.00000     0.00000
 Structure written by MMmdl.
 39 39  0  0  0  0  0  0  0  0  1 V2000
  150.9213  138.5461  154.4103 C   0  0  0  0  0  0  0  0  0  0  0  0
  149.4592  138.9965  154.2746 C   0  0  0  0  0  0  0  0  0  0  0  0
  149.3114  140.4726  154.6832 C   0  0  0  0  0  0  0  0  0  0  0  0
  148.5267  138.0584  155.0692 C   0  0  0  0  0  0  0  0  0  0  0  0
  148.3875  136.7481  154.4401 N   0  0  0  0  0  0  0  0  0  0  0  0
  147.7038  135.7075  154.9422 C   0  0  0  0  0  0  0  0  0  0  0  0
  147.1075  135.7446  156.0190 O   0  0  0  0  0  0  0  0  0  0  0  0
  147.7132  134.4146  154.1092 C   0  0  2  0  0  0  0  0  0  0  0  0
  149.1358  133.8392  154.0193 C   0  0  0  0  0  0  0  0  0  0  0  0
  147.1594  134.5880  152.7541 N   0  0  0  0  0  0  0  0  0  0  0  0
  145.7903  135.0905  152.7245 C   0  0  0  0  0  0  0  0  0  0  0  0
  145.3143  135.1924  151.2690 C   0  0  0  0  0  0  0  0  0  0  0  0
  145.2894  133.8925  150.6272 N   0  0  0  0  0  0  0  0  0  0  0  0
  144.2009  133.1924  150.1513 C   0  0  0  0  0  0  0  0  0  0  0  0
  144.6673  132.0156  149.6393 C   0  0  0  0  0  0  0  0  0  0  0  0
  146.0724  132.0878  149.8523 C   0  0  0  0  0  0  0  0  0  0  0  0
  146.4416  133.2116  150.4455 N   0  0  0  0  0  0  0  0  0  0  0  0
  151.2590  138.6034  155.4456 H   0  0  0  0  0  0  0  0  0  0  0  0
  151.5830  139.1705  153.8093 H   0  0  0  0  0  0  0  0  0  0  0  0
  151.0493  137.5164  154.0750 H   0  0  0  0  0  0  0  0  0  0  0  0
  149.1934  138.9187  153.2193 H   0  0  0  0  0  0  0  0  0  0  0  0
  149.5149  140.6106  155.7454 H   0  0  0  0  0  0  0  0  0  0  0  0
  148.3072  140.8468  154.4848 H   0  0  0  0  0  0  0  0  0  0  0  0
  150.0039  141.1049  154.1270 H   0  0  0  0  0  0  0  0  0  0  0  0
  148.9371  137.8940  156.0660 H   0  0  0  0  0  0  0  0  0  0  0  0
  147.5532  138.5283  155.2200 H   0  0  0  0  0  0  0  0  0  0  0  0
  148.8528  136.6202  153.5530 H   0  0  0  0  0  0  0  0  0  0  0  0
  147.0986  133.6754  154.6264 H   0  0  0  0  0  0  0  0  0  0  0  0
  149.5651  133.6868  155.0104 H   0  0  0  0  0  0  0  0  0  0  0  0
  149.8042  134.4993  153.4647 H   0  0  0  0  0  0  0  0  0  0  0  0
  149.1340  132.8729  153.5140 H   0  0  0  0  0  0  0  0  0  0  0  0
  147.7525  135.1733  152.1829 H   0  0  0  0  0  0  0  0  0  0  0  0
  145.1393  134.4178  153.2849 H   0  0  0  0  0  0  0  0  0  0  0  0
  145.7315  136.0734  153.1930 H   0  0  0  0  0  0  0  0  0  0  0  0
  144.3109  135.6183  151.2238 H   0  0  0  0  0  0  0  0  0  0  0  0
  145.9659  135.8539  150.6957 H   0  0  0  0  0  0  0  0  0  0  0  0
  143.1967  133.5848  150.2174 H   0  0  0  0  0  0  0  0  0  0  0  0
  144.0924  131.2235  149.1829 H   0  0  0  0  0  0  0  0  0  0  0  0
  146.8298  131.3616  149.5962 H   0  0  0  0  0  0  0  0  0  0  0  0
  1  2  1  0  0  0  0
  1 18  1  0  0  0  0
  1 19  1  0  0  0  0
  1 20  1  0  0  0  0
  2  3  1  0  0  0  0
  2  4  1  0  0  0  0
  2 21  1  0  0  0  0
  3 22  1  0  0  0  0
  3 23  1  0  0  0  0
  3 24  1  0  0  0  0
  4  5  1  0  0  0  0
  4 25  1  0  0  0  0
  4 26  1  0  0  0  0
  5  6  1  0  0  0  0
  5 27  1  0  0  0  0
  6  7  2  0  0  0  0
  6  8  1  0  0  0  0
  8  9  1  0  0  0  0
  8 10  1  0  0  0  0
  8 28  1  0  0  0  0
  9 29  1  0  0  0  0
  9 30  1  0  0  0  0
  9 31  1  0  0  0  0
 10 11  1  0  0  0  0
 10 32  1  0  0  0  0
 11 12  1  0  0  0  0
 11 33  1  0  0  0  0
 11 34  1  0  0  0  0
 12 13  1  0  0  0  0
 12 35  1  0  0  0  0
 12 36  1  0  0  0  0
 13 17  1  0  0  0  0
 13 14  1  0  0  0  0
 14 15  2  0  0  0  0
 14 37  1  0  0  0  0
 15 16  1  0  0  0  0
 15 38  1  0  0  0  0
 16 17  2  0  0  0  0
 16 39  1  0  0  0  0
M  END
> <s_m_source_file>
AV-unprocessed.smi

> <i_m_source_file_index>
3129

> <i_lp_mmshare_version>
43012

> <i_f3d_flags>
0

> <s_epik_input>
W0NIM11bQ0hdKFtDSDNdKVtDSDJdW05IXUMoPU8pW0NASF0oW0NIM10pW05IXVtDSDJdW0NIMl1uMVtjSF1bY0hdW2NIXW4x

> <s_epik_cmdline>
J2VwaWtfcHl0aG9uJywgJy1waCcsICc3LjAnLCAnLXRuJywgJzgnLCAnLW1hJywgJzIwMCcsICctbWV0YWxfYmluZGluZycsICctaW1hZScsICc8aW5maWxlLm1hZT4nLCAnLW9tYWUnLCAnPG91dGZpbGUubWFlPic=

> <r_lp_tautomer_probability>
1

> <r_epik_Ionization_Penalty>
0.724007

> <r_epik_Ionization_Penalty_Charging>
0

> <r_epik_Ionization_Penalty_Neutral>
0.724007

> <r_epik_State_Penalty>
0.74758

> <r_epik_Charging_Adjusted_Penalty>
0.74758

> <i_epik_Tot_Q>
0

> <i_epik_Tot_abs_Q>
0

> <r_epik_Metal_State_Penalty>
0.746851

> <b_epik_Metal_Only>
0

> <s_lp_Force_Field>
OPLS_2005

> <r_lp_Energy>
5.79034

> <b_lp_Chiralities_Consistent>
1

> <s_lp_Variant>
AV-unprocessed.smi:3129-3

> <Gold.Version>
5.8.1

> <Gold.Id.Protein>
6NUR|6NUR_protein|mol2

> <Gold.PLP.Fitness>
42.5575

> <Gold.PLP.PLP>
-30.6667

> <Gold.PLP.part.hbond>
-2.0000

> <Gold.PLP.part.metal>
0.0000

> <Gold.PLP.part.buried>
-2.9204

> <Gold.PLP.part.nonpolar>
-26.0534

> <Gold.PLP.part.repulsive>
0.2306

> <Gold.PLP.ligand.clash>
0.0000

> <Gold.PLP.ligand.torsion>
0.1607

> <Gold.PLP.Chemscore.Hbond>
2.0000

> <Gold.PLP.Chemscore.CHOScore>
2.0000

> <Gold.PLP.Chemscore.Metal>
0.0000

> <Gold.Chemscore.Hbonds>
donor molecule, donor type, donor heavy atom, donor atom, acceptor molecule, acceptor atom, score
      L1  H     5    27       P1  7948  1.00
      L1  H    10    32       P1  7948  1.00
      L1  C    14    37       P1 10186  1.00
      L1  C    16    39       P1 10747  1.00

> <Gold.PLP.Chemscore.Internal.Correction>
0.2122

> <Gold.Rescore>
     Score         DG    S(hbond)    S(metal)    S(lipo)     H(rot)  DE(clash)    DE(int)     intcor
     13.58     -15.29       1.98        0.00      74.00       2.13       0.03       1.67       ----

> <Gold.Chemscore.Fitness>
13.5845

> <Gold.Chemscore.DG>
-15.2868

> <Gold.Chemscore.ZeroCoef>
-5.4800

> <Gold.Chemscore.Hbond>
1.9800

> <Gold.Chemscore.Metal>
0.0000

> <Gold.Chemscore.Lipo>
73.9972

> <Gold.Chemscore.Internal_Hbond>
0.0000

> <Gold.Chemscore.DEClash>
0.0322

> <Gold.Chemscore.DEInternal>
1.6701

> <Gold.Chemscore.Rot>
2.1345

> <Gold.Chemscore.Internal.Correction>
   9.000000E+99

> <Gold.Chemscore.Hbonds>
donor molecule, donor type, donor heavy atom, donor atom, acceptor molecule, acceptor atom, score
      L1  H     5    27       P1  7948  0.99
      L1  H    10    32       P1  7948  0.93

> <Gold.Chemscore.Hbond.Weighted>
-6.6133

> <Gold.Chemscore.Metal.Weighted>
-0.0000

> <Gold.Chemscore.Lipo.Weighted>
-8.6577

> <Gold.Chemscore.Internal_Hbond.Weighted>
0.0000

> <Gold.Chemscore.DEClash.Weighted>
0.0322

> <Gold.Chemscore.DEInternal.Weighted>
1.6701

> <Gold.Chemscore.Rot.Weighted>
5.4642

> <Gold.Chemscore.Internal.Correction.Weighted>
   9.000000E+99

> <Gold.Protein.RotatedTorsions>
[ 6907 6896 6895 6894 ] final  -23.20 input  -60.11 | X-H torsion
[ 7974 7965 7964 7962 ] final   -1.51 input  175.53 | X-H torsion
[ 8008 7997 7996 7995 ] final  -12.04 input   59.86 | X-H torsion
[ 10167 10162 10161 10158 ] final  148.94 input  -65.29 | X-H torsion
[ 10718 10713 10712 10709 ] final  -63.84 input   66.30 | X-H torsion
[ 10763 10752 10751 10750 ] final -149.30 input  -60.55 | X-H torsion
[ 11005 11000 10999 10996 ] final  -39.45 input  -57.11 | X-H torsion

> <Gold.Protein.ActiveResidues>
 VAL166  LYS551  ARG553  GLY616  TRP617  ASP618  TYR619  PRO620  LYS621  CYS622 
 ASP623  PHE694  ASN695  SER759  ASP760  ASP761  ALA762  ILE779  LEU786  VAL792 
 PHE793  MET794  SER795  GLU796  ALA797  LYS798  CYS799  TRP800  GLU811  SER814 

> <Gold.Protein.RotatedAtoms>
  151.2075  135.0468  159.8897 H   0  0  0  0  0  0  0  0  0  0  0  0  # atno 6907 bound_to 6896
  152.5427  134.0782  159.8234 H   0  0  0  0  0  0  0  0  0  0  0  0  # atno 6908 bound_to 6896
  151.0930  133.5253  159.2646 H   0  0  0  0  0  0  0  0  0  0  0  0  # atno 6909 bound_to 6896
  146.2416  140.1431  142.8335 H   0  0  0  0  0  0  0  0  0  0  0  0  # atno 7974 bound_to 7965
  154.5412  140.2286  155.8639 H   0  0  0  0  0  0  0  0  0  0  0  0  # atno 8008 bound_to 7997
  156.1860  140.3089  155.9201 H   0  0  0  0  0  0  0  0  0  0  0  0  # atno 8009 bound_to 7997
  155.3255  140.0442  157.3031 H   0  0  0  0  0  0  0  0  0  0  0  0  # atno 8010 bound_to 7997
  139.4868  144.5640  151.7178 H   0  0  0  0  0  0  0  0  0  0  0  0  # atno 10167 bound_to 10162
  156.0766  130.4226  150.1335 H   0  0  0  0  0  0  0  0  0  0  0  0  # atno 10718 bound_to 10713
  154.8185  135.3312  154.7107 H   0  0  0  0  0  0  0  0  0  0  0  0  # atno 10763 bound_to 10752
  153.7744  135.6923  153.4904 H   0  0  0  0  0  0  0  0  0  0  0  0  # atno 10764 bound_to 10752
  153.2023  135.4512  155.0229 H   0  0  0  0  0  0  0  0  0  0  0  0  # atno 10765 bound_to 10752
  141.0102  133.6911  156.2188 H   0  0  0  0  0  0  0  0  0  0  0  0  # atno 11005 bound_to 11000
  145.0230  140.8809  143.5155 LP  0  0  0  0  0  0  0  0  0  0  0  0  # atno 17320 bound_to 7965
  145.1483  139.2530  143.5454 LP  0  0  0  0  0  0  0  0  0  0  0  0  # atno 17321 bound_to 7965
  140.5215  144.0871  150.6024 LP  0  0  0  0  0  0  0  0  0  0  0  0  # atno 17342 bound_to 10162
  140.3831  143.2792  152.0147 LP  0  0  0  0  0  0  0  0  0  0  0  0  # atno 17343 bound_to 10162
  156.9375  130.9734  151.3522 LP  0  0  0  0  0  0  0  0  0  0  0  0  # atno 17370 bound_to 10713
  157.5864  130.8412  149.8595 LP  0  0  0  0  0  0  0  0  0  0  0  0  # atno 17371 bound_to 10713
  140.6745  134.4832  157.5588 LP  0  0  0  0  0  0  0  0  0  0  0  0  # atno 17394 bound_to 11000
  139.9086  134.8395  156.1613 LP  0  0  0  0  0  0  0  0  0  0  0  0  # atno 17395 bound_to 11000

$$$$
