AV-unprocessed.smi:3237|AV-procd|sdf|12365|dock5
  -GOLD-   2272018223D 1   1.00000     0.00000
 Structure written by MMmdl.
 37 39  0  0  0  0  0  0  0  0  2 V2000
  151.8812  140.5226  156.3184 C   0  0  0  0  0  0  0  0  0  0  0  0
  151.5381  139.1495  155.8517 C   0  0  0  0  0  0  0  0  0  0  0  0
  150.5373  138.6588  155.0615 C   0  0  0  0  0  0  0  0  0  0  0  0
  150.8129  137.2605  155.0295 C   0  0  0  0  0  0  0  0  0  0  0  0
  150.0666  136.2718  154.3376 N   0  0  0  0  0  0  0  0  0  0  0  0
  149.7356  135.0362  154.7487 C   0  0  0  0  0  0  0  0  0  0  0  0
  150.0393  134.5377  155.8322 O   0  0  0  0  0  0  0  0  0  0  0  0
  149.0176  134.3902  153.8187 N   0  0  0  0  0  0  0  0  0  0  0  0
  148.5051  133.0320  153.9636 C   0  0  2  0  0  0  0  0  0  0  0  0
  149.5643  131.9839  154.2910 C   0  0  0  0  0  0  0  0  0  0  0  0
  148.8788  130.6784  153.8725 C   0  0  0  0  0  0  0  0  0  0  0  0
  147.9247  131.0249  152.7892 N   0  3  1  0  0  0  0  0  0  0  0  0
  146.5787  130.4413  152.9778 C   0  0  0  0  0  0  0  0  0  0  0  0
  146.2542  129.3398  151.9970 C   0  0  0  0  0  0  0  0  0  0  0  0
  145.6374  130.7113  151.8284 C   0  0  0  0  0  0  0  0  0  0  0  0
  147.9179  132.4988  152.6576 C   0  0  0  0  0  0  0  0  0  0  0  0
  151.8800  136.9356  155.7356 N   0  0  0  0  0  0  0  0  0  0  0  0
  152.3521  138.1417  156.2667 O   0  0  0  0  0  0  0  0  0  0  0  0
  151.2176  141.2634  155.8720 H   0  0  0  0  0  0  0  0  0  0  0  0
  152.9052  140.7789  156.0461 H   0  0  0  0  0  0  0  0  0  0  0  0
  151.7900  140.5958  157.4022 H   0  0  0  0  0  0  0  0  0  0  0  0
  149.7466  139.2239  154.5918 H   0  0  0  0  0  0  0  0  0  0  0  0
  149.7448  136.5422  153.4200 H   0  0  0  0  0  0  0  0  0  0  0  0
  148.8108  134.8718  152.9556 H   0  0  0  0  0  0  0  0  0  0  0  0
  147.7285  133.0133  154.7314 H   0  0  0  0  0  0  0  0  0  0  0  0
  150.4590  132.1461  153.6876 H   0  0  0  0  0  0  0  0  0  0  0  0
  149.8586  131.9879  155.3411 H   0  0  0  0  0  0  0  0  0  0  0  0
  149.5954  129.9279  153.5379 H   0  0  0  0  0  0  0  0  0  0  0  0
  148.3426  130.2619  154.7269 H   0  0  0  0  0  0  0  0  0  0  0  0
  146.2064  130.3995  154.0001 H   0  0  0  0  0  0  0  0  0  0  0  0
  147.0209  129.0421  151.2838 H   0  0  0  0  0  0  0  0  0  0  0  0
  145.6015  128.5390  152.3388 H   0  0  0  0  0  0  0  0  0  0  0  0
  144.5792  130.8140  152.0598 H   0  0  0  0  0  0  0  0  0  0  0  0
  145.9944  131.3244  151.0027 H   0  0  0  0  0  0  0  0  0  0  0  0
  146.9252  132.9022  152.4515 H   0  0  0  0  0  0  0  0  0  0  0  0
  148.5604  132.7621  151.8159 H   0  0  0  0  0  0  0  0  0  0  0  0
  148.2913  130.6534  151.9244 H   0  0  0  0  0  0  0  0  0  0  0  0
  1  2  1  0  0  0  0
  1 19  1  0  0  0  0
  1 20  1  0  0  0  0
  1 21  1  0  0  0  0
  2 18  1  0  0  0  0
  2  3  2  0  0  0  0
  3  4  1  0  0  0  0
  3 22  1  0  0  0  0
  4  5  1  0  0  0  0
  4 17  2  0  0  0  0
  5  6  1  0  0  0  0
  5 23  1  0  0  0  0
  6  7  2  0  0  0  0
  6  8  1  0  0  0  0
  8  9  1  0  0  0  0
  8 24  1  0  0  0  0
  9 16  1  0  0  0  0
  9 10  1  0  0  0  0
  9 25  1  0  0  0  0
 10 11  1  0  0  0  0
 10 26  1  0  0  0  0
 10 27  1  0  0  0  0
 11 12  1  0  0  0  0
 11 28  1  0  0  0  0
 11 29  1  0  0  0  0
 12 13  1  0  0  0  0
 12 16  1  0  0  0  0
 12 37  1  0  0  0  0
 13 15  1  0  0  0  0
 13 14  1  0  0  0  0
 13 30  1  0  0  0  0
 14 15  1  0  0  0  0
 14 31  1  0  0  0  0
 14 32  1  0  0  0  0
 15 33  1  0  0  0  0
 15 34  1  0  0  0  0
 16 35  1  0  0  0  0
 16 36  1  0  0  0  0
 17 18  1  0  0  0  0
M  CHG  1  12   1
M  END
> <s_m_source_file>
AV-unprocessed.smi

> <i_m_source_file_index>
3237

> <i_lp_mmshare_version>
43012

> <i_f3d_flags>
0

> <s_epik_input>
W0NIM11jMVtjSF1jKG5vMSlbTkhdQyg9TylbTkhdW0NAQEhdMltDSDJdW0NIMl1OKFtDSDJdMilbQ0hdM1tDSDJdW0NIMl0z

> <s_epik_cmdline>
J2VwaWtfcHl0aG9uJywgJy1waCcsICc3LjAnLCAnLXRuJywgJzgnLCAnLW1hJywgJzIwMCcsICctbWV0YWxfYmluZGluZycsICctaW1hZScsICc8aW5maWxlLm1hZT4nLCAnLW9tYWUnLCAnPG91dGZpbGUubWFlPic=

> <r_epik_Ionization_Penalty>
0.000720579

> <r_epik_Ionization_Penalty_Charging>
0.000680516

> <r_epik_Ionization_Penalty_Neutral>
4.00628e-05

> <r_epik_State_Penalty>
0.000432256

> <r_epik_Charging_Adjusted_Penalty>
0.00111277

> <i_epik_Tot_Q>
1

> <i_epik_Tot_abs_Q>
1

> <r_epik_Metal_State_Penalty>
0.0255091

> <b_epik_Metal_Only>
0

> <s_lp_Force_Field>
OPLS_2005

> <r_lp_Energy>
36.5214

> <b_lp_Chiralities_Consistent>
1

> <s_lp_Variant>
AV-unprocessed.smi:3237-3

> <Gold.Version>
5.8.1

> <Gold.Id.Protein>
6NUR|6NUR_protein|mol2

> <Gold.PLP.Fitness>
42.2128

> <Gold.PLP.PLP>
-31.1341

> <Gold.PLP.part.hbond>
-5.0000

> <Gold.PLP.part.metal>
0.0000

> <Gold.PLP.part.buried>
-0.6555

> <Gold.PLP.part.nonpolar>
-24.9412

> <Gold.PLP.part.repulsive>
0.1511

> <Gold.PLP.ligand.clash>
0.0000

> <Gold.PLP.ligand.torsion>
1.0808

> <Gold.PLP.Chemscore.Hbond>
3.9920

> <Gold.PLP.Chemscore.CHOScore>
0.0000

> <Gold.PLP.Chemscore.Metal>
0.0000

> <Gold.Chemscore.Hbonds>
donor molecule, donor type, donor heavy atom, donor atom, acceptor molecule, acceptor atom, score
      L1  H     5    23       P1  7948  1.00
      L1  H     8    24       P1  7948  0.90
      L1  H    12    37       P1 10747  1.00
      P1  H 10752 10764       L1    17  1.00

> <Gold.PLP.Chemscore.Internal.Correction>
1.2644

> <Gold.Rescore>
     Score         DG    S(hbond)    S(metal)    S(lipo)     H(rot)  DE(clash)    DE(int)     intcor
     18.34     -20.91       3.30        0.00      65.25       1.26       0.11       2.46       ----

> <Gold.Chemscore.Fitness>
18.3352

> <Gold.Chemscore.DG>
-20.9065

> <Gold.Chemscore.ZeroCoef>
-5.4800

> <Gold.Chemscore.Hbond>
3.2982

> <Gold.Chemscore.Metal>
0.0000

> <Gold.Chemscore.Lipo>
65.2500

> <Gold.Chemscore.Internal_Hbond>
0.0000

> <Gold.Chemscore.DEClash>
0.1117

> <Gold.Chemscore.DEInternal>
2.4596

> <Gold.Chemscore.Rot>
1.2593

> <Gold.Chemscore.Internal.Correction>
   9.000000E+99

> <Gold.Chemscore.Hbonds>
donor molecule, donor type, donor heavy atom, donor atom, acceptor molecule, acceptor atom, score
      L1  H     5    23       P1  7948  0.34
      L1  H     8    24       P1  7948  0.17
      L1  H    12    37       P1 10747  0.95
      P1  H 10752 10764       L1    17  0.64

> <Gold.Chemscore.Hbond.Weighted>
-11.0160

> <Gold.Chemscore.Metal.Weighted>
-0.0000

> <Gold.Chemscore.Lipo.Weighted>
-7.6343

> <Gold.Chemscore.Internal_Hbond.Weighted>
0.0000

> <Gold.Chemscore.DEClash.Weighted>
0.1117

> <Gold.Chemscore.DEInternal.Weighted>
2.4596

> <Gold.Chemscore.Rot.Weighted>
3.2237

> <Gold.Chemscore.Internal.Correction.Weighted>
   9.000000E+99

> <Gold.Protein.RotatedTorsions>
[ 6907 6896 6895 6894 ] final  -10.73 input  -60.11 | X-H torsion
[ 7974 7965 7964 7962 ] final  -99.68 input  175.53 | X-H torsion
[ 8008 7997 7996 7995 ] final  100.70 input   59.86 | X-H torsion
[ 10167 10162 10161 10158 ] final  153.00 input  -65.29 | X-H torsion
[ 10718 10713 10712 10709 ] final -140.09 input   66.30 | X-H torsion
[ 10763 10752 10751 10750 ] final  -53.66 input  -60.55 | X-H torsion
[ 11005 11000 10999 10996 ] final  155.25 input  -57.11 | X-H torsion

> <Gold.Protein.ActiveResidues>
 VAL166  LYS551  ARG553  GLY616  TRP617  ASP618  TYR619  PRO620  LYS621  CYS622 
 ASP623  PHE694  ASN695  SER759  ASP760  ASP761  ALA762  ILE779  LEU786  VAL792 
 PHE793  MET794  SER795  GLU796  ALA797  LYS798  CYS799  TRP800  GLU811  SER814 

> <Gold.Protein.RotatedAtoms>
  151.3974  135.0965  159.9544 H   0  0  0  0  0  0  0  0  0  0  0  0  # atno 6907 bound_to 6896
  152.5061  133.8921  159.7409 H   0  0  0  0  0  0  0  0  0  0  0  0  # atno 6908 bound_to 6896
  150.9388  133.6624  159.2823 H   0  0  0  0  0  0  0  0  0  0  0  0  # atno 6909 bound_to 6896
  145.3044  140.9385  143.2805 H   0  0  0  0  0  0  0  0  0  0  0  0  # atno 7974 bound_to 7965
  156.1228  140.3209  155.8233 H   0  0  0  0  0  0  0  0  0  0  0  0  # atno 8008 bound_to 7997
  155.4474  140.0530  157.3022 H   0  0  0  0  0  0  0  0  0  0  0  0  # atno 8009 bound_to 7997
  154.4840  140.2065  155.9711 H   0  0  0  0  0  0  0  0  0  0  0  0  # atno 8010 bound_to 7997
  139.4829  144.5310  151.7722 H   0  0  0  0  0  0  0  0  0  0  0  0  # atno 10167 bound_to 10162
  156.3183  130.7520  151.1612 H   0  0  0  0  0  0  0  0  0  0  0  0  # atno 10718 bound_to 10713
  154.1624  135.6472  153.4989 H   0  0  0  0  0  0  0  0  0  0  0  0  # atno 10763 bound_to 10752
  153.0107  135.5364  154.6697 H   0  0  0  0  0  0  0  0  0  0  0  0  # atno 10764 bound_to 10752
  154.6014  135.2944  155.0503 H   0  0  0  0  0  0  0  0  0  0  0  0  # atno 10765 bound_to 10752
  140.1564  134.8639  157.2520 H   0  0  0  0  0  0  0  0  0  0  0  0  # atno 11005 bound_to 11000
  144.9067  139.4580  143.6606 LP  0  0  0  0  0  0  0  0  0  0  0  0  # atno 17320 bound_to 7965
  146.3140  139.7852  142.8997 LP  0  0  0  0  0  0  0  0  0  0  0  0  # atno 17321 bound_to 7965
  140.4836  144.1413  150.5937 LP  0  0  0  0  0  0  0  0  0  0  0  0  # atno 17342 bound_to 10162
  140.4250  143.2594  151.9668 LP  0  0  0  0  0  0  0  0  0  0  0  0  # atno 17343 bound_to 10162
  157.7406  131.0514  150.5153 LP  0  0  0  0  0  0  0  0  0  0  0  0  # atno 17370 bound_to 10713
  156.5302  130.4183  149.6205 LP  0  0  0  0  0  0  0  0  0  0  0  0  # atno 17371 bound_to 10713
  140.2542  134.3647  155.7430 LP  0  0  0  0  0  0  0  0  0  0  0  0  # atno 17394 bound_to 11000
  141.2205  133.7333  156.8981 LP  0  0  0  0  0  0  0  0  0  0  0  0  # atno 17395 bound_to 11000

$$$$
