AV-unprocessed.smi:1686|AV-procd|sdf|6759|dock1
  -GOLD-   22720 7513D 1   1.00000     0.00000
 Structure written by MMmdl.
 41 43  0  0  0  0  0  0  0  0  1 V2000
  152.2399  141.1227  159.5169 C   0  0  0  0  0  0  0  0  0  0  0  0
  152.6667  139.7619  159.0456 C   0  0  0  0  0  0  0  0  0  0  0  0
  153.9576  139.4580  159.0033 N   0  0  0  0  0  0  0  0  0  0  0  0
  154.0379  138.1478  158.5172 O   0  0  0  0  0  0  0  0  0  0  0  0
  152.7711  137.7306  158.2904 C   0  0  0  0  0  0  0  0  0  0  0  0
  152.4134  136.1686  157.6674 Cl  0  0  0  0  0  0  0  0  0  0  0  0
  151.8457  138.6855  158.5990 C   0  0  0  0  0  0  0  0  0  0  0  0
  150.3435  138.6385  158.4897 C   0  0  0  0  0  0  0  0  0  0  0  0
  149.8377  137.3077  159.0431 C   0  0  0  0  0  0  0  0  0  0  0  0
  150.6276  136.5142  159.5539 O   0  0  0  0  0  0  0  0  0  0  0  0
  148.5177  137.0864  158.9437 N   0  0  0  0  0  0  0  0  0  0  0  0
  147.8128  135.9029  159.4283 C   0  0  1  0  0  0  0  0  0  0  0  0
  148.4293  134.6509  158.7827 C   0  0  0  0  0  0  0  0  0  0  0  0
  147.8733  135.8525  160.9727 C   0  0  2  0  0  0  0  0  0  0  0  0
  147.5825  134.4645  161.5870 C   0  0  0  0  0  0  0  0  0  0  0  0
  146.5221  134.7752  162.6602 C   0  0  2  0  0  0  0  0  0  0  0  0
  145.1781  135.0699  161.9688 C   0  0  0  0  0  0  0  0  0  0  0  0
  145.4143  136.4599  161.3511 C   0  0  0  0  0  0  0  0  0  0  0  0
  146.8772  136.7619  161.7371 C   0  0  1  0  0  0  0  0  0  0  0  0
  146.9421  136.1607  163.1374 C   0  0  0  0  0  0  0  0  0  0  0  0
  151.8933  141.7311  158.6816 H   0  0  0  0  0  0  0  0  0  0  0  0
  153.0573  141.6580  160.0013 H   0  0  0  0  0  0  0  0  0  0  0  0
  151.4229  141.0496  160.2349 H   0  0  0  0  0  0  0  0  0  0  0  0
  149.8737  139.4583  159.0349 H   0  0  0  0  0  0  0  0  0  0  0  0
  150.0171  138.7402  157.4541 H   0  0  0  0  0  0  0  0  0  0  0  0
  147.9531  137.8013  158.5079 H   0  0  0  0  0  0  0  0  0  0  0  0
  146.7663  135.9489  159.1236 H   0  0  0  0  0  0  0  0  0  0  0  0
  147.9127  133.7446  159.0985 H   0  0  0  0  0  0  0  0  0  0  0  0
  149.4812  134.5434  159.0488 H   0  0  0  0  0  0  0  0  0  0  0  0
  148.3652  134.6990  157.6952 H   0  0  0  0  0  0  0  0  0  0  0  0
  148.8788  136.1520  161.2748 H   0  0  0  0  0  0  0  0  0  0  0  0
  147.2157  133.7408  160.8580 H   0  0  0  0  0  0  0  0  0  0  0  0
  148.4856  134.0500  162.0366 H   0  0  0  0  0  0  0  0  0  0  0  0
  146.4546  134.0172  163.4412 H   0  0  0  0  0  0  0  0  0  0  0  0
  144.9243  134.3194  161.2192 H   0  0  0  0  0  0  0  0  0  0  0  0
  144.3644  135.1063  162.6941 H   0  0  0  0  0  0  0  0  0  0  0  0
  145.2346  136.4827  160.2768 H   0  0  0  0  0  0  0  0  0  0  0  0
  144.7442  137.1913  161.8045 H   0  0  0  0  0  0  0  0  0  0  0  0
  147.1289  137.8220  161.6909 H   0  0  0  0  0  0  0  0  0  0  0  0
  146.2345  136.6101  163.8367 H   0  0  0  0  0  0  0  0  0  0  0  0
  147.9414  136.1836  163.5760 H   0  0  0  0  0  0  0  0  0  0  0  0
  1  2  1  0  0  0  0
  1 21  1  0  0  0  0
  1 22  1  0  0  0  0
  1 23  1  0  0  0  0
  2  7  1  0  0  0  0
  2  3  2  0  0  0  0
  3  4  1  0  0  0  0
  4  5  1  0  0  0  0
  5  6  1  0  0  0  0
  5  7  2  0  0  0  0
  7  8  1  0  0  0  0
  8  9  1  0  0  0  0
  8 24  1  0  0  0  0
  8 25  1  0  0  0  0
  9 10  2  0  0  0  0
  9 11  1  0  0  0  0
 11 12  1  0  0  0  0
 11 26  1  0  0  0  0
 12 13  1  0  0  0  0
 12 14  1  0  0  0  0
 12 27  1  0  0  0  0
 13 28  1  0  0  0  0
 13 29  1  0  0  0  0
 13 30  1  0  0  0  0
 14 19  1  0  0  0  0
 14 15  1  0  0  0  0
 14 31  1  0  0  0  0
 15 16  1  0  0  0  0
 15 32  1  0  0  0  0
 15 33  1  0  0  0  0
 16 20  1  0  0  0  0
 16 17  1  0  0  0  0
 16 34  1  0  0  0  0
 17 18  1  0  0  0  0
 17 35  1  0  0  0  0
 17 36  1  0  0  0  0
 18 19  1  0  0  0  0
 18 37  1  0  0  0  0
 18 38  1  0  0  0  0
 19 20  1  0  0  0  0
 19 39  1  0  0  0  0
 20 40  1  0  0  0  0
 20 41  1  0  0  0  0
M  END
> <s_m_source_file>
AV-unprocessed.smi

> <i_m_source_file_index>
1686

> <i_lp_mmshare_version>
43012

> <i_f3d_flags>
0

> <s_epik_input>
W0NIM11jMW5vYyhDbCljMVtDSDJdQyg9TylbTkhdW0NASF0oW0NIM10pW0NASF0oW0NIMl1bQ0BIXTIzKVtDQEhdKFtDSDJdMylbQ0gyXVtDSDJdMg==

> <s_epik_cmdline>
J2VwaWtfcHl0aG9uJywgJy1waCcsICc3LjAnLCAnLXRuJywgJzgnLCAnLW1hJywgJzIwMCcsICctbWV0YWxfYmluZGluZycsICctaW1hZScsICc8aW5maWxlLm1hZT4nLCAnLW9tYWUnLCAnPG91dGZpbGUubWFlPic=

> <r_lp_tautomer_probability>
1

> <r_epik_Ionization_Penalty>
2.01576e-08

> <r_epik_Ionization_Penalty_Charging>
0

> <r_epik_Ionization_Penalty_Neutral>
2.01576e-08

> <r_epik_State_Penalty>
-0

> <r_epik_Charging_Adjusted_Penalty>
0

> <i_epik_Tot_Q>
0

> <i_epik_Tot_abs_Q>
0

> <r_epik_Metal_State_Penalty>
-0

> <b_epik_Metal_Only>
0

> <s_lp_Force_Field>
OPLS_2005

> <r_lp_Energy>
45.5395

> <b_lp_Chiralities_Consistent>
1

> <s_lp_Variant>
AV-unprocessed.smi:1686-2

> <Gold.Version>
5.8.1

> <Gold.Id.Protein>
6NUR|6NUR_protein|mol2

> <Gold.PLP.Fitness>
38.1609

> <Gold.PLP.PLP>
-33.3544

> <Gold.PLP.part.hbond>
-2.7965

> <Gold.PLP.part.metal>
0.0000

> <Gold.PLP.part.buried>
-5.0218

> <Gold.PLP.part.nonpolar>
-26.4924

> <Gold.PLP.part.repulsive>
0.1708

> <Gold.PLP.ligand.clash>
0.0000

> <Gold.PLP.ligand.torsion>
0.6038

> <Gold.PLP.Chemscore.Hbond>
2.0000

> <Gold.PLP.Chemscore.CHOScore>
0.0000

> <Gold.PLP.Chemscore.Metal>
0.0000

> <Gold.Chemscore.Hbonds>
donor molecule, donor type, donor heavy atom, donor atom, acceptor molecule, acceptor atom, score
      P1  H  6896  6908       L1    10  1.00
      P1  H  7997  8010       L1     3  0.28

> <Gold.PLP.Chemscore.Internal.Correction>
0.0140

> <Gold.Rescore>
     Score         DG    S(hbond)    S(metal)    S(lipo)     H(rot)  DE(clash)    DE(int)     intcor
     17.29     -18.55       1.87        0.00      90.51       1.46       0.01       1.25       ----

> <Gold.Chemscore.Fitness>
17.2902

> <Gold.Chemscore.DG>
-18.5542

> <Gold.Chemscore.ZeroCoef>
-5.4800

> <Gold.Chemscore.Hbond>
1.8665

> <Gold.Chemscore.Metal>
0.0000

> <Gold.Chemscore.Lipo>
90.5147

> <Gold.Chemscore.Internal_Hbond>
0.0000

> <Gold.Chemscore.DEClash>
0.0134

> <Gold.Chemscore.DEInternal>
1.2505

> <Gold.Chemscore.Rot>
1.4648

> <Gold.Chemscore.Internal.Correction>
   9.000000E+99

> <Gold.Chemscore.Hbonds>
donor molecule, donor type, donor heavy atom, donor atom, acceptor molecule, acceptor atom, score
      P1  H  6896  6908       L1    10  0.97

> <Gold.Chemscore.Hbond.Weighted>
-6.2340

> <Gold.Chemscore.Metal.Weighted>
-0.0000

> <Gold.Chemscore.Lipo.Weighted>
-10.5902

> <Gold.Chemscore.Internal_Hbond.Weighted>
0.0000

> <Gold.Chemscore.DEClash.Weighted>
0.0134

> <Gold.Chemscore.DEInternal.Weighted>
1.2505

> <Gold.Chemscore.Rot.Weighted>
3.7500

> <Gold.Chemscore.Internal.Correction.Weighted>
   9.000000E+99

> <Gold.Protein.RotatedTorsions>
[ 6907 6896 6895 6894 ] final -160.09 input  -60.11 | X-H torsion
[ 7974 7965 7964 7962 ] final  144.61 input  175.53 | X-H torsion
[ 8008 7997 7996 7995 ] final   12.94 input   59.86 | X-H torsion
[ 10167 10162 10161 10158 ] final  -55.69 input  -65.29 | X-H torsion
[ 10718 10713 10712 10709 ] final  -58.36 input   66.30 | X-H torsion
[ 10763 10752 10751 10750 ] final  -19.58 input  -60.55 | X-H torsion
[ 11005 11000 10999 10996 ] final  158.60 input  -57.11 | X-H torsion

> <Gold.Protein.ActiveResidues>
 VAL166  LYS551  ARG553  GLY616  TRP617  ASP618  TYR619  PRO620  LYS621  CYS622 
 ASP623  PHE694  ASN695  SER759  ASP760  ASP761  ALA762  ILE779  LEU786  VAL792 
 PHE793  MET794  SER795  GLU796  ALA797  LYS798  CYS799  TRP800  GLU811  SER814 

> <Gold.Protein.RotatedAtoms>
  151.3437  133.3952  159.2673 H   0  0  0  0  0  0  0  0  0  0  0  0  # atno 6907 bound_to 6896
  150.9857  134.9204  159.7881 H   0  0  0  0  0  0  0  0  0  0  0  0  # atno 6908 bound_to 6896
  152.5231  134.3401  159.9266 H   0  0  0  0  0  0  0  0  0  0  0  0  # atno 6909 bound_to 6896
  144.8821  139.5684  143.5838 H   0  0  0  0  0  0  0  0  0  0  0  0  # atno 7974 bound_to 7965
  154.8275  140.2894  155.5745 H   0  0  0  0  0  0  0  0  0  0  0  0  # atno 8008 bound_to 7997
  156.3003  140.2538  156.3125 H   0  0  0  0  0  0  0  0  0  0  0  0  # atno 8009 bound_to 7997
  154.9269  140.0384  157.2017 H   0  0  0  0  0  0  0  0  0  0  0  0  # atno 8010 bound_to 7997
  140.6360  143.2482  151.5116 H   0  0  0  0  0  0  0  0  0  0  0  0  # atno 10167 bound_to 10162
  156.1141  130.4172  150.0567 H   0  0  0  0  0  0  0  0  0  0  0  0  # atno 10718 bound_to 10713
  153.6070  135.6997  153.5361 H   0  0  0  0  0  0  0  0  0  0  0  0  # atno 10763 bound_to 10752
  153.3048  135.4118  155.1284 H   0  0  0  0  0  0  0  0  0  0  0  0  # atno 10764 bound_to 10752
  154.8571  135.3657  154.5608 H   0  0  0  0  0  0  0  0  0  0  0  0  # atno 10765 bound_to 10752
  140.1881  134.8427  157.2880 H   0  0  0  0  0  0  0  0  0  0  0  0  # atno 11005 bound_to 11000
  146.3001  139.7400  142.9097 LP  0  0  0  0  0  0  0  0  0  0  0  0  # atno 17320 bound_to 7965
  145.3935  141.0375  143.3110 LP  0  0  0  0  0  0  0  0  0  0  0  0  # atno 17321 bound_to 7965
  139.5571  144.2249  152.1630 LP  0  0  0  0  0  0  0  0  0  0  0  0  # atno 17342 bound_to 10162
  140.1506  144.5118  150.6690 LP  0  0  0  0  0  0  0  0  0  0  0  0  # atno 17343 bound_to 10162
  156.8523  130.9463  151.3624 LP  0  0  0  0  0  0  0  0  0  0  0  0  # atno 17370 bound_to 10713
  157.6323  130.8739  149.9296 LP  0  0  0  0  0  0  0  0  0  0  0  0  # atno 17371 bound_to 10713
  140.2191  134.4045  155.7574 LP  0  0  0  0  0  0  0  0  0  0  0  0  # atno 17394 bound_to 11000
  141.2225  133.7157  156.8462 LP  0  0  0  0  0  0  0  0  0  0  0  0  # atno 17395 bound_to 11000

$$$$
