#       Name:                AV-unprocessed.smi:2926
#       Creating user name   scv26
#       Creation time:       Fri Mar 27 16:12:17 2020


#       File generated by GOLD software.
#

@<TRIPOS>MOLECULE
AV-unprocessed.smi:2926
    37    37     1
SMALL
NO_CHARGES


@<TRIPOS>ATOM
      1 ****        -1.4907  -0.1434   2.5735 C.3            1 S1                 0.0000
      2 ****        -1.9987  -1.1175   1.4866 C.3            1 S1                 0.0000
      3 ****        -1.4910  -2.5516   1.7661 C.3            1 S1                 0.0000
      4 ****        -1.7487  -0.6076   0.0339 C.3            1 S1                 0.0000
      5 ****        -2.4787  -1.4516  -1.0322 C.3            1 S1                 0.0000
      6 ****        -2.4599  -0.8147  -2.2941 O.3            1 S1                 0.0000
      7 ****        -0.3171  -0.5778  -0.2514 N.pl3          1 S1                -1.0000
      8 ****         0.4005   0.8276  -0.6247 S.o2           1 S1                 0.0000
      9 ****        -0.0109   1.3457  -1.9395 O.2            1 S1                 0.0000
     10 ****         0.3966   1.7810   0.4974 O.2            1 S1                 0.0000
     11 ****         2.1483   0.2720  -0.8164 C.3            1 S1                 0.0000
     12 ****         3.0163   1.4215  -1.2477 C.2            1 S1                 0.0000
     13 ****         3.3930   2.5758  -0.5061 C.2            1 S1                 0.0000
     14 ****         4.1830   3.2709  -1.3753 C.2            1 S1                 0.0000
     15 ****         4.2990   2.6027  -2.5505 O.3            1 S1                 0.0000
     16 ****         3.5536   1.4219  -2.4586 N.2            1 S1                 0.0000
     17 ****        -2.1804   0.3936  -0.0133 H              1 S1                 0.0000
     18 ****        -0.4022  -0.0615   2.5766 H              1 S1                 0.0000
     19 ****        -1.7854  -0.4888   3.5648 H              1 S1                 0.0000
     20 ****        -1.9009   0.8616   2.4567 H              1 S1                 0.0000
     21 ****        -3.0819  -1.1520   1.6110 H              1 S1                 0.0000
     22 ****        -0.4049  -2.6276   1.6906 H              1 S1                 0.0000
     23 ****        -1.9267  -3.2898   1.0913 H              1 S1                 0.0000
     24 ****        -1.7598  -2.8599   2.7767 H              1 S1                 0.0000
     25 ****        -2.0305  -2.4409  -1.1298 H              1 S1                 0.0000
     26 ****        -3.5209  -1.5994  -0.7483 H              1 S1                 0.0000
     27 ****        -2.8835  -1.3785  -2.9222 H              1 S1                 0.0000
     28 ****         2.4835  -0.1341   0.1375 H              1 S1                 0.0000
     29 ****         2.1674  -0.5373  -1.5467 H              1 S1                 0.0000
     30 ****         3.1183   2.8517   0.5013 H              1 S1                 0.0000
     31 ****         4.7130   4.2093  -1.3081 H              1 S1                 0.0000
     32 ****        -1.5142  -0.6491  -2.5739 LP             1 S1                 0.0000
     33 ****        -2.9487   0.0560  -2.2394 LP             1 S1                 0.0000
     34 ****         0.2191  -1.4213  -0.2167 LP             1 S1                 0.0000
     35 ****         5.2596   2.3839  -2.7219 LP             1 S1                 0.0000
     36 ****         3.9474   3.1675  -3.2970 LP             1 S1                 0.0000
     37 ****         3.4480   0.7207  -3.1638 LP             1 S1                 0.0000
@<TRIPOS>BOND
    1    1    2 1     
    2    1   18 1     
    3    1   19 1     
    4    1   20 1     
    5    2    3 1     
    6    2    4 1     
    7    2   21 1     
    8    3   22 1     
    9    3   23 1     
   10    3   24 1     
   11    4   17 1     
   12    4    5 1     
   13    4    7 1     
   14    5    6 1     
   15    5   25 1     
   16    5   26 1     
   17    6   27 1     
   18    7    8 1     
   19    8    9 2     
   20    8   10 2     
   21    8   11 1     
   22   11   12 1     
   23   11   28 1     
   24   11   29 1     
   25   12   16 2     
   26   12   13 1     
   27   13   14 2     
   28   13   30 1     
   29   14   15 1     
   30   14   31 1     
   31   15   16 1     
   32    6   32 1     
   33    6   33 1     
   34    7   34 1     
   35   15   35 1     
   36   15   36 1     
   37   16   37 1     
@<TRIPOS>SUBSTRUCTURE
      1 S1             1
@<TRIPOS>SET
LONE_PAIRS      STATIC     ATOMS    <user>   **** ""
8 32 33 34 9 10 35 36 37
DONOR_HYDROGENS      STATIC     ATOMS    <user>   **** ""
1 27
ATOM$BLUE        STATIC     ATOMS    COLORGROUP SYSTEM
8 32 33 34 9 10 35 36 37
ATOM$RED        STATIC     ATOMS    COLORGROUP SYSTEM
1 27
