#       Name:                AV-unprocessed.smi:2152
#       Creating user name   scv26
#       Creation time:       Fri Mar 27 11:54:20 2020


#       File generated by GOLD software.
#

@<TRIPOS>MOLECULE
AV-unprocessed.smi:2152
    47    48     1
SMALL
NO_CHARGES


@<TRIPOS>ATOM
      1 ****        -2.4913  -2.1912   1.1399 C.3            1 S1                 0.0000
      2 ****        -2.7015  -1.8725  -0.3504 C.3            1 S1                 0.0000
      3 ****        -2.2777  -3.0541  -1.2474 C.3            1 S1                 0.0000
      4 ****        -2.5476  -2.7619  -2.7323 C.3            1 S1                 0.0000
      5 ****        -1.8604  -1.4638  -3.1810 C.3            1 S1                 0.0000
      6 ****        -2.2758  -0.2778  -2.2927 C.3            1 S1                 0.0000
      7 ****        -2.0216  -0.5516  -0.7966 C.3            1 S1                 0.0000
      8 ****        -0.5809  -0.5596  -0.5343 N.am           1 S1                 0.0000
      9 ****         0.0480   0.0868   0.4593 C.2            1 S1                 0.0000
     10 ****        -0.5371   0.7608   1.3082 O.2            1 S1                 0.0000
     11 ****         1.5724  -0.0842   0.5058 C.3            1 S1                 0.0000
     12 ****         2.2511   0.9790   1.2577 N.am           1 S1                 0.0000
     13 ****         2.6264   0.7577   2.5703 C.2            1 S1                 0.0000
     14 ****         3.2386   1.6867   3.3368 C.2            1 S1                 0.0000
     15 ****         3.5480   3.0095   2.8074 C.2            1 S1                 0.0000
     16 ****         4.0913   3.8885   3.4771 O.2            1 S1                 0.0000
     17 ****         3.1636   3.2053   1.4587 N.am           1 S1                 0.0000
     18 ****         3.4115   4.4901   0.8382 C.3            1 S1                 0.0000
     19 ****         2.5126   2.2337   0.6666 C.2            1 S1                 0.0000
     20 ****         2.1750   2.4636  -0.4976 O.2            1 S1                 0.0000
     21 ****        -1.4473  -2.4118   1.3635 H              1 S1                 0.0000
     22 ****        -3.0805  -3.0580   1.4400 H              1 S1                 0.0000
     23 ****        -2.7971  -1.3531   1.7667 H              1 S1                 0.0000
     24 ****        -3.7754  -1.7363  -0.4879 H              1 S1                 0.0000
     25 ****        -1.2182  -3.2701  -1.1039 H              1 S1                 0.0000
     26 ****        -2.8157  -3.9560  -0.9532 H              1 S1                 0.0000
     27 ****        -2.2019  -3.5959  -3.3438 H              1 S1                 0.0000
     28 ****        -3.6226  -2.6815  -2.8990 H              1 S1                 0.0000
     29 ****        -0.7779  -1.5918  -3.1460 H              1 S1                 0.0000
     30 ****        -2.1103  -1.2530  -4.2212 H              1 S1                 0.0000
     31 ****        -1.7506   0.6256  -2.6055 H              1 S1                 0.0000
     32 ****        -3.3372  -0.0764  -2.4433 H              1 S1                 0.0000
     33 ****        -2.4801   0.2684  -0.2408 H              1 S1                 0.0000
     34 ****        -0.0134  -1.0951  -1.1749 H              1 S1                 0.0000
     35 ****         1.7911  -1.0544   0.9538 H              1 S1                 0.0000
     36 ****         1.9682  -0.1336  -0.5104 H              1 S1                 0.0000
     37 ****         2.4147  -0.2056   3.0112 H              1 S1                 0.0000
     38 ****         3.5005   1.4487   4.3574 H              1 S1                 0.0000
     39 ****         3.8574   4.3104  -0.1419 H              1 S1                 0.0000
     40 ****         4.1058   5.0840   1.4323 H              1 S1                 0.0000
     41 ****         2.4466   4.9921   0.7516 H              1 S1                 0.0000
     42 ****        -1.5329   0.8474   1.2786 LP             1 S1                 0.0000
     43 ****        -0.0163   1.2213   2.0271 LP             1 S1                 0.0000
     44 ****         4.3405   3.7097   4.4289 LP             1 S1                 0.0000
     45 ****         4.2833   4.7810   3.0692 LP             1 S1                 0.0000
     46 ****         1.7111   1.7573  -1.0324 LP             1 S1                 0.0000
     47 ****         2.3653   3.3561  -0.9064 LP             1 S1                 0.0000
@<TRIPOS>BOND
    1    1    2 1     
    2    1   21 1     
    3    1   22 1     
    4    1   23 1     
    5    2    7 1     
    6    2    3 1     
    7    2   24 1     
    8    3    4 1     
    9    3   25 1     
   10    3   26 1     
   11    4    5 1     
   12    4   27 1     
   13    4   28 1     
   14    5    6 1     
   15    5   29 1     
   16    5   30 1     
   17    6    7 1     
   18    6   31 1     
   19    6   32 1     
   20    7    8 1     
   21    7   33 1     
   22    8    9 am    
   23    8   34 1     
   24    9   10 2     
   25    9   11 1     
   26   11   12 1     
   27   11   35 1     
   28   11   36 1     
   29   12   19 am    
   30   12   13 1     
   31   13   14 2     
   32   13   37 1     
   33   14   15 1     
   34   14   38 1     
   35   15   16 2     
   36   15   17 am    
   37   17   18 1     
   38   17   19 am    
   39   18   39 1     
   40   18   40 1     
   41   18   41 1     
   42   19   20 2     
   43   10   42 1     
   44   10   43 1     
   45   16   44 1     
   46   16   45 1     
   47   20   46 1     
   48   20   47 1     
@<TRIPOS>SUBSTRUCTURE
      1 S1             1
@<TRIPOS>SET
LONE_PAIRS      STATIC     ATOMS    <user>   **** ""
6 42 43 44 45 46 47
DONOR_HYDROGENS      STATIC     ATOMS    <user>   **** ""
1 34
ATOM$BLUE        STATIC     ATOMS    COLORGROUP SYSTEM
6 42 43 44 45 46 47
ATOM$RED        STATIC     ATOMS    COLORGROUP SYSTEM
1 34
