AV-unprocessed.smi:3015|AV-procd|sdf|11471|dock3
  -GOLD-   2272016403D 1   1.00000     0.00000
 Structure written by MMmdl.
 24 24  0  0  0  0  0  0  0  0  2 V2000
  142.5235  132.4654  150.4117 N   0  3  0  0  0  0  0  0  0  0  0  0
  143.8844  132.7116  149.8980 C   0  0  1  0  0  0  0  0  0  0  0  0
  143.8895  132.6690  148.3601 C   0  0  0  0  0  0  0  0  0  0  0  0
  143.5049  133.9229  147.8359 O   0  0  0  0  0  0  0  0  0  0  0  0
  144.4252  134.0543  150.4261 C   0  0  0  0  0  0  0  0  0  0  0  0
  145.4189  133.8910  151.5631 C   0  0  0  0  0  0  0  0  0  0  0  0
  146.6877  133.3175  151.3376 C   0  0  0  0  0  0  0  0  0  0  0  0
  147.5745  133.1827  152.4230 C   0  0  0  0  0  0  0  0  0  0  0  0
  147.1551  133.6299  153.6918 C   0  0  0  0  0  0  0  0  0  0  0  0
  145.9434  134.1815  153.9192 N   0  0  0  0  0  0  0  0  0  0  0  0
  145.1006  134.3107  152.8727 C   0  0  0  0  0  0  0  0  0  0  0  0
  142.1933  131.5701  150.0818 H   0  0  0  0  0  0  0  0  0  0  0  0
  141.9048  133.1946  150.0869 H   0  0  0  0  0  0  0  0  0  0  0  0
  144.5283  131.9124  150.2681 H   0  0  0  0  0  0  0  0  0  0  0  0
  144.8722  132.3948  147.9745 H   0  0  0  0  0  0  0  0  0  0  0  0
  143.1815  131.9225  147.9982 H   0  0  0  0  0  0  0  0  0  0  0  0
  144.2820  134.4419  147.6905 H   0  0  0  0  0  0  0  0  0  0  0  0
  144.9226  134.5958  149.6201 H   0  0  0  0  0  0  0  0  0  0  0  0
  143.6012  134.6904  150.7529 H   0  0  0  0  0  0  0  0  0  0  0  0
  146.9770  132.9840  150.3516 H   0  0  0  0  0  0  0  0  0  0  0  0
  148.5537  132.7478  152.2869 H   0  0  0  0  0  0  0  0  0  0  0  0
  147.8100  133.5416  154.5462 H   0  0  0  0  0  0  0  0  0  0  0  0
  144.1401  134.7546  153.0898 H   0  0  0  0  0  0  0  0  0  0  0  0
  142.5450  132.4651  151.4216 H   0  0  0  0  0  0  0  0  0  0  0  0
  1  2  1  0  0  0  0
  1 12  1  0  0  0  0
  1 13  1  0  0  0  0
  1 24  1  0  0  0  0
  2  3  1  0  0  0  0
  2  5  1  0  0  0  0
  2 14  1  0  0  0  0
  3  4  1  0  0  0  0
  3 15  1  0  0  0  0
  3 16  1  0  0  0  0
  4 17  1  0  0  0  0
  5  6  1  0  0  0  0
  5 18  1  0  0  0  0
  5 19  1  0  0  0  0
  6 11  1  0  0  0  0
  6  7  2  0  0  0  0
  7  8  1  0  0  0  0
  7 20  1  0  0  0  0
  8  9  2  0  0  0  0
  8 21  1  0  0  0  0
  9 10  1  0  0  0  0
  9 22  1  0  0  0  0
 10 11  2  0  0  0  0
 11 23  1  0  0  0  0
M  CHG  1   1   1
M  END
> <s_m_source_file>
AV-unprocessed.smi

> <i_m_source_file_index>
3015

> <i_lp_mmshare_version>
43012

> <i_f3d_flags>
0

> <s_epik_input>
W09IXVtDSDJdW0NAQEhdKFtOSDJdKVtDSDJdYzFbY0hdW2NIXVtjSF1uW2NIXTE=

> <s_epik_cmdline>
J2VwaWtfcHl0aG9uJywgJy1waCcsICc3LjAnLCAnLXRuJywgJzgnLCAnLW1hJywgJzIwMCcsICctbWV0YWxfYmluZGluZycsICctaW1hZScsICc8aW5maWxlLm1hZT4nLCAnLW9tYWUnLCAnPG91dGZpbGUubWFlPic=

> <r_epik_Ionization_Penalty>
0.0193991

> <r_epik_Ionization_Penalty_Charging>
0.0188044

> <r_epik_Ionization_Penalty_Neutral>
0.000594726

> <r_epik_State_Penalty>
0.00921718

> <r_epik_Charging_Adjusted_Penalty>
0.0280216

> <i_epik_Tot_Q>
1

> <i_epik_Tot_abs_Q>
1

> <r_epik_Metal_State_Penalty>
0.00867471

> <b_epik_Metal_Only>
0

> <s_lp_Force_Field>
OPLS_2005

> <r_lp_Energy>
6.76442

> <b_lp_Chiralities_Consistent>
1

> <s_lp_Variant>
AV-unprocessed.smi:3015-2

> <Gold.Version>
5.8.1

> <Gold.Id.Protein>
6NUR|6NUR_protein|mol2

> <Gold.PLP.Fitness>
39.8063

> <Gold.PLP.PLP>
-26.6283

> <Gold.PLP.part.hbond>
-6.0000

> <Gold.PLP.part.metal>
0.0000

> <Gold.PLP.part.buried>
-3.9350

> <Gold.PLP.part.nonpolar>
-17.4789

> <Gold.PLP.part.repulsive>
0.1848

> <Gold.PLP.ligand.clash>
0.0000

> <Gold.PLP.ligand.torsion>
0.9167

> <Gold.PLP.Chemscore.Hbond>
5.0000

> <Gold.PLP.Chemscore.CHOScore>
0.0000

> <Gold.PLP.Chemscore.Metal>
0.0000

> <Gold.Chemscore.Hbonds>
donor molecule, donor type, donor heavy atom, donor atom, acceptor molecule, acceptor atom, score
      L1  H     1    12       P1 10952  1.00
      L1  H     1    13       P1 10186  2.00
      L1  H     4    17       P1  7921  1.00
      P1  H 10192 10197       L1     4  0.94

> <Gold.PLP.Chemscore.Internal.Correction>
0.0113

> <Gold.Rescore>
     Score         DG    S(hbond)    S(metal)    S(lipo)     H(rot)  DE(clash)    DE(int)     intcor
     17.99     -19.06       3.74        0.00      56.09       2.14       0.05       1.02       ----

> <Gold.Chemscore.Fitness>
17.9879

> <Gold.Chemscore.DG>
-19.0564

> <Gold.Chemscore.ZeroCoef>
-5.4800

> <Gold.Chemscore.Hbond>
3.7406

> <Gold.Chemscore.Metal>
0.0000

> <Gold.Chemscore.Lipo>
56.0908

> <Gold.Chemscore.Internal_Hbond>
0.0000

> <Gold.Chemscore.DEClash>
0.0460

> <Gold.Chemscore.DEInternal>
1.0225

> <Gold.Chemscore.Rot>
2.1405

> <Gold.Chemscore.Internal.Correction>
   9.000000E+99

> <Gold.Chemscore.Hbonds>
donor molecule, donor type, donor heavy atom, donor atom, acceptor molecule, acceptor atom, score
      L1  H     1    12       P1 10952  0.82
      L1  H     1    13       P1 10186  0.99
      L1  H     4    17       P1  7921  0.99
      P1  H 10192 10197       L1     4  0.31

> <Gold.Chemscore.Hbond.Weighted>
-12.4935

> <Gold.Chemscore.Metal.Weighted>
-0.0000

> <Gold.Chemscore.Lipo.Weighted>
-6.5626

> <Gold.Chemscore.Internal_Hbond.Weighted>
0.0000

> <Gold.Chemscore.DEClash.Weighted>
0.0460

> <Gold.Chemscore.DEInternal.Weighted>
1.0225

> <Gold.Chemscore.Rot.Weighted>
5.4797

> <Gold.Chemscore.Internal.Correction.Weighted>
   9.000000E+99

> <Gold.Protein.RotatedTorsions>
[ 6907 6896 6895 6894 ] final   94.53 input  -60.11 | X-H torsion
[ 7974 7965 7964 7962 ] final  -67.38 input  175.53 | X-H torsion
[ 8008 7997 7996 7995 ] final -101.93 input   59.86 | X-H torsion
[ 10167 10162 10161 10158 ] final   67.11 input  -65.29 | X-H torsion
[ 10718 10713 10712 10709 ] final  108.75 input   66.30 | X-H torsion
[ 10763 10752 10751 10750 ] final  150.98 input  -60.55 | X-H torsion
[ 11005 11000 10999 10996 ] final  141.82 input  -57.11 | X-H torsion

> <Gold.Protein.ActiveResidues>
 VAL166  LYS551  ARG553  GLY616  TRP617  ASP618  TYR619  PRO620  LYS621  CYS622 
 ASP623  PHE694  ASN695  SER759  ASP760  ASP761  ALA762  ILE779  LEU786  VAL792 
 PHE793  MET794  SER795  GLU796  ALA797  LYS798  CYS799  TRP800  GLU811  SER814 

> <Gold.Protein.RotatedAtoms>
  152.5449  134.1180  159.8386 H   0  0  0  0  0  0  0  0  0  0  0  0  # atno 6907 bound_to 6896
  151.1239  133.5077  159.2608 H   0  0  0  0  0  0  0  0  0  0  0  0  # atno 6908 bound_to 6896
  151.1749  135.0344  159.8822 H   0  0  0  0  0  0  0  0  0  0  0  0  # atno 6909 bound_to 6896
  145.7299  140.9001  143.0586 H   0  0  0  0  0  0  0  0  0  0  0  0  # atno 7974 bound_to 7965
  154.8494  140.0431  157.1594 H   0  0  0  0  0  0  0  0  0  0  0  0  # atno 8008 bound_to 7997
  154.8959  140.2993  155.5324 H   0  0  0  0  0  0  0  0  0  0  0  0  # atno 8009 bound_to 7997
  156.2995  140.2385  156.3981 H   0  0  0  0  0  0  0  0  0  0  0  0  # atno 8010 bound_to 7997
  140.0931  144.4970  150.7086 H   0  0  0  0  0  0  0  0  0  0  0  0  # atno 10167 bound_to 10162
  157.6572  131.0900  150.6352 H   0  0  0  0  0  0  0  0  0  0  0  0  # atno 10718 bound_to 10713
  154.0964  135.2849  155.3261 H   0  0  0  0  0  0  0  0  0  0  0  0  # atno 10763 bound_to 10752
  154.6585  135.5343  153.7992 H   0  0  0  0  0  0  0  0  0  0  0  0  # atno 10764 bound_to 10752
  153.0395  135.6528  154.1130 H   0  0  0  0  0  0  0  0  0  0  0  0  # atno 10765 bound_to 10752
  140.0430  134.9295  157.0878 H   0  0  0  0  0  0  0  0  0  0  0  0  # atno 11005 bound_to 11000
  144.6895  139.9316  143.7472 LP  0  0  0  0  0  0  0  0  0  0  0  0  # atno 17320 bound_to 7965
  146.0547  139.3545  143.0618 LP  0  0  0  0  0  0  0  0  0  0  0  0  # atno 17321 bound_to 7965
  140.7018  143.2440  151.4842 LP  0  0  0  0  0  0  0  0  0  0  0  0  # atno 17342 bound_to 10162
  139.5713  144.1921  152.1841 LP  0  0  0  0  0  0  0  0  0  0  0  0  # atno 17343 bound_to 10162
  156.6657  130.4525  149.5673 LP  0  0  0  0  0  0  0  0  0  0  0  0  # atno 17370 bound_to 10713
  156.2034  130.6634  151.1192 LP  0  0  0  0  0  0  0  0  0  0  0  0  # atno 17371 bound_to 10713
  140.4038  134.2054  155.7163 LP  0  0  0  0  0  0  0  0  0  0  0  0  # atno 17394 bound_to 11000
  141.1893  133.8242  157.0963 LP  0  0  0  0  0  0  0  0  0  0  0  0  # atno 17395 bound_to 11000

$$$$
