#       Name:                AV-unprocessed.smi:1623
#       Creating user name   scv26
#       Creation time:       Fri Mar 27 07:16:54 2020


#       File generated by GOLD software.
#

@<TRIPOS>MOLECULE
AV-unprocessed.smi:1623
    50    51     1
SMALL
NO_CHARGES


@<TRIPOS>ATOM
      1 ****        -1.1989   4.5542   2.2305 C.3            1 S1                 0.0000
      2 ****        -1.1303   3.6455   1.0328 C.2            1 S1                 0.0000
      3 ****        -0.6079   2.4778   1.2191 N.2            1 S1                 0.0000
      4 ****        -0.4980   1.5674   0.1876 N.am           1 S1                 0.0000
      5 ****         0.1365   0.3028   0.5746 C.3            1 S1                 0.0000
      6 ****         1.6336   0.2705   0.1927 C.3            1 S1                 0.0000
      7 ****         2.3886   0.7908   1.2683 O.3            1 S1                 0.0000
      8 ****         2.1295  -1.1588  -0.0663 C.3            1 S1                 0.0000
      9 ****         1.5663  -1.6130  -1.2881 O.3            1 S1                 0.0000
     10 ****         1.8436  -2.9735  -1.5847 C.3            1 S1                 0.0000
     11 ****         1.0794  -3.9446  -0.6965 C.ar           1 S1                 0.0000
     12 ****         1.7963  -4.8452   0.1205 C.ar           1 S1                 0.0000
     13 ****         1.1121  -5.7526   0.9515 C.ar           1 S1                 0.0000
     14 ****        -0.2949  -5.7678   0.9680 C.ar           1 S1                 0.0000
     15 ****        -1.0163  -4.8763   0.1517 C.ar           1 S1                 0.0000
     16 ****        -0.3362  -3.9654  -0.6815 C.ar           1 S1                 0.0000
     17 ****        -1.2608  -2.8900  -1.6705 Cl             1 S1                 0.0000
     18 ****        -0.9130   1.7878  -1.0927 C.2            1 S1                 0.0000
     19 ****        -0.7896   0.9463  -1.9841 O.2            1 S1                 0.0000
     20 ****        -1.5037   3.1123  -1.2971 C.2            1 S1                 0.0000
     21 ****        -1.9494   3.3862  -2.6252 C.1            1 S1                 0.0000
     22 ****        -2.3140   3.6288  -3.6968 N.1            1 S1                 0.0000
     23 ****        -1.6152   4.0176  -0.2927 C.2            1 S1                 0.0000
     24 ****        -2.2171   5.4069  -0.4536 C.3            1 S1                 0.0000
     25 ****        -0.6376   5.4719   2.0533 H              1 S1                 0.0000
     26 ****        -0.7843   4.0827   3.1230 H              1 S1                 0.0000
     27 ****        -2.2315   4.8253   2.4519 H              1 S1                 0.0000
     28 ****         0.0046   0.1054   1.6405 H              1 S1                 0.0000
     29 ****        -0.3932  -0.5141   0.0813 H              1 S1                 0.0000
     30 ****         1.8308   0.8766  -0.6926 H              1 S1                 0.0000
     31 ****         2.1125   1.6813   1.4234 H              1 S1                 0.0000
     32 ****         3.2172  -1.1768  -0.1522 H              1 S1                 0.0000
     33 ****         1.8557  -1.8072   0.7675 H              1 S1                 0.0000
     34 ****         1.5543  -3.1604  -2.6192 H              1 S1                 0.0000
     35 ****         2.9177  -3.1575  -1.5311 H              1 S1                 0.0000
     36 ****         2.8766  -4.8408   0.1160 H              1 S1                 0.0000
     37 ****         1.6672  -6.4371   1.5758 H              1 S1                 0.0000
     38 ****        -0.8206  -6.4635   1.6050 H              1 S1                 0.0000
     39 ****        -2.0962  -4.8924   0.1653 H              1 S1                 0.0000
     40 ****        -2.5479   5.5977  -1.4741 H              1 S1                 0.0000
     41 ****        -1.4844   6.1736  -0.1993 H              1 S1                 0.0000
     42 ****        -3.0825   5.5271   0.1987 H              1 S1                 0.0000
     43 ****        -0.2766   2.2290   2.1292 LP             1 S1                 0.0000
     44 ****         3.3614   0.7742   1.0372 LP             1 S1                 0.0000
     45 ****         2.2314   0.2408   2.0885 LP             1 S1                 0.0000
     46 ****         1.9299  -1.0496  -2.0300 LP             1 S1                 0.0000
     47 ****         0.5742  -1.4985  -1.2381 LP             1 S1                 0.0000
     48 ****        -0.3714   0.0609  -1.7814 LP             1 S1                 0.0000
     49 ****        -1.1076   1.1488  -2.9103 LP             1 S1                 0.0000
     50 ****        -2.6289   3.8384  -4.6225 LP             1 S1                 0.0000
@<TRIPOS>BOND
    1    1    2 1     
    2    1   25 1     
    3    1   26 1     
    4    1   27 1     
    5    2   23 1     
    6    2    3 2     
    7    3    4 1     
    8    4    5 1     
    9    4   18 am    
   10    5    6 1     
   11    5   28 1     
   12    5   29 1     
   13    6    7 1     
   14    6    8 1     
   15    6   30 1     
   16    7   31 1     
   17    8    9 1     
   18    8   32 1     
   19    8   33 1     
   20    9   10 1     
   21   10   11 1     
   22   10   34 1     
   23   10   35 1     
   24   11   16 ar    
   25   11   12 ar    
   26   12   13 ar    
   27   12   36 1     
   28   13   14 ar    
   29   13   37 1     
   30   14   15 ar    
   31   14   38 1     
   32   15   16 ar    
   33   15   39 1     
   34   16   17 1     
   35   18   19 2     
   36   18   20 1     
   37   20   21 1     
   38   20   23 2     
   39   21   22 3     
   40   23   24 1     
   41   24   40 1     
   42   24   41 1     
   43   24   42 1     
   44    3   43 1     
   45    7   44 1     
   46    7   45 1     
   47    9   46 1     
   48    9   47 1     
   49   19   48 1     
   50   19   49 1     
   51   22   50 1     
@<TRIPOS>SUBSTRUCTURE
      1 S1             1
@<TRIPOS>SET
LONE_PAIRS      STATIC     ATOMS    <user>   **** ""
8 43 44 45 46 47 48 49 50
DONOR_HYDROGENS      STATIC     ATOMS    <user>   **** ""
1 31
ATOM$BLUE        STATIC     ATOMS    COLORGROUP SYSTEM
8 43 44 45 46 47 48 49 50
ATOM$RED        STATIC     ATOMS    COLORGROUP SYSTEM
1 31
