#       Name:                AV-unprocessed.smi:2409
#       Creating user name   scv26
#       Creation time:       Fri Mar 27 13:15:36 2020


#       File generated by GOLD software.
#

@<TRIPOS>MOLECULE
AV-unprocessed.smi:2409
    40    41     1
SMALL
NO_CHARGES


@<TRIPOS>ATOM
      1 ****        -1.7671  -2.5146  -0.9255 C.3            1 S1                 0.0000
      2 ****        -2.0667  -2.1406   0.4084 O.3            1 S1                 0.0000
      3 ****        -2.2618  -0.8139   0.5650 C.2            1 S1                 0.0000
      4 ****        -1.3953   0.2437   0.5799 C.2            1 S1                 0.0000
      5 ****         0.0139   0.2702   0.4262 N.am           1 S1                 0.0000
      6 ****         0.8957  -0.6787   0.7914 C.2            1 S1                 0.0000
      7 ****         0.5869  -1.7487   1.3113 O.2            1 S1                 0.0000
      8 ****         2.1805  -0.3728   0.5373 N.am           1 S1                 0.0000
      9 ****         3.3467  -1.1629   0.8038 C.3            1 S1                 0.0000
     10 ****         4.6081  -0.8063   0.0475 C.3            1 S1                 0.0000
     11 ****         4.5199  -0.5236   1.5240 C.3            1 S1                 0.0000
     12 ****         4.4711   0.9026   2.0360 C.3            1 S1                 0.0000
     13 ****        -2.2193   1.3939   0.7233 C.2            1 S1                 0.0000
     14 ****        -1.8280   2.8429   0.7687 C.3            1 S1                 0.0000
     15 ****        -3.4989   1.0558   0.8378 N.2            1 S1                 0.0000
     16 ****        -3.5267  -0.2967   0.7499 N.pl3          1 S1                 0.0000
     17 ****        -4.7935  -0.9950   0.8239 C.3            1 S1                 0.0000
     18 ****        -1.6320  -3.5947  -0.9802 H              1 S1                 0.0000
     19 ****        -0.8494  -2.0436  -1.2796 H              1 S1                 0.0000
     20 ****        -2.5806  -2.2420  -1.5994 H              1 S1                 0.0000
     21 ****         0.4036   1.1381   0.0890 H              1 S1                 0.0000
     22 ****         2.3469   0.5073   0.0709 H              1 S1                 0.0000
     23 ****         3.2041  -2.2301   0.9672 H              1 S1                 0.0000
     24 ****         5.2528  -1.6245  -0.2673 H              1 S1                 0.0000
     25 ****         4.5698   0.0414  -0.6344 H              1 S1                 0.0000
     26 ****         5.0840  -1.1910   2.1727 H              1 S1                 0.0000
     27 ****         3.9797   1.5624   1.3203 H              1 S1                 0.0000
     28 ****         5.4827   1.2720   2.2044 H              1 S1                 0.0000
     29 ****         3.9248   0.9423   2.9786 H              1 S1                 0.0000
     30 ****        -0.7480   2.9616   0.8554 H              1 S1                 0.0000
     31 ****        -2.2837   3.3474   1.6211 H              1 S1                 0.0000
     32 ****        -2.1466   3.3613  -0.1356 H              1 S1                 0.0000
     33 ****        -4.6484  -1.9828   1.2619 H              1 S1                 0.0000
     34 ****        -5.2071  -1.1074  -0.1785 H              1 S1                 0.0000
     35 ****        -5.4980  -0.4371   1.4421 H              1 S1                 0.0000
     36 ****        -1.3056  -2.4199   0.9939 LP             1 S1                 0.0000
     37 ****        -2.8981  -2.6184   0.6919 LP             1 S1                 0.0000
     38 ****        -0.3744  -1.9595   1.4884 LP             1 S1                 0.0000
     39 ****         1.2970  -2.4085   1.5571 LP             1 S1                 0.0000
     40 ****        -4.2780   1.6700   0.9626 LP             1 S1                 0.0000
@<TRIPOS>BOND
    1    1    2 1     
    2    1   18 1     
    3    1   19 1     
    4    1   20 1     
    5    2    3 1     
    6    3   16 1     
    7    3    4 2     
    8    4    5 1     
    9    4   13 1     
   10    5    6 am    
   11    5   21 1     
   12    6    7 2     
   13    6    8 am    
   14    8    9 1     
   15    8   22 1     
   16    9   11 1     
   17    9   10 1     
   18    9   23 1     
   19   10   11 1     
   20   10   24 1     
   21   10   25 1     
   22   11   12 1     
   23   11   26 1     
   24   12   27 1     
   25   12   28 1     
   26   12   29 1     
   27   13   14 1     
   28   13   15 2     
   29   14   30 1     
   30   14   31 1     
   31   14   32 1     
   32   15   16 1     
   33   16   17 1     
   34   17   33 1     
   35   17   34 1     
   36   17   35 1     
   37    2   36 1     
   38    2   37 1     
   39    7   38 1     
   40    7   39 1     
   41   15   40 1     
@<TRIPOS>SUBSTRUCTURE
      1 S1             1
@<TRIPOS>SET
LONE_PAIRS      STATIC     ATOMS    <user>   **** ""
5 36 37 38 39 40
DONOR_HYDROGENS      STATIC     ATOMS    <user>   **** ""
2 21 22
ATOM$BLUE        STATIC     ATOMS    COLORGROUP SYSTEM
5 36 37 38 39 40
ATOM$RED        STATIC     ATOMS    COLORGROUP SYSTEM
2 21 22
