AV-unprocessed.smi:3314|AV-procd|sdf|12738|dock4
  -GOLD-   2272019 83D 1   1.00000     0.00000
 Structure written by MMmdl.
 38 39  0  0  0  0  0  0  0  0  2 V2000
  151.8539  145.6212  159.7344 C   0  0  0  0  0  0  0  0  0  0  0  0
  151.9426  144.1779  159.2825 C   0  0  0  0  0  0  0  0  0  0  0  0
  152.5841  143.1819  160.1235 C   0  0  0  0  0  0  0  0  0  0  0  0
  152.6486  141.9062  159.7071 C   0  0  0  0  0  0  0  0  0  0  0  0
  153.2998  140.8018  160.5133 C   0  0  0  0  0  0  0  0  0  0  0  0
  152.1094  141.5275  158.4835 N   0  0  0  0  0  0  0  0  0  0  0  0
  151.4820  142.4320  157.6089 C   0  0  0  0  0  0  0  0  0  0  0  0
  150.9739  142.1334  156.4486 N   0  0  0  0  0  0  0  0  0  0  0  0
  150.9814  140.8405  155.9313 C   0  0  0  0  0  0  0  0  0  0  0  0
  151.8556  140.2725  155.2702 O   0  0  0  0  0  0  0  0  0  0  0  0
  149.6756  140.0875  156.2668 C   0  0  1  0  0  0  0  0  0  0  0  0
  148.3760  140.8103  155.8363 C   0  0  0  0  0  0  0  0  0  0  0  0
  148.2094  140.7877  154.3633 N   0  3  2  0  0  0  0  0  0  0  0  0
  147.0028  141.5144  153.9146 C   0  0  0  0  0  0  0  0  0  0  0  0
  148.2648  139.4008  153.8488 C   0  0  0  0  0  0  0  0  0  0  0  0
  149.5707  138.7197  154.2878 C   0  0  0  0  0  0  0  0  0  0  0  0
  149.6820  138.7683  155.7098 O   0  0  0  0  0  0  0  0  0  0  0  0
  151.4244  143.8044  158.0887 C   0  0  0  0  0  0  0  0  0  0  0  0
  152.3041  145.7556  160.7183 H   0  0  0  0  0  0  0  0  0  0  0  0
  150.8120  145.9375  159.7914 H   0  0  0  0  0  0  0  0  0  0  0  0
  152.3733  146.2717  159.0304 H   0  0  0  0  0  0  0  0  0  0  0  0
  153.0087  143.4637  161.0763 H   0  0  0  0  0  0  0  0  0  0  0  0
  154.3527  141.0294  160.6816 H   0  0  0  0  0  0  0  0  0  0  0  0
  153.2373  139.8404  160.0021 H   0  0  0  0  0  0  0  0  0  0  0  0
  152.8113  140.7043  161.4832 H   0  0  0  0  0  0  0  0  0  0  0  0
  149.6555  139.9774  157.3518 H   0  0  0  0  0  0  0  0  0  0  0  0
  147.5184  140.3209  156.3006 H   0  0  0  0  0  0  0  0  0  0  0  0
  148.3723  141.8408  156.1949 H   0  0  0  0  0  0  0  0  0  0  0  0
  146.0960  141.0470  154.3009 H   0  0  0  0  0  0  0  0  0  0  0  0
  146.9443  141.5270  152.8258 H   0  0  0  0  0  0  0  0  0  0  0  0
  147.0279  142.5490  154.2582 H   0  0  0  0  0  0  0  0  0  0  0  0
  147.4070  138.8377  154.2203 H   0  0  0  0  0  0  0  0  0  0  0  0
  148.1986  139.4071  152.7603 H   0  0  0  0  0  0  0  0  0  0  0  0
  149.5707  137.6759  153.9738 H   0  0  0  0  0  0  0  0  0  0  0  0
  150.4327  139.1862  153.8099 H   0  0  0  0  0  0  0  0  0  0  0  0
  150.9562  144.5725  157.4897 H   0  0  0  0  0  0  0  0  0  0  0  0
  152.2028  140.5511  158.2428 H   0  0  0  0  0  0  0  0  0  0  0  0
  149.0033  141.2755  153.9731 H   0  0  0  0  0  0  0  0  0  0  0  0
  1  2  1  0  0  0  0
  1 19  1  0  0  0  0
  1 20  1  0  0  0  0
  1 21  1  0  0  0  0
  2 18  2  0  0  0  0
  2  3  1  0  0  0  0
  3  4  2  0  0  0  0
  3 22  1  0  0  0  0
  4  5  1  0  0  0  0
  4  6  1  0  0  0  0
  5 23  1  0  0  0  0
  5 24  1  0  0  0  0
  5 25  1  0  0  0  0
  6  7  1  0  0  0  0
  6 37  1  0  0  0  0
  7  8  2  0  0  0  0
  7 18  1  0  0  0  0
  8  9  1  0  0  0  0
  9 10  2  0  0  0  0
  9 11  1  0  0  0  0
 11 17  1  0  0  0  0
 11 12  1  0  0  0  0
 11 26  1  0  0  0  0
 12 13  1  0  0  0  0
 12 27  1  0  0  0  0
 12 28  1  0  0  0  0
 13 14  1  0  0  0  0
 13 15  1  0  0  0  0
 13 38  1  0  0  0  0
 14 29  1  0  0  0  0
 14 30  1  0  0  0  0
 14 31  1  0  0  0  0
 15 16  1  0  0  0  0
 15 32  1  0  0  0  0
 15 33  1  0  0  0  0
 16 17  1  0  0  0  0
 16 34  1  0  0  0  0
 16 35  1  0  0  0  0
 18 36  1  0  0  0  0
M  CHG  1  13   1
M  END
> <s_m_source_file>
AV-unprocessed.smi

> <i_m_source_file_index>
3314

> <i_lp_mmshare_version>
43012

> <i_f3d_flags>
0

> <s_epik_input>
W0NIM11jMVtjSF1jKFtDSDNdKW5jKFtjSF0xKVtOSF1DKD1PKVtDQEBIXTJbQ0gyXU4oW0NIM10pW0NIMl1bQ0gyXU8y

> <s_epik_cmdline>
J2VwaWtfcHl0aG9uJywgJy1waCcsICc3LjAnLCAnLXRuJywgJzgnLCAnLW1hJywgJzIwMCcsICctbWV0YWxfYmluZGluZycsICctaW1hZScsICc8aW5maWxlLm1hZT4nLCAnLW9tYWUnLCAnPG91dGZpbGUubWFlPic=

> <r_epik_Ionization_Penalty>
0.519783

> <r_epik_Ionization_Penalty_Charging>
0.519783

> <r_epik_Ionization_Penalty_Neutral>
1.74183e-13

> <r_epik_State_Penalty>
2.39351

> <r_epik_Charging_Adjusted_Penalty>
2.91329

> <i_epik_Tot_Q>
1

> <i_epik_Tot_abs_Q>
1

> <r_epik_Metal_State_Penalty>
2.41924

> <b_epik_Metal_Only>
0

> <s_lp_Force_Field>
OPLS_2005

> <r_lp_Energy>
32.167

> <b_lp_Chiralities_Consistent>
1

> <s_lp_Variant>
AV-unprocessed.smi:3314-8

> <Gold.Version>
5.8.1

> <Gold.Id.Protein>
6NUR|6NUR_protein|mol2

> <Gold.PLP.Fitness>
38.4959

> <Gold.PLP.PLP>
-37.6297

> <Gold.PLP.part.hbond>
-1.0000

> <Gold.PLP.part.metal>
0.0000

> <Gold.PLP.part.buried>
-3.5433

> <Gold.PLP.part.nonpolar>
-33.1214

> <Gold.PLP.part.repulsive>
0.3185

> <Gold.PLP.ligand.clash>
0.0000

> <Gold.PLP.ligand.torsion>
0.7770

> <Gold.PLP.Chemscore.Hbond>
0.8000

> <Gold.PLP.Chemscore.CHOScore>
0.0000

> <Gold.PLP.Chemscore.Metal>
0.0000

> <Gold.Chemscore.Hbonds>
donor molecule, donor type, donor heavy atom, donor atom, acceptor molecule, acceptor atom, score
      P1  H  7989  7998       L1    10  0.80

> <Gold.PLP.Chemscore.Internal.Correction>
0.0203

> <Gold.Rescore>
     Score         DG    S(hbond)    S(metal)    S(lipo)     H(rot)  DE(clash)    DE(int)     intcor
     14.35     -16.43       0.83        0.00      91.84       1.00       0.10       1.99       ----

> <Gold.Chemscore.Fitness>
14.3481

> <Gold.Chemscore.DG>
-16.4339

> <Gold.Chemscore.ZeroCoef>
-5.4800

> <Gold.Chemscore.Hbond>
0.8288

> <Gold.Chemscore.Metal>
0.0000

> <Gold.Chemscore.Lipo>
91.8435

> <Gold.Chemscore.Internal_Hbond>
0.0000

> <Gold.Chemscore.DEClash>
0.0985

> <Gold.Chemscore.DEInternal>
1.9873

> <Gold.Chemscore.Rot>
1.0000

> <Gold.Chemscore.Internal.Correction>
   9.000000E+99

> <Gold.Chemscore.Hbonds>
donor molecule, donor type, donor heavy atom, donor atom, acceptor molecule, acceptor atom, score
      P1  H  7989  7998       L1    10  0.44

> <Gold.Chemscore.Hbond.Weighted>
-2.7682

> <Gold.Chemscore.Metal.Weighted>
-0.0000

> <Gold.Chemscore.Lipo.Weighted>
-10.7457

> <Gold.Chemscore.Internal_Hbond.Weighted>
0.0000

> <Gold.Chemscore.DEClash.Weighted>
0.0985

> <Gold.Chemscore.DEInternal.Weighted>
1.9873

> <Gold.Chemscore.Rot.Weighted>
2.5600

> <Gold.Chemscore.Internal.Correction.Weighted>
   9.000000E+99

> <Gold.Protein.RotatedTorsions>
[ 6907 6896 6895 6894 ] final -137.08 input  -60.11 | X-H torsion
[ 7974 7965 7964 7962 ] final  -54.27 input  175.53 | X-H torsion
[ 8008 7997 7996 7995 ] final  -74.96 input   59.86 | X-H torsion
[ 10167 10162 10161 10158 ] final -113.36 input  -65.29 | X-H torsion
[ 10718 10713 10712 10709 ] final   49.04 input   66.30 | X-H torsion
[ 10763 10752 10751 10750 ] final -109.16 input  -60.55 | X-H torsion
[ 11005 11000 10999 10996 ] final  120.83 input  -57.11 | X-H torsion

> <Gold.Protein.ActiveResidues>
 VAL166  LYS551  ARG553  GLY616  TRP617  ASP618  TYR619  PRO620  LYS621  CYS622 
 ASP623  PHE694  ASN695  SER759  ASP760  ASP761  ALA762  ILE779  LEU786  VAL792 
 PHE793  MET794  SER795  GLU796  ALA797  LYS798  CYS799  TRP800  GLU811  SER814 

> <Gold.Protein.RotatedAtoms>
  151.0181  133.5902  159.2674 H   0  0  0  0  0  0  0  0  0  0  0  0  # atno 6907 bound_to 6896
  151.3029  135.0773  159.9255 H   0  0  0  0  0  0  0  0  0  0  0  0  # atno 6908 bound_to 6896
  152.5316  133.9859  159.7882 H   0  0  0  0  0  0  0  0  0  0  0  0  # atno 6909 bound_to 6896
  145.8874  140.8097  142.9809 H   0  0  0  0  0  0  0  0  0  0  0  0  # atno 7974 bound_to 7965
  154.5376  140.0752  156.8454 H   0  0  0  0  0  0  0  0  0  0  0  0  # atno 8008 bound_to 7997
  155.3247  140.3398  155.4222 H   0  0  0  0  0  0  0  0  0  0  0  0  # atno 8009 bound_to 7997
  156.1843  140.1663  156.8201 H   0  0  0  0  0  0  0  0  0  0  0  0  # atno 8010 bound_to 7997
  140.1127  143.4513  152.1742 H   0  0  0  0  0  0  0  0  0  0  0  0  # atno 10167 bound_to 10162
  157.4747  130.8277  149.8026 H   0  0  0  0  0  0  0  0  0  0  0  0  # atno 10718 bound_to 10713
  154.8177  135.4611  154.0690 H   0  0  0  0  0  0  0  0  0  0  0  0  # atno 10763 bound_to 10752
  153.2069  135.6876  153.8168 H   0  0  0  0  0  0  0  0  0  0  0  0  # atno 10764 bound_to 10752
  153.7633  135.3281  155.3317 H   0  0  0  0  0  0  0  0  0  0  0  0  # atno 10765 bound_to 10752
  139.9201  134.9636  156.7866 H   0  0  0  0  0  0  0  0  0  0  0  0  # atno 11005 bound_to 11000
  144.6729  140.1477  143.7432 LP  0  0  0  0  0  0  0  0  0  0  0  0  # atno 17320 bound_to 7965
  145.8950  139.2397  143.1527 LP  0  0  0  0  0  0  0  0  0  0  0  0  # atno 17321 bound_to 7965
  139.5610  144.7406  151.4154 LP  0  0  0  0  0  0  0  0  0  0  0  0  # atno 17342 bound_to 10162
  140.6916  143.7847  150.7264 LP  0  0  0  0  0  0  0  0  0  0  0  0  # atno 17343 bound_to 10162
  156.0091  130.3842  150.2328 LP  0  0  0  0  0  0  0  0  0  0  0  0  # atno 17370 bound_to 10713
  157.0512  131.0063  151.3253 LP  0  0  0  0  0  0  0  0  0  0  0  0  # atno 17371 bound_to 10713
  140.6501  133.9739  155.7751 LP  0  0  0  0  0  0  0  0  0  0  0  0  # atno 17394 bound_to 11000
  141.0714  134.0200  157.3521 LP  0  0  0  0  0  0  0  0  0  0  0  0  # atno 17395 bound_to 11000

$$$$
