AV-unprocessed.smi:798|AV-procd|sdf|3777|dock4
  -GOLD-   22720 1213D 1   1.00000     0.00000
 Structure written by MMmdl.
 33 35  0  0  0  0  0  0  0  0  2 V2000
  149.5942  136.0388  158.9225 O   0  0  0  0  0  0  0  0  0  0  0  0
  149.1475  137.1344  159.2702 C   0  0  0  0  0  0  0  0  0  0  0  0
  148.3055  137.3653  160.3032 N   0  5  0  0  0  0  0  0  0  0  0  0
  147.8539  136.3388  161.0426 C   0  0  0  0  0  0  0  0  0  0  0  0
  147.6573  135.1135  160.5296 N   0  0  0  0  0  0  0  0  0  0  0  0
  147.1834  134.2009  161.4625 N   0  0  0  0  0  0  0  0  0  0  0  0
  147.0268  134.7665  162.6591 C   0  0  0  0  0  0  0  0  0  0  0  0
  147.4391  136.4654  162.7544 S   0  0  0  0  0  0  0  0  0  0  0  0
  149.5022  138.2423  158.6046 N   0  0  0  0  0  0  0  0  0  0  0  0
  150.4158  138.2972  157.4641 C   0  0  2  0  0  0  0  0  0  0  0  0
  151.5954  139.2847  157.6622 C   0  0  2  0  0  0  0  0  0  0  0  0
  151.0990  140.6760  158.1109 C   0  0  0  0  0  0  0  0  0  0  0  0
  150.3932  141.2033  156.8481 C   0  0  0  0  0  0  0  0  0  0  0  0
  150.6127  140.0635  155.8334 C   0  0  1  0  0  0  0  0  0  0  0  0
  152.0020  139.5719  156.2228 C   0  0  0  0  0  0  0  0  0  0  0  0
  149.7099  138.8631  156.2026 C   0  0  1  0  0  0  0  0  0  0  0  0
  149.5852  137.8405  155.0564 C   0  0  0  0  0  0  0  0  0  0  0  0
  149.2415  138.4920  153.8522 O   0  0  0  0  0  0  0  0  0  0  0  0
  146.6623  134.1811  163.4899 H   0  0  0  0  0  0  0  0  0  0  0  0
  149.1102  139.1181  158.9180 H   0  0  0  0  0  0  0  0  0  0  0  0
  150.8048  137.2967  157.2645 H   0  0  0  0  0  0  0  0  0  0  0  0
  152.3944  138.8875  158.2887 H   0  0  0  0  0  0  0  0  0  0  0  0
  150.4420  140.6462  158.9802 H   0  0  0  0  0  0  0  0  0  0  0  0
  151.9440  141.3162  158.3671 H   0  0  0  0  0  0  0  0  0  0  0  0
  149.3362  141.4105  157.0187 H   0  0  0  0  0  0  0  0  0  0  0  0
  150.8628  142.1261  156.5053 H   0  0  0  0  0  0  0  0  0  0  0  0
  150.5133  140.3883  154.7972 H   0  0  0  0  0  0  0  0  0  0  0  0
  152.7733  140.3390  156.1349 H   0  0  0  0  0  0  0  0  0  0  0  0
  152.3241  138.6829  155.6789 H   0  0  0  0  0  0  0  0  0  0  0  0
  148.7087  139.2298  156.4379 H   0  0  0  0  0  0  0  0  0  0  0  0
  150.5342  137.3257  154.9056 H   0  0  0  0  0  0  0  0  0  0  0  0
  148.8378  137.0787  155.2785 H   0  0  0  0  0  0  0  0  0  0  0  0
  149.1384  137.8406  153.1757 H   0  0  0  0  0  0  0  0  0  0  0  0
  1  2  2  0  0  0  0
  2  3  1  0  0  0  0
  2  9  1  0  0  0  0
  3  4  1  0  0  0  0
  4  8  1  0  0  0  0
  4  5  2  0  0  0  0
  5  6  1  0  0  0  0
  6  7  2  0  0  0  0
  7  8  1  0  0  0  0
  7 19  1  0  0  0  0
  9 10  1  0  0  0  0
  9 20  1  0  0  0  0
 10 16  1  0  0  0  0
 10 11  1  0  0  0  0
 10 21  1  0  0  0  0
 11 15  1  0  0  0  0
 11 12  1  0  0  0  0
 11 22  1  0  0  0  0
 12 13  1  0  0  0  0
 12 23  1  0  0  0  0
 12 24  1  0  0  0  0
 13 14  1  0  0  0  0
 13 25  1  0  0  0  0
 13 26  1  0  0  0  0
 14 15  1  0  0  0  0
 14 16  1  0  0  0  0
 14 27  1  0  0  0  0
 15 28  1  0  0  0  0
 15 29  1  0  0  0  0
 16 17  1  0  0  0  0
 16 30  1  0  0  0  0
 17 18  1  0  0  0  0
 17 31  1  0  0  0  0
 17 32  1  0  0  0  0
 18 33  1  0  0  0  0
M  CHG  1   3  -1
M  END
> <s_m_source_file>
AV-unprocessed.smi

> <i_m_source_file_index>
798

> <i_lp_mmshare_version>
43012

> <i_f3d_flags>
0

> <s_epik_input>
W0NIMl0xW0NIMl1bQ0BASF0oW0NIMl0yKVtDQEBIXShbQ0gyXVtPSF0pW0NAQEhdKFtDQEhdMTIpW05IXUMoPU8pW05IXWMzbm5bY0hdczM=

> <s_epik_cmdline>
J2VwaWtfcHl0aG9uJywgJy1waCcsICc3LjAnLCAnLXRuJywgJzgnLCAnLW1hJywgJzIwMCcsICctbWV0YWxfYmluZGluZycsICctaW1hZScsICc8aW5maWxlLm1hZT4nLCAnLW9tYWUnLCAnPG91dGZpbGUubWFlPic=

> <r_lp_tautomer_probability>
1

> <r_epik_Ionization_Penalty>
4.53732

> <r_epik_Ionization_Penalty_Charging>
4.48632

> <r_epik_Ionization_Penalty_Neutral>
0.0510007

> <r_epik_State_Penalty>
4.48602

> <r_epik_Charging_Adjusted_Penalty>
8.97234

> <i_epik_Tot_Q>
-1

> <i_epik_Tot_abs_Q>
1

> <r_epik_Metal_State_Penalty>
0.812492

> <b_epik_Metal_Only>
1

> <s_lp_Force_Field>
OPLS_2005

> <r_lp_Energy>
46.8419

> <b_lp_Chiralities_Consistent>
1

> <s_lp_Variant>
AV-unprocessed.smi:798-9

> <Gold.Version>
5.8.1

> <Gold.Id.Protein>
6NUR|6NUR_protein|mol2

> <Gold.PLP.Fitness>
40.5888

> <Gold.PLP.PLP>
-29.9526

> <Gold.PLP.part.hbond>
-4.7848

> <Gold.PLP.part.metal>
0.0000

> <Gold.PLP.part.buried>
-5.2572

> <Gold.PLP.part.nonpolar>
-21.8712

> <Gold.PLP.part.repulsive>
0.1826

> <Gold.PLP.ligand.clash>
0.0000

> <Gold.PLP.ligand.torsion>
0.2851

> <Gold.PLP.Chemscore.Hbond>
3.7230

> <Gold.PLP.Chemscore.CHOScore>
0.0000

> <Gold.PLP.Chemscore.Metal>
0.0000

> <Gold.Chemscore.Hbonds>
donor molecule, donor type, donor heavy atom, donor atom, acceptor molecule, acceptor atom, score
      L1  H    18    33       P1  7948  0.93
      P1  H  6896  6907       L1     1  1.00
      P1  H  6931  6943       L1     3  0.73
      P1  H  6934  6947       L1     3  0.99

> <Gold.PLP.Chemscore.Internal.Correction>
0.0374

> <Gold.Rescore>
     Score         DG    S(hbond)    S(metal)    S(lipo)     H(rot)  DE(clash)    DE(int)     intcor
     13.74     -15.57       2.65        0.00      52.44       1.92       0.00       1.83       ----

> <Gold.Chemscore.Fitness>
13.7364

> <Gold.Chemscore.DG>
-15.5656

> <Gold.Chemscore.ZeroCoef>
-5.4800

> <Gold.Chemscore.Hbond>
2.6550

> <Gold.Chemscore.Metal>
0.0000

> <Gold.Chemscore.Lipo>
52.4353

> <Gold.Chemscore.Internal_Hbond>
0.0000

> <Gold.Chemscore.DEClash>
0.0000

> <Gold.Chemscore.DEInternal>
1.8292

> <Gold.Chemscore.Rot>
1.9207

> <Gold.Chemscore.Internal.Correction>
   9.000000E+99

> <Gold.Chemscore.Hbonds>
donor molecule, donor type, donor heavy atom, donor atom, acceptor molecule, acceptor atom, score
      L1  H    18    33       P1  7948  0.88
      P1  H  6896  6907       L1     1  1.00
      P1  H  6931  6943       L1     3  0.02
      P1  H  6934  6947       L1     3  0.26

> <Gold.Chemscore.Hbond.Weighted>
-8.8675

> <Gold.Chemscore.Metal.Weighted>
-0.0000

> <Gold.Chemscore.Lipo.Weighted>
-6.1349

> <Gold.Chemscore.Internal_Hbond.Weighted>
0.0000

> <Gold.Chemscore.DEClash.Weighted>
0.0000

> <Gold.Chemscore.DEInternal.Weighted>
1.8292

> <Gold.Chemscore.Rot.Weighted>
4.9169

> <Gold.Chemscore.Internal.Correction.Weighted>
   9.000000E+99

> <Gold.Protein.RotatedTorsions>
[ 6907 6896 6895 6894 ] final  -50.22 input  -60.11 | X-H torsion
[ 7974 7965 7964 7962 ] final  129.79 input  175.53 | X-H torsion
[ 8008 7997 7996 7995 ] final   -4.65 input   59.86 | X-H torsion
[ 10167 10162 10161 10158 ] final  -21.02 input  -65.29 | X-H torsion
[ 10718 10713 10712 10709 ] final  174.21 input   66.30 | X-H torsion
[ 10763 10752 10751 10750 ] final  -36.71 input  -60.55 | X-H torsion
[ 11005 11000 10999 10996 ] final  147.74 input  -57.11 | X-H torsion

> <Gold.Protein.ActiveResidues>
 VAL166  LYS551  ARG553  GLY616  TRP617  ASP618  TYR619  PRO620  LYS621  CYS622 
 ASP623  PHE694  ASN695  SER759  ASP760  ASP761  ALA762  ILE779  LEU786  VAL792 
 PHE793  MET794  SER795  GLU796  ALA797  LYS798  CYS799  TRP800  GLU811  SER814 

> <Gold.Protein.RotatedAtoms>
  150.8729  134.8106  159.7167 H   0  0  0  0  0  0  0  0  0  0  0  0  # atno 6907 bound_to 6896
  152.4726  134.4919  159.9707 H   0  0  0  0  0  0  0  0  0  0  0  0  # atno 6908 bound_to 6896
  151.5004  133.3467  159.2903 H   0  0  0  0  0  0  0  0  0  0  0  0  # atno 6909 bound_to 6896
  145.0248  139.4099  143.5179 H   0  0  0  0  0  0  0  0  0  0  0  0  # atno 7974 bound_to 7965
  154.6121  140.2478  155.7655 H   0  0  0  0  0  0  0  0  0  0  0  0  # atno 8008 bound_to 7997
  156.2377  140.2944  156.0307 H   0  0  0  0  0  0  0  0  0  0  0  0  # atno 8009 bound_to 7997
  155.2035  140.0395  157.2912 H   0  0  0  0  0  0  0  0  0  0  0  0  # atno 8010 bound_to 7997
  140.7279  143.4667  151.0304 H   0  0  0  0  0  0  0  0  0  0  0  0  # atno 10167 bound_to 10162
  156.9530  131.0037  151.2944 H   0  0  0  0  0  0  0  0  0  0  0  0  # atno 10718 bound_to 10713
  153.8842  135.6818  153.4765 H   0  0  0  0  0  0  0  0  0  0  0  0  # atno 10763 bound_to 10752
  153.1217  135.4737  154.9204 H   0  0  0  0  0  0  0  0  0  0  0  0  # atno 10764 bound_to 10752
  154.7654  135.3223  154.8249 H   0  0  0  0  0  0  0  0  0  0  0  0  # atno 10765 bound_to 10752
  140.0901  134.9046  157.1637 H   0  0  0  0  0  0  0  0  0  0  0  0  # atno 11005 bound_to 11000
  146.3490  139.9766  142.8700 LP  0  0  0  0  0  0  0  0  0  0  0  0  # atno 17320 bound_to 7965
  145.1848  140.9784  143.4245 LP  0  0  0  0  0  0  0  0  0  0  0  0  # atno 17321 bound_to 7965
  139.8356  143.7633  152.3180 LP  0  0  0  0  0  0  0  0  0  0  0  0  # atno 17342 bound_to 10162
  139.7763  144.7459  151.0151 LP  0  0  0  0  0  0  0  0  0  0  0  0  # atno 17343 bound_to 10162
  157.5709  130.8310  149.8391 LP  0  0  0  0  0  0  0  0  0  0  0  0  # atno 17370 bound_to 10713
  156.0355  130.3752  150.1573 LP  0  0  0  0  0  0  0  0  0  0  0  0  # atno 17371 bound_to 10713
  140.3364  134.2752  155.7219 LP  0  0  0  0  0  0  0  0  0  0  0  0  # atno 17394 bound_to 11000
  141.2075  133.7803  157.0114 LP  0  0  0  0  0  0  0  0  0  0  0  0  # atno 17395 bound_to 11000

$$$$
