#       Name:                AV-unprocessed.smi:3258
#       Creating user name   scv26
#       Creation time:       Fri Mar 27 18:36:57 2020


#       File generated by GOLD software.
#

@<TRIPOS>MOLECULE
AV-unprocessed.smi:3258
    43    44     1
SMALL
NO_CHARGES


@<TRIPOS>ATOM
      1 ****        -2.7383  -0.2275   2.3703 C.3            1 S1                 0.0000
      2 ****        -1.8694   0.2149   1.1814 C.3            1 S1                 0.0000
      3 ****        -2.2908  -0.4320  -0.1563 C.3            1 S1                 0.0000
      4 ****        -3.6696  -0.1446  -0.5083 N.pl3          1 S1                 0.0000
      5 ****        -4.1925   1.0216  -1.0258 C.2            1 S1                 0.0000
      6 ****        -5.5332   0.8259  -1.1946 C.2            1 S1                 0.0000
      7 ****        -5.7382  -0.5099  -0.7489 C.2            1 S1                 0.0000
      8 ****        -4.6208  -1.0891  -0.3402 N.2            1 S1                 0.0000
      9 ****        -0.4714  -0.0925   1.4699 N.am           1 S1                 0.0000
     10 ****         0.5842   0.5553   0.9567 C.2            1 S1                 0.0000
     11 ****         0.4988   1.4996   0.1713 O.2            1 S1                 0.0000
     12 ****         1.7426   0.0440   1.3965 N.am           1 S1                 0.0000
     13 ****         3.0714   0.5155   1.0190 C.3            1 S1                 0.0000
     14 ****         3.6660  -0.3073  -0.1395 C.3            1 S1                 0.0000
     15 ****         2.9461  -0.1712  -1.4678 C.3            1 S1                 0.0000
     16 ****         4.0019  -0.6617  -2.4542 C.3            1 S1                 0.0000
     17 ****         5.2623  -0.3458  -1.8689 O.3            1 S1                 0.0000
     18 ****         5.0790   0.1189  -0.5353 C.3            1 S1                 0.0000
     19 ****        -3.7789   0.0689   2.2371 H              1 S1                 0.0000
     20 ****        -2.3913   0.2254   3.2996 H              1 S1                 0.0000
     21 ****        -2.7144  -1.3103   2.4975 H              1 S1                 0.0000
     22 ****        -1.9728   1.2980   1.0902 H              1 S1                 0.0000
     23 ****        -1.6583  -0.0724  -0.9689 H              1 S1                 0.0000
     24 ****        -2.1540  -1.5140  -0.1138 H              1 S1                 0.0000
     25 ****        -3.5732   1.8837  -1.2264 H              1 S1                 0.0000
     26 ****        -6.2571   1.5293  -1.5783 H              1 S1                 0.0000
     27 ****        -6.6595  -1.0724  -0.7112 H              1 S1                 0.0000
     28 ****        -0.2968  -0.8571   2.1056 H              1 S1                 0.0000
     29 ****         1.7036  -0.7332   2.0397 H              1 S1                 0.0000
     30 ****         3.0500   1.5772   0.7673 H              1 S1                 0.0000
     31 ****         3.7142   0.4247   1.8948 H              1 S1                 0.0000
     32 ****         3.6888  -1.3624   0.1388 H              1 S1                 0.0000
     33 ****         2.0214  -0.7467  -1.5189 H              1 S1                 0.0000
     34 ****         2.7083   0.8750  -1.6659 H              1 S1                 0.0000
     35 ****         3.9380  -1.7440  -2.5733 H              1 S1                 0.0000
     36 ****         3.8937  -0.2061  -3.4386 H              1 S1                 0.0000
     37 ****         5.1693   1.2062  -0.5351 H              1 S1                 0.0000
     38 ****         5.8401  -0.2829   0.1340 H              1 S1                 0.0000
     39 ****        -4.5062  -2.0174   0.0136 LP             1 S1                 0.0000
     40 ****        -0.3997   1.8271  -0.1210 LP             1 S1                 0.0000
     41 ****         1.3279   1.9391  -0.1743 LP             1 S1                 0.0000
     42 ****         5.7087   0.3673  -2.4094 LP             1 S1                 0.0000
     43 ****         5.8366  -1.1644  -1.8581 LP             1 S1                 0.0000
@<TRIPOS>BOND
    1    1    2 1     
    2    1   19 1     
    3    1   20 1     
    4    1   21 1     
    5    2    3 1     
    6    2    9 1     
    7    2   22 1     
    8    3    4 1     
    9    3   23 1     
   10    3   24 1     
   11    4    8 1     
   12    4    5 1     
   13    5    6 2     
   14    5   25 1     
   15    6    7 1     
   16    6   26 1     
   17    7    8 2     
   18    7   27 1     
   19    9   10 am    
   20    9   28 1     
   21   10   11 2     
   22   10   12 am    
   23   12   13 1     
   24   12   29 1     
   25   13   14 1     
   26   13   30 1     
   27   13   31 1     
   28   14   18 1     
   29   14   15 1     
   30   14   32 1     
   31   15   16 1     
   32   15   33 1     
   33   15   34 1     
   34   16   17 1     
   35   16   35 1     
   36   16   36 1     
   37   17   18 1     
   38   18   37 1     
   39   18   38 1     
   40    8   39 1     
   41   11   40 1     
   42   11   41 1     
   43   17   42 1     
   44   17   43 1     
@<TRIPOS>SUBSTRUCTURE
      1 S1             1
@<TRIPOS>SET
LONE_PAIRS      STATIC     ATOMS    <user>   **** ""
5 39 40 41 42 43
DONOR_HYDROGENS      STATIC     ATOMS    <user>   **** ""
2 28 29
ATOM$BLUE        STATIC     ATOMS    COLORGROUP SYSTEM
5 39 40 41 42 43
ATOM$RED        STATIC     ATOMS    COLORGROUP SYSTEM
2 28 29
