#       Name:                AV-unprocessed.smi:585
#       Creating user name   scv26
#       Creation time:       Thu Mar 26 23:50:36 2020


#       File generated by GOLD software.
#

@<TRIPOS>MOLECULE
AV-unprocessed.smi:585
    42    43     1
SMALL
NO_CHARGES


@<TRIPOS>ATOM
      1 ****        -3.2974   3.9530  -2.0830 C.3            1 S1                 0.0000
      2 ****        -2.9747   2.5740  -2.1035 O.3            1 S1                 0.0000
      3 ****        -3.0429   2.0171  -3.4057 C.3            1 S1                 0.0000
      4 ****        -2.6617   0.5300  -3.3618 C.3            1 S1                 0.0000
      5 ****        -1.2228   0.3271  -3.2365 N.pl3          1 S1                 0.0000
      6 ****        -0.5842   0.3373  -1.9878 C.ar           1 S1                 0.0000
      7 ****         0.8265   0.3911  -1.9559 C.ar           1 S1                 0.0000
      8 ****         1.4804   0.3982  -0.7082 C.ar           1 S1                 0.0000
      9 ****         0.6938   0.3513   0.4577 C.ar           1 S1                 0.0000
     10 ****         1.4721   0.3519   2.0653 S.o2           1 S1                 0.0000
     11 ****         2.6312   1.2563   2.0062 O.2            1 S1                 0.0000
     12 ****         0.4492   0.5255   3.1086 O.2            1 S1                 0.0000
     13 ****         2.0784  -1.2649   2.1768 N.3            1 S1                 0.0000
     14 ****         3.2011  -1.5442   3.0811 C.3            1 S1                 0.0000
     15 ****         2.7896  -2.7830   3.8774 C.3            1 S1                 0.0000
     16 ****         1.8544  -3.5179   2.9272 C.3            1 S1                 0.0000
     17 ****         1.1268  -2.3832   2.2071 C.3            1 S1                 0.0000
     18 ****        -0.7082   0.2963   0.3348 C.ar           1 S1                 0.0000
     19 ****        -1.3358   0.2848  -0.8610 N.ar           1 S1                 0.0000
     20 ****        -3.2404   4.3270  -1.0609 H              1 S1                 0.0000
     21 ****        -4.3097   4.1278  -2.4499 H              1 S1                 0.0000
     22 ****        -2.5993   4.5293  -2.6916 H              1 S1                 0.0000
     23 ****        -4.0647   2.1128  -3.7760 H              1 S1                 0.0000
     24 ****        -2.3960   2.5594  -4.0976 H              1 S1                 0.0000
     25 ****        -3.2126   0.0077  -2.5791 H              1 S1                 0.0000
     26 ****        -2.9620   0.0646  -4.3007 H              1 S1                 0.0000
     27 ****        -0.6592   0.4075  -4.0703 H              1 S1                 0.0000
     28 ****         1.4015   0.4275  -2.8697 H              1 S1                 0.0000
     29 ****         2.5582   0.4370  -0.6509 H              1 S1                 0.0000
     30 ****         4.0925  -1.7401   2.4843 H              1 S1                 0.0000
     31 ****         3.4074  -0.6965   3.7355 H              1 S1                 0.0000
     32 ****         3.6418  -3.3887   4.1870 H              1 S1                 0.0000
     33 ****         2.2451  -2.4832   4.7741 H              1 S1                 0.0000
     34 ****         2.4358  -4.1004   2.2111 H              1 S1                 0.0000
     35 ****         1.1741  -4.1969   3.4421 H              1 S1                 0.0000
     36 ****         0.2392  -2.0918   2.7696 H              1 S1                 0.0000
     37 ****         0.8164  -2.6570   1.1984 H              1 S1                 0.0000
     38 ****        -1.3441   0.2534   1.2065 H              1 S1                 0.0000
     39 ****        -3.6170   2.0860  -1.5125 LP             1 S1                 0.0000
     40 ****        -2.0452   2.4574  -1.7536 LP             1 S1                 0.0000
     41 ****         2.4565  -1.2370   1.2514 LP             1 S1                 0.0000
     42 ****        -2.3333   0.2386  -0.9140 LP             1 S1                 0.0000
@<TRIPOS>BOND
    1    1    2 1     
    2    1   20 1     
    3    1   21 1     
    4    1   22 1     
    5    2    3 1     
    6    3    4 1     
    7    3   23 1     
    8    3   24 1     
    9    4    5 1     
   10    4   25 1     
   11    4   26 1     
   12    5    6 1     
   13    5   27 1     
   14    6   19 ar    
   15    6    7 ar    
   16    7    8 ar    
   17    7   28 1     
   18    8    9 ar    
   19    8   29 1     
   20    9   10 1     
   21    9   18 ar    
   22   10   11 2     
   23   10   12 2     
   24   10   13 1     
   25   13   17 1     
   26   13   14 1     
   27   14   15 1     
   28   14   30 1     
   29   14   31 1     
   30   15   16 1     
   31   15   32 1     
   32   15   33 1     
   33   16   17 1     
   34   16   34 1     
   35   16   35 1     
   36   17   36 1     
   37   17   37 1     
   38   18   19 ar    
   39   18   38 1     
   40    2   39 1     
   41    2   40 1     
   42   13   41 1     
   43   19   42 1     
@<TRIPOS>SUBSTRUCTURE
      1 S1             1
@<TRIPOS>SET
LONE_PAIRS      STATIC     ATOMS    <user>   **** ""
6 39 40 11 12 41 42
DONOR_HYDROGENS      STATIC     ATOMS    <user>   **** ""
1 27
ATOM$BLUE        STATIC     ATOMS    COLORGROUP SYSTEM
6 39 40 11 12 41 42
ATOM$RED        STATIC     ATOMS    COLORGROUP SYSTEM
1 27
