AV-unprocessed.smi:1429|AV-procd|sdf|5820|dock4
  -GOLD-   22720 5473D 1   1.00000     0.00000
 Structure written by MMmdl.
 29 30  0  0  0  0  0  0  0  0  2 V2000
  145.1769  134.7407  162.6092 C   0  0  0  0  0  0  0  0  0  0  0  0
  146.2821  135.3117  161.7884 C   0  0  0  0  0  0  0  0  0  0  0  0
  146.6874  136.5779  161.8945 N   0  0  0  0  0  0  0  0  0  0  0  0
  147.7278  136.8656  161.0246 N   0  0  0  0  0  0  0  0  0  0  0  0
  148.1034  135.8182  160.2668 C   0  0  0  0  0  0  0  0  0  0  0  0
  149.0873  135.8109  159.3392 N   0  5  0  0  0  0  0  0  0  0  0  0
  149.7607  136.9031  158.8956 C   0  0  0  0  0  0  0  0  0  0  0  0
  149.3740  138.0735  158.8899 O   0  0  0  0  0  0  0  0  0  0  0  0
  150.9797  136.6132  158.4213 N   0  0  0  0  0  0  0  0  0  0  0  0
  151.9246  137.5826  157.8804 C   0  0  0  0  0  0  0  0  0  0  0  0
  151.3688  138.2432  156.6085 C   0  0  2  0  0  0  0  0  0  0  0  0
  151.3346  137.3435  155.3885 C   0  0  0  0  0  0  0  0  0  0  0  0
  151.2254  138.3568  154.2531 C   0  0  0  0  0  0  0  0  0  0  0  0
  151.8996  139.5274  154.7069 O   0  0  0  0  0  0  0  0  0  0  0  0
  152.2163  139.4044  156.0905 C   0  0  0  0  0  0  0  0  0  0  0  0
  147.1579  134.3667  160.5988 S   0  0  0  0  0  0  0  0  0  0  0  0
  144.7648  135.4959  163.2792 H   0  0  0  0  0  0  0  0  0  0  0  0
  145.5485  133.9085  163.2071 H   0  0  0  0  0  0  0  0  0  0  0  0
  144.3803  134.3781  161.9594 H   0  0  0  0  0  0  0  0  0  0  0  0
  151.2708  135.6469  158.4392 H   0  0  0  0  0  0  0  0  0  0  0  0
  152.1264  138.3447  158.6344 H   0  0  0  0  0  0  0  0  0  0  0  0
  152.8719  137.0847  157.6664 H   0  0  0  0  0  0  0  0  0  0  0  0
  150.3590  138.6101  156.8016 H   0  0  0  0  0  0  0  0  0  0  0  0
  152.2673  136.7839  155.3024 H   0  0  0  0  0  0  0  0  0  0  0  0
  150.5093  136.6312  155.4012 H   0  0  0  0  0  0  0  0  0  0  0  0
  151.6532  137.9852  153.3217 H   0  0  0  0  0  0  0  0  0  0  0  0
  150.1806  138.6093  154.0682 H   0  0  0  0  0  0  0  0  0  0  0  0
  152.0238  140.3337  156.6275 H   0  0  0  0  0  0  0  0  0  0  0  0
  153.2795  139.1772  156.1800 H   0  0  0  0  0  0  0  0  0  0  0  0
  1  2  1  0  0  0  0
  1 17  1  0  0  0  0
  1 18  1  0  0  0  0
  1 19  1  0  0  0  0
  2 16  1  0  0  0  0
  2  3  2  0  0  0  0
  3  4  1  0  0  0  0
  4  5  2  0  0  0  0
  5  6  1  0  0  0  0
  5 16  1  0  0  0  0
  6  7  1  0  0  0  0
  7  8  2  0  0  0  0
  7  9  1  0  0  0  0
  9 10  1  0  0  0  0
  9 20  1  0  0  0  0
 10 11  1  0  0  0  0
 10 21  1  0  0  0  0
 10 22  1  0  0  0  0
 11 15  1  0  0  0  0
 11 12  1  0  0  0  0
 11 23  1  0  0  0  0
 12 13  1  0  0  0  0
 12 24  1  0  0  0  0
 12 25  1  0  0  0  0
 13 14  1  0  0  0  0
 13 26  1  0  0  0  0
 13 27  1  0  0  0  0
 14 15  1  0  0  0  0
 15 28  1  0  0  0  0
 15 29  1  0  0  0  0
M  CHG  1   6  -1
M  END
> <s_m_source_file>
AV-unprocessed.smi

> <i_m_source_file_index>
1429

> <i_lp_mmshare_version>
43012

> <i_f3d_flags>
0

> <s_epik_input>
W0NIM11jMW5uYyhzMSlbTkhdQyg9TylbTkhdW0NIMl1bQ0BASF0yW0NIMl1bQ0gyXU9bQ0gyXTI=

> <s_epik_cmdline>
J2VwaWtfcHl0aG9uJywgJy1waCcsICc3LjAnLCAnLXRuJywgJzgnLCAnLW1hJywgJzIwMCcsICctbWV0YWxfYmluZGluZycsICctaW1hZScsICc8aW5maWxlLm1hZT4nLCAnLW9tYWUnLCAnPG91dGZpbGUubWFlPic=

> <r_lp_tautomer_probability>
1

> <r_epik_Ionization_Penalty>
4.4122

> <r_epik_Ionization_Penalty_Charging>
4.26477

> <r_epik_Ionization_Penalty_Neutral>
0.147429

> <r_epik_State_Penalty>
4.26433

> <r_epik_Charging_Adjusted_Penalty>
8.5291

> <i_epik_Tot_Q>
-1

> <i_epik_Tot_abs_Q>
1

> <r_epik_Metal_State_Penalty>
0.713483

> <b_epik_Metal_Only>
1

> <s_lp_Force_Field>
OPLS_2005

> <r_lp_Energy>
20.5351

> <b_lp_Chiralities_Consistent>
1

> <s_lp_Variant>
AV-unprocessed.smi:1429-3

> <Gold.Version>
5.8.1

> <Gold.Id.Protein>
6NUR|6NUR_protein|mol2

> <Gold.PLP.Fitness>
40.5063

> <Gold.PLP.PLP>
-26.2433

> <Gold.PLP.part.hbond>
-5.1193

> <Gold.PLP.part.metal>
0.0000

> <Gold.PLP.part.buried>
-5.3090

> <Gold.PLP.part.nonpolar>
-17.0821

> <Gold.PLP.part.repulsive>
0.2017

> <Gold.PLP.ligand.clash>
0.0000

> <Gold.PLP.ligand.torsion>
0.2117

> <Gold.PLP.Chemscore.Hbond>
4.8880

> <Gold.PLP.Chemscore.CHOScore>
0.0000

> <Gold.PLP.Chemscore.Metal>
0.0000

> <Gold.Chemscore.Hbonds>
donor molecule, donor type, donor heavy atom, donor atom, acceptor molecule, acceptor atom, score
      P1  H  6896  6909       L1     6  1.60
      P1  H  6931  6943       L1     4  0.83
      P1  H  6934  6947       L1     4  0.31
      P1  H  7989  7998       L1    14  0.98

> <Gold.PLP.Chemscore.Internal.Correction>
0.0224

> <Gold.Rescore>
     Score         DG    S(hbond)    S(metal)    S(lipo)     H(rot)  DE(clash)    DE(int)     intcor
     16.63     -17.69       2.81        0.00      52.61       1.30       0.03       1.03       ----

> <Gold.Chemscore.Fitness>
16.6286

> <Gold.Chemscore.DG>
-17.6889

> <Gold.Chemscore.ZeroCoef>
-5.4800

> <Gold.Chemscore.Hbond>
2.8072

> <Gold.Chemscore.Metal>
0.0000

> <Gold.Chemscore.Lipo>
52.6124

> <Gold.Chemscore.Internal_Hbond>
0.0000

> <Gold.Chemscore.DEClash>
0.0272

> <Gold.Chemscore.DEInternal>
1.0331

> <Gold.Chemscore.Rot>
1.2980

> <Gold.Chemscore.Internal.Correction>
   9.000000E+99

> <Gold.Chemscore.Hbonds>
donor molecule, donor type, donor heavy atom, donor atom, acceptor molecule, acceptor atom, score
      P1  H  6896  6909       L1     6  0.11
      P1  H  6931  6943       L1     4  0.59
      P1  H  6934  6947       L1     4  0.03
      P1  H  7989  7998       L1    14  0.65

> <Gold.Chemscore.Hbond.Weighted>
-9.3761

> <Gold.Chemscore.Metal.Weighted>
-0.0000

> <Gold.Chemscore.Lipo.Weighted>
-6.1557

> <Gold.Chemscore.Internal_Hbond.Weighted>
0.0000

> <Gold.Chemscore.DEClash.Weighted>
0.0272

> <Gold.Chemscore.DEInternal.Weighted>
1.0331

> <Gold.Chemscore.Rot.Weighted>
3.3229

> <Gold.Chemscore.Internal.Correction.Weighted>
   9.000000E+99

> <Gold.Protein.RotatedTorsions>
[ 6907 6896 6895 6894 ] final   55.49 input  -60.11 | X-H torsion
[ 7974 7965 7964 7962 ] final   57.52 input  175.53 | X-H torsion
[ 8008 7997 7996 7995 ] final  112.63 input   59.86 | X-H torsion
[ 10167 10162 10161 10158 ] final  153.49 input  -65.29 | X-H torsion
[ 10718 10713 10712 10709 ] final  158.91 input   66.30 | X-H torsion
[ 10763 10752 10751 10750 ] final   91.08 input  -60.55 | X-H torsion
[ 11005 11000 10999 10996 ] final  -74.41 input  -57.11 | X-H torsion

> <Gold.Protein.ActiveResidues>
 VAL166  LYS551  ARG553  GLY616  TRP617  ASP618  TYR619  PRO620  LYS621  CYS622 
 ASP623  PHE694  ASN695  SER759  ASP760  ASP761  ALA762  ILE779  LEU786  VAL792 
 PHE793  MET794  SER795  GLU796  ALA797  LYS798  CYS799  TRP800  GLU811  SER814 

> <Gold.Protein.RotatedAtoms>
  152.3543  134.6961  160.0226 H   0  0  0  0  0  0  0  0  0  0  0  0  # atno 6907 bound_to 6896
  151.7305  133.3312  159.3347 H   0  0  0  0  0  0  0  0  0  0  0  0  # atno 6908 bound_to 6896
  150.7561  134.6301  159.6226 H   0  0  0  0  0  0  0  0  0  0  0  0  # atno 6909 bound_to 6896
  145.9282  139.3785  143.0437 H   0  0  0  0  0  0  0  0  0  0  0  0  # atno 7974 bound_to 7965
  156.2205  140.2995  155.9941 H   0  0  0  0  0  0  0  0  0  0  0  0  # atno 8008 bound_to 7997
  155.2493  140.0425  157.3002 H   0  0  0  0  0  0  0  0  0  0  0  0  # atno 8009 bound_to 7997
  154.5833  140.2381  155.8030 H   0  0  0  0  0  0  0  0  0  0  0  0  # atno 8010 bound_to 7997
  139.4827  144.5268  151.7787 H   0  0  0  0  0  0  0  0  0  0  0  0  # atno 10167 bound_to 10162
  157.1714  131.0611  151.2181 H   0  0  0  0  0  0  0  0  0  0  0  0  # atno 10718 bound_to 10713
  153.2044  135.4410  155.0306 H   0  0  0  0  0  0  0  0  0  0  0  0  # atno 10763 bound_to 10752
  154.8165  135.3318  154.7163 H   0  0  0  0  0  0  0  0  0  0  0  0  # atno 10764 bound_to 10752
  153.7605  135.6992  153.4982 H   0  0  0  0  0  0  0  0  0  0  0  0  # atno 10765 bound_to 10752
  141.1635  133.6910  156.7360 H   0  0  0  0  0  0  0  0  0  0  0  0  # atno 11005 bound_to 11000
  145.8461  140.9554  143.0774 LP  0  0  0  0  0  0  0  0  0  0  0  0  # atno 17320 bound_to 7965
  144.6761  140.0347  143.7482 LP  0  0  0  0  0  0  0  0  0  0  0  0  # atno 17321 bound_to 7965
  140.4789  144.1478  150.5929 LP  0  0  0  0  0  0  0  0  0  0  0  0  # atno 17342 bound_to 10162
  140.4299  143.2573  151.9608 LP  0  0  0  0  0  0  0  0  0  0  0  0  # atno 17343 bound_to 10162
  157.4040  130.7348  149.6788 LP  0  0  0  0  0  0  0  0  0  0  0  0  # atno 17370 bound_to 10713
  155.9738  130.4113  150.3975 LP  0  0  0  0  0  0  0  0  0  0  0  0  # atno 17371 bound_to 10713
  140.2709  134.8392  157.3846 LP  0  0  0  0  0  0  0  0  0  0  0  0  # atno 17394 bound_to 11000
  140.1522  134.4835  155.7953 LP  0  0  0  0  0  0  0  0  0  0  0  0  # atno 17395 bound_to 11000

$$$$
