AV-unprocessed.smi:2063|AV-procd|sdf|8410|dock1
  -GOLD-   2272011103D 1   1.00000     0.00000
 Structure written by MMmdl.
 39 40  0  0  0  0  0  0  0  0  1 V2000
  153.6576  139.6671  157.3978 C   0  0  0  0  0  0  0  0  0  0  0  0
  152.1524  139.6398  157.7014 C   0  0  0  0  0  0  0  0  0  0  0  0
  151.7799  138.6509  158.8156 C   0  0  0  0  0  0  0  0  0  0  0  0
  151.3314  139.4338  156.4665 C   0  0  0  0  0  0  0  0  0  0  0  0
  151.5432  140.1094  155.3289 N   0  0  0  0  0  0  0  0  0  0  0  0
  150.6559  139.7466  154.3258 N   0  0  0  0  0  0  0  0  0  0  0  0
  149.7966  138.8039  154.7355 C   0  0  0  0  0  0  0  0  0  0  0  0
  148.7814  138.2494  153.9118 N   0  0  0  0  0  0  0  0  0  0  0  0
  147.8407  137.3471  154.2416 C   0  0  0  0  0  0  0  0  0  0  0  0
  147.7069  136.8325  155.3522 O   0  0  0  0  0  0  0  0  0  0  0  0
  147.0499  137.0691  153.1943 N   0  0  0  0  0  0  0  0  0  0  0  0
  145.9220  136.1400  153.2028 C   0  0  2  0  0  0  0  0  0  0  0  0
  146.3383  134.8750  153.9693 C   0  0  0  0  0  0  0  0  0  0  0  0
  145.4858  135.8283  151.7558 C   0  0  1  0  0  0  0  0  0  0  0  0
  146.5521  135.1451  150.8983 C   0  0  0  0  0  0  0  0  0  0  0  0
  145.7448  134.4209  149.8327 C   0  0  0  0  0  0  0  0  0  0  0  0
  144.3236  134.3877  150.4007 C   0  0  0  0  0  0  0  0  0  0  0  0
  144.4431  134.8654  151.7330 O   0  0  0  0  0  0  0  0  0  0  0  0
  150.0057  138.2773  156.3967 S   0  0  0  0  0  0  0  0  0  0  0  0
  153.8954  140.4371  156.6631 H   0  0  0  0  0  0  0  0  0  0  0  0
  154.0008  138.7110  157.0014 H   0  0  0  0  0  0  0  0  0  0  0  0
  154.2355  139.8795  158.2975 H   0  0  0  0  0  0  0  0  0  0  0  0
  151.8986  140.6321  158.0766 H   0  0  0  0  0  0  0  0  0  0  0  0
  150.7208  138.7227  159.0652 H   0  0  0  0  0  0  0  0  0  0  0  0
  152.3475  138.8516  159.7246 H   0  0  0  0  0  0  0  0  0  0  0  0
  151.9838  137.6218  158.5176 H   0  0  0  0  0  0  0  0  0  0  0  0
  148.7703  138.5789  152.9581 H   0  0  0  0  0  0  0  0  0  0  0  0
  147.2357  137.5432  152.3228 H   0  0  0  0  0  0  0  0  0  0  0  0
  145.0822  136.5883  153.7368 H   0  0  0  0  0  0  0  0  0  0  0  0
  145.5094  134.1727  154.0583 H   0  0  0  0  0  0  0  0  0  0  0  0
  146.6651  135.1192  154.9807 H   0  0  0  0  0  0  0  0  0  0  0  0
  147.1592  134.3596  153.4696 H   0  0  0  0  0  0  0  0  0  0  0  0
  145.1368  136.7362  151.2591 H   0  0  0  0  0  0  0  0  0  0  0  0
  147.2709  135.8486  150.4773 H   0  0  0  0  0  0  0  0  0  0  0  0
  147.1035  134.4165  151.4946 H   0  0  0  0  0  0  0  0  0  0  0  0
  145.7648  134.9593  148.8845 H   0  0  0  0  0  0  0  0  0  0  0  0
  146.1365  133.4181  149.6584 H   0  0  0  0  0  0  0  0  0  0  0  0
  143.6695  135.0547  149.8376 H   0  0  0  0  0  0  0  0  0  0  0  0
  143.8882  133.3884  150.3824 H   0  0  0  0  0  0  0  0  0  0  0  0
  1  2  1  0  0  0  0
  1 20  1  0  0  0  0
  1 21  1  0  0  0  0
  1 22  1  0  0  0  0
  2  3  1  0  0  0  0
  2  4  1  0  0  0  0
  2 23  1  0  0  0  0
  3 24  1  0  0  0  0
  3 25  1  0  0  0  0
  3 26  1  0  0  0  0
  4 19  1  0  0  0  0
  4  5  2  0  0  0  0
  5  6  1  0  0  0  0
  6  7  2  0  0  0  0
  7  8  1  0  0  0  0
  7 19  1  0  0  0  0
  8  9  1  0  0  0  0
  8 27  1  0  0  0  0
  9 10  2  0  0  0  0
  9 11  1  0  0  0  0
 11 12  1  0  0  0  0
 11 28  1  0  0  0  0
 12 13  1  0  0  0  0
 12 14  1  0  0  0  0
 12 29  1  0  0  0  0
 13 30  1  0  0  0  0
 13 31  1  0  0  0  0
 13 32  1  0  0  0  0
 14 18  1  0  0  0  0
 14 15  1  0  0  0  0
 14 33  1  0  0  0  0
 15 16  1  0  0  0  0
 15 34  1  0  0  0  0
 15 35  1  0  0  0  0
 16 17  1  0  0  0  0
 16 36  1  0  0  0  0
 16 37  1  0  0  0  0
 17 18  1  0  0  0  0
 17 38  1  0  0  0  0
 17 39  1  0  0  0  0
M  END
> <s_m_source_file>
AV-unprocessed.smi

> <i_m_source_file_index>
2063

> <i_lp_mmshare_version>
43012

> <i_f3d_flags>
0

> <s_epik_input>
W0NIM11bQ0hdKFtDSDNdKWMxbm5jKHMxKVtOSF1DKD1PKVtOSF1bQ0BIXShbQ0gzXSlbQ0BASF0yW0NIMl1bQ0gyXVtDSDJdTzI=

> <s_epik_cmdline>
J2VwaWtfcHl0aG9uJywgJy1waCcsICc3LjAnLCAnLXRuJywgJzgnLCAnLW1hJywgJzIwMCcsICctbWV0YWxfYmluZGluZycsICctaW1hZScsICc8aW5maWxlLm1hZT4nLCAnLW9tYWUnLCAnPG91dGZpbGUubWFlPic=

> <r_lp_tautomer_probability>
1

> <r_epik_Ionization_Penalty>
0.00050567

> <r_epik_Ionization_Penalty_Charging>
0

> <r_epik_Ionization_Penalty_Neutral>
0.00050567

> <r_epik_State_Penalty>
-0

> <r_epik_Charging_Adjusted_Penalty>
0

> <i_epik_Tot_Q>
0

> <i_epik_Tot_abs_Q>
0

> <r_epik_Metal_State_Penalty>
0.219912

> <b_epik_Metal_Only>
0

> <s_lp_Force_Field>
OPLS_2005

> <r_lp_Energy>
10.8912

> <b_lp_Chiralities_Consistent>
1

> <s_lp_Variant>
AV-unprocessed.smi:2063-3

> <Gold.Version>
5.8.1

> <Gold.Id.Protein>
6NUR|6NUR_protein|mol2

> <Gold.PLP.Fitness>
33.6930

> <Gold.PLP.PLP>
-29.5527

> <Gold.PLP.part.hbond>
-4.8186

> <Gold.PLP.part.metal>
0.0000

> <Gold.PLP.part.buried>
-2.5461

> <Gold.PLP.part.nonpolar>
-22.7320

> <Gold.PLP.part.repulsive>
0.7680

> <Gold.PLP.ligand.clash>
0.0000

> <Gold.PLP.ligand.torsion>
0.3970

> <Gold.PLP.Chemscore.Hbond>
1.5988

> <Gold.PLP.Chemscore.CHOScore>
0.0000

> <Gold.PLP.Chemscore.Metal>
0.0000

> <Gold.PLP.Chemscore.Internal.Correction>
0.1380

> <Gold.Rescore>
     Score         DG    S(hbond)    S(metal)    S(lipo)     H(rot)  DE(clash)    DE(int)     intcor
     11.84     -15.09       1.93        0.00      58.06       1.42       0.10       3.14       ----

> <Gold.Chemscore.Fitness>
11.8426

> <Gold.Chemscore.DG>
-15.0864

> <Gold.Chemscore.ZeroCoef>
-5.4800

> <Gold.Chemscore.Hbond>
1.9272

> <Gold.Chemscore.Metal>
0.0000

> <Gold.Chemscore.Lipo>
58.0552

> <Gold.Chemscore.Internal_Hbond>
0.0000

> <Gold.Chemscore.DEClash>
0.1007

> <Gold.Chemscore.DEInternal>
3.1431

> <Gold.Chemscore.Rot>
1.4152

> <Gold.Chemscore.Internal.Correction>
   9.000000E+99

> <Gold.Chemscore.Hbonds>
donor molecule, donor type, donor heavy atom, donor atom, acceptor molecule, acceptor atom, score
      L1  H     8    27       P1  7957  0.04
      L1  H    11    28       P1  7948  0.01

> <Gold.Chemscore.Hbond.Weighted>
-6.4369

> <Gold.Chemscore.Metal.Weighted>
-0.0000

> <Gold.Chemscore.Lipo.Weighted>
-6.7925

> <Gold.Chemscore.Internal_Hbond.Weighted>
0.0000

> <Gold.Chemscore.DEClash.Weighted>
0.1007

> <Gold.Chemscore.DEInternal.Weighted>
3.1431

> <Gold.Chemscore.Rot.Weighted>
3.6229

> <Gold.Chemscore.Internal.Correction.Weighted>
   9.000000E+99

> <Gold.Protein.RotatedTorsions>
[ 6907 6896 6895 6894 ] final -105.65 input  -60.11 | X-H torsion
[ 7974 7965 7964 7962 ] final  -25.47 input  175.53 | X-H torsion
[ 8008 7997 7996 7995 ] final -102.23 input   59.86 | X-H torsion
[ 10167 10162 10161 10158 ] final   62.08 input  -65.29 | X-H torsion
[ 10718 10713 10712 10709 ] final  172.54 input   66.30 | X-H torsion
[ 10763 10752 10751 10750 ] final -177.98 input  -60.55 | X-H torsion
[ 11005 11000 10999 10996 ] final -127.39 input  -57.11 | X-H torsion

> <Gold.Protein.ActiveResidues>
 VAL166  LYS551  ARG553  GLY616  TRP617  ASP618  TYR619  PRO620  LYS621  CYS622 
 ASP623  PHE694  ASN695  SER759  ASP760  ASP761  ALA762  ILE779  LEU786  VAL792 
 PHE793  MET794  SER795  GLU796  ALA797  LYS798  CYS799  TRP800  GLU811  SER814 

> <Gold.Protein.RotatedAtoms>
  150.7348  134.0094  159.3664 H   0  0  0  0  0  0  0  0  0  0  0  0  # atno 6907 bound_to 6896
  151.8053  135.0695  160.0415 H   0  0  0  0  0  0  0  0  0  0  0  0  # atno 6908 bound_to 6896
  152.3112  133.5718  159.5718 H   0  0  0  0  0  0  0  0  0  0  0  0  # atno 6909 bound_to 6896
  146.1489  140.4891  142.8620 H   0  0  0  0  0  0  0  0  0  0  0  0  # atno 7974 bound_to 7965
  154.8537  140.0429  157.1620 H   0  0  0  0  0  0  0  0  0  0  0  0  # atno 8008 bound_to 7997
  154.8915  140.2987  155.5347 H   0  0  0  0  0  0  0  0  0  0  0  0  # atno 8009 bound_to 7997
  156.2997  140.2392  156.3931 H   0  0  0  0  0  0  0  0  0  0  0  0  # atno 8010 bound_to 7997
  140.1478  144.4491  150.6775 H   0  0  0  0  0  0  0  0  0  0  0  0  # atno 10167 bound_to 10162
  156.9774  131.0108  151.2890 H   0  0  0  0  0  0  0  0  0  0  0  0  # atno 10718 bound_to 10713
  154.5534  135.2814  155.0987 H   0  0  0  0  0  0  0  0  0  0  0  0  # atno 10763 bound_to 10752
  154.2424  135.6354  153.5215 H   0  0  0  0  0  0  0  0  0  0  0  0  # atno 10764 bound_to 10752
  153.0009  135.5563  154.6107 H   0  0  0  0  0  0  0  0  0  0  0  0  # atno 10765 bound_to 10752
  140.9603  134.0945  157.3975 H   0  0  0  0  0  0  0  0  0  0  0  0  # atno 11005 bound_to 11000
  144.7879  140.5974  143.6561 LP  0  0  0  0  0  0  0  0  0  0  0  0  # atno 17320 bound_to 7965
  145.4872  139.1491  143.3729 LP  0  0  0  0  0  0  0  0  0  0  0  0  # atno 17321 bound_to 7965
  140.6721  143.2290  151.5599 LP  0  0  0  0  0  0  0  0  0  0  0  0  # atno 17342 bound_to 10162
  139.5440  144.2570  152.1407 LP  0  0  0  0  0  0  0  0  0  0  0  0  # atno 17343 bound_to 10162
  157.5550  130.8207  149.8193 LP  0  0  0  0  0  0  0  0  0  0  0  0  # atno 17370 bound_to 10713
  156.0258  130.3780  150.1827 LP  0  0  0  0  0  0  0  0  0  0  0  0  # atno 17371 bound_to 10713
  139.8876  135.0091  156.6569 LP  0  0  0  0  0  0  0  0  0  0  0  0  # atno 17394 bound_to 11000
  140.7477  133.8924  155.8324 LP  0  0  0  0  0  0  0  0  0  0  0  0  # atno 17395 bound_to 11000

$$$$
