AV-unprocessed.smi:1506|AV-procd|sdf|6077|dock6
  -GOLD-   22720 6203D 1   1.00000     0.00000
 Structure written by MMmdl.
 39 41  0  0  0  0  0  0  0  0  1 V2000
  156.5874  145.1190  166.9539 C   0  0  0  0  0  0  0  0  0  0  0  0
  156.7887  143.6564  166.6142 C   0  0  0  0  0  0  0  0  0  0  0  0
  156.8576  142.6900  167.6371 C   0  0  0  0  0  0  0  0  0  0  0  0
  157.0442  141.3341  167.3104 C   0  0  0  0  0  0  0  0  0  0  0  0
  157.1602  140.9389  165.9639 C   0  0  0  0  0  0  0  0  0  0  0  0
  157.0885  141.9016  164.9254 C   0  0  0  0  0  0  0  0  0  0  0  0
  157.1876  141.6035  163.5832 O   0  0  0  0  0  0  0  0  0  0  0  0
  157.4432  140.2558  163.2104 C   0  0  0  0  0  0  0  0  0  0  0  0
  156.6280  139.9215  161.9528 C   0  0  1  0  0  0  0  0  0  0  0  0
  157.0281  138.6473  161.4885 O   0  0  0  0  0  0  0  0  0  0  0  0
  155.1097  139.9298  162.2185 C   0  0  0  0  0  0  0  0  0  0  0  0
  154.3463  140.3949  161.0741 N   0  0  0  0  0  0  0  0  0  0  0  0
  154.2484  139.7995  159.8702 C   0  0  0  0  0  0  0  0  0  0  0  0
  153.4911  140.3970  158.9544 N   0  0  0  0  0  0  0  0  0  0  0  0
  153.0464  141.5122  159.6437 C   0  0  0  0  0  0  0  0  0  0  0  0
  152.1979  142.5660  159.2347 C   0  0  0  0  0  0  0  0  0  0  0  0
  151.8785  143.6127  160.1247 C   0  0  0  0  0  0  0  0  0  0  0  0
  152.3993  143.6211  161.4351 C   0  0  0  0  0  0  0  0  0  0  0  0
  153.2463  142.5819  161.8655 C   0  0  0  0  0  0  0  0  0  0  0  0
  153.5643  141.5406  160.9739 C   0  0  0  0  0  0  0  0  0  0  0  0
  156.9030  143.2573  165.2670 C   0  0  0  0  0  0  0  0  0  0  0  0
  156.7338  145.3028  168.0187 H   0  0  0  0  0  0  0  0  0  0  0  0
  155.5771  145.4310  166.6878 H   0  0  0  0  0  0  0  0  0  0  0  0
  157.2950  145.7391  166.4029 H   0  0  0  0  0  0  0  0  0  0  0  0
  156.7675  142.9830  168.6730 H   0  0  0  0  0  0  0  0  0  0  0  0
  157.0983  140.5936  168.0948 H   0  0  0  0  0  0  0  0  0  0  0  0
  157.3030  139.8899  165.7545 H   0  0  0  0  0  0  0  0  0  0  0  0
  158.5079  140.1358  163.0017 H   0  0  0  0  0  0  0  0  0  0  0  0
  157.1775  139.5721  164.0185 H   0  0  0  0  0  0  0  0  0  0  0  0
  156.8665  140.6442  161.1713 H   0  0  0  0  0  0  0  0  0  0  0  0
  156.9696  138.6413  160.5451 H   0  0  0  0  0  0  0  0  0  0  0  0
  154.7623  138.9313  162.4873 H   0  0  0  0  0  0  0  0  0  0  0  0
  154.8786  140.5760  163.0662 H   0  0  0  0  0  0  0  0  0  0  0  0
  154.7615  138.8735  159.6548 H   0  0  0  0  0  0  0  0  0  0  0  0
  151.7918  142.5694  158.2341 H   0  0  0  0  0  0  0  0  0  0  0  0
  151.2298  144.4134  159.8007 H   0  0  0  0  0  0  0  0  0  0  0  0
  152.1480  144.4267  162.1097 H   0  0  0  0  0  0  0  0  0  0  0  0
  153.6460  142.5840  162.8687 H   0  0  0  0  0  0  0  0  0  0  0  0
  156.8470  143.9992  164.4837 H   0  0  0  0  0  0  0  0  0  0  0  0
  1  2  1  0  0  0  0
  1 22  1  0  0  0  0
  1 23  1  0  0  0  0
  1 24  1  0  0  0  0
  2 21  1  0  0  0  0
  2  3  2  0  0  0  0
  3  4  1  0  0  0  0
  3 25  1  0  0  0  0
  4  5  2  0  0  0  0
  4 26  1  0  0  0  0
  5  6  1  0  0  0  0
  5 27  1  0  0  0  0
  6  7  1  0  0  0  0
  6 21  2  0  0  0  0
  7  8  1  0  0  0  0
  8  9  1  0  0  0  0
  8 28  1  0  0  0  0
  8 29  1  0  0  0  0
  9 10  1  0  0  0  0
  9 11  1  0  0  0  0
  9 30  1  0  0  0  0
 10 31  1  0  0  0  0
 11 12  1  0  0  0  0
 11 32  1  0  0  0  0
 11 33  1  0  0  0  0
 12 20  1  0  0  0  0
 12 13  1  0  0  0  0
 13 14  2  0  0  0  0
 13 34  1  0  0  0  0
 14 15  1  0  0  0  0
 15 20  2  0  0  0  0
 15 16  1  0  0  0  0
 16 17  2  0  0  0  0
 16 35  1  0  0  0  0
 17 18  1  0  0  0  0
 17 36  1  0  0  0  0
 18 19  2  0  0  0  0
 18 37  1  0  0  0  0
 19 20  1  0  0  0  0
 19 38  1  0  0  0  0
 21 39  1  0  0  0  0
M  END
> <s_m_source_file>
AV-unprocessed.smi

> <i_m_source_file_index>
1506

> <i_lp_mmshare_version>
43012

> <i_f3d_flags>
0

> <s_epik_input>
W0NIM11jMVtjSF1bY0hdW2NIXWMoW2NIXTEpT1tDSDJdW0NASF0oW09IXSlbQ0gyXW4oW2NIXW4yKWMoYzIzKVtjSF1bY0hdW2NIXVtjSF0z

> <s_epik_cmdline>
J2VwaWtfcHl0aG9uJywgJy1waCcsICc3LjAnLCAnLXRuJywgJzgnLCAnLW1hJywgJzIwMCcsICctbWV0YWxfYmluZGluZycsICctaW1hZScsICc8aW5maWxlLm1hZT4nLCAnLW9tYWUnLCAnPG91dGZpbGUubWFlPic=

> <r_lp_tautomer_probability>
1

> <r_epik_Ionization_Penalty>
0.0608485

> <r_epik_Ionization_Penalty_Charging>
0

> <r_epik_Ionization_Penalty_Neutral>
0.0608485

> <r_epik_State_Penalty>
0.0527778

> <r_epik_Charging_Adjusted_Penalty>
0.0527778

> <i_epik_Tot_Q>
0

> <i_epik_Tot_abs_Q>
0

> <r_epik_Metal_State_Penalty>
5.51973e-05

> <b_epik_Metal_Only>
0

> <s_lp_Force_Field>
OPLS_2005

> <r_lp_Energy>
14.3046

> <b_lp_Chiralities_Consistent>
1

> <s_lp_Variant>
AV-unprocessed.smi:1506-2

> <Gold.Version>
5.8.1

> <Gold.Id.Protein>
6NUR|6NUR_protein|mol2

> <Gold.PLP.Fitness>
49.6674

> <Gold.PLP.PLP>
-48.7691

> <Gold.PLP.part.hbond>
-2.0000

> <Gold.PLP.part.metal>
0.0000

> <Gold.PLP.part.buried>
-3.8250

> <Gold.PLP.part.nonpolar>
-42.1494

> <Gold.PLP.part.repulsive>
0.0000

> <Gold.PLP.ligand.clash>
0.0000

> <Gold.PLP.ligand.torsion>
0.7688

> <Gold.PLP.Chemscore.Hbond>
0.7680

> <Gold.PLP.Chemscore.CHOScore>
0.0000

> <Gold.PLP.Chemscore.Metal>
0.0000

> <Gold.Chemscore.Hbonds>
donor molecule, donor type, donor heavy atom, donor atom, acceptor molecule, acceptor atom, score
      P1  H  7997  8009       L1    14  0.24

> <Gold.PLP.Chemscore.Internal.Correction>
0.1318

> <Gold.Rescore>
     Score         DG    S(hbond)    S(metal)    S(lipo)     H(rot)  DE(clash)    DE(int)     intcor
     16.68     -17.56       0.80        0.00     128.23       2.19       0.18       0.71       ----

> <Gold.Chemscore.Fitness>
16.6787

> <Gold.Chemscore.DG>
-17.5620

> <Gold.Chemscore.ZeroCoef>
-5.4800

> <Gold.Chemscore.Hbond>
0.8024

> <Gold.Chemscore.Metal>
0.0000

> <Gold.Chemscore.Lipo>
128.2260

> <Gold.Chemscore.Internal_Hbond>
0.0000

> <Gold.Chemscore.DEClash>
0.1771

> <Gold.Chemscore.DEInternal>
0.7063

> <Gold.Chemscore.Rot>
2.1877

> <Gold.Chemscore.Internal.Correction>
   9.000000E+99

> <Gold.Chemscore.Hbonds>
donor molecule, donor type, donor heavy atom, donor atom, acceptor molecule, acceptor atom, score
      P1  H  7997  8009       L1    14  0.02

> <Gold.Chemscore.Hbond.Weighted>
-2.6801

> <Gold.Chemscore.Metal.Weighted>
-0.0000

> <Gold.Chemscore.Lipo.Weighted>
-15.0024

> <Gold.Chemscore.Internal_Hbond.Weighted>
0.0000

> <Gold.Chemscore.DEClash.Weighted>
0.1771

> <Gold.Chemscore.DEInternal.Weighted>
0.7063

> <Gold.Chemscore.Rot.Weighted>
5.6005

> <Gold.Chemscore.Internal.Correction.Weighted>
   9.000000E+99

> <Gold.Protein.RotatedTorsions>
[ 6907 6896 6895 6894 ] final  141.23 input  -60.11 | X-H torsion
[ 7974 7965 7964 7962 ] final -170.79 input  175.53 | X-H torsion
[ 8008 7997 7996 7995 ] final  127.09 input   59.86 | X-H torsion
[ 10167 10162 10161 10158 ] final   63.97 input  -65.29 | X-H torsion
[ 10718 10713 10712 10709 ] final   70.85 input   66.30 | X-H torsion
[ 10763 10752 10751 10750 ] final -111.00 input  -60.55 | X-H torsion
[ 11005 11000 10999 10996 ] final  176.13 input  -57.11 | X-H torsion

> <Gold.Protein.ActiveResidues>
 VAL166  LYS551  ARG553  GLY616  TRP617  ASP618  TYR619  PRO620  LYS621  CYS622 
 ASP623  PHE694  ASN695  SER759  ASP760  ASP761  ALA762  ILE779  LEU786  VAL792 
 PHE793  MET794  SER795  GLU796  ALA797  LYS798  CYS799  TRP800  GLU811  SER814 

> <Gold.Protein.RotatedAtoms>
  152.2335  133.5077  159.5228 H   0  0  0  0  0  0  0  0  0  0  0  0  # atno 6907 bound_to 6896
  150.7044  134.1185  159.4035 H   0  0  0  0  0  0  0  0  0  0  0  0  # atno 6908 bound_to 6896
  151.9106  135.0340  160.0565 H   0  0  0  0  0  0  0  0  0  0  0  0  # atno 6909 bound_to 6896
  144.7165  140.2018  143.6337 H   0  0  0  0  0  0  0  0  0  0  0  0  # atno 7974 bound_to 7965
  156.2882  140.2677  156.2217 H   0  0  0  0  0  0  0  0  0  0  0  0  # atno 8008 bound_to 7997
  155.0161  140.0387  157.2437 H   0  0  0  0  0  0  0  0  0  0  0  0  # atno 8009 bound_to 7997
  154.7476  140.2737  155.6325 H   0  0  0  0  0  0  0  0  0  0  0  0  # atno 8010 bound_to 7997
  140.1272  144.4677  150.6886 H   0  0  0  0  0  0  0  0  0  0  0  0  # atno 10167 bound_to 10162
  157.6421  130.9498  150.0707 H   0  0  0  0  0  0  0  0  0  0  0  0  # atno 10718 bound_to 10713
  154.8278  135.4543  154.0972 H   0  0  0  0  0  0  0  0  0  0  0  0  # atno 10763 bound_to 10752
  153.2271  135.6901  153.7938 H   0  0  0  0  0  0  0  0  0  0  0  0  # atno 10764 bound_to 10752
  153.7334  135.3323  155.3267 H   0  0  0  0  0  0  0  0  0  0  0  0  # atno 10765 bound_to 10752
  140.3697  134.7040  157.4384 H   0  0  0  0  0  0  0  0  0  0  0  0  # atno 11005 bound_to 11000
  145.8672  139.2253  143.1682 LP  0  0  0  0  0  0  0  0  0  0  0  0  # atno 17320 bound_to 7965
  146.0118  140.8428  142.9967 LP  0  0  0  0  0  0  0  0  0  0  0  0  # atno 17321 bound_to 7965
  140.6838  143.2339  151.5315 LP  0  0  0  0  0  0  0  0  0  0  0  0  # atno 17342 bound_to 10162
  139.5538  144.2327  152.1577 LP  0  0  0  0  0  0  0  0  0  0  0  0  # atno 17343 bound_to 10162
  156.1712  130.3646  149.9162 LP  0  0  0  0  0  0  0  0  0  0  0  0  # atno 17370 bound_to 10713
  156.7137  130.8980  151.3612 LP  0  0  0  0  0  0  0  0  0  0  0  0  # atno 17371 bound_to 10713
  140.0561  134.6061  155.8803 LP  0  0  0  0  0  0  0  0  0  0  0  0  # atno 17394 bound_to 11000
  141.1958  133.6589  156.5662 LP  0  0  0  0  0  0  0  0  0  0  0  0  # atno 17395 bound_to 11000

$$$$
