AV-unprocessed.smi:1040|AV-procd|sdf|4526|dock10
  -GOLD-   22720 2543D 1   1.00000     0.00000
 Structure written by MMmdl.
 55 56  0  0  0  0  0  0  0  0  2 V2000
  150.1175  134.3356  154.8279 C   0  0  0  0  0  0  0  0  0  0  0  0
  148.9364  133.5127  155.3678 C   0  0  2  0  0  0  0  0  0  0  0  0
  147.7306  133.7685  154.5827 N   0  0  0  0  0  0  0  0  0  0  0  0
  147.4952  133.3231  153.3411 C   0  0  0  0  0  0  0  0  0  0  0  0
  148.3022  132.6635  152.6863 O   0  0  0  0  0  0  0  0  0  0  0  0
  146.2664  133.6734  152.9275 N   0  0  0  0  0  0  0  0  0  0  0  0
  145.6166  133.3074  151.7161 C   0  0  0  0  0  0  0  0  0  0  0  0
  146.2051  132.4319  150.7689 C   0  0  0  0  0  0  0  0  0  0  0  0
  145.5136  132.1251  149.5798 C   0  0  0  0  0  0  0  0  0  0  0  0
  144.2508  132.7036  149.3521 C   0  0  0  0  0  0  0  0  0  0  0  0
  143.7250  133.5455  150.2666 N   0  3  0  0  0  0  0  0  0  0  0  0
  144.3499  133.8728  151.4238 C   0  0  0  0  0  0  0  0  0  0  0  0
  143.7128  134.7611  152.3051 N   0  0  0  0  0  0  0  0  0  0  0  0
  143.8787  136.1643  151.9360 C   0  0  0  0  0  0  0  0  0  0  0  0
  143.3681  137.0854  153.0577 C   0  0  0  0  0  0  0  0  0  0  0  0
  141.9172  136.7420  153.4329 C   0  0  0  0  0  0  0  0  0  0  0  0
  141.7953  135.2490  153.7799 C   0  0  0  0  0  0  0  0  0  0  0  0
  142.3453  134.3731  152.6408 C   0  0  0  0  0  0  0  0  0  0  0  0
  148.6710  133.7340  156.8611 C   0  0  0  0  0  0  0  0  0  0  0  0
  149.5739  133.5655  157.6819 O   0  0  0  0  0  0  0  0  0  0  0  0
  147.4181  134.0966  157.1900 N   0  0  0  0  0  0  0  0  0  0  0  0
  146.8660  134.3706  158.5222 C   0  0  0  0  0  0  0  0  0  0  0  0
  147.0629  133.0939  159.3586 C   0  0  0  0  0  0  0  0  0  0  0  0
  145.3573  134.6844  158.4345 C   0  0  0  0  0  0  0  0  0  0  0  0
  147.6245  135.5325  159.1968 C   0  0  0  0  0  0  0  0  0  0  0  0
  151.0247  134.1484  155.4035 H   0  0  0  0  0  0  0  0  0  0  0  0
  149.9097  135.4054  154.8749 H   0  0  0  0  0  0  0  0  0  0  0  0
  150.3332  134.0835  153.7891 H   0  0  0  0  0  0  0  0  0  0  0  0
  149.1915  132.4568  155.2542 H   0  0  0  0  0  0  0  0  0  0  0  0
  147.0069  134.3021  155.0424 H   0  0  0  0  0  0  0  0  0  0  0  0
  145.6882  134.1460  153.6071 H   0  0  0  0  0  0  0  0  0  0  0  0
  147.1818  132.0012  150.9294 H   0  0  0  0  0  0  0  0  0  0  0  0
  145.9494  131.4584  148.8499 H   0  0  0  0  0  0  0  0  0  0  0  0
  143.6527  132.5251  148.4701 H   0  0  0  0  0  0  0  0  0  0  0  0
  144.9309  136.3715  151.7358 H   0  0  0  0  0  0  0  0  0  0  0  0
  143.3316  136.3647  151.0136 H   0  0  0  0  0  0  0  0  0  0  0  0
  144.0066  136.9792  153.9359 H   0  0  0  0  0  0  0  0  0  0  0  0
  143.4394  138.1282  152.7475 H   0  0  0  0  0  0  0  0  0  0  0  0
  141.5901  137.3531  154.2746 H   0  0  0  0  0  0  0  0  0  0  0  0
  141.2562  136.9800  152.5985 H   0  0  0  0  0  0  0  0  0  0  0  0
  142.3468  135.0414  154.6981 H   0  0  0  0  0  0  0  0  0  0  0  0
  140.7542  134.9934  153.9792 H   0  0  0  0  0  0  0  0  0  0  0  0
  141.7114  134.4727  151.7587 H   0  0  0  0  0  0  0  0  0  0  0  0
  142.3221  133.3232  152.9361 H   0  0  0  0  0  0  0  0  0  0  0  0
  146.7661  134.1953  156.4250 H   0  0  0  0  0  0  0  0  0  0  0  0
  146.6758  133.2188  160.3705 H   0  0  0  0  0  0  0  0  0  0  0  0
  148.1185  132.8314  159.4425 H   0  0  0  0  0  0  0  0  0  0  0  0
  146.5463  132.2424  158.9137 H   0  0  0  0  0  0  0  0  0  0  0  0
  144.8142  133.8861  157.9273 H   0  0  0  0  0  0  0  0  0  0  0  0
  145.1609  135.6113  157.8958 H   0  0  0  0  0  0  0  0  0  0  0  0
  144.9213  134.7968  159.4277 H   0  0  0  0  0  0  0  0  0  0  0  0
  147.2808  135.6819  160.2207 H   0  0  0  0  0  0  0  0  0  0  0  0
  147.4810  136.4768  158.6717 H   0  0  0  0  0  0  0  0  0  0  0  0
  148.6967  135.3368  159.2366 H   0  0  0  0  0  0  0  0  0  0  0  0
  142.8107  133.9558  150.0760 H   0  0  0  0  0  0  0  0  0  0  0  0
  1  2  1  0  0  0  0
  1 26  1  0  0  0  0
  1 27  1  0  0  0  0
  1 28  1  0  0  0  0
  2  3  1  0  0  0  0
  2 19  1  0  0  0  0
  2 29  1  0  0  0  0
  3  4  1  0  0  0  0
  3 30  1  0  0  0  0
  4  5  2  0  0  0  0
  4  6  1  0  0  0  0
  6  7  1  0  0  0  0
  6 31  1  0  0  0  0
  7 12  1  0  0  0  0
  7  8  2  0  0  0  0
  8  9  1  0  0  0  0
  8 32  1  0  0  0  0
  9 10  2  0  0  0  0
  9 33  1  0  0  0  0
 10 11  1  0  0  0  0
 10 34  1  0  0  0  0
 11 12  2  0  0  0  0
 11 55  1  0  0  0  0
 12 13  1  0  0  0  0
 13 18  1  0  0  0  0
 13 14  1  0  0  0  0
 14 15  1  0  0  0  0
 14 35  1  0  0  0  0
 14 36  1  0  0  0  0
 15 16  1  0  0  0  0
 15 37  1  0  0  0  0
 15 38  1  0  0  0  0
 16 17  1  0  0  0  0
 16 39  1  0  0  0  0
 16 40  1  0  0  0  0
 17 18  1  0  0  0  0
 17 41  1  0  0  0  0
 17 42  1  0  0  0  0
 18 43  1  0  0  0  0
 18 44  1  0  0  0  0
 19 20  2  0  0  0  0
 19 21  1  0  0  0  0
 21 22  1  0  0  0  0
 21 45  1  0  0  0  0
 22 23  1  0  0  0  0
 22 24  1  0  0  0  0
 22 25  1  0  0  0  0
 23 46  1  0  0  0  0
 23 47  1  0  0  0  0
 23 48  1  0  0  0  0
 24 49  1  0  0  0  0
 24 50  1  0  0  0  0
 24 51  1  0  0  0  0
 25 52  1  0  0  0  0
 25 53  1  0  0  0  0
 25 54  1  0  0  0  0
M  CHG  1  11   1
M  END
> <s_m_source_file>
AV-unprocessed.smi

> <i_m_source_file_index>
1040

> <i_lp_mmshare_version>
43012

> <i_f3d_flags>
0

> <s_epik_input>
W0NIM11DKFtDSDNdKShbQ0gzXSlbTkhdQyg9TylbQ0BIXShbQ0gzXSlbTkhdQyg9TylbTkhdYzFbY0hdW2NIXVtjSF1uYzFOMltDSDJdW0NIMl1bQ0gyXVtDSDJdW0NIMl0y

> <s_epik_cmdline>
J2VwaWtfcHl0aG9uJywgJy1waCcsICc3LjAnLCAnLXRuJywgJzgnLCAnLW1hJywgJzIwMCcsICctbWV0YWxfYmluZGluZycsICctaW1hZScsICc8aW5maWxlLm1hZT4nLCAnLW9tYWUnLCAnPG91dGZpbGUubWFlPic=

> <r_lp_tautomer_probability>
0.999994

> <r_epik_Ionization_Penalty>
1.20468

> <r_epik_Ionization_Penalty_Charging>
1.20466

> <r_epik_Ionization_Penalty_Neutral>
1.88859e-05

> <r_epik_State_Penalty>
1.27057

> <r_epik_Charging_Adjusted_Penalty>
2.47523

> <i_epik_Tot_Q>
1

> <i_epik_Tot_abs_Q>
1

> <r_epik_Metal_State_Penalty>
1.34448

> <b_epik_Metal_Only>
0

> <s_lp_Force_Field>
OPLS_2005

> <r_lp_Energy>
28.5731

> <b_lp_Chiralities_Consistent>
1

> <s_lp_Variant>
AV-unprocessed.smi:1040-3

> <Gold.Version>
5.8.1

> <Gold.Id.Protein>
6NUR|6NUR_protein|mol2

> <Gold.PLP.Fitness>
43.1174

> <Gold.PLP.PLP>
-35.0787

> <Gold.PLP.part.hbond>
-2.0000

> <Gold.PLP.part.metal>
0.0000

> <Gold.PLP.part.buried>
-6.2008

> <Gold.PLP.part.nonpolar>
-27.1295

> <Gold.PLP.part.repulsive>
0.6960

> <Gold.PLP.ligand.clash>
0.0000

> <Gold.PLP.ligand.torsion>
0.6105

> <Gold.PLP.Chemscore.Hbond>
3.0000

> <Gold.PLP.Chemscore.CHOScore>
0.0000

> <Gold.PLP.Chemscore.Metal>
0.0000

> <Gold.Chemscore.Hbonds>
donor molecule, donor type, donor heavy atom, donor atom, acceptor molecule, acceptor atom, score
      L1  H    11    55       P1 10186  2.00
      P1  H  6896  6909       L1    20  1.00

> <Gold.PLP.Chemscore.Internal.Correction>
0.2597

> <Gold.Rescore>
     Score         DG    S(hbond)    S(metal)    S(lipo)     H(rot)  DE(clash)    DE(int)     intcor
     15.22     -17.07       1.97        0.00      78.64       1.64       0.11       1.75       ----

> <Gold.Chemscore.Fitness>
15.2150

> <Gold.Chemscore.DG>
-17.0679

> <Gold.Chemscore.ZeroCoef>
-5.4800

> <Gold.Chemscore.Hbond>
1.9740

> <Gold.Chemscore.Metal>
0.0000

> <Gold.Chemscore.Lipo>
78.6351

> <Gold.Chemscore.Internal_Hbond>
0.0000

> <Gold.Chemscore.DEClash>
0.1063

> <Gold.Chemscore.DEInternal>
1.7466

> <Gold.Chemscore.Rot>
1.6428

> <Gold.Chemscore.Internal.Correction>
   9.000000E+99

> <Gold.Chemscore.Hbonds>
donor molecule, donor type, donor heavy atom, donor atom, acceptor molecule, acceptor atom, score
      L1  H    11    55       P1 10186  0.99
      P1  H  6896  6909       L1    20  0.95

> <Gold.Chemscore.Hbond.Weighted>
-6.5931

> <Gold.Chemscore.Metal.Weighted>
-0.0000

> <Gold.Chemscore.Lipo.Weighted>
-9.2003

> <Gold.Chemscore.Internal_Hbond.Weighted>
0.0000

> <Gold.Chemscore.DEClash.Weighted>
0.1063

> <Gold.Chemscore.DEInternal.Weighted>
1.7466

> <Gold.Chemscore.Rot.Weighted>
4.2055

> <Gold.Chemscore.Internal.Correction.Weighted>
   9.000000E+99

> <Gold.Protein.RotatedTorsions>
[ 6907 6896 6895 6894 ] final    8.02 input  -60.11 | X-H torsion
[ 7974 7965 7964 7962 ] final -150.08 input  175.53 | X-H torsion
[ 8008 7997 7996 7995 ] final  121.85 input   59.86 | X-H torsion
[ 10167 10162 10161 10158 ] final -138.75 input  -65.29 | X-H torsion
[ 10718 10713 10712 10709 ] final  165.58 input   66.30 | X-H torsion
[ 10763 10752 10751 10750 ] final  123.93 input  -60.55 | X-H torsion
[ 11005 11000 10999 10996 ] final  116.83 input  -57.11 | X-H torsion

> <Gold.Protein.ActiveResidues>
 VAL166  LYS551  ARG553  GLY616  TRP617  ASP618  TYR619  PRO620  LYS621  CYS622 
 ASP623  PHE694  ASN695  SER759  ASP760  ASP761  ALA762  ILE779  LEU786  VAL792 
 PHE793  MET794  SER795  GLU796  ALA797  LYS798  CYS799  TRP800  GLU811  SER814 

> <Gold.Protein.RotatedAtoms>
  151.6993  135.0933  160.0247 H   0  0  0  0  0  0  0  0  0  0  0  0  # atno 6907 bound_to 6896
  152.3730  133.6440  159.6110 H   0  0  0  0  0  0  0  0  0  0  0  0  # atno 6908 bound_to 6896
  150.7688  133.9155  159.3423 H   0  0  0  0  0  0  0  0  0  0  0  0  # atno 6909 bound_to 6896
  144.7928  140.4979  143.5760 H   0  0  0  0  0  0  0  0  0  0  0  0  # atno 7974 bound_to 7965
  156.2704  140.2799  156.1374 H   0  0  0  0  0  0  0  0  0  0  0  0  # atno 8008 bound_to 7997
  155.0990  140.0389  157.2709 H   0  0  0  0  0  0  0  0  0  0  0  0  # atno 8009 bound_to 7997
  154.6830  140.2613  155.6895 H   0  0  0  0  0  0  0  0  0  0  0  0  # atno 8010 bound_to 7997
  139.8447  143.7276  152.2661 H   0  0  0  0  0  0  0  0  0  0  0  0  # atno 10167 bound_to 10162
  157.0780  131.0384  151.2586 H   0  0  0  0  0  0  0  0  0  0  0  0  # atno 10718 bound_to 10713
  153.6533  135.3359  155.3106 H   0  0  0  0  0  0  0  0  0  0  0  0  # atno 10763 bound_to 10752
  154.8532  135.4346  154.1882 H   0  0  0  0  0  0  0  0  0  0  0  0  # atno 10764 bound_to 10752
  153.2830  135.7010  153.7442 H   0  0  0  0  0  0  0  0  0  0  0  0  # atno 10765 bound_to 10752
  139.9054  134.9603  156.7257 H   0  0  0  0  0  0  0  0  0  0  0  0  # atno 11005 bound_to 11000
  145.5749  139.1485  143.3268 LP  0  0  0  0  0  0  0  0  0  0  0  0  # atno 17320 bound_to 7965
  146.2187  140.5881  142.9027 LP  0  0  0  0  0  0  0  0  0  0  0  0  # atno 17321 bound_to 7965
  139.7524  144.7530  151.0486 LP  0  0  0  0  0  0  0  0  0  0  0  0  # atno 17342 bound_to 10162
  140.7794  143.4845  150.9974 LP  0  0  0  0  0  0  0  0  0  0  0  0  # atno 17343 bound_to 10162
  157.4823  130.7772  149.7426 LP  0  0  0  0  0  0  0  0  0  0  0  0  # atno 17370 bound_to 10713
  155.9931  130.3926  150.2913 LP  0  0  0  0  0  0  0  0  0  0  0  0  # atno 17371 bound_to 10713
  140.6965  133.9344  155.7998 LP  0  0  0  0  0  0  0  0  0  0  0  0  # atno 17394 bound_to 11000
  141.0403  134.0630  157.3909 LP  0  0  0  0  0  0  0  0  0  0  0  0  # atno 17395 bound_to 11000

$$$$
