AV-unprocessed.smi:705|AV-procd|sdf|3451|dock1
  -GOLD-   22720 0433D 1   1.00000     0.00000
 Structure written by MMmdl.
 28 29  0  0  0  0  0  0  0  0  3 V2000
  150.2464  138.1746  153.8268 N   0  0  0  0  0  0  0  0  0  0  0  0
  151.2125  137.7015  154.6179 C   0  0  0  0  0  0  0  0  0  0  0  0
  151.6785  136.5692  154.5032 O   0  0  0  0  0  0  0  0  0  0  0  0
  151.7041  138.6502  155.6699 C   0  0  0  0  0  0  0  0  0  0  0  0
  150.9494  139.7474  156.1572 C   0  0  0  0  0  0  0  0  0  0  0  0
  151.9109  140.2635  157.1018 C   0  0  0  0  0  0  0  0  0  0  0  0
  151.5322  141.5026  157.8899 C   0  0  1  0  0  0  0  0  0  0  0  0
  152.7088  142.0179  158.7389 C   0  0  0  0  0  0  0  0  0  0  0  0
  152.3095  143.2975  159.4896 C   0  0  0  0  0  0  0  0  0  0  0  0
  151.7667  144.3581  158.5170 C   0  0  0  0  0  0  0  0  0  0  0  0
  150.6363  143.8180  157.7307 N   0  3  0  0  0  0  0  0  0  0  0  0
  150.9960  142.6080  156.9602 C   0  0  0  0  0  0  0  0  0  0  0  0
  153.0484  139.5444  157.1374 N   0  0  0  0  0  0  0  0  0  0  0  0
  152.9116  138.5664  156.2591 N   0  5  0  0  0  0  0  0  0  0  0  0
  149.8592  137.6003  153.0938 H   0  0  0  0  0  0  0  0  0  0  0  0
  149.9137  139.1165  153.9796 H   0  0  0  0  0  0  0  0  0  0  0  0
  149.9564  140.0912  155.8951 H   0  0  0  0  0  0  0  0  0  0  0  0
  150.7277  141.2266  158.5740 H   0  0  0  0  0  0  0  0  0  0  0  0
  153.0290  141.2527  159.4470 H   0  0  0  0  0  0  0  0  0  0  0  0
  153.5659  142.2264  158.0967 H   0  0  0  0  0  0  0  0  0  0  0  0
  151.5508  143.0615  160.2369 H   0  0  0  0  0  0  0  0  0  0  0  0
  153.1674  143.6936  160.0338 H   0  0  0  0  0  0  0  0  0  0  0  0
  151.4310  145.2383  159.0658 H   0  0  0  0  0  0  0  0  0  0  0  0
  152.5531  144.6868  157.8359 H   0  0  0  0  0  0  0  0  0  0  0  0
  149.8865  143.5814  158.3646 H   0  0  0  0  0  0  0  0  0  0  0  0
  151.7431  142.8738  156.2107 H   0  0  0  0  0  0  0  0  0  0  0  0
  150.1153  142.2574  156.4212 H   0  0  0  0  0  0  0  0  0  0  0  0
  150.3113  144.5280  157.0900 H   0  0  0  0  0  0  0  0  0  0  0  0
  1  2  1  0  0  0  0
  1 15  1  0  0  0  0
  1 16  1  0  0  0  0
  2  3  2  0  0  0  0
  2  4  1  0  0  0  0
  4 14  1  0  0  0  0
  4  5  2  0  0  0  0
  5  6  1  0  0  0  0
  5 17  1  0  0  0  0
  6  7  1  0  0  0  0
  6 13  2  0  0  0  0
  7 12  1  0  0  0  0
  7  8  1  0  0  0  0
  7 18  1  0  0  0  0
  8  9  1  0  0  0  0
  8 19  1  0  0  0  0
  8 20  1  0  0  0  0
  9 10  1  0  0  0  0
  9 21  1  0  0  0  0
  9 22  1  0  0  0  0
 10 11  1  0  0  0  0
 10 23  1  0  0  0  0
 10 24  1  0  0  0  0
 11 12  1  0  0  0  0
 11 25  1  0  0  0  0
 11 28  1  0  0  0  0
 12 26  1  0  0  0  0
 12 27  1  0  0  0  0
 13 14  1  0  0  0  0
M  CHG  1  11   1
M  CHG  1  14  -1
M  END
> <s_m_source_file>
AV-unprocessed.smi

> <i_m_source_file_index>
705

> <i_lp_mmshare_version>
43012

> <i_f3d_flags>
0

> <s_epik_input>
W05IMl1DKD1PKWMxW2NIXWMoW25IXW4xKVtDQEBIXTJbQ0gyXVtDSDJdW0NIMl1bTkhdW0NIMl0y

> <s_epik_cmdline>
J2VwaWtfcHl0aG9uJywgJy1waCcsICc3LjAnLCAnLXRuJywgJzgnLCAnLW1hJywgJzIwMCcsICctbWV0YWxfYmluZGluZycsICctaW1hZScsICc8aW5maWxlLm1hZT4nLCAnLW9tYWUnLCAnPG91dGZpbGUubWFlPic=

> <r_lp_tautomer_probability>
0.5

> <r_epik_Ionization_Penalty>
8.1602

> <r_epik_Ionization_Penalty_Charging>
5.25561

> <r_epik_Ionization_Penalty_Neutral>
2.90459

> <r_epik_State_Penalty>
5.66605

> <r_epik_Charging_Adjusted_Penalty>
10.9217

> <i_epik_Tot_Q>
0

> <i_epik_Tot_abs_Q>
2

> <r_epik_Metal_State_Penalty>
1.68656

> <b_epik_Metal_Only>
1

> <s_lp_Force_Field>
OPLS_2005

> <r_lp_Energy>
5.1844

> <b_lp_Chiralities_Consistent>
1

> <s_lp_Variant>
AV-unprocessed.smi:705-6

> <Gold.Version>
5.8.1

> <Gold.Id.Protein>
6NUR|6NUR_protein|mol2

> <Gold.PLP.Fitness>
42.5268

> <Gold.PLP.PLP>
-29.5111

> <Gold.PLP.part.hbond>
-5.2902

> <Gold.PLP.part.metal>
0.0000

> <Gold.PLP.part.buried>
-4.1264

> <Gold.PLP.part.nonpolar>
-21.4276

> <Gold.PLP.part.repulsive>
0.8726

> <Gold.PLP.ligand.clash>
0.0000

> <Gold.PLP.ligand.torsion>
0.3553

> <Gold.PLP.Chemscore.Hbond>
4.5680

> <Gold.PLP.Chemscore.CHOScore>
0.0000

> <Gold.PLP.Chemscore.Metal>
0.0000

> <Gold.Chemscore.Hbonds>
donor molecule, donor type, donor heavy atom, donor atom, acceptor molecule, acceptor atom, score
      L1  H     1    15       P1  7948  1.00
      L1  H    11    28       P1  8028  1.57
      P1  H  7997  8008       L1    13  1.00
      P1  H 10752 10764       L1     3  1.00

> <Gold.PLP.Chemscore.Internal.Correction>
0.0224

> <Gold.Rescore>
     Score         DG    S(hbond)    S(metal)    S(lipo)     H(rot)  DE(clash)    DE(int)     intcor
     22.53     -22.69       3.65        0.00      64.73       1.00       0.00       0.16       ----

> <Gold.Chemscore.Fitness>
22.5335

> <Gold.Chemscore.DG>
-22.6945

> <Gold.Chemscore.ZeroCoef>
-5.4800

> <Gold.Chemscore.Hbond>
3.6529

> <Gold.Chemscore.Metal>
0.0000

> <Gold.Chemscore.Lipo>
64.7330

> <Gold.Chemscore.Internal_Hbond>
0.0000

> <Gold.Chemscore.DEClash>
0.0000

> <Gold.Chemscore.DEInternal>
0.1610

> <Gold.Chemscore.Rot>
1.0000

> <Gold.Chemscore.Internal.Correction>
   9.000000E+99

> <Gold.Chemscore.Hbonds>
donor molecule, donor type, donor heavy atom, donor atom, acceptor molecule, acceptor atom, score
      L1  H     1    15       P1  7948  0.43
      L1  H    11    28       P1  8028  0.53
      P1  H  7997  8008       L1    13  0.47
      P1  H 10752 10764       L1     3  0.97

> <Gold.Chemscore.Hbond.Weighted>
-12.2007

> <Gold.Chemscore.Metal.Weighted>
-0.0000

> <Gold.Chemscore.Lipo.Weighted>
-7.5738

> <Gold.Chemscore.Internal_Hbond.Weighted>
0.0000

> <Gold.Chemscore.DEClash.Weighted>
0.0000

> <Gold.Chemscore.DEInternal.Weighted>
0.1610

> <Gold.Chemscore.Rot.Weighted>
2.5600

> <Gold.Chemscore.Internal.Correction.Weighted>
   9.000000E+99

> <Gold.Protein.RotatedTorsions>
[ 6907 6896 6895 6894 ] final  -59.99 input  -60.11 | X-H torsion
[ 7974 7965 7964 7962 ] final   40.00 input  175.53 | X-H torsion
[ 8008 7997 7996 7995 ] final  -82.10 input   59.86 | X-H torsion
[ 10167 10162 10161 10158 ] final  -99.02 input  -65.29 | X-H torsion
[ 10718 10713 10712 10709 ] final  134.64 input   66.30 | X-H torsion
[ 10763 10752 10751 10750 ] final  -85.99 input  -60.55 | X-H torsion
[ 11005 11000 10999 10996 ] final -152.80 input  -57.11 | X-H torsion

> <Gold.Protein.ActiveResidues>
 VAL166  LYS551  ARG553  GLY616  TRP617  ASP618  TYR619  PRO620  LYS621  CYS622 
 ASP623  PHE694  ASN695  SER759  ASP760  ASP761  ALA762  ILE779  LEU786  VAL792 
 PHE793  MET794  SER795  GLU796  ALA797  LYS798  CYS799  TRP800  GLU811  SER814 

> <Gold.Protein.RotatedAtoms>
  150.7889  134.6896  159.6488 H   0  0  0  0  0  0  0  0  0  0  0  0  # atno 6907 bound_to 6896
  152.3991  134.6313  160.0086 H   0  0  0  0  0  0  0  0  0  0  0  0  # atno 6908 bound_to 6896
  151.6590  133.3281  159.3206 H   0  0  0  0  0  0  0  0  0  0  0  0  # atno 6909 bound_to 6896
  146.0939  139.5584  142.9458 H   0  0  0  0  0  0  0  0  0  0  0  0  # atno 7974 bound_to 7965
  154.6051  140.0638  156.9421 H   0  0  0  0  0  0  0  0  0  0  0  0  # atno 8008 bound_to 7997
  155.2066  140.3319  155.4317 H   0  0  0  0  0  0  0  0  0  0  0  0  # atno 8009 bound_to 7997
  156.2343  140.1855  156.7145 H   0  0  0  0  0  0  0  0  0  0  0  0  # atno 8010 bound_to 7997
  140.2669  143.3370  152.0572 H   0  0  0  0  0  0  0  0  0  0  0  0  # atno 10167 bound_to 10162
  157.4652  131.1076  150.9870 H   0  0  0  0  0  0  0  0  0  0  0  0  # atno 10718 bound_to 10713
  154.6174  135.5465  153.7538 H   0  0  0  0  0  0  0  0  0  0  0  0  # atno 10763 bound_to 10752
  153.0222  135.6404  154.1490 H   0  0  0  0  0  0  0  0  0  0  0  0  # atno 10764 bound_to 10752
  154.1426  135.2907  155.3137 H   0  0  0  0  0  0  0  0  0  0  0  0  # atno 10765 bound_to 10752
  140.7150  134.3790  157.5192 H   0  0  0  0  0  0  0  0  0  0  0  0  # atno 11005 bound_to 11000
  145.5985  141.0359  143.2031 LP  0  0  0  0  0  0  0  0  0  0  0  0  # atno 17320 bound_to 7965
  144.7381  139.7528  143.7321 LP  0  0  0  0  0  0  0  0  0  0  0  0  # atno 17321 bound_to 7965
  139.5000  144.6682  151.6305 LP  0  0  0  0  0  0  0  0  0  0  0  0  # atno 17342 bound_to 10162
  140.5921  143.9761  150.6331 LP  0  0  0  0  0  0  0  0  0  0  0  0  # atno 17343 bound_to 10162
  157.0654  130.5842  149.5393 LP  0  0  0  0  0  0  0  0  0  0  0  0  # atno 17370 bound_to 10713
  156.0047  130.5132  150.7788 LP  0  0  0  0  0  0  0  0  0  0  0  0  # atno 17371 bound_to 10713
  139.8862  134.8916  156.2598 LP  0  0  0  0  0  0  0  0  0  0  0  0  # atno 17394 bound_to 11000
  141.0052  133.7128  156.1023 LP  0  0  0  0  0  0  0  0  0  0  0  0  # atno 17395 bound_to 11000

$$$$
