AV-unprocessed.smi:1358|AV-procd|sdf|5549|dock10
  -GOLD-   22720 5143D 1   1.00000     0.00000
 Structure written by MMmdl.
 37 38  0  0  0  0  0  0  0  0  1 V2000
  152.7115  144.5029  158.3491 C   0  0  0  0  0  0  0  0  0  0  0  0
  151.8000  143.5261  159.1001 C   0  0  0  0  0  0  0  0  0  0  0  0
  150.5828  143.1018  158.2673 C   0  0  0  0  0  0  0  0  0  0  0  0
  150.9556  142.1643  157.1074 C   0  0  0  0  0  0  0  0  0  0  0  0
  149.9112  142.1609  156.0920 N   0  0  0  0  0  0  0  0  0  0  0  0
  149.8023  141.2696  155.0942 C   0  0  0  0  0  0  0  0  0  0  0  0
  150.5232  140.2778  154.9842 O   0  0  0  0  0  0  0  0  0  0  0  0
  148.7358  141.5644  154.0371 C   0  0  0  0  0  0  0  0  0  0  0  0
  147.4025  141.7763  154.6976 C   0  0  0  0  0  0  0  0  0  0  0  0
  146.7880  140.9443  155.6016 C   0  0  0  0  0  0  0  0  0  0  0  0
  145.2340  141.5555  156.1033 S   0  0  0  0  0  0  0  0  0  0  0  0
  145.4748  142.9424  155.0437 C   0  0  0  0  0  0  0  0  0  0  0  0
  144.5158  143.9844  154.8760 N   0  0  0  0  0  0  0  0  0  0  0  0
  144.6686  144.9925  153.8345 C   0  0  0  0  0  0  0  0  0  0  0  0
  143.4486  145.8914  154.0145 C   0  0  0  0  0  0  0  0  0  0  0  0
  142.7833  145.2807  155.1417 N   0  0  0  0  0  0  0  0  0  0  0  0
  143.4098  144.2027  155.6181 C   0  0  0  0  0  0  0  0  0  0  0  0
  143.0144  143.5445  156.5796 O   0  0  0  0  0  0  0  0  0  0  0  0
  146.6509  142.9210  154.4082 N   0  0  0  0  0  0  0  0  0  0  0  0
  153.5661  144.7879  158.9630 H   0  0  0  0  0  0  0  0  0  0  0  0
  152.1757  145.4139  158.0812 H   0  0  0  0  0  0  0  0  0  0  0  0
  153.0948  144.0571  157.4311 H   0  0  0  0  0  0  0  0  0  0  0  0
  152.3745  142.6442  159.3849 H   0  0  0  0  0  0  0  0  0  0  0  0
  151.4642  143.9899  160.0281 H   0  0  0  0  0  0  0  0  0  0  0  0
  149.8566  142.6070  158.9140 H   0  0  0  0  0  0  0  0  0  0  0  0
  150.0878  143.9905  157.8739 H   0  0  0  0  0  0  0  0  0  0  0  0
  151.9142  142.4510  156.6718 H   0  0  0  0  0  0  0  0  0  0  0  0
  151.0724  141.1447  157.4755 H   0  0  0  0  0  0  0  0  0  0  0  0
  149.2735  142.9442  156.0952 H   0  0  0  0  0  0  0  0  0  0  0  0
  149.0317  142.4474  153.4691 H   0  0  0  0  0  0  0  0  0  0  0  0
  148.6858  140.7409  153.3233 H   0  0  0  0  0  0  0  0  0  0  0  0
  147.1513  140.0066  155.9950 H   0  0  0  0  0  0  0  0  0  0  0  0
  145.5962  145.5502  153.9713 H   0  0  0  0  0  0  0  0  0  0  0  0
  144.6819  144.5285  152.8471 H   0  0  0  0  0  0  0  0  0  0  0  0
  143.7270  146.9207  154.2437 H   0  0  0  0  0  0  0  0  0  0  0  0
  142.8005  145.8843  153.1374 H   0  0  0  0  0  0  0  0  0  0  0  0
  141.9278  145.6500  155.5307 H   0  0  0  0  0  0  0  0  0  0  0  0
  1  2  1  0  0  0  0
  1 20  1  0  0  0  0
  1 21  1  0  0  0  0
  1 22  1  0  0  0  0
  2  3  1  0  0  0  0
  2 23  1  0  0  0  0
  2 24  1  0  0  0  0
  3  4  1  0  0  0  0
  3 25  1  0  0  0  0
  3 26  1  0  0  0  0
  4  5  1  0  0  0  0
  4 27  1  0  0  0  0
  4 28  1  0  0  0  0
  5  6  1  0  0  0  0
  5 29  1  0  0  0  0
  6  7  2  0  0  0  0
  6  8  1  0  0  0  0
  8  9  1  0  0  0  0
  8 30  1  0  0  0  0
  8 31  1  0  0  0  0
  9 19  1  0  0  0  0
  9 10  2  0  0  0  0
 10 11  1  0  0  0  0
 10 32  1  0  0  0  0
 11 12  1  0  0  0  0
 12 13  1  0  0  0  0
 12 19  2  0  0  0  0
 13 17  1  0  0  0  0
 13 14  1  0  0  0  0
 14 15  1  0  0  0  0
 14 33  1  0  0  0  0
 14 34  1  0  0  0  0
 15 16  1  0  0  0  0
 15 35  1  0  0  0  0
 15 36  1  0  0  0  0
 16 17  1  0  0  0  0
 16 37  1  0  0  0  0
 17 18  2  0  0  0  0
M  END
> <s_m_source_file>
AV-unprocessed.smi

> <i_m_source_file_index>
1358

> <i_lp_mmshare_version>
43012

> <i_f3d_flags>
0

> <s_epik_input>
W0NIM11bQ0gyXVtDSDJdW0NIMl1bTkhdQyg9TylbQ0gyXWMxW2NIXXNjKG4xKU4yW0NIMl1bQ0gyXVtOSF1DMj1P

> <s_epik_cmdline>
J2VwaWtfcHl0aG9uJywgJy1waCcsICc3LjAnLCAnLXRuJywgJzgnLCAnLW1hJywgJzIwMCcsICctbWV0YWxfYmluZGluZycsICctaW1hZScsICc8aW5maWxlLm1hZT4nLCAnLW9tYWUnLCAnPG91dGZpbGUubWFlPic=

> <r_lp_tautomer_probability>
1

> <r_epik_Ionization_Penalty>
0.000120185

> <r_epik_Ionization_Penalty_Charging>
0

> <r_epik_Ionization_Penalty_Neutral>
0.000120185

> <r_epik_State_Penalty>
-0

> <r_epik_Charging_Adjusted_Penalty>
0

> <i_epik_Tot_Q>
0

> <i_epik_Tot_abs_Q>
0

> <r_epik_Metal_State_Penalty>
-0

> <b_epik_Metal_Only>
0

> <s_lp_Force_Field>
OPLS_2005

> <r_lp_Energy>
29.7034

> <b_lp_Chiralities_Consistent>
1

> <s_lp_Variant>
AV-unprocessed.smi:1358-1

> <Gold.Version>
5.8.1

> <Gold.Id.Protein>
6NUR|6NUR_protein|mol2

> <Gold.PLP.Fitness>
41.5451

> <Gold.PLP.PLP>
-36.2583

> <Gold.PLP.part.hbond>
-2.0000

> <Gold.PLP.part.metal>
0.0000

> <Gold.PLP.part.buried>
-4.2448

> <Gold.PLP.part.nonpolar>
-30.4314

> <Gold.PLP.part.repulsive>
0.4282

> <Gold.PLP.ligand.clash>
0.0000

> <Gold.PLP.ligand.torsion>
0.3733

> <Gold.PLP.Chemscore.Hbond>
2.0000

> <Gold.PLP.Chemscore.CHOScore>
0.0000

> <Gold.PLP.Chemscore.Metal>
0.0000

> <Gold.Chemscore.Hbonds>
donor molecule, donor type, donor heavy atom, donor atom, acceptor molecule, acceptor atom, score
      L1  H     5    29       P1  8028  1.00
      P1  H  7989  7998       L1     7  0.95

> <Gold.PLP.Chemscore.Internal.Correction>
0.0335

> <Gold.Rescore>
     Score         DG    S(hbond)    S(metal)    S(lipo)     H(rot)  DE(clash)    DE(int)     intcor
     13.36     -14.87       1.65        0.00      76.39       1.97       0.02       1.48       ----

> <Gold.Chemscore.Fitness>
13.3626

> <Gold.Chemscore.DG>
-14.8650

> <Gold.Chemscore.ZeroCoef>
-5.4800

> <Gold.Chemscore.Hbond>
1.6451

> <Gold.Chemscore.Metal>
0.0000

> <Gold.Chemscore.Lipo>
76.3943

> <Gold.Chemscore.Internal_Hbond>
0.0000

> <Gold.Chemscore.DEClash>
0.0239

> <Gold.Chemscore.DEInternal>
1.4785

> <Gold.Chemscore.Rot>
1.9718

> <Gold.Chemscore.Internal.Correction>
   9.000000E+99

> <Gold.Chemscore.Hbonds>
donor molecule, donor type, donor heavy atom, donor atom, acceptor molecule, acceptor atom, score
      L1  H     5    29       P1  8028  0.94
      P1  H  7989  7998       L1     7  0.21

> <Gold.Chemscore.Hbond.Weighted>
-5.4946

> <Gold.Chemscore.Metal.Weighted>
-0.0000

> <Gold.Chemscore.Lipo.Weighted>
-8.9381

> <Gold.Chemscore.Internal_Hbond.Weighted>
0.0000

> <Gold.Chemscore.DEClash.Weighted>
0.0239

> <Gold.Chemscore.DEInternal.Weighted>
1.4785

> <Gold.Chemscore.Rot.Weighted>
5.0478

> <Gold.Chemscore.Internal.Correction.Weighted>
   9.000000E+99

> <Gold.Protein.RotatedTorsions>
[ 6907 6896 6895 6894 ] final  -27.02 input  -60.11 | X-H torsion
[ 7974 7965 7964 7962 ] final  137.41 input  175.53 | X-H torsion
[ 8008 7997 7996 7995 ] final   -2.32 input   59.86 | X-H torsion
[ 10167 10162 10161 10158 ] final    3.11 input  -65.29 | X-H torsion
[ 10718 10713 10712 10709 ] final  136.25 input   66.30 | X-H torsion
[ 10763 10752 10751 10750 ] final  -30.40 input  -60.55 | X-H torsion
[ 11005 11000 10999 10996 ] final  145.47 input  -57.11 | X-H torsion

> <Gold.Protein.ActiveResidues>
 VAL166  LYS551  ARG553  GLY616  TRP617  ASP618  TYR619  PRO620  LYS621  CYS622 
 ASP623  PHE694  ASN695  SER759  ASP760  ASP761  ALA762  ILE779  LEU786  VAL792 
 PHE793  MET794  SER795  GLU796  ALA797  LYS798  CYS799  TRP800  GLU811  SER814 

> <Gold.Protein.RotatedAtoms>
  151.1528  135.0235  159.8675 H   0  0  0  0  0  0  0  0  0  0  0  0  # atno 6907 bound_to 6896
  152.5452  134.1369  159.8473 H   0  0  0  0  0  0  0  0  0  0  0  0  # atno 6908 bound_to 6896
  151.1456  133.4896  159.2628 H   0  0  0  0  0  0  0  0  0  0  0  0  # atno 6909 bound_to 6896
  144.9471  139.4862  143.5544 H   0  0  0  0  0  0  0  0  0  0  0  0  # atno 7974 bound_to 7965
  154.6370  140.2537  155.7366 H   0  0  0  0  0  0  0  0  0  0  0  0  # atno 8008 bound_to 7997
  156.2509  140.2895  156.0667 H   0  0  0  0  0  0  0  0  0  0  0  0  # atno 8009 bound_to 7997
  155.1655  140.0385  157.2842 H   0  0  0  0  0  0  0  0  0  0  0  0  # atno 8010 bound_to 7997
  140.6602  143.7323  150.7725 H   0  0  0  0  0  0  0  0  0  0  0  0  # atno 10167 bound_to 10162
  157.4486  131.1064  151.0060 H   0  0  0  0  0  0  0  0  0  0  0  0  # atno 10718 bound_to 10713
  153.7804  135.6905  153.4889 H   0  0  0  0  0  0  0  0  0  0  0  0  # atno 10763 bound_to 10752
  153.1815  135.4504  155.0033 H   0  0  0  0  0  0  0  0  0  0  0  0  # atno 10764 bound_to 10752
  154.8084  135.3366  154.7308 H   0  0  0  0  0  0  0  0  0  0  0  0  # atno 10765 bound_to 10752
  140.0715  134.9149  157.1352 H   0  0  0  0  0  0  0  0  0  0  0  0  # atno 11005 bound_to 11000
  146.3307  139.8530  142.8870 LP  0  0  0  0  0  0  0  0  0  0  0  0  # atno 17320 bound_to 7965
  145.2902  141.0165  143.3667 LP  0  0  0  0  0  0  0  0  0  0  0  0  # atno 17321 bound_to 7965
  140.0990  143.4805  152.2436 LP  0  0  0  0  0  0  0  0  0  0  0  0  # atno 17342 bound_to 10162
  139.5834  144.7520  151.3581 LP  0  0  0  0  0  0  0  0  0  0  0  0  # atno 17343 bound_to 10162
  157.0898  130.5937  149.5437 LP  0  0  0  0  0  0  0  0  0  0  0  0  # atno 17370 bound_to 10713
  155.9977  130.5050  150.7546 LP  0  0  0  0  0  0  0  0  0  0  0  0  # atno 17371 bound_to 10713
  140.3620  134.2483  155.7186 LP  0  0  0  0  0  0  0  0  0  0  0  0  # atno 17394 bound_to 11000
  141.2013  133.7965  157.0445 LP  0  0  0  0  0  0  0  0  0  0  0  0  # atno 17395 bound_to 11000

$$$$
