AV-unprocessed.smi:1818|AV-procd|sdf|7381|dock9
  -GOLD-   22720 9 53D 1   1.00000     0.00000
 Structure written by MMmdl.
 37 38  0  0  0  0  0  0  0  0  2 V2000
  152.5286  136.7039  159.3452 N   0  0  0  0  0  0  0  0  0  0  0  0
  152.1081  137.5910  158.7329 C   0  0  0  0  0  0  0  0  0  0  0  0
  151.5706  138.7224  157.9515 C   0  0  0  0  0  0  0  0  0  0  0  0
  151.6785  139.9686  158.7170 N   0  0  0  0  0  0  0  0  0  0  0  0
  152.7947  140.5133  159.2298 C   0  0  0  0  0  0  0  0  0  0  0  0
  153.9164  140.0258  159.1013 O   0  0  0  0  0  0  0  0  0  0  0  0
  152.6138  141.8005  160.0335 C   0  0  0  0  0  0  0  0  0  0  0  0
  152.1362  142.8902  159.1773 N   0  0  0  0  0  0  0  0  0  0  0  0
  152.8095  144.0344  158.8315 C   0  0  0  0  0  0  0  0  0  0  0  0
  151.9732  144.7473  158.0113 C   0  0  0  0  0  0  0  0  0  0  0  0
  150.8266  144.0087  157.8898 N   0  3  0  0  0  0  0  0  0  0  0  0
  150.9273  142.8801  158.5994 C   0  0  0  0  0  0  0  0  0  0  0  0
  152.4620  138.8739  156.6944 C   0  0  0  0  0  0  0  0  0  0  0  0
  151.8429  139.6464  155.5158 C   0  0  0  0  0  0  0  0  0  0  0  0
  151.0630  138.7296  154.5561 C   0  0  0  0  0  0  0  0  0  0  0  0
  149.7239  138.2081  155.1011 C   0  0  0  0  0  0  0  0  0  0  0  0
  149.8104  137.4891  156.4592 C   0  0  0  0  0  0  0  0  0  0  0  0
  150.0770  138.4624  157.6198 C   0  0  0  0  0  0  0  0  0  0  0  0
  150.8110  140.4588  158.8794 H   0  0  0  0  0  0  0  0  0  0  0  0
  151.8931  141.6486  160.8386 H   0  0  0  0  0  0  0  0  0  0  0  0
  153.5563  142.1059  160.4907 H   0  0  0  0  0  0  0  0  0  0  0  0
  153.8076  144.2507  159.1844 H   0  0  0  0  0  0  0  0  0  0  0  0
  152.1050  145.6990  157.5171 H   0  0  0  0  0  0  0  0  0  0  0  0
  150.1815  142.1097  158.6854 H   0  0  0  0  0  0  0  0  0  0  0  0
  153.3953  139.3606  156.9825 H   0  0  0  0  0  0  0  0  0  0  0  0
  152.7705  137.8885  156.3416 H   0  0  0  0  0  0  0  0  0  0  0  0
  151.2251  140.4748  155.8638 H   0  0  0  0  0  0  0  0  0  0  0  0
  152.6556  140.1003  154.9476 H   0  0  0  0  0  0  0  0  0  0  0  0
  150.8644  139.2773  153.6342 H   0  0  0  0  0  0  0  0  0  0  0  0
  151.6905  137.8866  154.2645 H   0  0  0  0  0  0  0  0  0  0  0  0
  149.0129  139.0324  155.1690 H   0  0  0  0  0  0  0  0  0  0  0  0
  149.3032  137.5192  154.3679 H   0  0  0  0  0  0  0  0  0  0  0  0
  148.8491  137.0060  156.6375 H   0  0  0  0  0  0  0  0  0  0  0  0
  150.5476  136.6860  156.4378 H   0  0  0  0  0  0  0  0  0  0  0  0
  149.5931  138.0625  158.5119 H   0  0  0  0  0  0  0  0  0  0  0  0
  149.5608  139.4029  157.4212 H   0  0  0  0  0  0  0  0  0  0  0  0
  150.0179  144.2755  157.3422 H   0  0  0  0  0  0  0  0  0  0  0  0
  1  2  3  0  0  0  0
  2  3  1  0  0  0  0
  3 18  1  0  0  0  0
  3  4  1  0  0  0  0
  3 13  1  0  0  0  0
  4  5  1  0  0  0  0
  4 19  1  0  0  0  0
  5  6  2  0  0  0  0
  5  7  1  0  0  0  0
  7  8  1  0  0  0  0
  7 20  1  0  0  0  0
  7 21  1  0  0  0  0
  8 12  1  0  0  0  0
  8  9  1  0  0  0  0
  9 10  2  0  0  0  0
  9 22  1  0  0  0  0
 10 11  1  0  0  0  0
 10 23  1  0  0  0  0
 11 12  2  0  0  0  0
 11 37  1  0  0  0  0
 12 24  1  0  0  0  0
 13 14  1  0  0  0  0
 13 25  1  0  0  0  0
 13 26  1  0  0  0  0
 14 15  1  0  0  0  0
 14 27  1  0  0  0  0
 14 28  1  0  0  0  0
 15 16  1  0  0  0  0
 15 29  1  0  0  0  0
 15 30  1  0  0  0  0
 16 17  1  0  0  0  0
 16 31  1  0  0  0  0
 16 32  1  0  0  0  0
 17 18  1  0  0  0  0
 17 33  1  0  0  0  0
 17 34  1  0  0  0  0
 18 35  1  0  0  0  0
 18 36  1  0  0  0  0
M  CHG  1  11   1
M  END
> <s_m_source_file>
AV-unprocessed.smi

> <i_m_source_file_index>
1818

> <i_lp_mmshare_version>
43012

> <i_f3d_flags>
0

> <s_epik_input>
W0NIMl0xW0NIMl1bQ0gyXVtDSDJdW0NIMl1bQ0gyXUMxKEMjTilbTkhdQyg9TylbQ0gyXW4yW2NIXVtjSF1uW2NIXTI=

> <s_epik_cmdline>
J2VwaWtfcHl0aG9uJywgJy1waCcsICc3LjAnLCAnLXRuJywgJzgnLCAnLW1hJywgJzIwMCcsICctbWV0YWxfYmluZGluZycsICctaW1hZScsICc8aW5maWxlLm1hZT4nLCAnLW9tYWUnLCAnPG91dGZpbGUubWFlPic=

> <r_lp_tautomer_probability>
1

> <r_epik_Ionization_Penalty>
0.70502

> <r_epik_Ionization_Penalty_Charging>
0

> <r_epik_Ionization_Penalty_Neutral>
0.70502

> <r_epik_State_Penalty>
0.72808

> <r_epik_Charging_Adjusted_Penalty>
0.72808

> <i_epik_Tot_Q>
1

> <i_epik_Tot_abs_Q>
1

> <r_epik_Metal_State_Penalty>
0.891186

> <b_epik_Metal_Only>
0

> <s_lp_Force_Field>
OPLS_2005

> <r_lp_Energy>
19.4839

> <b_lp_Chiralities_Consistent>
1

> <s_lp_Variant>
AV-unprocessed.smi:1818-2

> <Gold.Version>
5.8.1

> <Gold.Id.Protein>
6NUR|6NUR_protein|mol2

> <Gold.PLP.Fitness>
45.9880

> <Gold.PLP.PLP>
-34.4773

> <Gold.PLP.part.hbond>
-3.0000

> <Gold.PLP.part.metal>
0.0000

> <Gold.PLP.part.buried>
-4.3129

> <Gold.PLP.part.nonpolar>
-27.3742

> <Gold.PLP.part.repulsive>
0.1523

> <Gold.PLP.ligand.clash>
0.0000

> <Gold.PLP.ligand.torsion>
0.0690

> <Gold.PLP.Chemscore.Hbond>
3.8800

> <Gold.PLP.Chemscore.CHOScore>
0.0000

> <Gold.PLP.Chemscore.Metal>
0.0000

> <Gold.Chemscore.Hbonds>
donor molecule, donor type, donor heavy atom, donor atom, acceptor molecule, acceptor atom, score
      L1  H    11    37       P1  8028  1.92
      P1  H  6896  6908       L1     1  1.00
      P1  H  7997  8008       L1     6  0.63

> <Gold.PLP.Chemscore.Internal.Correction>
0.0087

> <Gold.Rescore>
     Score         DG    S(hbond)    S(metal)    S(lipo)     H(rot)  DE(clash)    DE(int)     intcor
     16.57     -18.69       2.65        0.00      74.24       1.69       0.26       1.86       ----

> <Gold.Chemscore.Fitness>
16.5721

> <Gold.Chemscore.DG>
-18.6854

> <Gold.Chemscore.ZeroCoef>
-5.4800

> <Gold.Chemscore.Hbond>
2.6521

> <Gold.Chemscore.Metal>
0.0000

> <Gold.Chemscore.Lipo>
74.2385

> <Gold.Chemscore.Internal_Hbond>
0.0000

> <Gold.Chemscore.DEClash>
0.2575

> <Gold.Chemscore.DEInternal>
1.8558

> <Gold.Chemscore.Rot>
1.6947

> <Gold.Chemscore.Internal.Correction>
   9.000000E+99

> <Gold.Chemscore.Hbonds>
donor molecule, donor type, donor heavy atom, donor atom, acceptor molecule, acceptor atom, score
      L1  H    11    37       P1  8028  0.50
      P1  H  6896  6908       L1     1  0.97
      P1  H  7997  8008       L1     6  0.62

> <Gold.Chemscore.Hbond.Weighted>
-8.8581

> <Gold.Chemscore.Metal.Weighted>
-0.0000

> <Gold.Chemscore.Lipo.Weighted>
-8.6859

> <Gold.Chemscore.Internal_Hbond.Weighted>
0.0000

> <Gold.Chemscore.DEClash.Weighted>
0.2575

> <Gold.Chemscore.DEInternal.Weighted>
1.8558

> <Gold.Chemscore.Rot.Weighted>
4.3386

> <Gold.Chemscore.Internal.Correction.Weighted>
   9.000000E+99

> <Gold.Protein.RotatedTorsions>
[ 6907 6896 6895 6894 ] final -103.80 input  -60.11 | X-H torsion
[ 7974 7965 7964 7962 ] final  137.47 input  175.53 | X-H torsion
[ 8008 7997 7996 7995 ] final -123.04 input   59.86 | X-H torsion
[ 10167 10162 10161 10158 ] final   22.80 input  -65.29 | X-H torsion
[ 10718 10713 10712 10709 ] final   21.36 input   66.30 | X-H torsion
[ 10763 10752 10751 10750 ] final  106.52 input  -60.55 | X-H torsion
[ 11005 11000 10999 10996 ] final -115.41 input  -57.11 | X-H torsion

> <Gold.Protein.ActiveResidues>
 VAL166  LYS551  ARG553  GLY616  TRP617  ASP618  TYR619  PRO620  LYS621  CYS622 
 ASP623  PHE694  ASN695  SER759  ASP760  ASP761  ALA762  ILE779  LEU786  VAL792 
 PHE793  MET794  SER795  GLU796  ALA797  LYS798  CYS799  TRP800  GLU811  SER814 

> <Gold.Protein.RotatedAtoms>
  150.7257  134.0374  159.3753 H   0  0  0  0  0  0  0  0  0  0  0  0  # atno 6907 bound_to 6896
  151.8346  135.0608  160.0450 H   0  0  0  0  0  0  0  0  0  0  0  0  # atno 6908 bound_to 6896
  152.2908  133.5524  159.5593 H   0  0  0  0  0  0  0  0  0  0  0  0  # atno 6909 bound_to 6896
  144.9465  139.4869  143.5546 H   0  0  0  0  0  0  0  0  0  0  0  0  # atno 7974 bound_to 7965
  155.1740  140.0409  157.2868 H   0  0  0  0  0  0  0  0  0  0  0  0  # atno 8008 bound_to 7997
  154.6250  140.2510  155.7476 H   0  0  0  0  0  0  0  0  0  0  0  0  # atno 8009 bound_to 7997
  156.2454  140.2887  156.0575 H   0  0  0  0  0  0  0  0  0  0  0  0  # atno 8010 bound_to 7997
  140.5320  143.9825  150.6470 H   0  0  0  0  0  0  0  0  0  0  0  0  # atno 10167 bound_to 10162
  157.1374  130.6617  149.5970 H   0  0  0  0  0  0  0  0  0  0  0  0  # atno 10718 bound_to 10713
  153.3940  135.3874  155.1943 H   0  0  0  0  0  0  0  0  0  0  0  0  # atno 10763 bound_to 10752
  154.8722  135.3755  154.4701 H   0  0  0  0  0  0  0  0  0  0  0  0  # atno 10764 bound_to 10752
  153.5191  135.7087  153.5802 H   0  0  0  0  0  0  0  0  0  0  0  0  # atno 10765 bound_to 10752
  141.0489  133.9718  157.2869 H   0  0  0  0  0  0  0  0  0  0  0  0  # atno 11005 bound_to 11000
  146.3305  139.8521  142.8871 LP  0  0  0  0  0  0  0  0  0  0  0  0  # atno 17320 bound_to 7965
  145.2910  141.0167  143.3663 LP  0  0  0  0  0  0  0  0  0  0  0  0  # atno 17321 bound_to 7965
  140.3203  143.3141  152.0791 LP  0  0  0  0  0  0  0  0  0  0  0  0  # atno 17342 bound_to 10162
  139.4957  144.6578  151.6533 LP  0  0  0  0  0  0  0  0  0  0  0  0  # atno 17343 bound_to 10162
  155.9795  130.4790  150.6721 LP  0  0  0  0  0  0  0  0  0  0  0  0  # atno 17370 bound_to 10713
  157.4338  131.0852  151.1012 LP  0  0  0  0  0  0  0  0  0  0  0  0  # atno 17371 bound_to 10713
  139.9334  135.0198  156.8477 LP  0  0  0  0  0  0  0  0  0  0  0  0  # atno 17394 bound_to 11000
  140.6092  134.0098  155.7570 LP  0  0  0  0  0  0  0  0  0  0  0  0  # atno 17395 bound_to 11000

$$$$
