AV-unprocessed.smi:3163|AV-procd|sdf|12078|dock1
  -GOLD-   2272017503D 1   1.00000     0.00000
 Structure written by MMmdl.
 37 38  0  0  0  0  0  0  0  0  3 V2000
  143.5638  132.6791  148.8920 C   0  0  0  0  0  0  0  0  0  0  0  0
  144.7744  133.3646  149.3902 N   0  3  2  0  0  0  0  0  0  0  0  0
  145.7212  132.4881  150.1191 C   0  0  0  0  0  0  0  0  0  0  0  0
  146.0976  133.2228  151.4116 C   0  0  0  0  0  0  0  0  0  0  0  0
  145.7315  134.6815  151.1357 C   0  0  2  0  0  0  0  0  0  0  0  0
  145.4935  135.5385  152.3941 C   0  0  0  0  0  0  0  0  0  0  0  0
  146.5829  136.4793  152.6343 N   0  0  0  0  0  0  0  0  0  0  0  0
  146.4391  137.7082  153.1505 C   0  0  0  0  0  0  0  0  0  0  0  0
  145.3512  138.1789  153.4810 O   0  0  0  0  0  0  0  0  0  0  0  0
  147.6257  138.3304  153.2629 N   0  0  0  0  0  0  0  0  0  0  0  0
  147.9096  139.6347  153.7546 C   0  0  0  0  0  0  0  0  0  0  0  0
  149.1548  139.8297  154.3931 C   0  0  0  0  0  0  0  0  0  0  0  0
  149.4929  141.1059  154.8872 C   0  0  0  0  0  0  0  0  0  0  0  0
  148.6299  142.1337  154.7406 N   0  3  0  0  0  0  0  0  0  0  0  0
  147.4345  142.0005  154.1273 C   0  0  0  0  0  0  0  0  0  0  0  0
  147.0416  140.7481  153.6122 C   0  0  0  0  0  0  0  0  0  0  0  0
  144.4998  134.5400  150.2421 C   0  0  0  0  0  0  0  0  0  0  0  0
  142.9771  132.2689  149.7150 H   0  0  0  0  0  0  0  0  0  0  0  0
  143.8377  131.8612  148.2246 H   0  0  0  0  0  0  0  0  0  0  0  0
  142.9349  133.3737  148.3342 H   0  0  0  0  0  0  0  0  0  0  0  0
  145.2972  131.5069  150.3386 H   0  0  0  0  0  0  0  0  0  0  0  0
  146.5997  132.3345  149.4917 H   0  0  0  0  0  0  0  0  0  0  0  0
  145.4975  132.8380  152.2376 H   0  0  0  0  0  0  0  0  0  0  0  0
  147.1478  133.0933  151.6758 H   0  0  0  0  0  0  0  0  0  0  0  0
  146.5294  135.1283  150.5396 H   0  0  0  0  0  0  0  0  0  0  0  0
  144.5489  136.0786  152.3109 H   0  0  0  0  0  0  0  0  0  0  0  0
  145.4036  134.8981  153.2722 H   0  0  0  0  0  0  0  0  0  0  0  0
  147.5132  136.1665  152.3969 H   0  0  0  0  0  0  0  0  0  0  0  0
  148.4346  137.7820  153.0095 H   0  0  0  0  0  0  0  0  0  0  0  0
  149.8474  139.0084  154.5096 H   0  0  0  0  0  0  0  0  0  0  0  0
  150.4214  141.3335  155.3903 H   0  0  0  0  0  0  0  0  0  0  0  0
  146.8331  142.8954  154.0619 H   0  0  0  0  0  0  0  0  0  0  0  0
  146.0890  140.6747  153.1111 H   0  0  0  0  0  0  0  0  0  0  0  0
  144.3114  135.4319  149.6436 H   0  0  0  0  0  0  0  0  0  0  0  0
  143.6157  134.3527  150.8543 H   0  0  0  0  0  0  0  0  0  0  0  0
  145.2774  133.7094  148.5848 H   0  0  0  0  0  0  0  0  0  0  0  0
  148.8935  143.0500  155.1043 H   0  0  0  0  0  0  0  0  0  0  0  0
  1  2  1  0  0  0  0
  1 18  1  0  0  0  0
  1 19  1  0  0  0  0
  1 20  1  0  0  0  0
  2 17  1  0  0  0  0
  2  3  1  0  0  0  0
  2 36  1  0  0  0  0
  3  4  1  0  0  0  0
  3 21  1  0  0  0  0
  3 22  1  0  0  0  0
  4  5  1  0  0  0  0
  4 23  1  0  0  0  0
  4 24  1  0  0  0  0
  5  6  1  0  0  0  0
  5 17  1  0  0  0  0
  5 25  1  0  0  0  0
  6  7  1  0  0  0  0
  6 26  1  0  0  0  0
  6 27  1  0  0  0  0
  7  8  1  0  0  0  0
  7 28  1  0  0  0  0
  8  9  2  0  0  0  0
  8 10  1  0  0  0  0
 10 11  1  0  0  0  0
 10 29  1  0  0  0  0
 11 16  1  0  0  0  0
 11 12  2  0  0  0  0
 12 13  1  0  0  0  0
 12 30  1  0  0  0  0
 13 14  2  0  0  0  0
 13 31  1  0  0  0  0
 14 15  1  0  0  0  0
 14 37  1  0  0  0  0
 15 16  2  0  0  0  0
 15 32  1  0  0  0  0
 16 33  1  0  0  0  0
 17 34  1  0  0  0  0
 17 35  1  0  0  0  0
M  CHG  1   2   1
M  CHG  1  14   1
M  END
> <s_m_source_file>
AV-unprocessed.smi

> <i_m_source_file_index>
3163

> <i_lp_mmshare_version>
43012

> <i_f3d_flags>
0

> <s_epik_input>
W0NIM11OMVtDSDJdW0NIMl1bQ0BIXShbQ0gyXTEpW0NIMl1bTkhdQyg9TylbTkhdYzJbY0hdW2NIXW5bY0hdW2NIXTI=

> <s_epik_cmdline>
J2VwaWtfcHl0aG9uJywgJy1waCcsICc3LjAnLCAnLXRuJywgJzgnLCAnLW1hJywgJzIwMCcsICctbWV0YWxfYmluZGluZycsICctaW1hZScsICc8aW5maWxlLm1hZT4nLCAnLW9tYWUnLCAnPG91dGZpbGUubWFlPic=

> <r_epik_Ionization_Penalty>
1.09034

> <r_epik_Ionization_Penalty_Charging>
1.09032

> <r_epik_Ionization_Penalty_Neutral>
1.86664e-05

> <r_epik_State_Penalty>
1.14521

> <r_epik_Charging_Adjusted_Penalty>
2.23553

> <i_epik_Tot_Q>
2

> <i_epik_Tot_abs_Q>
2

> <r_epik_Metal_State_Penalty>
1.23399

> <b_epik_Metal_Only>
0

> <s_lp_Force_Field>
OPLS_2005

> <r_lp_Energy>
38.5846

> <b_lp_Chiralities_Consistent>
1

> <s_lp_Variant>
AV-unprocessed.smi:3163-8

> <Gold.Version>
5.8.1

> <Gold.Id.Protein>
6NUR|6NUR_protein|mol2

> <Gold.PLP.Fitness>
45.0637

> <Gold.PLP.PLP>
-32.6390

> <Gold.PLP.part.hbond>
-3.8943

> <Gold.PLP.part.metal>
0.0000

> <Gold.PLP.part.buried>
-2.6155

> <Gold.PLP.part.nonpolar>
-27.5534

> <Gold.PLP.part.repulsive>
1.4592

> <Gold.PLP.ligand.clash>
0.0000

> <Gold.PLP.ligand.torsion>
1.0385

> <Gold.PLP.Chemscore.Hbond>
4.8320

> <Gold.PLP.Chemscore.CHOScore>
0.0000

> <Gold.PLP.Chemscore.Metal>
0.0000

> <Gold.Chemscore.Hbonds>
donor molecule, donor type, donor heavy atom, donor atom, acceptor molecule, acceptor atom, score
      L1  H     2    36       P1  7921  1.00
      L1  H     7    28       P1  7948  0.99
      L1  H    10    29       P1  7948  0.83
      L1  H    14    37       P1  8028  2.00

> <Gold.PLP.Chemscore.Internal.Correction>
0.0058

> <Gold.Rescore>
     Score         DG    S(hbond)    S(metal)    S(lipo)     H(rot)  DE(clash)    DE(int)     intcor
     23.09     -24.09       3.74        0.00      80.17       1.27       0.05       0.95       ----

> <Gold.Chemscore.Fitness>
23.0877

> <Gold.Chemscore.DG>
-24.0892

> <Gold.Chemscore.ZeroCoef>
-5.4800

> <Gold.Chemscore.Hbond>
3.7383

> <Gold.Chemscore.Metal>
0.0000

> <Gold.Chemscore.Lipo>
80.1694

> <Gold.Chemscore.Internal_Hbond>
0.0000

> <Gold.Chemscore.DEClash>
0.0483

> <Gold.Chemscore.DEInternal>
0.9532

> <Gold.Chemscore.Rot>
1.2721

> <Gold.Chemscore.Internal.Correction>
   9.000000E+99

> <Gold.Chemscore.Hbonds>
donor molecule, donor type, donor heavy atom, donor atom, acceptor molecule, acceptor atom, score
      L1  H     2    36       P1  7921  0.70
      L1  H     7    28       P1  7948  0.92
      L1  H    10    29       P1  7948  0.79
      L1  H    14    37       P1  8028  1.00

> <Gold.Chemscore.Hbond.Weighted>
-12.4858

> <Gold.Chemscore.Metal.Weighted>
-0.0000

> <Gold.Chemscore.Lipo.Weighted>
-9.3798

> <Gold.Chemscore.Internal_Hbond.Weighted>
0.0000

> <Gold.Chemscore.DEClash.Weighted>
0.0483

> <Gold.Chemscore.DEInternal.Weighted>
0.9532

> <Gold.Chemscore.Rot.Weighted>
3.2565

> <Gold.Chemscore.Internal.Correction.Weighted>
   9.000000E+99

> <Gold.Protein.RotatedTorsions>
[ 6907 6896 6895 6894 ] final  -78.61 input  -60.11 | X-H torsion
[ 7974 7965 7964 7962 ] final  -34.71 input  175.53 | X-H torsion
[ 8008 7997 7996 7995 ] final   75.74 input   59.86 | X-H torsion
[ 10167 10162 10161 10158 ] final   -5.85 input  -65.29 | X-H torsion
[ 10718 10713 10712 10709 ] final   40.22 input   66.30 | X-H torsion
[ 10763 10752 10751 10750 ] final  122.86 input  -60.55 | X-H torsion
[ 11005 11000 10999 10996 ] final  143.09 input  -57.11 | X-H torsion

> <Gold.Protein.ActiveResidues>
 VAL166  LYS551  ARG553  GLY616  TRP617  ASP618  TYR619  PRO620  LYS621  CYS622 
 ASP623  PHE694  ASN695  SER759  ASP760  ASP761  ALA762  ILE779  LEU786  VAL792 
 PHE793  MET794  SER795  GLU796  ALA797  LYS798  CYS799  TRP800  GLU811  SER814 

> <Gold.Protein.RotatedAtoms>
  150.6969  134.4246  159.5220 H   0  0  0  0  0  0  0  0  0  0  0  0  # atno 6907 bound_to 6896
  152.1983  134.8608  160.0519 H   0  0  0  0  0  0  0  0  0  0  0  0  # atno 6908 bound_to 6896
  151.9537  133.3639  159.4046 H   0  0  0  0  0  0  0  0  0  0  0  0  # atno 6909 bound_to 6896
  146.0807  140.6071  142.8909 H   0  0  0  0  0  0  0  0  0  0  0  0  # atno 7974 bound_to 7965
  155.8172  140.3471  155.5492 H   0  0  0  0  0  0  0  0  0  0  0  0  # atno 8008 bound_to 7997
  155.8379  140.0937  157.1772 H   0  0  0  0  0  0  0  0  0  0  0  0  # atno 8009 bound_to 7997
  154.4004  140.1400  156.3681 H   0  0  0  0  0  0  0  0  0  0  0  0  # atno 8010 bound_to 7997
  140.6977  143.6261  150.8567 H   0  0  0  0  0  0  0  0  0  0  0  0  # atno 10167 bound_to 10162
  157.3797  130.7746  149.7183 H   0  0  0  0  0  0  0  0  0  0  0  0  # atno 10718 bound_to 10713
  153.6364  135.3387  155.3058 H   0  0  0  0  0  0  0  0  0  0  0  0  # atno 10763 bound_to 10752
  154.8569  135.4308  154.2051 H   0  0  0  0  0  0  0  0  0  0  0  0  # atno 10764 bound_to 10752
  153.2959  135.7021  153.7322 H   0  0  0  0  0  0  0  0  0  0  0  0  # atno 10765 bound_to 10752
  140.0527  134.9247  157.1045 H   0  0  0  0  0  0  0  0  0  0  0  0  # atno 11005 bound_to 11000
  144.7291  140.4617  143.6951 LP  0  0  0  0  0  0  0  0  0  0  0  0  # atno 17320 bound_to 7965
  145.6223  139.1525  143.3015 LP  0  0  0  0  0  0  0  0  0  0  0  0  # atno 17321 bound_to 7965
  139.9980  143.5775  152.2886 LP  0  0  0  0  0  0  0  0  0  0  0  0  # atno 17342 bound_to 10162
  139.6454  144.7658  151.2254 LP  0  0  0  0  0  0  0  0  0  0  0  0  # atno 17343 bound_to 10162
  155.9773  130.4065  150.3722 LP  0  0  0  0  0  0  0  0  0  0  0  0  # atno 17370 bound_to 10713
  157.1824  131.0395  151.2742 LP  0  0  0  0  0  0  0  0  0  0  0  0  # atno 17371 bound_to 10713
  140.3892  134.2202  155.7167 LP  0  0  0  0  0  0  0  0  0  0  0  0  # atno 17394 bound_to 11000
  141.1938  133.8143  157.0785 LP  0  0  0  0  0  0  0  0  0  0  0  0  # atno 17395 bound_to 11000

$$$$
