AV-unprocessed.smi:753|AV-procd|sdf|3606|dock3
  -GOLD-   22720 1 03D 1   1.00000     0.00000
 Structure written by MMmdl.
 44 46  0  0  0  0  0  0  0  0  2 V2000
  151.0675  141.9670  156.2995 C   0  0  0  0  0  0  0  0  0  0  0  0
  150.0357  141.3688  155.3668 C   0  0  0  0  0  0  0  0  0  0  0  0
  150.0315  139.9996  155.0240 C   0  0  0  0  0  0  0  0  0  0  0  0
  149.0399  139.5124  154.1477 C   0  0  0  0  0  0  0  0  0  0  0  0
  148.0721  140.4029  153.6332 C   0  0  0  0  0  0  0  0  0  0  0  0
  146.9973  139.9088  152.6860 C   0  0  0  0  0  0  0  0  0  0  0  0
  146.1978  138.7380  153.2796 C   0  0  0  0  0  0  0  0  0  0  0  0
  146.5068  137.4857  152.6016 N   0  0  0  0  0  0  0  0  0  0  0  0
  145.5955  136.6524  152.0722 C   0  0  0  0  0  0  0  0  0  0  0  0
  144.3839  136.8560  152.1217 O   0  0  0  0  0  0  0  0  0  0  0  0
  146.1097  135.5645  151.4721 N   0  0  0  0  0  0  0  0  0  0  0  0
  145.3900  134.4762  150.8059 C   0  0  1  0  0  0  0  0  0  0  0  0
  146.3159  133.2753  150.5113 C   0  0  0  0  0  0  0  0  0  0  0  0
  145.6109  132.1113  151.2325 C   0  0  2  0  0  0  0  0  0  0  0  0
  144.2977  131.7703  150.5014 C   0  0  0  0  0  0  0  0  0  0  0  0
  143.3889  132.9639  150.8550 C   0  0  0  0  0  0  0  0  0  0  0  0
  144.3120  133.8432  151.7186 C   0  0  1  0  0  0  0  0  0  0  0  0
  145.0992  132.7916  152.4944 C   0  0  0  0  0  0  0  0  0  0  0  0
  148.1262  141.7618  154.0102 C   0  0  0  0  0  0  0  0  0  0  0  0
  149.0931  142.1896  154.8512 N   0  3  0  0  0  0  0  0  0  0  0  0
  151.7387  141.2002  156.6872 H   0  0  0  0  0  0  0  0  0  0  0  0
  150.5794  142.4514  157.1458 H   0  0  0  0  0  0  0  0  0  0  0  0
  151.6671  142.7111  155.7747 H   0  0  0  0  0  0  0  0  0  0  0  0
  150.7770  139.3284  155.4250 H   0  0  0  0  0  0  0  0  0  0  0  0
  149.0252  138.4673  153.8737 H   0  0  0  0  0  0  0  0  0  0  0  0
  146.3318  140.7388  152.4442 H   0  0  0  0  0  0  0  0  0  0  0  0
  147.4634  139.6059  151.7474 H   0  0  0  0  0  0  0  0  0  0  0  0
  146.4378  138.6194  154.3364 H   0  0  0  0  0  0  0  0  0  0  0  0
  145.1263  138.9381  153.2244 H   0  0  0  0  0  0  0  0  0  0  0  0
  147.4820  137.2369  152.5185 H   0  0  0  0  0  0  0  0  0  0  0  0
  147.1151  135.4740  151.4936 H   0  0  0  0  0  0  0  0  0  0  0  0
  144.9536  134.8465  149.8763 H   0  0  0  0  0  0  0  0  0  0  0  0
  146.4261  133.0905  149.4421 H   0  0  0  0  0  0  0  0  0  0  0  0
  147.3150  133.4268  150.9234 H   0  0  0  0  0  0  0  0  0  0  0  0
  146.2550  131.2481  151.4025 H   0  0  0  0  0  0  0  0  0  0  0  0
  144.4405  131.6586  149.4259 H   0  0  0  0  0  0  0  0  0  0  0  0
  143.8720  130.8406  150.8810 H   0  0  0  0  0  0  0  0  0  0  0  0
  143.0204  133.4859  149.9712 H   0  0  0  0  0  0  0  0  0  0  0  0
  142.5248  132.6287  151.4302 H   0  0  0  0  0  0  0  0  0  0  0  0
  143.7670  134.5569  152.3373 H   0  0  0  0  0  0  0  0  0  0  0  0
  144.4708  132.1457  153.1105 H   0  0  0  0  0  0  0  0  0  0  0  0
  145.8941  133.2120  153.1127 H   0  0  0  0  0  0  0  0  0  0  0  0
  147.4331  142.5151  153.6652 H   0  0  0  0  0  0  0  0  0  0  0  0
  149.1130  143.1768  155.1082 H   0  0  0  0  0  0  0  0  0  0  0  0
  1  2  1  0  0  0  0
  1 21  1  0  0  0  0
  1 22  1  0  0  0  0
  1 23  1  0  0  0  0
  2 20  1  0  0  0  0
  2  3  2  0  0  0  0
  3  4  1  0  0  0  0
  3 24  1  0  0  0  0
  4  5  2  0  0  0  0
  4 25  1  0  0  0  0
  5  6  1  0  0  0  0
  5 19  1  0  0  0  0
  6  7  1  0  0  0  0
  6 26  1  0  0  0  0
  6 27  1  0  0  0  0
  7  8  1  0  0  0  0
  7 28  1  0  0  0  0
  7 29  1  0  0  0  0
  8  9  1  0  0  0  0
  8 30  1  0  0  0  0
  9 10  2  0  0  0  0
  9 11  1  0  0  0  0
 11 12  1  0  0  0  0
 11 31  1  0  0  0  0
 12 17  1  0  0  0  0
 12 13  1  0  0  0  0
 12 32  1  0  0  0  0
 13 14  1  0  0  0  0
 13 33  1  0  0  0  0
 13 34  1  0  0  0  0
 14 18  1  0  0  0  0
 14 15  1  0  0  0  0
 14 35  1  0  0  0  0
 15 16  1  0  0  0  0
 15 36  1  0  0  0  0
 15 37  1  0  0  0  0
 16 17  1  0  0  0  0
 16 38  1  0  0  0  0
 16 39  1  0  0  0  0
 17 18  1  0  0  0  0
 17 40  1  0  0  0  0
 18 41  1  0  0  0  0
 18 42  1  0  0  0  0
 19 20  2  0  0  0  0
 19 43  1  0  0  0  0
 20 44  1  0  0  0  0
M  CHG  1  20   1
M  END
> <s_m_source_file>
AV-unprocessed.smi

> <i_m_source_file_index>
753

> <i_lp_mmshare_version>
43012

> <i_f3d_flags>
0

> <s_epik_input>
W0NIM11jMVtjSF1bY0hdYyhbY0hdbjEpW0NIMl1bQ0gyXVtOSF1DKD1PKVtOSF1bQ0BIXShbQ0gyXVtDQEBIXTIzKVtDQEBIXShbQ0gyXTMpW0NIMl1bQ0gyXTI=

> <s_epik_cmdline>
J2VwaWtfcHl0aG9uJywgJy1waCcsICc3LjAnLCAnLXRuJywgJzgnLCAnLW1hJywgJzIwMCcsICctbWV0YWxfYmluZGluZycsICctaW1hZScsICc8aW5maWxlLm1hZT4nLCAnLW9tYWUnLCAnPG91dGZpbGUubWFlPic=

> <r_epik_Ionization_Penalty>
1.41708

> <r_epik_Ionization_Penalty_Charging>
1.41702

> <r_epik_Ionization_Penalty_Neutral>
5.73163e-05

> <r_epik_State_Penalty>
1.50048

> <r_epik_Charging_Adjusted_Penalty>
2.9175

> <i_epik_Tot_Q>
1

> <i_epik_Tot_abs_Q>
1

> <r_epik_Metal_State_Penalty>
1.55295

> <b_epik_Metal_Only>
0

> <s_lp_Force_Field>
OPLS_2005

> <r_lp_Energy>
57.1024

> <b_lp_Chiralities_Consistent>
1

> <s_lp_Variant>
AV-unprocessed.smi:753-8

> <Gold.Version>
5.8.1

> <Gold.Id.Protein>
6NUR|6NUR_protein|mol2

> <Gold.PLP.Fitness>
51.2895

> <Gold.PLP.PLP>
-40.2229

> <Gold.PLP.part.hbond>
-3.0000

> <Gold.PLP.part.metal>
0.0000

> <Gold.PLP.part.buried>
-3.9249

> <Gold.PLP.part.nonpolar>
-34.0529

> <Gold.PLP.part.repulsive>
0.4969

> <Gold.PLP.ligand.clash>
0.0000

> <Gold.PLP.ligand.torsion>
0.4823

> <Gold.PLP.Chemscore.Hbond>
4.0000

> <Gold.PLP.Chemscore.CHOScore>
0.0000

> <Gold.PLP.Chemscore.Metal>
0.0000

> <Gold.Chemscore.Hbonds>
donor molecule, donor type, donor heavy atom, donor atom, acceptor molecule, acceptor atom, score
      L1  H     8    30       P1  7948  1.00
      L1  H    11    31       P1  7948  1.00
      L1  H    20    44       P1  8028  2.00

> <Gold.PLP.Chemscore.Internal.Correction>
0.0312

> <Gold.Rescore>
     Score         DG    S(hbond)    S(metal)    S(lipo)     H(rot)  DE(clash)    DE(int)     intcor
     21.76     -23.76       2.90        0.00     106.26       1.50       0.04       1.96       ----

> <Gold.Chemscore.Fitness>
21.7560

> <Gold.Chemscore.DG>
-23.7572

> <Gold.Chemscore.ZeroCoef>
-5.4800

> <Gold.Chemscore.Hbond>
2.9016

> <Gold.Chemscore.Metal>
0.0000

> <Gold.Chemscore.Lipo>
106.2621

> <Gold.Chemscore.Internal_Hbond>
0.0000

> <Gold.Chemscore.DEClash>
0.0392

> <Gold.Chemscore.DEInternal>
1.9619

> <Gold.Chemscore.Rot>
1.5027

> <Gold.Chemscore.Internal.Correction>
   9.000000E+99

> <Gold.Chemscore.Hbonds>
donor molecule, donor type, donor heavy atom, donor atom, acceptor molecule, acceptor atom, score
      L1  H     8    30       P1  7948  0.98
      L1  H    11    31       P1  7948  0.92
      L1  H    20    44       P1  8028  1.00

> <Gold.Chemscore.Hbond.Weighted>
-9.6913

> <Gold.Chemscore.Metal.Weighted>
-0.0000

> <Gold.Chemscore.Lipo.Weighted>
-12.4327

> <Gold.Chemscore.Internal_Hbond.Weighted>
0.0000

> <Gold.Chemscore.DEClash.Weighted>
0.0392

> <Gold.Chemscore.DEInternal.Weighted>
1.9619

> <Gold.Chemscore.Rot.Weighted>
3.8468

> <Gold.Chemscore.Internal.Correction.Weighted>
   9.000000E+99

> <Gold.Protein.RotatedTorsions>
[ 6907 6896 6895 6894 ] final   38.69 input  -60.11 | X-H torsion
[ 7974 7965 7964 7962 ] final  -63.36 input  175.53 | X-H torsion
[ 8008 7997 7996 7995 ] final   54.78 input   59.86 | X-H torsion
[ 10167 10162 10161 10158 ] final  171.98 input  -65.29 | X-H torsion
[ 10718 10713 10712 10709 ] final -148.81 input   66.30 | X-H torsion
[ 10763 10752 10751 10750 ] final   62.41 input  -60.55 | X-H torsion
[ 11005 11000 10999 10996 ] final -133.30 input  -57.11 | X-H torsion

> <Gold.Protein.ActiveResidues>
 VAL166  LYS551  ARG553  GLY616  TRP617  ASP618  TYR619  PRO620  LYS621  CYS622 
 ASP623  PHE694  ASN695  SER759  ASP760  ASP761  ALA762  ILE779  LEU786  VAL792 
 PHE793  MET794  SER795  GLU796  ALA797  LYS798  CYS799  TRP800  GLU811  SER814 

> <Gold.Protein.RotatedAtoms>
  152.1598  134.8921  160.0542 H   0  0  0  0  0  0  0  0  0  0  0  0  # atno 6907 bound_to 6896
  151.9921  133.3790  159.4157 H   0  0  0  0  0  0  0  0  0  0  0  0  # atno 6908 bound_to 6896
  150.6886  134.3847  159.5093 H   0  0  0  0  0  0  0  0  0  0  0  0  # atno 6909 bound_to 6896
  145.7800  140.8767  143.0335 H   0  0  0  0  0  0  0  0  0  0  0  0  # atno 7974 bound_to 7965
  155.4904  140.3471  155.4354 H   0  0  0  0  0  0  0  0  0  0  0  0  # atno 8008 bound_to 7997
  156.0981  140.1428  156.9533 H   0  0  0  0  0  0  0  0  0  0  0  0  # atno 8009 bound_to 7997
  154.4676  140.0912  156.7038 H   0  0  0  0  0  0  0  0  0  0  0  0  # atno 8010 bound_to 7997
  139.5063  144.3425  152.0004 H   0  0  0  0  0  0  0  0  0  0  0  0  # atno 10167 bound_to 10162
  156.4250  130.8047  151.2272 H   0  0  0  0  0  0  0  0  0  0  0  0  # atno 10718 bound_to 10713
  152.9982  135.5466  154.6188 H   0  0  0  0  0  0  0  0  0  0  0  0  # atno 10763 bound_to 10752
  154.5492  135.2825  155.1026 H   0  0  0  0  0  0  0  0  0  0  0  0  # atno 10764 bound_to 10752
  154.2273  135.6440  153.5216 H   0  0  0  0  0  0  0  0  0  0  0  0  # atno 10765 bound_to 10752
  140.9093  134.1589  157.4401 H   0  0  0  0  0  0  0  0  0  0  0  0  # atno 11005 bound_to 11000
  144.6798  139.9975  143.7484 LP  0  0  0  0  0  0  0  0  0  0  0  0  # atno 17320 bound_to 7965
  146.0084  139.3149  143.0885 LP  0  0  0  0  0  0  0  0  0  0  0  0  # atno 17321 bound_to 7965
  140.2863  144.3804  150.6103 LP  0  0  0  0  0  0  0  0  0  0  0  0  # atno 17342 bound_to 10162
  140.5980  143.2167  151.7126 LP  0  0  0  0  0  0  0  0  0  0  0  0  # atno 17343 bound_to 10162
  157.7508  131.0216  150.3757 LP  0  0  0  0  0  0  0  0  0  0  0  0  # atno 17370 bound_to 10713
  156.4083  130.3929  149.6910 LP  0  0  0  0  0  0  0  0  0  0  0  0  # atno 17371 bound_to 10713
  139.8754  134.9929  156.5620 LP  0  0  0  0  0  0  0  0  0  0  0  0  # atno 17394 bound_to 11000
  140.8131  133.8413  155.8827 LP  0  0  0  0  0  0  0  0  0  0  0  0  # atno 17395 bound_to 11000

$$$$
