AV-unprocessed.smi:923|AV-procd|sdf|4178|dock3
  -GOLD-   22720 2 83D 1   1.00000     0.00000
 Structure written by MMmdl.
 34 35  0  0  0  0  0  0  0  0  2 V2000
  146.1927  138.1332  152.1343 C   0  0  0  0  0  0  0  0  0  0  0  0
  147.0953  138.9489  152.9954 C   0  0  0  0  0  0  0  0  0  0  0  0
  147.9768  138.4040  153.8372 N   0  0  0  0  0  0  0  0  0  0  0  0
  148.7044  139.3641  154.5255 N   0  0  0  0  0  0  0  0  0  0  0  0
  148.3723  140.6183  154.1873 C   0  0  0  0  0  0  0  0  0  0  0  0
  148.9602  141.6938  154.7372 N   0  5  0  0  0  0  0  0  0  0  0  0
  150.0978  141.5480  155.4547 C   0  0  0  0  0  0  0  0  0  0  0  0
  150.9024  140.6178  155.3646 O   0  0  0  0  0  0  0  0  0  0  0  0
  150.3157  142.5423  156.3285 N   0  0  0  0  0  0  0  0  0  0  0  0
  151.4582  142.6693  157.2324 C   0  0  0  0  0  0  0  0  0  0  0  0
  151.5942  141.3751  158.0607 C   0  0  0  0  0  0  0  0  0  0  0  0
  152.7328  141.3730  159.0955 C   0  0  0  0  0  0  0  0  0  0  0  0
  152.4217  142.2416  160.3250 C   0  0  0  0  0  0  0  0  0  0  0  0
  152.7895  143.7295  160.1910 C   0  0  0  0  0  0  0  0  0  0  0  0
  152.5626  144.3731  158.8117 C   0  0  0  0  0  0  0  0  0  0  0  0
  151.2789  143.9459  158.0800 C   0  0  0  0  0  0  0  0  0  0  0  0
  147.0884  140.7043  152.9817 S   0  0  0  0  0  0  0  0  0  0  0  0
  146.7533  137.7170  151.2973 H   0  0  0  0  0  0  0  0  0  0  0  0
  145.3837  138.7500  151.7424 H   0  0  0  0  0  0  0  0  0  0  0  0
  145.7596  137.3147  152.7098 H   0  0  0  0  0  0  0  0  0  0  0  0
  149.6257  143.2780  156.3668 H   0  0  0  0  0  0  0  0  0  0  0  0
  152.3612  142.7945  156.6321 H   0  0  0  0  0  0  0  0  0  0  0  0
  150.6496  141.1534  158.5594 H   0  0  0  0  0  0  0  0  0  0  0  0
  151.7625  140.5444  157.3739 H   0  0  0  0  0  0  0  0  0  0  0  0
  152.8632  140.3453  159.4366 H   0  0  0  0  0  0  0  0  0  0  0  0
  153.6819  141.6575  158.6401 H   0  0  0  0  0  0  0  0  0  0  0  0
  151.3642  142.1482  160.5753 H   0  0  0  0  0  0  0  0  0  0  0  0
  152.9552  141.8409  161.1876 H   0  0  0  0  0  0  0  0  0  0  0  0
  152.2283  144.2862  160.9422 H   0  0  0  0  0  0  0  0  0  0  0  0
  153.8395  143.8616  160.4549 H   0  0  0  0  0  0  0  0  0  0  0  0
  152.5459  145.4547  158.9488 H   0  0  0  0  0  0  0  0  0  0  0  0
  153.4251  144.1820  158.1720 H   0  0  0  0  0  0  0  0  0  0  0  0
  151.0017  144.7602  157.4088 H   0  0  0  0  0  0  0  0  0  0  0  0
  150.4479  143.8422  158.7793 H   0  0  0  0  0  0  0  0  0  0  0  0
  1  2  1  0  0  0  0
  1 18  1  0  0  0  0
  1 19  1  0  0  0  0
  1 20  1  0  0  0  0
  2 17  1  0  0  0  0
  2  3  2  0  0  0  0
  3  4  1  0  0  0  0
  4  5  2  0  0  0  0
  5  6  1  0  0  0  0
  5 17  1  0  0  0  0
  6  7  1  0  0  0  0
  7  8  2  0  0  0  0
  7  9  1  0  0  0  0
  9 10  1  0  0  0  0
  9 21  1  0  0  0  0
 10 16  1  0  0  0  0
 10 11  1  0  0  0  0
 10 22  1  0  0  0  0
 11 12  1  0  0  0  0
 11 23  1  0  0  0  0
 11 24  1  0  0  0  0
 12 13  1  0  0  0  0
 12 25  1  0  0  0  0
 12 26  1  0  0  0  0
 13 14  1  0  0  0  0
 13 27  1  0  0  0  0
 13 28  1  0  0  0  0
 14 15  1  0  0  0  0
 14 29  1  0  0  0  0
 14 30  1  0  0  0  0
 15 16  1  0  0  0  0
 15 31  1  0  0  0  0
 15 32  1  0  0  0  0
 16 33  1  0  0  0  0
 16 34  1  0  0  0  0
M  CHG  1   6  -1
M  END
> <s_m_source_file>
AV-unprocessed.smi

> <i_m_source_file_index>
923

> <i_lp_mmshare_version>
43012

> <i_f3d_flags>
0

> <s_epik_input>
W0NIM11jMW5uYyhzMSlbTkhdQyg9TylbTkhdW0NIXTJbQ0gyXVtDSDJdW0NIMl1bQ0gyXVtDSDJdW0NIMl0y

> <s_epik_cmdline>
J2VwaWtfcHl0aG9uJywgJy1waCcsICc3LjAnLCAnLXRuJywgJzgnLCAnLW1hJywgJzIwMCcsICctbWV0YWxfYmluZGluZycsICctaW1hZScsICc8aW5maWxlLm1hZT4nLCAnLW9tYWUnLCAnPG91dGZpbGUubWFlPic=

> <r_lp_tautomer_probability>
1

> <r_epik_Ionization_Penalty>
4.57867

> <r_epik_Ionization_Penalty_Charging>
4.42407

> <r_epik_Ionization_Penalty_Neutral>
0.154599

> <r_epik_State_Penalty>
4.42373

> <r_epik_Charging_Adjusted_Penalty>
8.84779

> <i_epik_Tot_Q>
-1

> <i_epik_Tot_abs_Q>
1

> <r_epik_Metal_State_Penalty>
0.782603

> <b_epik_Metal_Only>
1

> <s_lp_Force_Field>
OPLS_2005

> <r_lp_Energy>
12.5708

> <b_lp_Chiralities_Consistent>
1

> <s_lp_Variant>
AV-unprocessed.smi:923-2

> <Gold.Version>
5.8.1

> <Gold.Id.Protein>
6NUR|6NUR_protein|mol2

> <Gold.PLP.Fitness>
41.9456

> <Gold.PLP.PLP>
-36.5477

> <Gold.PLP.part.hbond>
-2.1181

> <Gold.PLP.part.metal>
0.0000

> <Gold.PLP.part.buried>
-4.6266

> <Gold.PLP.part.nonpolar>
-30.6634

> <Gold.PLP.part.repulsive>
0.9416

> <Gold.PLP.ligand.clash>
0.0000

> <Gold.PLP.ligand.torsion>
0.1767

> <Gold.PLP.Chemscore.Hbond>
1.9120

> <Gold.PLP.Chemscore.CHOScore>
0.0000

> <Gold.PLP.Chemscore.Metal>
0.0000

> <Gold.Chemscore.Hbonds>
donor molecule, donor type, donor heavy atom, donor atom, acceptor molecule, acceptor atom, score
      L1  H     9    21       P1  8028  1.00
      P1  H  7989  7998       L1     8  0.91

> <Gold.PLP.Chemscore.Internal.Correction>
0.0154

> <Gold.Rescore>
     Score         DG    S(hbond)    S(metal)    S(lipo)     H(rot)  DE(clash)    DE(int)     intcor
     15.45     -18.68       1.32        0.00      96.97       1.00       0.22       3.01       ----

> <Gold.Chemscore.Fitness>
15.4496

> <Gold.Chemscore.DG>
-18.6838

> <Gold.Chemscore.ZeroCoef>
-5.4800

> <Gold.Chemscore.Hbond>
1.3227

> <Gold.Chemscore.Metal>
0.0000

> <Gold.Chemscore.Lipo>
96.9730

> <Gold.Chemscore.Internal_Hbond>
0.0000

> <Gold.Chemscore.DEClash>
0.2222

> <Gold.Chemscore.DEInternal>
3.0120

> <Gold.Chemscore.Rot>
1.0000

> <Gold.Chemscore.Internal.Correction>
   9.000000E+99

> <Gold.Chemscore.Hbonds>
donor molecule, donor type, donor heavy atom, donor atom, acceptor molecule, acceptor atom, score
      L1  H     9    21       P1  8028  0.94
      P1  H  7989  7998       L1     8  0.29

> <Gold.Chemscore.Hbond.Weighted>
-4.4180

> <Gold.Chemscore.Metal.Weighted>
-0.0000

> <Gold.Chemscore.Lipo.Weighted>
-11.3458

> <Gold.Chemscore.Internal_Hbond.Weighted>
0.0000

> <Gold.Chemscore.DEClash.Weighted>
0.2222

> <Gold.Chemscore.DEInternal.Weighted>
3.0120

> <Gold.Chemscore.Rot.Weighted>
2.5600

> <Gold.Chemscore.Internal.Correction.Weighted>
   9.000000E+99

> <Gold.Protein.RotatedTorsions>
[ 6907 6896 6895 6894 ] final -145.42 input  -60.11 | X-H torsion
[ 7974 7965 7964 7962 ] final   35.91 input  175.53 | X-H torsion
[ 8008 7997 7996 7995 ] final   63.79 input   59.86 | X-H torsion
[ 10167 10162 10161 10158 ] final   44.53 input  -65.29 | X-H torsion
[ 10718 10713 10712 10709 ] final   28.51 input   66.30 | X-H torsion
[ 10763 10752 10751 10750 ] final  132.50 input  -60.55 | X-H torsion
[ 11005 11000 10999 10996 ] final   75.03 input  -57.11 | X-H torsion

> <Gold.Protein.ActiveResidues>
 VAL166  LYS551  ARG553  GLY616  TRP617  ASP618  TYR619  PRO620  LYS621  CYS622 
 ASP623  PHE694  ASN695  SER759  ASP760  ASP761  ALA762  ILE779  LEU786  VAL792 
 PHE793  MET794  SER795  GLU796  ALA797  LYS798  CYS799  TRP800  GLU811  SER814 

> <Gold.Protein.RotatedAtoms>
  151.1275  133.5060  159.2599 H   0  0  0  0  0  0  0  0  0  0  0  0  # atno 6907 bound_to 6896
  151.1794  135.0353  159.8796 H   0  0  0  0  0  0  0  0  0  0  0  0  # atno 6908 bound_to 6896
  152.5458  134.1129  159.8419 H   0  0  0  0  0  0  0  0  0  0  0  0  # atno 6909 bound_to 6896
  146.1249  139.6084  142.9265 H   0  0  0  0  0  0  0  0  0  0  0  0  # atno 7974 bound_to 7965
  155.6358  140.3496  155.4698 H   0  0  0  0  0  0  0  0  0  0  0  0  # atno 8008 bound_to 7997
  155.9966  140.1204  157.0611 H   0  0  0  0  0  0  0  0  0  0  0  0  # atno 8009 bound_to 7997
  154.4235  140.1109  156.5625 H   0  0  0  0  0  0  0  0  0  0  0  0  # atno 8010 bound_to 7997
  140.3333  144.2561  150.6165 H   0  0  0  0  0  0  0  0  0  0  0  0  # atno 10167 bound_to 10162
  157.2343  130.7039  149.6328 H   0  0  0  0  0  0  0  0  0  0  0  0  # atno 10718 bound_to 10713
  153.7917  135.3154  155.3379 H   0  0  0  0  0  0  0  0  0  0  0  0  # atno 10763 bound_to 10752
  154.8123  135.4659  154.0552 H   0  0  0  0  0  0  0  0  0  0  0  0  # atno 10764 bound_to 10752
  153.1872  135.6903  153.8486 H   0  0  0  0  0  0  0  0  0  0  0  0  # atno 10765 bound_to 10752
  139.9363  134.7483  156.1221 H   0  0  0  0  0  0  0  0  0  0  0  0  # atno 11005 bound_to 11000
  145.5386  141.0422  143.2343 LP  0  0  0  0  0  0  0  0  0  0  0  0  # atno 17320 bound_to 7965
  144.7633  139.6905  143.7225 LP  0  0  0  0  0  0  0  0  0  0  0  0  # atno 17321 bound_to 7965
  140.5377  143.2230  151.8136 LP  0  0  0  0  0  0  0  0  0  0  0  0  # atno 17342 bound_to 10162
  139.4852  144.4640  151.9506 LP  0  0  0  0  0  0  0  0  0  0  0  0  # atno 17343 bound_to 10162
  155.9673  130.4478  150.5596 LP  0  0  0  0  0  0  0  0  0  0  0  0  # atno 17370 bound_to 10713
  157.3445  131.0722  151.1762 LP  0  0  0  0  0  0  0  0  0  0  0  0  # atno 17371 bound_to 10713
  141.0978  133.6689  156.2684 LP  0  0  0  0  0  0  0  0  0  0  0  0  # atno 17394 bound_to 11000
  140.6068  134.5499  157.5527 LP  0  0  0  0  0  0  0  0  0  0  0  0  # atno 17395 bound_to 11000

$$$$
