AV-unprocessed.smi:77|AV-procd|sdf|773|dock3
  -GOLD-   2262017123D 1   1.00000     0.00000
 Structure written by MMmdl.
 57 61  0  0  0  0  0  0  0  0  1 V2000
  147.7835  136.1709  158.3004 O   0  0  0  0  0  0  0  0  0  0  0  0
  148.7319  135.9381  159.0518 C   0  0  0  0  0  0  0  0  0  0  0  0
  150.1552  135.7734  158.5024 C   0  0  0  0  0  0  0  0  0  0  0  0
  150.2606  136.0790  157.0698 N   0  0  0  0  0  0  0  0  0  0  0  0
  150.9433  137.2031  156.7085 C   0  0  0  0  0  0  0  0  0  0  0  0
  151.6695  137.1930  155.5571 N   0  0  0  0  0  0  0  0  0  0  0  0
  152.3545  138.2716  155.1693 C   0  0  0  0  0  0  0  0  0  0  0  0
  152.4532  139.4563  155.7718 N   0  0  0  0  0  0  0  0  0  0  0  0
  151.7267  139.4835  156.9248 C   0  0  0  0  0  0  0  0  0  0  0  0
  150.9506  138.4157  157.4627 C   0  0  0  0  0  0  0  0  0  0  0  0
  150.3479  138.8337  158.6449 N   0  0  0  0  0  0  0  0  0  0  0  0
  150.7447  140.0667  158.7974 C   0  0  0  0  0  0  0  0  0  0  0  0
  151.5730  140.5388  157.8068 N   0  0  0  0  0  0  0  0  0  0  0  0
  152.1579  141.8664  157.7267 C   0  0  0  0  0  0  0  0  0  0  0  0
  151.7810  142.7812  158.9197 C   0  0  2  0  0  0  0  0  0  0  0  0
  151.5587  144.2448  158.4572 C   0  0  0  0  0  0  0  0  0  0  0  0
  150.1912  144.5295  158.2502 O   0  0  0  0  0  0  0  0  0  0  0  0
  152.8575  142.6701  160.0352 C   0  0  1  0  0  0  0  0  0  0  0  0
  152.4800  143.2566  161.3850 C   0  0  0  0  0  0  0  0  0  0  0  0
  153.4892  142.5982  162.3174 C   0  0  0  0  0  0  0  0  0  0  0  0
  153.7038  141.2986  161.7825 O   0  0  0  0  0  0  0  0  0  0  0  0
  153.2028  141.2336  160.4508 C   0  0  0  0  0  0  0  0  0  0  0  0
  150.2647  134.9412  156.1501 C   0  0  0  0  0  0  0  0  0  0  0  0
  149.0868  133.9912  156.1450 C   0  0  0  0  0  0  0  0  0  0  0  0
  150.4142  133.5440  156.7083 C   0  0  0  0  0  0  0  0  0  0  0  0
  148.6054  135.8176  160.3811 N   0  0  0  0  0  0  0  0  0  0  0  0
  147.3859  135.9393  161.1121 C   0  0  0  0  0  0  0  0  0  0  0  0
  147.3585  136.9089  162.2736 C   0  0  0  0  0  0  0  0  0  0  0  0
  147.3645  135.4283  162.5362 C   0  0  0  0  0  0  0  0  0  0  0  0
  150.8429  136.3813  159.0923 H   0  0  0  0  0  0  0  0  0  0  0  0
  150.4651  134.7402  158.6677 H   0  0  0  0  0  0  0  0  0  0  0  0
  152.9001  138.1702  154.2428 H   0  0  0  0  0  0  0  0  0  0  0  0
  150.4391  140.6707  159.6394 H   0  0  0  0  0  0  0  0  0  0  0  0
  153.2381  141.7347  157.6657 H   0  0  0  0  0  0  0  0  0  0  0  0
  151.8523  142.3290  156.7874 H   0  0  0  0  0  0  0  0  0  0  0  0
  150.8353  142.4110  159.3194 H   0  0  0  0  0  0  0  0  0  0  0  0
  151.9760  144.9477  159.1786 H   0  0  0  0  0  0  0  0  0  0  0  0
  152.0496  144.4451  157.5063 H   0  0  0  0  0  0  0  0  0  0  0  0
  150.0116  144.4805  157.3236 H   0  0  0  0  0  0  0  0  0  0  0  0
  153.7735  143.1584  159.6979 H   0  0  0  0  0  0  0  0  0  0  0  0
  152.5423  144.3446  161.4167 H   0  0  0  0  0  0  0  0  0  0  0  0
  151.4667  142.9609  161.6612 H   0  0  0  0  0  0  0  0  0  0  0  0
  154.4343  143.1426  162.2989 H   0  0  0  0  0  0  0  0  0  0  0  0
  153.1415  142.5557  163.3498 H   0  0  0  0  0  0  0  0  0  0  0  0
  152.3104  140.6063  160.4553 H   0  0  0  0  0  0  0  0  0  0  0  0
  153.9340  140.7730  159.7861 H   0  0  0  0  0  0  0  0  0  0  0  0
  150.7386  135.1192  155.1863 H   0  0  0  0  0  0  0  0  0  0  0  0
  148.2804  134.1773  156.8518 H   0  0  0  0  0  0  0  0  0  0  0  0
  148.7805  133.5788  155.1860 H   0  0  0  0  0  0  0  0  0  0  0  0
  150.9943  132.8321  156.1251 H   0  0  0  0  0  0  0  0  0  0  0  0
  150.4800  133.4234  157.7873 H   0  0  0  0  0  0  0  0  0  0  0  0
  149.4391  135.6274  160.9182 H   0  0  0  0  0  0  0  0  0  0  0  0
  146.4559  135.8415  160.5535 H   0  0  0  0  0  0  0  0  0  0  0  0
  148.2688  137.4620  162.4973 H   0  0  0  0  0  0  0  0  0  0  0  0
  146.4305  137.4472  162.4553 H   0  0  0  0  0  0  0  0  0  0  0  0
  146.4406  134.9770  162.8923 H   0  0  0  0  0  0  0  0  0  0  0  0
  148.2788  134.9921  162.9347 H   0  0  0  0  0  0  0  0  0  0  0  0
  1  2  2  0  0  0  0
  2  3  1  0  0  0  0
  2 26  1  0  0  0  0
  3  4  1  0  0  0  0
  3 30  1  0  0  0  0
  3 31  1  0  0  0  0
  4  5  1  0  0  0  0
  4 23  1  0  0  0  0
  5 10  1  0  0  0  0
  5  6  2  0  0  0  0
  6  7  1  0  0  0  0
  7  8  2  0  0  0  0
  7 32  1  0  0  0  0
  8  9  1  0  0  0  0
  9 13  1  0  0  0  0
  9 10  2  0  0  0  0
 10 11  1  0  0  0  0
 11 12  2  0  0  0  0
 12 13  1  0  0  0  0
 12 33  1  0  0  0  0
 13 14  1  0  0  0  0
 14 15  1  0  0  0  0
 14 34  1  0  0  0  0
 14 35  1  0  0  0  0
 15 16  1  0  0  0  0
 15 18  1  0  0  0  0
 15 36  1  0  0  0  0
 16 17  1  0  0  0  0
 16 37  1  0  0  0  0
 16 38  1  0  0  0  0
 17 39  1  0  0  0  0
 18 22  1  0  0  0  0
 18 19  1  0  0  0  0
 18 40  1  0  0  0  0
 19 20  1  0  0  0  0
 19 41  1  0  0  0  0
 19 42  1  0  0  0  0
 20 21  1  0  0  0  0
 20 43  1  0  0  0  0
 20 44  1  0  0  0  0
 21 22  1  0  0  0  0
 22 45  1  0  0  0  0
 22 46  1  0  0  0  0
 23 25  1  0  0  0  0
 23 24  1  0  0  0  0
 23 47  1  0  0  0  0
 24 25  1  0  0  0  0
 24 48  1  0  0  0  0
 24 49  1  0  0  0  0
 25 50  1  0  0  0  0
 25 51  1  0  0  0  0
 26 27  1  0  0  0  0
 26 52  1  0  0  0  0
 27 29  1  0  0  0  0
 27 28  1  0  0  0  0
 27 53  1  0  0  0  0
 28 29  1  0  0  0  0
 28 54  1  0  0  0  0
 28 55  1  0  0  0  0
 29 56  1  0  0  0  0
 29 57  1  0  0  0  0
M  END
> <s_m_source_file>
AV-unprocessed.smi

> <i_m_source_file_index>
77

> <i_lp_mmshare_version>
43012

> <i_f3d_flags>
0

> <s_epik_input>
W0NIMl0xW0NIMl1bQ0hdMVtOSF1DKD1PKVtDSDJdTihbQ0hdMltDSDJdW0NIMl0yKWMobltjSF1uMyljKGMzNCluW2NIXW40W0NIMl1bQ0BIXShbQ0gyXVtPSF0pW0NAQEhdNVtDSDJdW0NIMl1PW0NIMl01

> <s_epik_cmdline>
J2VwaWtfcHl0aG9uJywgJy1waCcsICc3LjAnLCAnLXRuJywgJzgnLCAnLW1hJywgJzIwMCcsICctbWV0YWxfYmluZGluZycsICctaW1hZScsICc8aW5maWxlLm1hZT4nLCAnLW9tYWUnLCAnPG91dGZpbGUubWFlPic=

> <r_lp_tautomer_probability>
1

> <r_epik_Ionization_Penalty>
0.000703847

> <r_epik_Ionization_Penalty_Charging>
0

> <r_epik_Ionization_Penalty_Neutral>
0.000703847

> <r_epik_State_Penalty>
0.00034025

> <r_epik_Charging_Adjusted_Penalty>
0.00034025

> <i_epik_Tot_Q>
0

> <i_epik_Tot_abs_Q>
0

> <r_epik_Metal_State_Penalty>
-0

> <b_epik_Metal_Only>
0

> <s_lp_Force_Field>
OPLS_2005

> <r_lp_Energy>
53.8068

> <b_lp_Chiralities_Consistent>
1

> <s_lp_Variant>
AV-unprocessed.smi:77-3

> <Gold.Version>
5.8.1

> <Gold.Id.Protein>
6NUR|6NUR_protein|mol2

> <Gold.PLP.Fitness>
52.6474

> <Gold.PLP.PLP>
-47.6570

> <Gold.PLP.part.hbond>
-4.4670

> <Gold.PLP.part.metal>
0.0000

> <Gold.PLP.part.buried>
-6.5971

> <Gold.PLP.part.nonpolar>
-37.1701

> <Gold.PLP.part.repulsive>
0.2374

> <Gold.PLP.ligand.clash>
0.0000

> <Gold.PLP.ligand.torsion>
2.0879

> <Gold.PLP.Chemscore.Hbond>
2.4476

> <Gold.PLP.Chemscore.CHOScore>
0.0000

> <Gold.PLP.Chemscore.Metal>
0.0000

> <Gold.Chemscore.Hbonds>
donor molecule, donor type, donor heavy atom, donor atom, acceptor molecule, acceptor atom, score
      L1  H    17    39       P1  8028  1.00
      P1  H  7997  8009       L1     8  0.91
      P1  H 10752 10765       L1     6  0.38

> <Gold.PLP.Chemscore.Internal.Correction>
1.8235

> <Gold.Rescore>
     Score         DG    S(hbond)    S(metal)    S(lipo)     H(rot)  DE(clash)    DE(int)     intcor
     11.18     -15.67       1.70        0.00     114.49       3.47       1.61       2.88       ----

> <Gold.Chemscore.Fitness>
11.1810

> <Gold.Chemscore.DG>
-15.6681

> <Gold.Chemscore.ZeroCoef>
-5.4800

> <Gold.Chemscore.Hbond>
1.6992

> <Gold.Chemscore.Metal>
0.0000

> <Gold.Chemscore.Lipo>
114.4851

> <Gold.Chemscore.Internal_Hbond>
0.0000

> <Gold.Chemscore.DEClash>
1.6100

> <Gold.Chemscore.DEInternal>
2.8771

> <Gold.Chemscore.Rot>
3.4695

> <Gold.Chemscore.Internal.Correction>
   9.000000E+99

> <Gold.Chemscore.Hbonds>
donor molecule, donor type, donor heavy atom, donor atom, acceptor molecule, acceptor atom, score
      L1  H    17    39       P1  8028  0.33
      P1  H  7997  8009       L1     8  0.63
      P1  H 10752 10765       L1     6  0.07

> <Gold.Chemscore.Hbond.Weighted>
-5.6754

> <Gold.Chemscore.Metal.Weighted>
-0.0000

> <Gold.Chemscore.Lipo.Weighted>
-13.3948

> <Gold.Chemscore.Internal_Hbond.Weighted>
0.0000

> <Gold.Chemscore.DEClash.Weighted>
1.6100

> <Gold.Chemscore.DEInternal.Weighted>
2.8771

> <Gold.Chemscore.Rot.Weighted>
8.8820

> <Gold.Chemscore.Internal.Correction.Weighted>
   9.000000E+99

> <Gold.Protein.RotatedTorsions>
[ 6907 6896 6895 6894 ] final   -2.10 input  -60.11 | X-H torsion
[ 7974 7965 7964 7962 ] final  -56.02 input  175.53 | X-H torsion
[ 8008 7997 7996 7995 ] final -148.05 input   59.86 | X-H torsion
[ 10167 10162 10161 10158 ] final  -11.98 input  -65.29 | X-H torsion
[ 10718 10713 10712 10709 ] final  -63.47 input   66.30 | X-H torsion
[ 10763 10752 10751 10750 ] final  175.32 input  -60.55 | X-H torsion
[ 11005 11000 10999 10996 ] final  117.95 input  -57.11 | X-H torsion

> <Gold.Protein.ActiveResidues>
 VAL166  LYS551  ARG553  GLY616  TRP617  ASP618  TYR619  PRO620  LYS621  CYS622 
 ASP623  PHE694  ASN695  SER759  ASP760  ASP761  ALA762  ILE779  LEU786  VAL792 
 PHE793  MET794  SER795  GLU796  ALA797  LYS798  CYS799  TRP800  GLU811  SER814 

> <Gold.Protein.RotatedAtoms>
  151.5353  135.1068  159.9912 H   0  0  0  0  0  0  0  0  0  0  0  0  # atno 6907 bound_to 6896
  152.4560  133.7720  159.6814 H   0  0  0  0  0  0  0  0  0  0  0  0  # atno 6908 bound_to 6896
  150.8504  133.7731  159.3052 H   0  0  0  0  0  0  0  0  0  0  0  0  # atno 6909 bound_to 6896
  145.8674  140.8241  142.9905 H   0  0  0  0  0  0  0  0  0  0  0  0  # atno 7974 bound_to 7965
  155.5854  140.0647  157.2772 H   0  0  0  0  0  0  0  0  0  0  0  0  # atno 8008 bound_to 7997
  154.4320  140.1844  156.1066 H   0  0  0  0  0  0  0  0  0  0  0  0  # atno 8009 bound_to 7997
  156.0273  140.3310  155.7106 H   0  0  0  0  0  0  0  0  0  0  0  0  # atno 8010 bound_to 7997
  140.7151  143.5581  150.9226 H   0  0  0  0  0  0  0  0  0  0  0  0  # atno 10167 bound_to 10162
  156.0789  130.4221  150.1282 H   0  0  0  0  0  0  0  0  0  0  0  0  # atno 10718 bound_to 10713
  154.4659  135.2769  155.1678 H   0  0  0  0  0  0  0  0  0  0  0  0  # atno 10763 bound_to 10752
  154.3447  135.6162  153.5617 H   0  0  0  0  0  0  0  0  0  0  0  0  # atno 10764 bound_to 10752
  152.9859  135.5797  154.5031 H   0  0  0  0  0  0  0  0  0  0  0  0  # atno 10765 bound_to 10752
  139.9092  134.9615  156.7429 H   0  0  0  0  0  0  0  0  0  0  0  0  # atno 11005 bound_to 11000
  144.6726  140.1188  143.7451 LP  0  0  0  0  0  0  0  0  0  0  0  0  # atno 17320 bound_to 7965
  145.9176  139.2526  143.1400 LP  0  0  0  0  0  0  0  0  0  0  0  0  # atno 17321 bound_to 7965
  139.9306  143.6497  152.3077 LP  0  0  0  0  0  0  0  0  0  0  0  0  # atno 17342 bound_to 10162
  139.6947  144.7643  151.1377 LP  0  0  0  0  0  0  0  0  0  0  0  0  # atno 17343 bound_to 10162
  156.9318  130.9716  151.3531 LP  0  0  0  0  0  0  0  0  0  0  0  0  # atno 17370 bound_to 10713
  157.5897  130.8435  149.8641 LP  0  0  0  0  0  0  0  0  0  0  0  0  # atno 17371 bound_to 10713
  140.6835  133.9453  155.7924 LP  0  0  0  0  0  0  0  0  0  0  0  0  # atno 17394 bound_to 11000
  141.0493  134.0508  157.3804 LP  0  0  0  0  0  0  0  0  0  0  0  0  # atno 17395 bound_to 11000

$$$$
