#       Name:                AV-unprocessed.smi:1295
#       Creating user name   scv26
#       Creation time:       Fri Mar 27 04:56:11 2020


#       File generated by GOLD software.
#

@<TRIPOS>MOLECULE
AV-unprocessed.smi:1295
    48    49     1
SMALL
NO_CHARGES


@<TRIPOS>ATOM
      1 ****        -6.4314  -1.4616  -1.2561 C.3            1 S1                 0.0000
      2 ****        -4.9255  -1.3086  -1.2913 C.2            1 S1                 0.0000
      3 ****        -4.3200  -0.2087  -1.5977 N.2            1 S1                 0.0000
      4 ****        -2.9185  -0.1873  -1.5923 C.2            1 S1                 0.0000
      5 ****        -2.2814   1.1430  -1.9553 C.3            1 S1                 0.0000
      6 ****        -2.1866  -1.2960  -1.2769 C.2            1 S1                 0.0000
      7 ****        -0.6589  -1.3006  -1.2579 C.3            1 S1                 0.0000
      8 ****        -0.0123  -0.7020  -0.0065 C.2            1 S1                 0.0000
      9 ****        -0.5254  -0.8767   1.0988 O.2            1 S1                 0.0000
     10 ****         1.1109   0.0065  -0.2008 N.am           1 S1                 0.0000
     11 ****         1.8763   0.7044   0.8311 C.3            1 S1                 0.0000
     12 ****         2.0405   2.1777   0.4086 C.3            1 S1                 0.0000
     13 ****         2.8921   2.9663   1.4135 C.3            1 S1                 0.0000
     14 ****         4.2611   2.3017   1.6106 C.3            1 S1                 0.0000
     15 ****         4.1043   0.8387   2.0512 C.3            1 S1                 0.0000
     16 ****         3.2512   0.0241   1.0570 C.3            1 S1                 0.0000
     17 ****         3.1211  -1.4347   1.5311 C.3            1 S1                 0.0000
     18 ****        -2.8885  -2.5473  -0.9310 C.2            1 S1                 0.0000
     19 ****        -2.3298  -3.6007  -0.6288 O.2            1 S1                 0.0000
     20 ****        -4.2382  -2.4748  -0.9593 N.am           1 S1                 0.0000
     21 ****        -4.7646  -3.3045  -0.7272 H              1 S1                 0.0000
     22 ****        -6.8620  -0.7646  -0.5364 H              1 S1                 0.0000
     23 ****        -6.7274  -2.4723  -0.9715 H              1 S1                 0.0000
     24 ****        -6.8537  -1.2460  -2.2380 H              1 S1                 0.0000
     25 ****        -1.6840   1.0469  -2.8619 H              1 S1                 0.0000
     26 ****        -1.6368   1.4948  -1.1497 H              1 S1                 0.0000
     27 ****        -3.0374   1.9087  -2.1338 H              1 S1                 0.0000
     28 ****        -0.2751  -2.3132  -1.3858 H              1 S1                 0.0000
     29 ****        -0.3041  -0.7582  -2.1350 H              1 S1                 0.0000
     30 ****         1.4549   0.0862  -1.1468 H              1 S1                 0.0000
     31 ****         1.3301   0.6925   1.7763 H              1 S1                 0.0000
     32 ****         2.5069   2.2307  -0.5765 H              1 S1                 0.0000
     33 ****         1.0615   2.6488   0.3106 H              1 S1                 0.0000
     34 ****         3.0224   3.9918   1.0671 H              1 S1                 0.0000
     35 ****         2.3706   3.0261   2.3697 H              1 S1                 0.0000
     36 ****         4.8279   2.3455   0.6798 H              1 S1                 0.0000
     37 ****         4.8396   2.8534   2.3521 H              1 S1                 0.0000
     38 ****         5.0906   0.3848   2.1545 H              1 S1                 0.0000
     39 ****         3.6463   0.8064   3.0410 H              1 S1                 0.0000
     40 ****         3.7825   0.0110   0.1040 H              1 S1                 0.0000
     41 ****         2.5586  -1.4979   2.4631 H              1 S1                 0.0000
     42 ****         4.1013  -1.8798   1.7040 H              1 S1                 0.0000
     43 ****         2.6125  -2.0553   0.7934 H              1 S1                 0.0000
     44 ****        -4.8414   0.6113  -1.8341 LP             1 S1                 0.0000
     45 ****        -1.3668  -1.4109   1.1806 LP             1 S1                 0.0000
     46 ****        -0.1008  -0.4844   1.9148 LP             1 S1                 0.0000
     47 ****        -1.3312  -3.6483  -0.6058 LP             1 S1                 0.0000
     48 ****        -2.8742  -4.4094  -0.4061 LP             1 S1                 0.0000
@<TRIPOS>BOND
    1    1    2 1     
    2    1   22 1     
    3    1   23 1     
    4    1   24 1     
    5    2   20 1     
    6    2    3 2     
    7    3    4 1     
    8    4    5 1     
    9    4    6 2     
   10    5   25 1     
   11    5   26 1     
   12    5   27 1     
   13    6    7 1     
   14    6   18 1     
   15    7    8 1     
   16    7   28 1     
   17    7   29 1     
   18    8    9 2     
   19    8   10 am    
   20   10   11 1     
   21   10   30 1     
   22   11   16 1     
   23   11   12 1     
   24   11   31 1     
   25   12   13 1     
   26   12   32 1     
   27   12   33 1     
   28   13   14 1     
   29   13   34 1     
   30   13   35 1     
   31   14   15 1     
   32   14   36 1     
   33   14   37 1     
   34   15   16 1     
   35   15   38 1     
   36   15   39 1     
   37   16   17 1     
   38   16   40 1     
   39   17   41 1     
   40   17   42 1     
   41   17   43 1     
   42   18   19 2     
   43   18   20 am    
   44   20   21 1     
   45    3   44 1     
   46    9   45 1     
   47    9   46 1     
   48   19   47 1     
   49   19   48 1     
@<TRIPOS>SUBSTRUCTURE
      1 S1             1
@<TRIPOS>SET
LONE_PAIRS      STATIC     ATOMS    <user>   **** ""
5 44 45 46 47 48
DONOR_HYDROGENS      STATIC     ATOMS    <user>   **** ""
2 30 21
ATOM$BLUE        STATIC     ATOMS    COLORGROUP SYSTEM
5 44 45 46 47 48
ATOM$RED        STATIC     ATOMS    COLORGROUP SYSTEM
2 30 21
