#       Name:                AV-unprocessed.smi:189
#       Creating user name   scv26
#       Creation time:       Thu Mar 26 19:29:43 2020


#       File generated by GOLD software.
#

@<TRIPOS>MOLECULE
AV-unprocessed.smi:189
    61    65     1
SMALL
NO_CHARGES


@<TRIPOS>ATOM
      1 ****        -2.6415   0.7962   3.5949 C.3            1 S1                 0.0000
      2 ****        -3.1888   0.7996   2.1545 C.3            1 S1                 0.0000
      3 ****        -3.5614   2.1744   1.5883 C.3            1 S1                 0.0000
      4 ****        -3.6613   1.9089   0.0785 C.3            1 S1                 0.0000
      5 ****        -3.0456   3.0020  -0.8124 C.3            1 S1                 0.0000
      6 ****        -3.0892   2.6212  -2.3083 C.3            1 S1                 0.0000
      7 ****        -2.8623   1.1157  -2.5772 C.3            1 S1                 0.0000
      8 ****        -2.1371   0.4216  -1.4160 C.3            1 S1                 0.0000
      9 ****        -2.9880   0.5308  -0.1228 C.3            1 S1                 0.0000
     10 ****        -2.3378   0.1716   1.1425 N.3            1 S1                 0.0000
     11 ****        -0.9939   0.3575   1.2013 C.ar           1 S1                 0.0000
     12 ****        -0.4600   1.5930   1.3958 N.ar           1 S1                 0.0000
     13 ****         0.8662   1.7563   1.4069 C.ar           1 S1                 0.0000
     14 ****         1.8211   0.8404   1.2318 N.ar           1 S1                 0.0000
     15 ****         1.2878  -0.3969   1.0187 C.ar           1 S1                 0.0000
     16 ****        -0.0966  -0.7228   0.9955 C.ar           1 S1                 0.0000
     17 ****        -0.2651  -2.0802   0.7554 N.2            1 S1                 0.0000
     18 ****         0.9535  -2.5330   0.6413 C.2            1 S1                 0.0000
     19 ****         1.9473  -1.5880   0.7693 N.pl3          1 S1                 0.0000
     20 ****         3.3806  -1.8153   0.6735 C.3            1 S1                 0.0000
     21 ****         3.9622  -1.5702  -0.7431 C.3            1 S1                 0.0000
     22 ****         3.7727  -0.2168  -1.1101 O.3            1 S1                 0.0000
     23 ****         5.4412  -1.9117  -0.8217 C.3            1 S1                 0.0000
     24 ****         5.4285  -3.4120  -1.1057 C.3            1 S1                 0.0000
     25 ****         4.2131  -3.6695  -1.8027 O.3            1 S1                 0.0000
     26 ****         3.4022  -2.4990  -1.8293 C.3            1 S1                 0.0000
     27 ****        -3.3932   1.1723   4.2888 H              1 S1                 0.0000
     28 ****        -1.7584   1.4237   3.7094 H              1 S1                 0.0000
     29 ****        -2.3800  -0.2140   3.9109 H              1 S1                 0.0000
     30 ****        -4.0997   0.1988   2.1747 H              1 S1                 0.0000
     31 ****        -4.4929   2.5561   2.0072 H              1 S1                 0.0000
     32 ****        -2.7812   2.9050   1.8044 H              1 S1                 0.0000
     33 ****        -4.7145   1.8086  -0.1888 H              1 S1                 0.0000
     34 ****        -3.5514   3.9549  -0.6542 H              1 S1                 0.0000
     35 ****        -2.0072   3.1586  -0.5174 H              1 S1                 0.0000
     36 ****        -4.0496   2.9127  -2.7350 H              1 S1                 0.0000
     37 ****        -2.3375   3.2074  -2.8381 H              1 S1                 0.0000
     38 ****        -3.8258   0.6273  -2.7284 H              1 S1                 0.0000
     39 ****        -2.3071   0.9831  -3.5063 H              1 S1                 0.0000
     40 ****        -1.9466  -0.6259  -1.6516 H              1 S1                 0.0000
     41 ****        -1.1618   0.8970  -1.3071 H              1 S1                 0.0000
     42 ****        -3.7953  -0.1950  -0.2338 H              1 S1                 0.0000
     43 ****         1.2107   2.7661   1.5735 H              1 S1                 0.0000
     44 ****         1.1624  -3.5752   0.4473 H              1 S1                 0.0000
     45 ****         3.8765  -1.1699   1.3997 H              1 S1                 0.0000
     46 ****         3.5783  -2.8387   0.9942 H              1 S1                 0.0000
     47 ****         4.1356  -0.0849  -1.9725 H              1 S1                 0.0000
     48 ****         5.9078  -1.3955  -1.6625 H              1 S1                 0.0000
     49 ****         5.9991  -1.6512   0.0786 H              1 S1                 0.0000
     50 ****         6.2939  -3.7294  -1.6878 H              1 S1                 0.0000
     51 ****         5.4226  -3.9800  -0.1750 H              1 S1                 0.0000
     52 ****         2.3459  -2.7370  -1.7145 H              1 S1                 0.0000
     53 ****         3.5228  -2.0468  -2.8152 H              1 S1                 0.0000
     54 ****        -2.2954  -0.8154   1.2980 LP             1 S1                 0.0000
     55 ****        -1.0610   2.3807   1.5308 LP             1 S1                 0.0000
     56 ****         2.8015   1.0360   1.2540 LP             1 S1                 0.0000
     57 ****        -1.1215  -2.5919   0.6861 LP             1 S1                 0.0000
     58 ****         4.2373   0.3783  -0.4544 LP             1 S1                 0.0000
     59 ****         2.7957  -0.0039  -1.1195 LP             1 S1                 0.0000
     60 ****         3.7168  -4.4044  -1.3404 LP             1 S1                 0.0000
     61 ****         4.4227  -3.9472  -2.7402 LP             1 S1                 0.0000
@<TRIPOS>BOND
    1    1    2 1     
    2    1   27 1     
    3    1   28 1     
    4    1   29 1     
    5    2   10 1     
    6    2    3 1     
    7    2   30 1     
    8    3    4 1     
    9    3   31 1     
   10    3   32 1     
   11    4    9 1     
   12    4    5 1     
   13    4   33 1     
   14    5    6 1     
   15    5   34 1     
   16    5   35 1     
   17    6    7 1     
   18    6   36 1     
   19    6   37 1     
   20    7    8 1     
   21    7   38 1     
   22    7   39 1     
   23    8    9 1     
   24    8   40 1     
   25    8   41 1     
   26    9   10 1     
   27    9   42 1     
   28   10   11 1     
   29   11   16 ar    
   30   11   12 ar    
   31   12   13 ar    
   32   13   14 ar    
   33   13   43 1     
   34   14   15 ar    
   35   15   19 1     
   36   15   16 ar    
   37   16   17 1     
   38   17   18 2     
   39   18   19 1     
   40   18   44 1     
   41   19   20 1     
   42   20   21 1     
   43   20   45 1     
   44   20   46 1     
   45   21   26 1     
   46   21   22 1     
   47   21   23 1     
   48   22   47 1     
   49   23   24 1     
   50   23   48 1     
   51   23   49 1     
   52   24   25 1     
   53   24   50 1     
   54   24   51 1     
   55   25   26 1     
   56   26   52 1     
   57   26   53 1     
   58   10   54 1     
   59   12   55 1     
   60   14   56 1     
   61   17   57 1     
   62   22   58 1     
   63   22   59 1     
   64   25   60 1     
   65   25   61 1     
@<TRIPOS>SUBSTRUCTURE
      1 S1             1
@<TRIPOS>SET
LONE_PAIRS      STATIC     ATOMS    <user>   **** ""
8 54 55 56 57 58 59 60 61
DONOR_HYDROGENS      STATIC     ATOMS    <user>   **** ""
1 47
ATOM$BLUE        STATIC     ATOMS    COLORGROUP SYSTEM
8 54 55 56 57 58 59 60 61
ATOM$RED        STATIC     ATOMS    COLORGROUP SYSTEM
1 47
