AV-unprocessed.smi:190|AV-procd|sdf|1492|dock9
  -GOLD-   2262019313D 1   1.00000     0.00000
 Structure written by MMmdl.
 54 58  0  0  0  0  0  0  0  0  1 V2000
  148.8200  141.3495  155.9174 O   0  0  0  0  0  0  0  0  0  0  0  0
  148.6051  139.9951  155.5724 C   0  0  0  0  0  0  0  0  0  0  0  0
  149.8567  139.1142  155.8318 C   0  0  0  0  0  0  0  0  0  0  0  0
  150.2863  139.1756  157.3326 C   0  0  0  0  0  0  0  0  0  0  0  0
  149.6856  138.1617  158.1889 N   0  0  0  0  0  0  0  0  0  0  0  0
  150.3465  137.2995  159.0358 C   0  0  0  0  0  0  0  0  0  0  0  0
  149.5845  136.4746  159.7000 N   0  0  0  0  0  0  0  0  0  0  0  0
  148.3018  136.7685  159.2565 C   0  0  0  0  0  0  0  0  0  0  0  0
  147.0116  136.2507  159.5501 C   0  0  0  0  0  0  0  0  0  0  0  0
  146.8220  135.2350  160.4281 N   0  0  0  0  0  0  0  0  0  0  0  0
  147.8496  134.1996  160.4822 C   0  0  0  0  0  0  0  0  0  0  0  0
  147.6292  133.4479  161.8024 C   0  0  0  0  0  0  0  0  0  0  0  0
  146.4153  134.1273  162.4422 C   0  0  0  0  0  0  0  0  0  0  0  0
  146.3964  135.5214  161.8031 C   0  0  2  0  0  0  0  0  0  0  0  0
  145.0497  136.2268  161.9291 C   0  0  0  0  0  0  0  0  0  0  0  0
  145.3958  137.7169  162.0056 C   0  0  0  0  0  0  0  0  0  0  0  0
  146.8012  137.7987  162.2221 O   0  0  0  0  0  0  0  0  0  0  0  0
  147.3167  136.5122  162.5371 C   0  0  0  0  0  0  0  0  0  0  0  0
  145.9479  136.8124  158.9170 N   0  0  0  0  0  0  0  0  0  0  0  0
  146.1356  137.7989  158.0362 C   0  0  0  0  0  0  0  0  0  0  0  0
  147.2794  138.3704  157.6553 N   0  0  0  0  0  0  0  0  0  0  0  0
  148.3475  137.8243  158.3033 C   0  0  0  0  0  0  0  0  0  0  0  0
  149.5123  137.6690  155.3904 C   0  0  0  0  0  0  0  0  0  0  0  0
  150.7519  136.7604  155.2995 C   0  0  0  0  0  0  0  0  0  0  0  0
  151.7025  137.3286  154.4087 O   0  0  0  0  0  0  0  0  0  0  0  0
  152.1799  138.5927  154.8499 C   0  0  0  0  0  0  0  0  0  0  0  0
  151.0160  139.5982  154.9244 C   0  0  0  0  0  0  0  0  0  0  0  0
  149.6727  141.4252  156.3181 H   0  0  0  0  0  0  0  0  0  0  0  0
  147.7412  139.6244  156.1239 H   0  0  0  0  0  0  0  0  0  0  0  0
  148.3259  139.9619  154.5186 H   0  0  0  0  0  0  0  0  0  0  0  0
  151.3673  139.0927  157.4347 H   0  0  0  0  0  0  0  0  0  0  0  0
  150.0361  140.1505  157.7524 H   0  0  0  0  0  0  0  0  0  0  0  0
  151.4204  137.3065  159.1531 H   0  0  0  0  0  0  0  0  0  0  0  0
  147.7341  133.5300  159.6295 H   0  0  0  0  0  0  0  0  0  0  0  0
  148.8584  134.6126  160.4484 H   0  0  0  0  0  0  0  0  0  0  0  0
  147.4634  132.3813  161.6491 H   0  0  0  0  0  0  0  0  0  0  0  0
  148.5058  133.5608  162.4418 H   0  0  0  0  0  0  0  0  0  0  0  0
  145.5123  133.5823  162.1623 H   0  0  0  0  0  0  0  0  0  0  0  0
  146.4629  134.1442  163.5316 H   0  0  0  0  0  0  0  0  0  0  0  0
  144.3477  135.9827  161.1332 H   0  0  0  0  0  0  0  0  0  0  0  0
  144.5743  135.9368  162.8671 H   0  0  0  0  0  0  0  0  0  0  0  0
  145.1468  138.2329  161.0780 H   0  0  0  0  0  0  0  0  0  0  0  0
  144.8560  138.2065  162.8165 H   0  0  0  0  0  0  0  0  0  0  0  0
  147.2376  136.3815  163.6172 H   0  0  0  0  0  0  0  0  0  0  0  0
  148.3704  136.4198  162.2723 H   0  0  0  0  0  0  0  0  0  0  0  0
  145.2415  138.1859  157.5706 H   0  0  0  0  0  0  0  0  0  0  0  0
  148.7678  137.2240  156.0501 H   0  0  0  0  0  0  0  0  0  0  0  0
  149.0484  137.6934  154.4034 H   0  0  0  0  0  0  0  0  0  0  0  0
  151.2073  136.5964  156.2759 H   0  0  0  0  0  0  0  0  0  0  0  0
  150.4639  135.7793  154.9217 H   0  0  0  0  0  0  0  0  0  0  0  0
  152.6868  138.4911  155.8100 H   0  0  0  0  0  0  0  0  0  0  0  0
  152.9287  138.9461  154.1409 H   0  0  0  0  0  0  0  0  0  0  0  0
  150.6443  139.7577  153.9114 H   0  0  0  0  0  0  0  0  0  0  0  0
  151.3892  140.5654  155.2628 H   0  0  0  0  0  0  0  0  0  0  0  0
  1  2  1  0  0  0  0
  1 28  1  0  0  0  0
  2  3  1  0  0  0  0
  2 29  1  0  0  0  0
  2 30  1  0  0  0  0
  3 27  1  0  0  0  0
  3  4  1  0  0  0  0
  3 23  1  0  0  0  0
  4  5  1  0  0  0  0
  4 31  1  0  0  0  0
  4 32  1  0  0  0  0
  5 22  1  0  0  0  0
  5  6  1  0  0  0  0
  6  7  2  0  0  0  0
  6 33  1  0  0  0  0
  7  8  1  0  0  0  0
  8 22  2  0  0  0  0
  8  9  1  0  0  0  0
  9 10  1  0  0  0  0
  9 19  2  0  0  0  0
 10 14  1  0  0  0  0
 10 11  1  0  0  0  0
 11 12  1  0  0  0  0
 11 34  1  0  0  0  0
 11 35  1  0  0  0  0
 12 13  1  0  0  0  0
 12 36  1  0  0  0  0
 12 37  1  0  0  0  0
 13 14  1  0  0  0  0
 13 38  1  0  0  0  0
 13 39  1  0  0  0  0
 14 18  1  0  0  0  0
 14 15  1  0  0  0  0
 15 16  1  0  0  0  0
 15 40  1  0  0  0  0
 15 41  1  0  0  0  0
 16 17  1  0  0  0  0
 16 42  1  0  0  0  0
 16 43  1  0  0  0  0
 17 18  1  0  0  0  0
 18 44  1  0  0  0  0
 18 45  1  0  0  0  0
 19 20  1  0  0  0  0
 20 21  2  0  0  0  0
 20 46  1  0  0  0  0
 21 22  1  0  0  0  0
 23 24  1  0  0  0  0
 23 47  1  0  0  0  0
 23 48  1  0  0  0  0
 24 25  1  0  0  0  0
 24 49  1  0  0  0  0
 24 50  1  0  0  0  0
 25 26  1  0  0  0  0
 26 27  1  0  0  0  0
 26 51  1  0  0  0  0
 26 52  1  0  0  0  0
 27 53  1  0  0  0  0
 27 54  1  0  0  0  0
M  END
> <s_m_source_file>
AV-unprocessed.smi

> <i_m_source_file_index>
190

> <i_lp_mmshare_version>
43012

> <i_f3d_flags>
0

> <s_epik_input>
W0NIMl0xW0NIMl1PW0NIMl1bQ0gyXUMxKFtDSDJdW09IXSlbQ0gyXW4oW2NIXW4yKWMoYzIzKW5bY0hdbmMzTihbQ0gyXVtDSDJdW0NIMl00KVtDQF00NVtDSDJdW0NIMl1PW0NIMl01

> <s_epik_cmdline>
J2VwaWtfcHl0aG9uJywgJy1waCcsICc3LjAnLCAnLXRuJywgJzgnLCAnLW1hJywgJzIwMCcsICctbWV0YWxfYmluZGluZycsICctaW1hZScsICc8aW5maWxlLm1hZT4nLCAnLW9tYWUnLCAnPG91dGZpbGUubWFlPic=

> <r_lp_tautomer_probability>
1

> <r_epik_Ionization_Penalty>
0.00423054

> <r_epik_Ionization_Penalty_Charging>
0

> <r_epik_Ionization_Penalty_Neutral>
0.00423054

> <r_epik_State_Penalty>
0.00298851

> <r_epik_Charging_Adjusted_Penalty>
0.00298851

> <i_epik_Tot_Q>
0

> <i_epik_Tot_abs_Q>
0

> <r_epik_Metal_State_Penalty>
-0

> <b_epik_Metal_Only>
0

> <s_lp_Force_Field>
OPLS_2005

> <r_lp_Energy>
69.5451

> <b_lp_Chiralities_Consistent>
1

> <s_lp_Variant>
AV-unprocessed.smi:190-2

> <Gold.Version>
5.8.1

> <Gold.Id.Protein>
6NUR|6NUR_protein|mol2

> <Gold.PLP.Fitness>
43.5571

> <Gold.PLP.PLP>
-38.8686

> <Gold.PLP.part.hbond>
-3.9835

> <Gold.PLP.part.metal>
0.0000

> <Gold.PLP.part.buried>
-4.6637

> <Gold.PLP.part.nonpolar>
-29.9863

> <Gold.PLP.part.repulsive>
0.1355

> <Gold.PLP.ligand.clash>
0.0000

> <Gold.PLP.ligand.torsion>
1.3115

> <Gold.PLP.Chemscore.Hbond>
2.3668

> <Gold.PLP.Chemscore.CHOScore>
0.0000

> <Gold.PLP.Chemscore.Metal>
0.0000

> <Gold.Chemscore.Hbonds>
donor molecule, donor type, donor heavy atom, donor atom, acceptor molecule, acceptor atom, score
      P1  H  6896  6908       L1     7  0.93
      P1  H  6931  6943       L1    17  0.03
      P1  H  6934  6947       L1    17  0.52
      P1  H 10752 10764       L1    25  0.63

> <Gold.PLP.Chemscore.Internal.Correction>
0.2112

> <Gold.Rescore>
     Score         DG    S(hbond)    S(metal)    S(lipo)     H(rot)  DE(clash)    DE(int)     intcor
     11.57     -15.34       1.83        0.00      83.78       2.37       0.21       3.57       ----

> <Gold.Chemscore.Fitness>
11.5652

> <Gold.Chemscore.DG>
-15.3420

> <Gold.Chemscore.ZeroCoef>
-5.4800

> <Gold.Chemscore.Hbond>
1.8319

> <Gold.Chemscore.Metal>
0.0000

> <Gold.Chemscore.Lipo>
83.7771

> <Gold.Chemscore.Internal_Hbond>
0.0000

> <Gold.Chemscore.DEClash>
0.2084

> <Gold.Chemscore.DEInternal>
3.5683

> <Gold.Chemscore.Rot>
2.3666

> <Gold.Chemscore.Internal.Correction>
   9.000000E+99

> <Gold.Chemscore.Hbonds>
donor molecule, donor type, donor heavy atom, donor atom, acceptor molecule, acceptor atom, score
      P1  H  6896  6908       L1     7  0.20
      P1  H  6934  6947       L1    17  0.10
      P1  H 10752 10764       L1    25  0.28

> <Gold.Chemscore.Hbond.Weighted>
-6.1186

> <Gold.Chemscore.Metal.Weighted>
-0.0000

> <Gold.Chemscore.Lipo.Weighted>
-9.8019

> <Gold.Chemscore.Internal_Hbond.Weighted>
0.0000

> <Gold.Chemscore.DEClash.Weighted>
0.2084

> <Gold.Chemscore.DEInternal.Weighted>
3.5683

> <Gold.Chemscore.Rot.Weighted>
6.0586

> <Gold.Chemscore.Internal.Correction.Weighted>
   9.000000E+99

> <Gold.Protein.RotatedTorsions>
[ 6907 6896 6895 6894 ] final -172.63 input  -60.11 | X-H torsion
[ 7974 7965 7964 7962 ] final  112.88 input  175.53 | X-H torsion
[ 8008 7997 7996 7995 ] final  -46.25 input   59.86 | X-H torsion
[ 10167 10162 10161 10158 ] final   10.14 input  -65.29 | X-H torsion
[ 10718 10713 10712 10709 ] final  -19.30 input   66.30 | X-H torsion
[ 10763 10752 10751 10750 ] final  -96.77 input  -60.55 | X-H torsion
[ 11005 11000 10999 10996 ] final -153.18 input  -57.11 | X-H torsion

> <Gold.Protein.ActiveResidues>
 VAL166  LYS551  ARG553  GLY616  TRP617  ASP618  TYR619  PRO620  LYS621  CYS622 
 ASP623  PHE694  ASN695  SER759  ASP760  ASP761  ALA762  ILE779  LEU786  VAL792 
 PHE793  MET794  SER795  GLU796  ALA797  LYS798  CYS799  TRP800  GLU811  SER814 

> <Gold.Protein.RotatedAtoms>
  151.5431  133.3429  159.2938 H   0  0  0  0  0  0  0  0  0  0  0  0  # atno 6907 bound_to 6896
  150.8524  134.7855  159.7030 H   0  0  0  0  0  0  0  0  0  0  0  0  # atno 6908 bound_to 6896
  152.4566  134.5285  159.9855 H   0  0  0  0  0  0  0  0  0  0  0  0  # atno 6909 bound_to 6896
  145.2239  139.2849  143.4203 H   0  0  0  0  0  0  0  0  0  0  0  0  # atno 7974 bound_to 7965
  154.4006  140.1376  156.3980 H   0  0  0  0  0  0  0  0  0  0  0  0  # atno 8008 bound_to 7997
  155.7851  140.3480  155.5298 H   0  0  0  0  0  0  0  0  0  0  0  0  # atno 8009 bound_to 7997
  155.8635  140.0960  157.1588 H   0  0  0  0  0  0  0  0  0  0  0  0  # atno 8010 bound_to 7997
  140.6212  143.8199  150.7178 H   0  0  0  0  0  0  0  0  0  0  0  0  # atno 10167 bound_to 10162
  156.5475  130.4693  149.6468 H   0  0  0  0  0  0  0  0  0  0  0  0  # atno 10718 bound_to 10713
  154.7269  135.5071  153.8901 H   0  0  0  0  0  0  0  0  0  0  0  0  # atno 10763 bound_to 10752
  153.0913  135.6660  153.9857 H   0  0  0  0  0  0  0  0  0  0  0  0  # atno 10764 bound_to 10752
  153.9667  135.3042  155.3409 H   0  0  0  0  0  0  0  0  0  0  0  0  # atno 10765 bound_to 10752
  140.7109  134.3833  157.5198 H   0  0  0  0  0  0  0  0  0  0  0  0  # atno 11005 bound_to 11000
  146.3369  140.2554  142.8600 LP  0  0  0  0  0  0  0  0  0  0  0  0  # atno 17320 bound_to 7965
  144.9739  140.8395  143.5438 LP  0  0  0  0  0  0  0  0  0  0  0  0  # atno 17321 bound_to 7965
  140.1790  143.4130  152.1946 LP  0  0  0  0  0  0  0  0  0  0  0  0  # atno 17342 bound_to 10162
  139.5440  144.7282  151.4641 LP  0  0  0  0  0  0  0  0  0  0  0  0  # atno 17343 bound_to 10162
  156.2915  130.7126  151.1976 LP  0  0  0  0  0  0  0  0  0  0  0  0  # atno 17370 bound_to 10713
  157.7394  131.0530  150.5235 LP  0  0  0  0  0  0  0  0  0  0  0  0  # atno 17371 bound_to 10713
  139.8872  134.8889  156.2543 LP  0  0  0  0  0  0  0  0  0  0  0  0  # atno 17394 bound_to 11000
  141.0085  133.7109  156.1073 LP  0  0  0  0  0  0  0  0  0  0  0  0  # atno 17395 bound_to 11000

$$$$
