#       Name:                AV-unprocessed.smi:290
#       Creating user name   scv26
#       Creation time:       Thu Mar 26 22:09:46 2020


#       File generated by GOLD software.
#

@<TRIPOS>MOLECULE
AV-unprocessed.smi:290
    69    72     1
SMALL
NO_CHARGES


@<TRIPOS>ATOM
      1 ****        -4.9246  -3.3533   2.5489 C.3            1 S1                 0.0000
      2 ****        -4.0408  -2.1379   2.2240 C.3            1 S1                 0.0000
      3 ****        -3.6171  -1.5422   3.4463 O.3            1 S1                 0.0000
      4 ****        -3.3907  -0.1627   3.2222 C.3            1 S1                 0.0000
      5 ****        -4.5559   0.2127   2.3188 C.3            1 S1                 0.0000
      6 ****        -4.6978  -0.9975   1.3935 C.3            1 S1                 0.0000
      7 ****        -6.0808  -1.2209   1.1786 O.3            1 S1                 0.0000
      8 ****        -4.0737  -0.8064  -0.0186 C.3            1 S1                 0.0000
      9 ****        -2.6782  -0.3856  -0.0366 N.pl3          1 S1                 0.0000
     10 ****        -1.5661  -1.1996  -0.0416 C.2            1 S1                 0.0000
     11 ****        -0.4179  -0.5792  -0.0620 N.2            1 S1                 0.0000
     12 ****        -0.7637   0.7657  -0.0982 C.ar           1 S1                 0.0000
     13 ****        -0.0238   1.9809  -0.1406 C.ar           1 S1                 0.0000
     14 ****         1.3246   2.0608  -0.1481 N.3            1 S1                 0.0000
     15 ****         1.9819   1.4946   1.0206 C.3            1 S1                 0.0000
     16 ****         3.0311   0.5241   0.4915 C.3            1 S1                 0.0000
     17 ****         3.3467   1.0313  -0.9227 C.3            1 S1                 0.0000
     18 ****         3.9258  -0.0621  -1.7626 N.4            1 S1                 1.0000
     19 ****         3.8401   0.1526  -3.2271 C.3            1 S1                 0.0000
     20 ****         5.3068  -0.4326  -1.3489 C.3            1 S1                 0.0000
     21 ****         5.5782  -1.9346  -1.5334 C.3            1 S1                 0.0000
     22 ****         4.8118  -2.6815  -0.6116 O.3            1 S1                 0.0000
     23 ****         1.9667   1.5750  -1.3684 C.3            1 S1                 0.0000
     24 ****         2.0148   2.7183  -2.4033 C.3            1 S1                 0.0000
     25 ****        -0.7127   3.1464  -0.1862 N.ar           1 S1                 0.0000
     26 ****        -2.0488   3.1305  -0.1909 C.ar           1 S1                 0.0000
     27 ****        -2.8712   2.0798  -0.1530 N.ar           1 S1                 0.0000
     28 ****        -2.1795   0.9052  -0.0999 C.ar           1 S1                 0.0000
     29 ****         4.0526   1.8620  -0.8617 H              1 S1                 0.0000
     30 ****         1.3767   0.7515  -1.7736 H              1 S1                 0.0000
     31 ****        -5.2685  -3.8453   1.6388 H              1 S1                 0.0000
     32 ****        -5.8003  -3.0665   3.1320 H              1 S1                 0.0000
     33 ****        -4.3698  -4.0889   3.1313 H              1 S1                 0.0000
     34 ****        -3.1464  -2.5020   1.7234 H              1 S1                 0.0000
     35 ****        -3.3827   0.4005   4.1553 H              1 S1                 0.0000
     36 ****        -2.4312  -0.0182   2.7244 H              1 S1                 0.0000
     37 ****        -5.4446   0.3227   2.9429 H              1 S1                 0.0000
     38 ****        -4.4155   1.1590   1.7997 H              1 S1                 0.0000
     39 ****        -6.4458  -0.4594   0.7542 H              1 S1                 0.0000
     40 ****        -4.1543  -1.7341  -0.5873 H              1 S1                 0.0000
     41 ****        -4.6457  -0.0639  -0.5774 H              1 S1                 0.0000
     42 ****        -1.6302  -2.2781  -0.0288 H              1 S1                 0.0000
     43 ****         2.4626   2.3101   1.5619 H              1 S1                 0.0000
     44 ****         1.2953   1.0039   1.7123 H              1 S1                 0.0000
     45 ****         3.9019   0.4766   1.1454 H              1 S1                 0.0000
     46 ****         2.5979  -0.4764   0.4413 H              1 S1                 0.0000
     47 ****         4.3411   1.0770  -3.5169 H              1 S1                 0.0000
     48 ****         2.8038   0.1863  -3.5616 H              1 S1                 0.0000
     49 ****         4.3112  -0.6630  -3.7747 H              1 S1                 0.0000
     50 ****         6.0257   0.1533  -1.9237 H              1 S1                 0.0000
     51 ****         5.4949  -0.1769  -0.3064 H              1 S1                 0.0000
     52 ****         5.3561  -2.2677  -2.5469 H              1 S1                 0.0000
     53 ****         6.6323  -2.1478  -1.3539 H              1 S1                 0.0000
     54 ****         5.1122  -2.4856   0.2634 H              1 S1                 0.0000
     55 ****         2.4584   2.4212  -3.3501 H              1 S1                 0.0000
     56 ****         2.5876   3.5655  -2.0248 H              1 S1                 0.0000
     57 ****         1.0114   3.0795  -2.6304 H              1 S1                 0.0000
     58 ****        -2.5277   4.0980  -0.2293 H              1 S1                 0.0000
     59 ****         3.3554  -0.8735  -1.5694 H              1 S1                 0.0000
     60 ****        -2.7715  -1.9762   3.7572 LP             1 S1                 0.0000
     61 ****        -4.3265  -1.6586   4.1414 LP             1 S1                 0.0000
     62 ****        -6.5384  -1.3702   2.0551 LP             1 S1                 0.0000
     63 ****        -6.2061  -2.0241   0.5961 LP             1 S1                 0.0000
     64 ****         0.4985  -0.9794  -0.0535 LP             1 S1                 0.0000
     65 ****         1.4609   3.0509  -0.1149 LP             1 S1                 0.0000
     66 ****         4.9239  -3.6582  -0.7947 LP             1 S1                 0.0000
     67 ****         3.8467  -2.4346  -0.6989 LP             1 S1                 0.0000
     68 ****        -0.2221   4.0172  -0.2163 LP             1 S1                 0.0000
     69 ****        -3.8690   2.1454  -0.1624 LP             1 S1                 0.0000
@<TRIPOS>BOND
    1    1    2 1     
    2    1   31 1     
    3    1   32 1     
    4    1   33 1     
    5    2    6 1     
    6    2    3 1     
    7    2   34 1     
    8    3    4 1     
    9    4    5 1     
   10    4   35 1     
   11    4   36 1     
   12    5    6 1     
   13    5   37 1     
   14    5   38 1     
   15    6    7 1     
   16    6    8 1     
   17    7   39 1     
   18    8    9 1     
   19    8   40 1     
   20    8   41 1     
   21    9   28 1     
   22    9   10 1     
   23   10   11 2     
   24   10   42 1     
   25   11   12 1     
   26   12   28 ar    
   27   12   13 ar    
   28   13   14 1     
   29   13   25 ar    
   30   14   23 1     
   31   14   15 1     
   32   15   16 1     
   33   15   43 1     
   34   15   44 1     
   35   16   17 1     
   36   16   45 1     
   37   16   46 1     
   38   17   29 1     
   39   17   18 1     
   40   17   23 1     
   41   18   19 1     
   42   18   20 1     
   43   18   59 1     
   44   19   47 1     
   45   19   48 1     
   46   19   49 1     
   47   20   21 1     
   48   20   50 1     
   49   20   51 1     
   50   21   22 1     
   51   21   52 1     
   52   21   53 1     
   53   22   54 1     
   54   23   30 1     
   55   23   24 1     
   56   24   55 1     
   57   24   56 1     
   58   24   57 1     
   59   25   26 ar    
   60   26   27 ar    
   61   26   58 1     
   62   27   28 ar    
   63    3   60 1     
   64    3   61 1     
   65    7   62 1     
   66    7   63 1     
   67   11   64 1     
   68   14   65 1     
   69   22   66 1     
   70   22   67 1     
   71   25   68 1     
   72   27   69 1     
@<TRIPOS>SUBSTRUCTURE
      1 S1             1
@<TRIPOS>SET
LONE_PAIRS      STATIC     ATOMS    <user>   **** ""
10 60 61 62 63 64 65 66 67 68 69
DONOR_HYDROGENS      STATIC     ATOMS    <user>   **** ""
3 39 59 54
ATOM$BLUE        STATIC     ATOMS    COLORGROUP SYSTEM
10 60 61 62 63 64 65 66 67 68 69
ATOM$RED        STATIC     ATOMS    COLORGROUP SYSTEM
3 39 59 54
