#       Name:                AV-unprocessed.smi:2724
#       Creating user name   scv26
#       Creation time:       Fri Mar 27 14:55:05 2020


#       File generated by GOLD software.
#

@<TRIPOS>MOLECULE
AV-unprocessed.smi:2724
    28    29     1
SMALL
NO_CHARGES


@<TRIPOS>ATOM
      1 ****        -1.2671   1.5802   1.0992 O.3            1 S1                 0.0000
      2 ****         0.1371   1.4374   1.0086 C.3            1 S1                 0.0000
      3 ****         0.7332   0.7078   2.2124 C.3            1 S1                 0.0000
      4 ****         2.0994   0.2528   1.7049 C.3            1 S1                 0.0000
      5 ****         1.8470  -0.1646   0.2527 C.3            1 S1                 0.0000
      6 ****         0.6507   0.6792  -0.2394 C.3            1 S1                 0.0000
      7 ****        -0.3967  -0.1572  -0.9724 C.ar           1 S1                 0.0000
      8 ****        -1.0753  -1.2208  -0.3363 C.ar           1 S1                 0.0000
      9 ****        -2.0335  -1.9522  -1.0635 C.ar           1 S1                 0.0000
     10 ****        -2.2753  -1.5920  -2.4036 C.ar           1 S1                 0.0000
     11 ****        -1.6333  -0.5805  -3.0260 N.ar           1 S1                 0.0000
     12 ****        -0.7167   0.1163  -2.3204 C.ar           1 S1                 0.0000
     13 ****        -1.5738   2.0253   0.3241 H              1 S1                 0.0000
     14 ****         0.5639   2.4413   0.9915 H              1 S1                 0.0000
     15 ****         0.8011   1.3409   3.0977 H              1 S1                 0.0000
     16 ****         0.1280  -0.1628   2.4695 H              1 S1                 0.0000
     17 ****         2.7970   1.0910   1.7316 H              1 S1                 0.0000
     18 ****         2.5239  -0.5527   2.3046 H              1 S1                 0.0000
     19 ****         2.7297  -0.0326  -0.3739 H              1 S1                 0.0000
     20 ****         1.6062  -1.2280   0.2363 H              1 S1                 0.0000
     21 ****         1.0236   1.4257  -0.9425 H              1 S1                 0.0000
     22 ****        -0.8690  -1.4727   0.6934 H              1 S1                 0.0000
     23 ****        -2.5709  -2.7688  -0.6047 H              1 S1                 0.0000
     24 ****        -3.0037  -2.1308  -2.9913 H              1 S1                 0.0000
     25 ****        -0.2246   0.9174  -2.8519 H              1 S1                 0.0000
     26 ****        -1.5000   2.1164   1.9105 LP             1 S1                 0.0000
     27 ****        -1.6946   0.6783   1.1617 LP             1 S1                 0.0000
     28 ****        -1.8305  -0.3543  -3.9800 LP             1 S1                 0.0000
@<TRIPOS>BOND
    1    1    2 1     
    2    1   13 1     
    3    2    6 1     
    4    2    3 1     
    5    2   14 1     
    6    3    4 1     
    7    3   15 1     
    8    3   16 1     
    9    4    5 1     
   10    4   17 1     
   11    4   18 1     
   12    5    6 1     
   13    5   19 1     
   14    5   20 1     
   15    6    7 1     
   16    6   21 1     
   17    7   12 ar    
   18    7    8 ar    
   19    8    9 ar    
   20    8   22 1     
   21    9   10 ar    
   22    9   23 1     
   23   10   11 ar    
   24   10   24 1     
   25   11   12 ar    
   26   12   25 1     
   27    1   26 1     
   28    1   27 1     
   29   11   28 1     
@<TRIPOS>SUBSTRUCTURE
      1 S1             1
@<TRIPOS>SET
LONE_PAIRS      STATIC     ATOMS    <user>   **** ""
3 26 27 28
DONOR_HYDROGENS      STATIC     ATOMS    <user>   **** ""
1 13
ATOM$BLUE        STATIC     ATOMS    COLORGROUP SYSTEM
3 26 27 28
ATOM$RED        STATIC     ATOMS    COLORGROUP SYSTEM
1 13
