AV-unprocessed.smi:672|AV-procd|sdf|3294|dock5
  -GOLD-   22720 0253D 1   1.00000     0.00000
 Structure written by MMmdl.
 35 36  0  0  0  0  0  0  0  0  2 V2000
  152.3850  141.7838  160.0201 C   0  0  0  0  0  0  0  0  0  0  0  0
  152.8925  140.4273  159.5191 C   0  0  0  0  0  0  0  0  0  0  0  0
  152.3626  140.0809  158.1678 C   0  0  0  0  0  0  0  0  0  0  0  0
  152.7894  139.0245  157.4708 N   0  0  0  0  0  0  0  0  0  0  0  0
  152.1688  138.9292  156.2338 N   0  0  0  0  0  0  0  0  0  0  0  0
  151.3029  139.9259  156.0015 C   0  0  0  0  0  0  0  0  0  0  0  0
  150.5997  140.0181  154.8607 N   0  5  0  0  0  0  0  0  0  0  0  0
  149.2479  139.9895  154.8965 C   0  0  0  0  0  0  0  0  0  0  0  0
  148.5403  140.1442  155.8948 O   0  0  0  0  0  0  0  0  0  0  0  0
  148.6799  139.7694  153.7020 N   0  0  0  0  0  0  0  0  0  0  0  0
  147.2448  139.6848  153.4391 C   0  0  1  0  0  0  0  0  0  0  0  0
  146.9167  140.0013  151.9657 C   0  0  0  0  0  0  0  0  0  0  0  0
  146.4522  138.6846  151.3418 C   0  0  0  0  0  0  0  0  0  0  0  0
  145.8194  137.9232  152.5050 C   0  0  1  0  0  0  0  0  0  0  0  0
  145.6896  136.1359  152.2076 S   0  0  0  0  0  0  0  0  0  0  0  0
  144.8202  136.1354  150.6175 C   0  0  0  0  0  0  0  0  0  0  0  0
  146.7230  138.2583  153.6947 C   0  0  0  0  0  0  0  0  0  0  0  0
  151.1723  141.0693  157.3377 S   0  0  0  0  0  0  0  0  0  0  0  0
  152.7861  142.0077  161.0085 H   0  0  0  0  0  0  0  0  0  0  0  0
  151.2970  141.7945  160.0911 H   0  0  0  0  0  0  0  0  0  0  0  0
  152.6850  142.5881  159.3476 H   0  0  0  0  0  0  0  0  0  0  0  0
  153.9824  140.4281  159.4818 H   0  0  0  0  0  0  0  0  0  0  0  0
  152.6051  139.6416  160.2185 H   0  0  0  0  0  0  0  0  0  0  0  0
  149.2963  139.6510  152.9115 H   0  0  0  0  0  0  0  0  0  0  0  0
  146.7118  140.3830  154.0875 H   0  0  0  0  0  0  0  0  0  0  0  0
  146.1023  140.7257  151.9283 H   0  0  0  0  0  0  0  0  0  0  0  0
  147.7538  140.4353  151.4172 H   0  0  0  0  0  0  0  0  0  0  0  0
  145.7628  138.8404  150.5118 H   0  0  0  0  0  0  0  0  0  0  0  0
  147.3160  138.1369  150.9619 H   0  0  0  0  0  0  0  0  0  0  0  0
  144.8227  138.3230  152.6978 H   0  0  0  0  0  0  0  0  0  0  0  0
  144.6229  135.1117  150.2995 H   0  0  0  0  0  0  0  0  0  0  0  0
  145.4205  136.6240  149.8503 H   0  0  0  0  0  0  0  0  0  0  0  0
  143.8685  136.6595  150.7036 H   0  0  0  0  0  0  0  0  0  0  0  0
  147.5546  137.5521  153.7287 H   0  0  0  0  0  0  0  0  0  0  0  0
  146.1947  138.1776  154.6453 H   0  0  0  0  0  0  0  0  0  0  0  0
  1  2  1  0  0  0  0
  1 19  1  0  0  0  0
  1 20  1  0  0  0  0
  1 21  1  0  0  0  0
  2  3  1  0  0  0  0
  2 22  1  0  0  0  0
  2 23  1  0  0  0  0
  3 18  1  0  0  0  0
  3  4  2  0  0  0  0
  4  5  1  0  0  0  0
  5  6  2  0  0  0  0
  6  7  1  0  0  0  0
  6 18  1  0  0  0  0
  7  8  1  0  0  0  0
  8  9  2  0  0  0  0
  8 10  1  0  0  0  0
 10 11  1  0  0  0  0
 10 24  1  0  0  0  0
 11 17  1  0  0  0  0
 11 12  1  0  0  0  0
 11 25  1  0  0  0  0
 12 13  1  0  0  0  0
 12 26  1  0  0  0  0
 12 27  1  0  0  0  0
 13 14  1  0  0  0  0
 13 28  1  0  0  0  0
 13 29  1  0  0  0  0
 14 15  1  0  0  0  0
 14 17  1  0  0  0  0
 14 30  1  0  0  0  0
 15 16  1  0  0  0  0
 16 31  1  0  0  0  0
 16 32  1  0  0  0  0
 16 33  1  0  0  0  0
 17 34  1  0  0  0  0
 17 35  1  0  0  0  0
M  CHG  1   7  -1
M  END
> <s_m_source_file>
AV-unprocessed.smi

> <i_m_source_file_index>
672

> <i_lp_mmshare_version>
43012

> <i_f3d_flags>
0

> <s_epik_input>
W0NIM11bQ0gyXWMxbm5jKHMxKVtOSF1DKD1PKVtOSF1bQ0BASF0yW0NIMl1bQ0gyXVtDQEhdKFtDSDJdMilTW0NIM10=

> <s_epik_cmdline>
J2VwaWtfcHl0aG9uJywgJy1waCcsICc3LjAnLCAnLXRuJywgJzgnLCAnLW1hJywgJzIwMCcsICctbWV0YWxfYmluZGluZycsICctaW1hZScsICc8aW5maWxlLm1hZT4nLCAnLW9tYWUnLCAnPG91dGZpbGUubWFlPic=

> <r_lp_tautomer_probability>
1

> <r_epik_Ionization_Penalty>
4.49964

> <r_epik_Ionization_Penalty_Charging>
4.32991

> <r_epik_Ionization_Penalty_Neutral>
0.169727

> <r_epik_State_Penalty>
4.32952

> <r_epik_Charging_Adjusted_Penalty>
8.65943

> <i_epik_Tot_Q>
-1

> <i_epik_Tot_abs_Q>
1

> <r_epik_Metal_State_Penalty>
0.740482

> <b_epik_Metal_Only>
1

> <s_lp_Force_Field>
OPLS_2005

> <r_lp_Energy>
10.5366

> <b_lp_Chiralities_Consistent>
1

> <s_lp_Variant>
AV-unprocessed.smi:672-6

> <Gold.Version>
5.8.1

> <Gold.Id.Protein>
6NUR|6NUR_protein|mol2

> <Gold.PLP.Fitness>
40.3027

> <Gold.PLP.PLP>
-33.5712

> <Gold.PLP.part.hbond>
-3.4048

> <Gold.PLP.part.metal>
0.0000

> <Gold.PLP.part.buried>
0.9439

> <Gold.PLP.part.nonpolar>
-31.3943

> <Gold.PLP.part.repulsive>
0.2545

> <Gold.PLP.ligand.clash>
0.0000

> <Gold.PLP.ligand.torsion>
1.0370

> <Gold.PLP.Chemscore.Hbond>
2.9120

> <Gold.PLP.Chemscore.CHOScore>
0.0000

> <Gold.PLP.Chemscore.Metal>
0.0000

> <Gold.Chemscore.Hbonds>
donor molecule, donor type, donor heavy atom, donor atom, acceptor molecule, acceptor atom, score
      L1  H    10    24       P1  7957  0.93
      P1  H  7989  7998       L1     7  1.00
      P1  H  7997  8009       L1     4  0.49

> <Gold.PLP.Chemscore.Internal.Correction>
0.0695

> <Gold.Rescore>
     Score         DG    S(hbond)    S(metal)    S(lipo)     H(rot)  DE(clash)    DE(int)     intcor
     14.97     -17.14       1.70        0.00      80.46       1.34       1.07       1.10       ----

> <Gold.Chemscore.Fitness>
14.9683

> <Gold.Chemscore.DG>
-17.1360

> <Gold.Chemscore.ZeroCoef>
-5.4800

> <Gold.Chemscore.Hbond>
1.6991

> <Gold.Chemscore.Metal>
0.0000

> <Gold.Chemscore.Lipo>
80.4604

> <Gold.Chemscore.Internal_Hbond>
0.0000

> <Gold.Chemscore.DEClash>
1.0702

> <Gold.Chemscore.DEInternal>
1.0974

> <Gold.Chemscore.Rot>
1.3410

> <Gold.Chemscore.Internal.Correction>
   9.000000E+99

> <Gold.Chemscore.Hbonds>
donor molecule, donor type, donor heavy atom, donor atom, acceptor molecule, acceptor atom, score
      L1  H    10    24       P1  7957  0.91
      P1  H  7989  7998       L1     7  0.78
      P1  H  7997  8009       L1     4  0.01

> <Gold.Chemscore.Hbond.Weighted>
-5.6750

> <Gold.Chemscore.Metal.Weighted>
-0.0000

> <Gold.Chemscore.Lipo.Weighted>
-9.4139

> <Gold.Chemscore.Internal_Hbond.Weighted>
0.0000

> <Gold.Chemscore.DEClash.Weighted>
1.0702

> <Gold.Chemscore.DEInternal.Weighted>
1.0974

> <Gold.Chemscore.Rot.Weighted>
3.4329

> <Gold.Chemscore.Internal.Correction.Weighted>
   9.000000E+99

> <Gold.Protein.RotatedTorsions>
[ 6907 6896 6895 6894 ] final -156.33 input  -60.11 | X-H torsion
[ 7974 7965 7964 7962 ] final   -1.89 input  175.53 | X-H torsion
[ 8008 7997 7996 7995 ] final  160.69 input   59.86 | X-H torsion
[ 10167 10162 10161 10158 ] final  151.42 input  -65.29 | X-H torsion
[ 10718 10713 10712 10709 ] final  -88.29 input   66.30 | X-H torsion
[ 10763 10752 10751 10750 ] final  111.74 input  -60.55 | X-H torsion
[ 11005 11000 10999 10996 ] final   84.12 input  -57.11 | X-H torsion

> <Gold.Protein.ActiveResidues>
 VAL166  LYS551  ARG553  GLY616  TRP617  ASP618  TYR619  PRO620  LYS621  CYS622 
 ASP623  PHE694  ASN695  SER759  ASP760  ASP761  ALA762  ILE779  LEU786  VAL792 
 PHE793  MET794  SER795  GLU796  ALA797  LYS798  CYS799  TRP800  GLU811  SER814 

> <Gold.Protein.RotatedAtoms>
  151.2860  133.4187  159.2629 H   0  0  0  0  0  0  0  0  0  0  0  0  # atno 6907 bound_to 6896
  151.0319  134.9546  159.8126 H   0  0  0  0  0  0  0  0  0  0  0  0  # atno 6908 bound_to 6896
  152.5347  134.2821  159.9064 H   0  0  0  0  0  0  0  0  0  0  0  0  # atno 6909 bound_to 6896
  146.2411  140.1488  142.8334 H   0  0  0  0  0  0  0  0  0  0  0  0  # atno 7974 bound_to 7965
  156.2155  140.1797  156.7599 H   0  0  0  0  0  0  0  0  0  0  0  0  # atno 8008 bound_to 7997
  154.5785  140.0670  156.9098 H   0  0  0  0  0  0  0  0  0  0  0  0  # atno 8009 bound_to 7997
  155.2545  140.3331  155.4281 H   0  0  0  0  0  0  0  0  0  0  0  0  # atno 8010 bound_to 7997
  139.4841  144.5442  151.7512 H   0  0  0  0  0  0  0  0  0  0  0  0  # atno 10167 bound_to 10162
  155.9984  130.4830  150.4997 H   0  0  0  0  0  0  0  0  0  0  0  0  # atno 10718 bound_to 10713
  153.4677  135.3707  155.2374 H   0  0  0  0  0  0  0  0  0  0  0  0  # atno 10763 bound_to 10752
  154.8757  135.3924  154.3849 H   0  0  0  0  0  0  0  0  0  0  0  0  # atno 10764 bound_to 10752
  153.4432  135.7084  153.6220 H   0  0  0  0  0  0  0  0  0  0  0  0  # atno 10765 bound_to 10752
  139.9010  134.8193  156.2401 H   0  0  0  0  0  0  0  0  0  0  0  0  # atno 11005 bound_to 11000
  145.0185  140.8774  143.5181 LP  0  0  0  0  0  0  0  0  0  0  0  0  # atno 17320 bound_to 7965
  145.1533  139.2502  143.5430 LP  0  0  0  0  0  0  0  0  0  0  0  0  # atno 17321 bound_to 7965
  140.4986  144.1202  150.5966 LP  0  0  0  0  0  0  0  0  0  0  0  0  # atno 17342 bound_to 10162
  140.4088  143.2667  151.9858 LP  0  0  0  0  0  0  0  0  0  0  0  0  # atno 17343 bound_to 10162
  157.2983  131.0640  151.2086 LP  0  0  0  0  0  0  0  0  0  0  0  0  # atno 17370 bound_to 10713
  157.3075  130.6873  149.6197 LP  0  0  0  0  0  0  0  0  0  0  0  0  # atno 17371 bound_to 10713
  141.0290  133.6999  156.1397 LP  0  0  0  0  0  0  0  0  0  0  0  0  # atno 17394 bound_to 11000
  140.7124  134.4447  157.5580 LP  0  0  0  0  0  0  0  0  0  0  0  0  # atno 17395 bound_to 11000

$$$$
