AV-unprocessed.smi:1247|AV-procd|sdf|5243|dock8
  -GOLD-   22720 4353D 1   1.00000     0.00000
 Structure written by MMmdl.
 46 47  0  0  0  0  0  0  0  0  1 V2000
  145.8946  128.5567  152.0308 C   0  0  0  0  0  0  0  0  0  0  0  0
  146.1988  130.0225  151.9319 C   0  0  0  0  0  0  0  0  0  0  0  0
  147.0414  130.8030  152.7757 C   0  0  0  0  0  0  0  0  0  0  0  0
  146.9458  132.0518  152.2249 C   0  0  0  0  0  0  0  0  0  0  0  0
  147.5463  133.2073  152.6160 N   0  0  0  0  0  0  0  0  0  0  0  0
  148.0051  133.5450  153.8341 C   0  0  0  0  0  0  0  0  0  0  0  0
  147.9452  132.8390  154.8409 O   0  0  0  0  0  0  0  0  0  0  0  0
  148.5478  134.7711  153.8245 N   0  0  0  0  0  0  0  0  0  0  0  0
  149.1330  135.4357  154.9830 C   0  0  0  0  0  0  0  0  0  0  0  0
  148.6004  136.8732  155.1342 C   0  0  0  0  0  0  0  0  0  0  0  0
  149.6040  137.8656  155.5150 N   0  0  0  0  0  0  0  0  0  0  0  0
  149.1755  139.2346  155.2389 C   0  0  0  0  0  0  0  0  0  0  0  0
  150.2539  140.2659  155.6239 C   0  0  2  0  0  0  0  0  0  0  0  0
  149.8452  141.6962  155.2560 C   0  0  0  0  0  0  0  0  0  0  0  0
  151.4641  139.9561  154.9385 O   0  0  0  0  0  0  0  0  0  0  0  0
  151.9479  138.6449  155.2155 C   0  0  2  0  0  0  0  0  0  0  0  0
  153.2496  138.4361  154.4345 C   0  0  0  0  0  0  0  0  0  0  0  0
  150.8663  137.6192  154.8273 C   0  0  0  0  0  0  0  0  0  0  0  0
  146.1057  131.9941  151.1352 N   0  0  0  0  0  0  0  0  0  0  0  0
  145.6961  133.0507  150.2307 C   0  0  0  0  0  0  0  0  0  0  0  0
  145.6455  130.7367  150.9582 N   0  0  0  0  0  0  0  0  0  0  0  0
  146.4240  128.0998  152.8673 H   0  0  0  0  0  0  0  0  0  0  0  0
  146.1933  128.0316  151.1231 H   0  0  0  0  0  0  0  0  0  0  0  0
  144.8282  128.3864  152.1807 H   0  0  0  0  0  0  0  0  0  0  0  0
  147.6112  130.4796  153.6337 H   0  0  0  0  0  0  0  0  0  0  0  0
  147.6580  133.9001  151.8906 H   0  0  0  0  0  0  0  0  0  0  0  0
  148.5559  135.2834  152.9547 H   0  0  0  0  0  0  0  0  0  0  0  0
  148.8846  134.8363  155.8580 H   0  0  0  0  0  0  0  0  0  0  0  0
  150.2214  135.4376  154.9030 H   0  0  0  0  0  0  0  0  0  0  0  0
  148.1657  137.1704  154.1787 H   0  0  0  0  0  0  0  0  0  0  0  0
  147.7789  136.8859  155.8523 H   0  0  0  0  0  0  0  0  0  0  0  0
  148.9345  139.3384  154.1797 H   0  0  0  0  0  0  0  0  0  0  0  0
  148.2644  139.4632  155.7910 H   0  0  0  0  0  0  0  0  0  0  0  0
  150.4354  140.2191  156.6991 H   0  0  0  0  0  0  0  0  0  0  0  0
  148.9255  141.9849  155.7656 H   0  0  0  0  0  0  0  0  0  0  0  0
  149.6796  141.7958  154.1831 H   0  0  0  0  0  0  0  0  0  0  0  0
  150.6202  142.4079  155.5410 H   0  0  0  0  0  0  0  0  0  0  0  0
  152.1621  138.5645  156.2827 H   0  0  0  0  0  0  0  0  0  0  0  0
  153.6654  137.4460  154.6226 H   0  0  0  0  0  0  0  0  0  0  0  0
  154.0001  139.1722  154.7238 H   0  0  0  0  0  0  0  0  0  0  0  0
  153.0853  138.5319  153.3608 H   0  0  0  0  0  0  0  0  0  0  0  0
  151.2229  136.6154  155.0616 H   0  0  0  0  0  0  0  0  0  0  0  0
  150.7089  137.6494  153.7478 H   0  0  0  0  0  0  0  0  0  0  0  0
  146.5695  133.4463  149.7116 H   0  0  0  0  0  0  0  0  0  0  0  0
  145.2221  133.8537  150.7959 H   0  0  0  0  0  0  0  0  0  0  0  0
  144.9873  132.6720  149.4928 H   0  0  0  0  0  0  0  0  0  0  0  0
  1  2  1  0  0  0  0
  1 22  1  0  0  0  0
  1 23  1  0  0  0  0
  1 24  1  0  0  0  0
  2 21  2  0  0  0  0
  2  3  1  0  0  0  0
  3  4  2  0  0  0  0
  3 25  1  0  0  0  0
  4  5  1  0  0  0  0
  4 19  1  0  0  0  0
  5  6  1  0  0  0  0
  5 26  1  0  0  0  0
  6  7  2  0  0  0  0
  6  8  1  0  0  0  0
  8  9  1  0  0  0  0
  8 27  1  0  0  0  0
  9 10  1  0  0  0  0
  9 28  1  0  0  0  0
  9 29  1  0  0  0  0
 10 11  1  0  0  0  0
 10 30  1  0  0  0  0
 10 31  1  0  0  0  0
 11 18  1  0  0  0  0
 11 12  1  0  0  0  0
 12 13  1  0  0  0  0
 12 32  1  0  0  0  0
 12 33  1  0  0  0  0
 13 14  1  0  0  0  0
 13 15  1  0  0  0  0
 13 34  1  0  0  0  0
 14 35  1  0  0  0  0
 14 36  1  0  0  0  0
 14 37  1  0  0  0  0
 15 16  1  0  0  0  0
 16 17  1  0  0  0  0
 16 18  1  0  0  0  0
 16 38  1  0  0  0  0
 17 39  1  0  0  0  0
 17 40  1  0  0  0  0
 17 41  1  0  0  0  0
 18 42  1  0  0  0  0
 18 43  1  0  0  0  0
 19 20  1  0  0  0  0
 19 21  1  0  0  0  0
 20 44  1  0  0  0  0
 20 45  1  0  0  0  0
 20 46  1  0  0  0  0
M  END
> <s_m_source_file>
AV-unprocessed.smi

> <i_m_source_file_index>
1247

> <i_lp_mmshare_version>
43012

> <i_f3d_flags>
0

> <s_epik_input>
W0NIM11jMVtjSF1jKG4objEpW0NIM10pW05IXUMoPU8pW05IXVtDSDJdW0NIMl1OMltDSDJdW0NAQEhdKFtDSDNdKU9bQ0BASF0oW0NIM10pW0NIMl0y

> <s_epik_cmdline>
J2VwaWtfcHl0aG9uJywgJy1waCcsICc3LjAnLCAnLXRuJywgJzgnLCAnLW1hJywgJzIwMCcsICctbWV0YWxfYmluZGluZycsICctaW1hZScsICc8aW5maWxlLm1hZT4nLCAnLW9tYWUnLCAnPG91dGZpbGUubWFlPic=

> <r_lp_tautomer_probability>
1

> <r_epik_Ionization_Penalty>
0.233972

> <r_epik_Ionization_Penalty_Charging>
0

> <r_epik_Ionization_Penalty_Neutral>
0.233972

> <r_epik_State_Penalty>
0.224627

> <r_epik_Charging_Adjusted_Penalty>
0.224627

> <i_epik_Tot_Q>
0

> <i_epik_Tot_abs_Q>
0

> <r_epik_Metal_State_Penalty>
0.224624

> <b_epik_Metal_Only>
0

> <s_lp_Force_Field>
OPLS_2005

> <r_lp_Energy>
19.816

> <b_lp_Chiralities_Consistent>
1

> <s_lp_Variant>
AV-unprocessed.smi:1247-1

> <Gold.Version>
5.8.1

> <Gold.Id.Protein>
6NUR|6NUR_protein|mol2

> <Gold.PLP.Fitness>
37.8365

> <Gold.PLP.PLP>
-33.1273

> <Gold.PLP.part.hbond>
-1.9253

> <Gold.PLP.part.metal>
0.0000

> <Gold.PLP.part.buried>
-4.0930

> <Gold.PLP.part.nonpolar>
-27.3384

> <Gold.PLP.part.repulsive>
0.2430

> <Gold.PLP.ligand.clash>
0.0000

> <Gold.PLP.ligand.torsion>
0.6518

> <Gold.PLP.Chemscore.Hbond>
2.0000

> <Gold.PLP.Chemscore.CHOScore>
0.0000

> <Gold.PLP.Chemscore.Metal>
0.0000

> <Gold.Chemscore.Hbonds>
donor molecule, donor type, donor heavy atom, donor atom, acceptor molecule, acceptor atom, score
      L1  H     8    27       P1  7948  0.86
      P1  H  7989  7998       L1    15  1.00

> <Gold.PLP.Chemscore.Internal.Correction>
0.0127

> <Gold.Rescore>
     Score         DG    S(hbond)    S(metal)    S(lipo)     H(rot)  DE(clash)    DE(int)     intcor
     16.52     -17.27       1.89        0.00      79.42       1.48       0.01       0.74       ----

> <Gold.Chemscore.Fitness>
16.5210

> <Gold.Chemscore.DG>
-17.2717

> <Gold.Chemscore.ZeroCoef>
-5.4800

> <Gold.Chemscore.Hbond>
1.8855

> <Gold.Chemscore.Metal>
0.0000

> <Gold.Chemscore.Lipo>
79.4249

> <Gold.Chemscore.Internal_Hbond>
0.0000

> <Gold.Chemscore.DEClash>
0.0084

> <Gold.Chemscore.DEInternal>
0.7423

> <Gold.Chemscore.Rot>
1.4838

> <Gold.Chemscore.Internal.Correction>
   9.000000E+99

> <Gold.Chemscore.Hbonds>
donor molecule, donor type, donor heavy atom, donor atom, acceptor molecule, acceptor atom, score
      L1  H     8    27       P1  7948  0.71
      P1  H  7989  7998       L1    15  0.85

> <Gold.Chemscore.Hbond.Weighted>
-6.2975

> <Gold.Chemscore.Metal.Weighted>
-0.0000

> <Gold.Chemscore.Lipo.Weighted>
-9.2927

> <Gold.Chemscore.Internal_Hbond.Weighted>
0.0000

> <Gold.Chemscore.DEClash.Weighted>
0.0084

> <Gold.Chemscore.DEInternal.Weighted>
0.7423

> <Gold.Chemscore.Rot.Weighted>
3.7985

> <Gold.Chemscore.Internal.Correction.Weighted>
   9.000000E+99

> <Gold.Protein.RotatedTorsions>
[ 6907 6896 6895 6894 ] final -158.29 input  -60.11 | X-H torsion
[ 7974 7965 7964 7962 ] final -178.85 input  175.53 | X-H torsion
[ 8008 7997 7996 7995 ] final -117.49 input   59.86 | X-H torsion
[ 10167 10162 10161 10158 ] final   74.29 input  -65.29 | X-H torsion
[ 10718 10713 10712 10709 ] final   19.01 input   66.30 | X-H torsion
[ 10763 10752 10751 10750 ] final -150.34 input  -60.55 | X-H torsion
[ 11005 11000 10999 10996 ] final  -41.49 input  -57.11 | X-H torsion

> <Gold.Protein.ActiveResidues>
 VAL166  LYS551  ARG553  GLY616  TRP617  ASP618  TYR619  PRO620  LYS621  CYS622 
 ASP623  PHE694  ASN695  SER759  ASP760  ASP761  ALA762  ILE779  LEU786  VAL792 
 PHE793  MET794  SER795  GLU796  ALA797  LYS798  CYS799  TRP800  GLU811  SER814 

> <Gold.Protein.RotatedAtoms>
  151.3159  133.4061  159.2650 H   0  0  0  0  0  0  0  0  0  0  0  0  # atno 6907 bound_to 6896
  151.0075  134.9371  159.7999 H   0  0  0  0  0  0  0  0  0  0  0  0  # atno 6908 bound_to 6896
  152.5292  134.3123  159.9170 H   0  0  0  0  0  0  0  0  0  0  0  0  # atno 6909 bound_to 6896
  144.7133  140.0807  143.6425 H   0  0  0  0  0  0  0  0  0  0  0  0  # atno 7974 bound_to 7965
  155.0845  140.0394  157.2649 H   0  0  0  0  0  0  0  0  0  0  0  0  # atno 8008 bound_to 7997
  154.6880  140.2647  155.6816 H   0  0  0  0  0  0  0  0  0  0  0  0  # atno 8009 bound_to 7997
  156.2719  140.2765  156.1449 H   0  0  0  0  0  0  0  0  0  0  0  0  # atno 8010 bound_to 7997
  140.0153  144.5583  150.7625 H   0  0  0  0  0  0  0  0  0  0  0  0  # atno 10167 bound_to 10162
  157.1044  130.6482  149.5881 H   0  0  0  0  0  0  0  0  0  0  0  0  # atno 10718 bound_to 10713
  154.8124  135.3287  154.7268 H   0  0  0  0  0  0  0  0  0  0  0  0  # atno 10763 bound_to 10752
  153.7914  135.6911  153.4875 H   0  0  0  0  0  0  0  0  0  0  0  0  # atno 10764 bound_to 10752
  153.1914  135.4549  155.0100 H   0  0  0  0  0  0  0  0  0  0  0  0  # atno 10765 bound_to 10752
  141.0249  133.6846  156.2464 H   0  0  0  0  0  0  0  0  0  0  0  0  # atno 11005 bound_to 11000
  145.9704  139.2866  143.1102 LP  0  0  0  0  0  0  0  0  0  0  0  0  # atno 17320 bound_to 7965
  145.9122  140.9172  143.0448 LP  0  0  0  0  0  0  0  0  0  0  0  0  # atno 17321 bound_to 7965
  140.7365  143.2753  151.3760 LP  0  0  0  0  0  0  0  0  0  0  0  0  # atno 17342 bound_to 10162
  139.6177  144.0970  152.2361 LP  0  0  0  0  0  0  0  0  0  0  0  0  # atno 17343 bound_to 10162
  155.9865  130.4901  150.7084 LP  0  0  0  0  0  0  0  0  0  0  0  0  # atno 17370 bound_to 10713
  157.4613  131.0883  151.0743 LP  0  0  0  0  0  0  0  0  0  0  0  0  # atno 17371 bound_to 10713
  140.6508  134.5069  157.5577 LP  0  0  0  0  0  0  0  0  0  0  0  0  # atno 17394 bound_to 11000
  139.9170  134.8226  156.1335 LP  0  0  0  0  0  0  0  0  0  0  0  0  # atno 17395 bound_to 11000

$$$$
