AV-unprocessed.smi:349|AV-procd|sdf|2397|dock7
  -GOLD-   2262022323D 1   1.00000     0.00000
 Structure written by MMmdl.
 43 44  0  0  0  0  0  0  0  0  1 V2000
  151.5961  145.5047  158.8178 C   0  0  0  0  0  0  0  0  0  0  0  0
  152.2093  144.5574  159.8612 C   0  0  0  0  0  0  0  0  0  0  0  0
  152.5385  143.1478  159.3221 C   0  0  1  0  0  0  0  0  0  0  0  0
  153.1956  142.2819  160.4106 C   0  0  0  0  0  0  0  0  0  0  0  0
  151.2937  142.4375  158.7698 C   0  0  0  0  0  0  0  0  0  0  0  0
  150.1802  142.9453  158.9049 O   0  0  0  0  0  0  0  0  0  0  0  0
  151.4988  141.2599  158.1586 N   0  0  0  0  0  0  0  0  0  0  0  0
  150.4640  140.4029  157.5862 C   0  0  0  0  0  0  0  0  0  0  0  0
  150.9360  139.6167  156.3620 C   0  0  0  0  0  0  0  0  0  0  0  0
  152.1839  138.9529  156.3978 C   0  0  0  0  0  0  0  0  0  0  0  0
  152.6055  138.2060  155.2840 C   0  0  0  0  0  0  0  0  0  0  0  0
  151.7557  138.1419  154.1666 C   0  0  0  0  0  0  0  0  0  0  0  0
  150.5588  138.7605  154.1156 N   0  0  0  0  0  0  0  0  0  0  0  0
  150.1458  139.4828  155.1864 C   0  0  0  0  0  0  0  0  0  0  0  0
  148.8986  140.1245  155.0793 N   0  0  0  0  0  0  0  0  0  0  0  0
  147.7184  139.2664  155.0635 C   0  0  0  0  0  0  0  0  0  0  0  0
  146.4466  140.1275  155.1434 C   0  0  0  0  0  0  0  0  0  0  0  0
  146.4430  141.0707  154.0750 O   0  0  0  0  0  0  0  0  0  0  0  0
  147.5618  141.9515  154.1325 C   0  0  0  0  0  0  0  0  0  0  0  0
  148.8666  141.1417  154.0360 C   0  0  0  0  0  0  0  0  0  0  0  0
  151.4457  146.4980  159.2410 H   0  0  0  0  0  0  0  0  0  0  0  0
  150.6266  145.1485  158.4688 H   0  0  0  0  0  0  0  0  0  0  0  0
  152.2483  145.6095  157.9504 H   0  0  0  0  0  0  0  0  0  0  0  0
  153.1251  145.0136  160.2389 H   0  0  0  0  0  0  0  0  0  0  0  0
  151.5398  144.4838  160.7195 H   0  0  0  0  0  0  0  0  0  0  0  0
  153.2609  143.2574  158.5112 H   0  0  0  0  0  0  0  0  0  0  0  0
  153.4274  141.2833  160.0379 H   0  0  0  0  0  0  0  0  0  0  0  0
  152.5474  142.1705  161.2807 H   0  0  0  0  0  0  0  0  0  0  0  0
  154.1308  142.7269  160.7515 H   0  0  0  0  0  0  0  0  0  0  0  0
  152.4489  140.9244  158.0941 H   0  0  0  0  0  0  0  0  0  0  0  0
  150.0918  139.6913  158.3246 H   0  0  0  0  0  0  0  0  0  0  0  0
  149.6185  141.0473  157.3536 H   0  0  0  0  0  0  0  0  0  0  0  0
  152.8156  139.0045  157.2716 H   0  0  0  0  0  0  0  0  0  0  0  0
  153.5546  137.6911  155.2888 H   0  0  0  0  0  0  0  0  0  0  0  0
  152.0427  137.5780  153.2915 H   0  0  0  0  0  0  0  0  0  0  0  0
  147.7019  138.6736  154.1478 H   0  0  0  0  0  0  0  0  0  0  0  0
  147.7555  138.5707  155.9026 H   0  0  0  0  0  0  0  0  0  0  0  0
  145.5601  139.4980  155.0654 H   0  0  0  0  0  0  0  0  0  0  0  0
  146.3869  140.6463  156.1015 H   0  0  0  0  0  0  0  0  0  0  0  0
  147.4974  142.6610  153.3076 H   0  0  0  0  0  0  0  0  0  0  0  0
  147.5326  142.5322  155.0561 H   0  0  0  0  0  0  0  0  0  0  0  0
  149.7264  141.8068  154.1223 H   0  0  0  0  0  0  0  0  0  0  0  0
  148.9343  140.6575  153.0608 H   0  0  0  0  0  0  0  0  0  0  0  0
  1  2  1  0  0  0  0
  1 21  1  0  0  0  0
  1 22  1  0  0  0  0
  1 23  1  0  0  0  0
  2  3  1  0  0  0  0
  2 24  1  0  0  0  0
  2 25  1  0  0  0  0
  3  4  1  0  0  0  0
  3  5  1  0  0  0  0
  3 26  1  0  0  0  0
  4 27  1  0  0  0  0
  4 28  1  0  0  0  0
  4 29  1  0  0  0  0
  5  6  2  0  0  0  0
  5  7  1  0  0  0  0
  7  8  1  0  0  0  0
  7 30  1  0  0  0  0
  8  9  1  0  0  0  0
  8 31  1  0  0  0  0
  8 32  1  0  0  0  0
  9 14  1  0  0  0  0
  9 10  2  0  0  0  0
 10 11  1  0  0  0  0
 10 33  1  0  0  0  0
 11 12  2  0  0  0  0
 11 34  1  0  0  0  0
 12 13  1  0  0  0  0
 12 35  1  0  0  0  0
 13 14  2  0  0  0  0
 14 15  1  0  0  0  0
 15 20  1  0  0  0  0
 15 16  1  0  0  0  0
 16 17  1  0  0  0  0
 16 36  1  0  0  0  0
 16 37  1  0  0  0  0
 17 18  1  0  0  0  0
 17 38  1  0  0  0  0
 17 39  1  0  0  0  0
 18 19  1  0  0  0  0
 19 20  1  0  0  0  0
 19 40  1  0  0  0  0
 19 41  1  0  0  0  0
 20 42  1  0  0  0  0
 20 43  1  0  0  0  0
M  END
> <s_m_source_file>
AV-unprocessed.smi

> <i_m_source_file_index>
349

> <i_lp_mmshare_version>
43012

> <i_f3d_flags>
0

> <s_epik_input>
W0NIM11bQ0gyXVtDQEhdKFtDSDNdKUMoPU8pW05IXVtDSDJdYzFbY0hdW2NIXVtjSF1uYzFOMltDSDJdW0NIMl1PW0NIMl1bQ0gyXTI=

> <s_epik_cmdline>
J2VwaWtfcHl0aG9uJywgJy1waCcsICc3LjAnLCAnLXRuJywgJzgnLCAnLW1hJywgJzIwMCcsICctbWV0YWxfYmluZGluZycsICctaW1hZScsICc8aW5maWxlLm1hZT4nLCAnLW9tYWUnLCAnPG91dGZpbGUubWFlPic=

> <r_lp_tautomer_probability>
1

> <r_epik_Ionization_Penalty>
0.00513869

> <r_epik_Ionization_Penalty_Charging>
0

> <r_epik_Ionization_Penalty_Neutral>
0.00513869

> <r_epik_State_Penalty>
0.00374265

> <r_epik_Charging_Adjusted_Penalty>
0.00374265

> <i_epik_Tot_Q>
0

> <i_epik_Tot_abs_Q>
0

> <r_epik_Metal_State_Penalty>
-0

> <b_epik_Metal_Only>
0

> <s_lp_Force_Field>
OPLS_2005

> <r_lp_Energy>
19.4622

> <b_lp_Chiralities_Consistent>
1

> <s_lp_Variant>
AV-unprocessed.smi:349-2

> <Gold.Version>
5.8.1

> <Gold.Id.Protein>
6NUR|6NUR_protein|mol2

> <Gold.PLP.Fitness>
40.2287

> <Gold.PLP.PLP>
-38.0202

> <Gold.PLP.part.hbond>
-0.7146

> <Gold.PLP.part.metal>
0.0000

> <Gold.PLP.part.buried>
-4.8867

> <Gold.PLP.part.nonpolar>
-33.1545

> <Gold.PLP.part.repulsive>
0.6195

> <Gold.PLP.ligand.clash>
0.0000

> <Gold.PLP.ligand.torsion>
0.5200

> <Gold.PLP.Chemscore.Hbond>
0.0156

> <Gold.PLP.Chemscore.CHOScore>
0.9980

> <Gold.PLP.Chemscore.Metal>
0.0000

> <Gold.Chemscore.Hbonds>
donor molecule, donor type, donor heavy atom, donor atom, acceptor molecule, acceptor atom, score
      L1  C    12    35       P1  7949  0.95

> <Gold.PLP.Chemscore.Internal.Correction>
0.2075

> <Gold.Rescore>
     Score         DG    S(hbond)    S(metal)    S(lipo)     H(rot)  DE(clash)    DE(int)     intcor
     12.56     -13.09       0.00        0.00     100.97       1.64       0.06       0.48       ----

> <Gold.Chemscore.Fitness>
12.5556

> <Gold.Chemscore.DG>
-13.0934

> <Gold.Chemscore.ZeroCoef>
-5.4800

> <Gold.Chemscore.Hbond>
0.0000

> <Gold.Chemscore.Metal>
0.0000

> <Gold.Chemscore.Lipo>
100.9707

> <Gold.Chemscore.Internal_Hbond>
0.0000

> <Gold.Chemscore.DEClash>
0.0615

> <Gold.Chemscore.DEInternal>
0.4763

> <Gold.Chemscore.Rot>
1.6407

> <Gold.Chemscore.Internal.Correction>
   9.000000E+99

> <Gold.Chemscore.Hbond.Weighted>
-0.0000

> <Gold.Chemscore.Metal.Weighted>
-0.0000

> <Gold.Chemscore.Lipo.Weighted>
-11.8136

> <Gold.Chemscore.Internal_Hbond.Weighted>
0.0000

> <Gold.Chemscore.DEClash.Weighted>
0.0615

> <Gold.Chemscore.DEInternal.Weighted>
0.4763

> <Gold.Chemscore.Rot.Weighted>
4.2001

> <Gold.Chemscore.Internal.Correction.Weighted>
   9.000000E+99

> <Gold.Protein.RotatedTorsions>
[ 6907 6896 6895 6894 ] final   45.42 input  -60.11 | X-H torsion
[ 7974 7965 7964 7962 ] final  -67.72 input  175.53 | X-H torsion
[ 8008 7997 7996 7995 ] final   24.98 input   59.86 | X-H torsion
[ 10167 10162 10161 10158 ] final  -55.14 input  -65.29 | X-H torsion
[ 10718 10713 10712 10709 ] final  156.93 input   66.30 | X-H torsion
[ 10763 10752 10751 10750 ] final  -41.56 input  -60.55 | X-H torsion
[ 11005 11000 10999 10996 ] final  110.49 input  -57.11 | X-H torsion

> <Gold.Protein.ActiveResidues>
 VAL166  LYS551  ARG553  GLY616  TRP617  ASP618  TYR619  PRO620  LYS621  CYS622 
 ASP623  PHE694  ASN695  SER759  ASP760  ASP761  ALA762  ILE779  LEU786  VAL792 
 PHE793  MET794  SER795  GLU796  ALA797  LYS798  CYS799  TRP800  GLU811  SER814 

> <Gold.Protein.RotatedAtoms>
  152.2443  134.8197  160.0455 H   0  0  0  0  0  0  0  0  0  0  0  0  # atno 6907 bound_to 6896
  151.8900  133.3509  159.3803 H   0  0  0  0  0  0  0  0  0  0  0  0  # atno 6908 bound_to 6896
  150.7063  134.4860  159.5537 H   0  0  0  0  0  0  0  0  0  0  0  0  # atno 6909 bound_to 6896
  145.7256  140.9019  143.0607 H   0  0  0  0  0  0  0  0  0  0  0  0  # atno 7974 bound_to 7965
  155.0046  140.3129  155.4853 H   0  0  0  0  0  0  0  0  0  0  0  0  # atno 8008 bound_to 7997
  156.2919  140.2225  156.5099 H   0  0  0  0  0  0  0  0  0  0  0  0  # atno 8009 bound_to 7997
  154.7588  140.0460  157.0944 H   0  0  0  0  0  0  0  0  0  0  0  0  # atno 8010 bound_to 7997
  140.6391  143.2498  151.5037 H   0  0  0  0  0  0  0  0  0  0  0  0  # atno 10167 bound_to 10162
  157.1983  131.0670  151.2040 H   0  0  0  0  0  0  0  0  0  0  0  0  # atno 10718 bound_to 10713
  153.9645  135.6736  153.4745 H   0  0  0  0  0  0  0  0  0  0  0  0  # atno 10763 bound_to 10752
  153.0822  135.4917  154.8523 H   0  0  0  0  0  0  0  0  0  0  0  0  # atno 10764 bound_to 10752
  154.7254  135.3126  154.8939 H   0  0  0  0  0  0  0  0  0  0  0  0  # atno 10765 bound_to 10752
  139.8883  134.9485  156.6287 H   0  0  0  0  0  0  0  0  0  0  0  0  # atno 11005 bound_to 11000
  144.6906  139.9261  143.7470 LP  0  0  0  0  0  0  0  0  0  0  0  0  # atno 17320 bound_to 7965
  146.0585  139.3580  143.0595 LP  0  0  0  0  0  0  0  0  0  0  0  0  # atno 17321 bound_to 7965
  139.5601  144.2178  152.1677 LP  0  0  0  0  0  0  0  0  0  0  0  0  # atno 17342 bound_to 10162
  140.1443  144.5173  150.6725 LP  0  0  0  0  0  0  0  0  0  0  0  0  # atno 17343 bound_to 10162
  157.3792  130.7222  149.6618 LP  0  0  0  0  0  0  0  0  0  0  0  0  # atno 17370 bound_to 10713
  155.9703  130.4177  150.4292 LP  0  0  0  0  0  0  0  0  0  0  0  0  # atno 17371 bound_to 10713
  140.7683  133.8760  155.8472 LP  0  0  0  0  0  0  0  0  0  0  0  0  # atno 17394 bound_to 11000
  140.9864  134.1337  157.4448 LP  0  0  0  0  0  0  0  0  0  0  0  0  # atno 17395 bound_to 11000

$$$$
