AV-unprocessed.smi:1893|AV-procd|sdf|7672|dock7
  -GOLD-   22720 9413D 1   1.00000     0.00000
 Structure written by MMmdl.
 43 44  0  0  0  0  0  0  0  0  2 V2000
  146.4671  132.0283  152.3651 C   0  0  0  0  0  0  0  0  0  0  0  0
  147.2206  133.2958  151.9065 C   0  0  1  0  0  0  0  0  0  0  0  0
  146.3400  134.2223  151.0413 C   0  0  0  0  0  0  0  0  0  0  0  0
  145.2818  134.9591  151.8758 C   0  0  0  0  0  0  0  0  0  0  0  0
  145.9529  135.7051  153.0356 C   0  0  0  0  0  0  0  0  0  0  0  0
  146.8205  134.7567  153.8786 C   0  0  0  0  0  0  0  0  0  0  0  0
  147.8312  134.0638  153.0329 N   0  3  1  0  0  0  0  0  0  0  0  0
  148.8286  133.2896  153.8150 C   0  0  0  0  0  0  0  0  0  0  0  0
  149.4221  134.1144  154.9733 C   0  0  0  0  0  0  0  0  0  0  0  0
  149.8352  135.4416  154.5340 N   0  0  0  0  0  0  0  0  0  0  0  0
  150.8140  136.1672  155.0983 C   0  0  0  0  0  0  0  0  0  0  0  0
  151.4911  135.7580  156.0421 O   0  0  0  0  0  0  0  0  0  0  0  0
  151.0543  137.5649  154.5075 C   0  0  2  0  0  0  0  0  0  0  0  0
  152.3722  138.1963  155.0006 C   0  0  0  0  0  0  0  0  0  0  0  0
  149.9000  138.4191  154.7607 N   0  0  0  0  0  0  0  0  0  0  0  0
  148.9288  138.8150  153.9346 C   0  0  0  0  0  0  0  0  0  0  0  0
  147.9946  139.5547  154.5152 N   0  0  0  0  0  0  0  0  0  0  0  0
  148.4776  139.5697  155.7929 C   0  0  0  0  0  0  0  0  0  0  0  0
  149.6081  138.8940  155.9974 N   0  0  0  0  0  0  0  0  0  0  0  0
  146.0633  131.4904  151.5071 H   0  0  0  0  0  0  0  0  0  0  0  0
  145.6306  132.2564  153.0246 H   0  0  0  0  0  0  0  0  0  0  0  0
  147.1234  131.3356  152.8916 H   0  0  0  0  0  0  0  0  0  0  0  0
  148.0405  132.9624  151.2687 H   0  0  0  0  0  0  0  0  0  0  0  0
  146.9746  134.9585  150.5457 H   0  0  0  0  0  0  0  0  0  0  0  0
  145.8590  133.6536  150.2448 H   0  0  0  0  0  0  0  0  0  0  0  0
  144.7313  135.6602  151.2477 H   0  0  0  0  0  0  0  0  0  0  0  0
  144.5485  134.2517  152.2639 H   0  0  0  0  0  0  0  0  0  0  0  0
  146.5725  136.5115  152.6407 H   0  0  0  0  0  0  0  0  0  0  0  0
  145.1961  136.1763  153.6637 H   0  0  0  0  0  0  0  0  0  0  0  0
  147.3148  135.3372  154.6566 H   0  0  0  0  0  0  0  0  0  0  0  0
  146.1958  134.0264  154.3935 H   0  0  0  0  0  0  0  0  0  0  0  0
  148.3712  132.3688  154.1805 H   0  0  0  0  0  0  0  0  0  0  0  0
  149.6495  132.9893  153.1617 H   0  0  0  0  0  0  0  0  0  0  0  0
  148.6778  134.2361  155.7608 H   0  0  0  0  0  0  0  0  0  0  0  0
  150.2742  133.6096  155.4293 H   0  0  0  0  0  0  0  0  0  0  0  0
  149.3254  135.8491  153.7631 H   0  0  0  0  0  0  0  0  0  0  0  0
  151.1377  137.4546  153.4250 H   0  0  0  0  0  0  0  0  0  0  0  0
  153.2255  137.5614  154.7605 H   0  0  0  0  0  0  0  0  0  0  0  0
  152.3747  138.3566  156.0795 H   0  0  0  0  0  0  0  0  0  0  0  0
  152.5407  139.1624  154.5240 H   0  0  0  0  0  0  0  0  0  0  0  0
  148.9012  138.5518  152.8873 H   0  0  0  0  0  0  0  0  0  0  0  0
  147.9765  140.0866  156.5980 H   0  0  0  0  0  0  0  0  0  0  0  0
  148.3600  134.7981  152.5844 H   0  0  0  0  0  0  0  0  0  0  0  0
  1  2  1  0  0  0  0
  1 20  1  0  0  0  0
  1 21  1  0  0  0  0
  1 22  1  0  0  0  0
  2  7  1  0  0  0  0
  2  3  1  0  0  0  0
  2 23  1  0  0  0  0
  3  4  1  0  0  0  0
  3 24  1  0  0  0  0
  3 25  1  0  0  0  0
  4  5  1  0  0  0  0
  4 26  1  0  0  0  0
  4 27  1  0  0  0  0
  5  6  1  0  0  0  0
  5 28  1  0  0  0  0
  5 29  1  0  0  0  0
  6  7  1  0  0  0  0
  6 30  1  0  0  0  0
  6 31  1  0  0  0  0
  7  8  1  0  0  0  0
  7 43  1  0  0  0  0
  8  9  1  0  0  0  0
  8 32  1  0  0  0  0
  8 33  1  0  0  0  0
  9 10  1  0  0  0  0
  9 34  1  0  0  0  0
  9 35  1  0  0  0  0
 10 11  1  0  0  0  0
 10 36  1  0  0  0  0
 11 12  2  0  0  0  0
 11 13  1  0  0  0  0
 13 14  1  0  0  0  0
 13 15  1  0  0  0  0
 13 37  1  0  0  0  0
 14 38  1  0  0  0  0
 14 39  1  0  0  0  0
 14 40  1  0  0  0  0
 15 19  1  0  0  0  0
 15 16  1  0  0  0  0
 16 17  2  0  0  0  0
 16 41  1  0  0  0  0
 17 18  1  0  0  0  0
 18 19  2  0  0  0  0
 18 42  1  0  0  0  0
M  CHG  1   7   1
M  END
> <s_m_source_file>
AV-unprocessed.smi

> <i_m_source_file_index>
1893

> <i_lp_mmshare_version>
43012

> <i_f3d_flags>
0

> <s_epik_input>
W0NIM11bQ0BASF0xW0NIMl1bQ0gyXVtDSDJdW0NIMl1OMVtDSDJdW0NIMl1bTkhdQyg9TylbQ0BIXShbQ0gzXSluMltjSF1uW2NIXW4y

> <s_epik_cmdline>
J2VwaWtfcHl0aG9uJywgJy1waCcsICc3LjAnLCAnLXRuJywgJzgnLCAnLW1hJywgJzIwMCcsICctbWV0YWxfYmluZGluZycsICctaW1hZScsICc8aW5maWxlLm1hZT4nLCAnLW9tYWUnLCAnPG91dGZpbGUubWFlPic=

> <r_lp_tautomer_probability>
1

> <r_epik_Ionization_Penalty>
0.00266409

> <r_epik_Ionization_Penalty_Charging>
0.00265606

> <r_epik_Ionization_Penalty_Neutral>
8.02794e-06

> <r_epik_State_Penalty>
0.00184955

> <r_epik_Charging_Adjusted_Penalty>
0.00450561

> <i_epik_Tot_Q>
1

> <i_epik_Tot_abs_Q>
1

> <r_epik_Metal_State_Penalty>
-0

> <b_epik_Metal_Only>
0

> <s_lp_Force_Field>
OPLS_2005

> <r_lp_Energy>
25.286

> <b_lp_Chiralities_Consistent>
1

> <s_lp_Variant>
AV-unprocessed.smi:1893-2

> <Gold.Version>
5.8.1

> <Gold.Id.Protein>
6NUR|6NUR_protein|mol2

> <Gold.PLP.Fitness>
45.2315

> <Gold.PLP.PLP>
-29.1090

> <Gold.PLP.part.hbond>
-3.2202

> <Gold.PLP.part.metal>
0.0000

> <Gold.PLP.part.buried>
-1.7651

> <Gold.PLP.part.nonpolar>
-24.7597

> <Gold.PLP.part.repulsive>
0.2036

> <Gold.PLP.ligand.clash>
0.0000

> <Gold.PLP.ligand.torsion>
0.6607

> <Gold.PLP.Chemscore.Hbond>
4.0000

> <Gold.PLP.Chemscore.CHOScore>
1.7607

> <Gold.PLP.Chemscore.Metal>
0.0000

> <Gold.Chemscore.Hbonds>
donor molecule, donor type, donor heavy atom, donor atom, acceptor molecule, acceptor atom, score
      L1  H     7    43       P1  7948  2.00
      L1  H    10    36       P1  7948  1.00
      P1  H 10752 10764       L1    12  0.90
      L1  C    16    41       P1  7948  0.98
      L1  C    16    41       P1  7957  0.88

> <Gold.PLP.Chemscore.Internal.Correction>
0.1616

> <Gold.Rescore>
     Score         DG    S(hbond)    S(metal)    S(lipo)     H(rot)  DE(clash)    DE(int)     intcor
     13.17     -13.94       2.59        0.00      53.97       2.54       0.07       0.70       ----

> <Gold.Chemscore.Fitness>
13.1662

> <Gold.Chemscore.DG>
-13.9354

> <Gold.Chemscore.ZeroCoef>
-5.4800

> <Gold.Chemscore.Hbond>
2.5862

> <Gold.Chemscore.Metal>
0.0000

> <Gold.Chemscore.Lipo>
53.9674

> <Gold.Chemscore.Internal_Hbond>
0.0000

> <Gold.Chemscore.DEClash>
0.0737

> <Gold.Chemscore.DEInternal>
0.6954

> <Gold.Chemscore.Rot>
2.5377

> <Gold.Chemscore.Internal.Correction>
   9.000000E+99

> <Gold.Chemscore.Hbonds>
donor molecule, donor type, donor heavy atom, donor atom, acceptor molecule, acceptor atom, score
      L1  H     7    43       P1  7948  0.40
      L1  H    10    36       P1  7948  0.63
      P1  H 10752 10764       L1    12  0.18

> <Gold.Chemscore.Hbond.Weighted>
-8.6378

> <Gold.Chemscore.Metal.Weighted>
-0.0000

> <Gold.Chemscore.Lipo.Weighted>
-6.3142

> <Gold.Chemscore.Internal_Hbond.Weighted>
0.0000

> <Gold.Chemscore.DEClash.Weighted>
0.0737

> <Gold.Chemscore.DEInternal.Weighted>
0.6954

> <Gold.Chemscore.Rot.Weighted>
6.4966

> <Gold.Chemscore.Internal.Correction.Weighted>
   9.000000E+99

> <Gold.Protein.RotatedTorsions>
[ 6907 6896 6895 6894 ] final  -13.85 input  -60.11 | X-H torsion
[ 7974 7965 7964 7962 ] final   90.05 input  175.53 | X-H torsion
[ 8008 7997 7996 7995 ] final  -47.57 input   59.86 | X-H torsion
[ 10167 10162 10161 10158 ] final  163.78 input  -65.29 | X-H torsion
[ 10718 10713 10712 10709 ] final   -2.13 input   66.30 | X-H torsion
[ 10763 10752 10751 10750 ] final  -27.63 input  -60.55 | X-H torsion
[ 11005 11000 10999 10996 ] final -128.06 input  -57.11 | X-H torsion

> <Gold.Protein.ActiveResidues>
 VAL166  LYS551  ARG553  GLY616  TRP617  ASP618  TYR619  PRO620  LYS621  CYS622 
 ASP623  PHE694  ASN695  SER759  ASP760  ASP761  ALA762  ILE779  LEU786  VAL792 
 PHE793  MET794  SER795  GLU796  ALA797  LYS798  CYS799  TRP800  GLU811  SER814 

> <Gold.Protein.RotatedAtoms>
  151.3486  135.0879  159.9394 H   0  0  0  0  0  0  0  0  0  0  0  0  # atno 6907 bound_to 6896
  152.5193  133.9375  159.7621 H   0  0  0  0  0  0  0  0  0  0  0  0  # atno 6908 bound_to 6896
  150.9746  133.6254  159.2762 H   0  0  0  0  0  0  0  0  0  0  0  0  # atno 6909 bound_to 6896
  145.5242  139.2280  143.2655 H   0  0  0  0  0  0  0  0  0  0  0  0  # atno 7974 bound_to 7965
  154.4018  140.1343  156.4197 H   0  0  0  0  0  0  0  0  0  0  0  0  # atno 8008 bound_to 7997
  155.7654  140.3485  155.5199 H   0  0  0  0  0  0  0  0  0  0  0  0  # atno 8009 bound_to 7997
  155.8818  140.0988  157.1470 H   0  0  0  0  0  0  0  0  0  0  0  0  # atno 8010 bound_to 7997
  139.4879  144.4302  151.9080 H   0  0  0  0  0  0  0  0  0  0  0  0  # atno 10167 bound_to 10162
  156.7953  130.5375  149.5729 H   0  0  0  0  0  0  0  0  0  0  0  0  # atno 10718 bound_to 10713
  153.7352  135.6936  153.4980 H   0  0  0  0  0  0  0  0  0  0  0  0  # atno 10763 bound_to 10752
  153.2108  135.4403  155.0376 H   0  0  0  0  0  0  0  0  0  0  0  0  # atno 10764 bound_to 10752
  154.8239  135.3436  154.6880 H   0  0  0  0  0  0  0  0  0  0  0  0  # atno 10765 bound_to 10752
  140.9548  134.1017  157.4027 H   0  0  0  0  0  0  0  0  0  0  0  0  # atno 11005 bound_to 11000
  146.2086  140.6055  142.9069 LP  0  0  0  0  0  0  0  0  0  0  0  0  # atno 17320 bound_to 7965
  144.7660  140.5531  143.6703 LP  0  0  0  0  0  0  0  0  0  0  0  0  # atno 17321 bound_to 7965
  140.3749  144.2809  150.5915 LP  0  0  0  0  0  0  0  0  0  0  0  0  # atno 17342 bound_to 10162
  140.5286  143.2248  151.8276 LP  0  0  0  0  0  0  0  0  0  0  0  0  # atno 17343 bound_to 10162
  156.1134  130.6057  151.0082 LP  0  0  0  0  0  0  0  0  0  0  0  0  # atno 17370 bound_to 10713
  157.6580  131.0886  150.7903 LP  0  0  0  0  0  0  0  0  0  0  0  0  # atno 17371 bound_to 10713
  139.8858  135.0076  156.6462 LP  0  0  0  0  0  0  0  0  0  0  0  0  # atno 17394 bound_to 11000
  140.7552  133.8864  155.8376 LP  0  0  0  0  0  0  0  0  0  0  0  0  # atno 17395 bound_to 11000

$$$$
