AV-unprocessed.smi:2253|AV-procd|sdf|9117|dock4
  -GOLD-   2272012323D 1   1.00000     0.00000
 Structure written by MMmdl.
 52 54  0  0  0  0  0  0  0  0  3 V2000
  147.1014  134.2754  153.4823 C   0  0  0  0  0  0  0  0  0  0  0  0
  147.0052  135.7509  153.5158 N   0  3  2  0  0  0  0  0  0  0  0  0
  147.0144  136.2877  154.8957 C   0  0  0  0  0  0  0  0  0  0  0  0
  147.0410  137.8259  154.8944 C   0  0  0  0  0  0  0  0  0  0  0  0
  145.8586  138.4416  154.1023 C   0  0  1  0  0  0  0  0  0  0  0  0
  145.9259  139.9416  154.0194 N   0  3  2  0  0  0  0  0  0  0  0  0
  147.0874  140.5043  153.2714 C   0  0  0  0  0  0  0  0  0  0  0  0
  148.4036  140.3431  154.0551 C   0  0  0  0  0  0  0  0  0  0  0  0
  148.3063  141.0326  155.4269 C   0  0  2  0  0  0  0  0  0  0  0  0
  149.5281  140.7987  156.1918 N   0  0  0  0  0  0  0  0  0  0  0  0
  149.8206  141.3735  157.3680 C   0  0  0  0  0  0  0  0  0  0  0  0
  149.0576  142.1467  157.9457 O   0  0  0  0  0  0  0  0  0  0  0  0
  151.0321  140.9889  157.8066 N   0  0  0  0  0  0  0  0  0  0  0  0
  151.7403  141.3701  158.9818 C   0  0  0  0  0  0  0  0  0  0  0  0
  151.7450  142.6725  159.5403 C   0  0  0  0  0  0  0  0  0  0  0  0
  152.4990  142.9041  160.7085 C   0  0  0  0  0  0  0  0  0  0  0  0
  153.2225  141.9495  161.3302 N   0  0  0  0  0  0  0  0  0  0  0  0
  153.2173  140.7105  160.7957 C   0  0  0  0  0  0  0  0  0  0  0  0
  152.4984  140.3726  159.6317 C   0  0  0  0  0  0  0  0  0  0  0  0
  152.5391  139.1073  159.1480 F   0  0  0  0  0  0  0  0  0  0  0  0
  147.0651  140.5268  156.1890 C   0  0  0  0  0  0  0  0  0  0  0  0
  145.7926  140.6496  155.3265 C   0  0  0  0  0  0  0  0  0  0  0  0
  145.8477  137.7965  152.6933 C   0  0  0  0  0  0  0  0  0  0  0  0
  145.8460  136.2594  152.7474 C   0  0  0  0  0  0  0  0  0  0  0  0
  146.2360  133.8143  153.9603 H   0  0  0  0  0  0  0  0  0  0  0  0
  147.9995  133.9359  153.9996 H   0  0  0  0  0  0  0  0  0  0  0  0
  147.1559  133.9163  152.4541 H   0  0  0  0  0  0  0  0  0  0  0  0
  146.1367  135.9274  155.4350 H   0  0  0  0  0  0  0  0  0  0  0  0
  147.8890  135.9102  155.4270 H   0  0  0  0  0  0  0  0  0  0  0  0
  147.0176  138.1432  155.9364 H   0  0  0  0  0  0  0  0  0  0  0  0
  147.9882  138.1728  154.4787 H   0  0  0  0  0  0  0  0  0  0  0  0
  144.9396  138.1604  154.6167 H   0  0  0  0  0  0  0  0  0  0  0  0
  147.1716  140.0936  152.2672 H   0  0  0  0  0  0  0  0  0  0  0  0
  146.9018  141.5677  153.1129 H   0  0  0  0  0  0  0  0  0  0  0  0
  148.6390  139.2850  154.1771 H   0  0  0  0  0  0  0  0  0  0  0  0
  149.2255  140.7751  153.4827 H   0  0  0  0  0  0  0  0  0  0  0  0
  148.1991  142.1058  155.2557 H   0  0  0  0  0  0  0  0  0  0  0  0
  150.2104  140.1743  155.7865 H   0  0  0  0  0  0  0  0  0  0  0  0
  151.5245  140.3362  157.2145 H   0  0  0  0  0  0  0  0  0  0  0  0
  151.1993  143.4963  159.1099 H   0  0  0  0  0  0  0  0  0  0  0  0
  152.5218  143.8869  161.1558 H   0  0  0  0  0  0  0  0  0  0  0  0
  153.8054  139.9656  161.3111 H   0  0  0  0  0  0  0  0  0  0  0  0
  147.2097  139.4920  156.5004 H   0  0  0  0  0  0  0  0  0  0  0  0
  146.9337  141.1003  157.1072 H   0  0  0  0  0  0  0  0  0  0  0  0
  145.6102  141.7052  155.1197 H   0  0  0  0  0  0  0  0  0  0  0  0
  144.9197  140.3227  155.8865 H   0  0  0  0  0  0  0  0  0  0  0  0
  144.9682  138.0968  152.1268 H   0  0  0  0  0  0  0  0  0  0  0  0
  146.7140  138.1382  152.1245 H   0  0  0  0  0  0  0  0  0  0  0  0
  145.8792  135.8608  151.7325 H   0  0  0  0  0  0  0  0  0  0  0  0
  144.9199  135.8995  153.1988 H   0  0  0  0  0  0  0  0  0  0  0  0
  145.1133  140.2072  153.4810 H   0  0  0  0  0  0  0  0  0  0  0  0
  147.8359  136.1004  153.0592 H   0  0  0  0  0  0  0  0  0  0  0  0
  1  2  1  0  0  0  0
  1 25  1  0  0  0  0
  1 26  1  0  0  0  0
  1 27  1  0  0  0  0
  2 24  1  0  0  0  0
  2  3  1  0  0  0  0
  2 52  1  0  0  0  0
  3  4  1  0  0  0  0
  3 28  1  0  0  0  0
  3 29  1  0  0  0  0
  4  5  1  0  0  0  0
  4 30  1  0  0  0  0
  4 31  1  0  0  0  0
  5  6  1  0  0  0  0
  5 23  1  0  0  0  0
  5 32  1  0  0  0  0
  6 22  1  0  0  0  0
  6  7  1  0  0  0  0
  6 51  1  0  0  0  0
  7  8  1  0  0  0  0
  7 33  1  0  0  0  0
  7 34  1  0  0  0  0
  8  9  1  0  0  0  0
  8 35  1  0  0  0  0
  8 36  1  0  0  0  0
  9 10  1  0  0  0  0
  9 21  1  0  0  0  0
  9 37  1  0  0  0  0
 10 11  1  0  0  0  0
 10 38  1  0  0  0  0
 11 12  2  0  0  0  0
 11 13  1  0  0  0  0
 13 14  1  0  0  0  0
 13 39  1  0  0  0  0
 14 19  1  0  0  0  0
 14 15  2  0  0  0  0
 15 16  1  0  0  0  0
 15 40  1  0  0  0  0
 16 17  2  0  0  0  0
 16 41  1  0  0  0  0
 17 18  1  0  0  0  0
 18 19  2  0  0  0  0
 18 42  1  0  0  0  0
 19 20  1  0  0  0  0
 21 22  1  0  0  0  0
 21 43  1  0  0  0  0
 21 44  1  0  0  0  0
 22 45  1  0  0  0  0
 22 46  1  0  0  0  0
 23 24  1  0  0  0  0
 23 47  1  0  0  0  0
 23 48  1  0  0  0  0
 24 49  1  0  0  0  0
 24 50  1  0  0  0  0
M  CHG  1   2   1
M  CHG  1   6   1
M  END
> <s_m_source_file>
AV-unprocessed.smi

> <i_m_source_file_index>
2253

> <i_lp_mmshare_version>
43012

> <i_f3d_flags>
0

> <s_epik_input>
W0NIM11OMVtDSDJdW0NIMl1bQ0hdKFtDSDJdW0NIMl0xKU4yW0NIMl1bQ0gyXVtDSF0oW0NIMl1bQ0gyXTIpW05IXUMoPU8pW05IXWMzW2NIXVtjSF1uW2NIXWMzRg==

> <s_epik_cmdline>
J2VwaWtfcHl0aG9uJywgJy1waCcsICc3LjAnLCAnLXRuJywgJzgnLCAnLW1hJywgJzIwMCcsICctbWV0YWxfYmluZGluZycsICctaW1hZScsICc8aW5maWxlLm1hZT4nLCAnLW9tYWUnLCAnPG91dGZpbGUubWFlPic=

> <r_epik_Ionization_Penalty>
0.183544

> <r_epik_Ionization_Penalty_Charging>
0.180787

> <r_epik_Ionization_Penalty_Neutral>
0.00275649

> <r_epik_State_Penalty>
0.153592

> <r_epik_Charging_Adjusted_Penalty>
0.334379

> <i_epik_Tot_Q>
2

> <i_epik_Tot_abs_Q>
2

> <r_epik_Metal_State_Penalty>
0.153693

> <b_epik_Metal_Only>
0

> <s_lp_Force_Field>
OPLS_2005

> <r_lp_Energy>
48.1083

> <b_lp_Chiralities_Consistent>
1

> <s_lp_Variant>
AV-unprocessed.smi:2253-3

> <Gold.Version>
5.8.1

> <Gold.Id.Protein>
6NUR|6NUR_protein|mol2

> <Gold.PLP.Fitness>
42.9919

> <Gold.PLP.PLP>
-32.3489

> <Gold.PLP.part.hbond>
-2.0000

> <Gold.PLP.part.metal>
0.0000

> <Gold.PLP.part.buried>
-3.6490

> <Gold.PLP.part.nonpolar>
-27.1862

> <Gold.PLP.part.repulsive>
0.2888

> <Gold.PLP.ligand.clash>
0.7286

> <Gold.PLP.ligand.torsion>
0.3382

> <Gold.PLP.Chemscore.Hbond>
4.0000

> <Gold.PLP.Chemscore.CHOScore>
0.0000

> <Gold.PLP.Chemscore.Metal>
0.0000

> <Gold.Chemscore.Hbonds>
donor molecule, donor type, donor heavy atom, donor atom, acceptor molecule, acceptor atom, score
      L1  H     2    52       P1  7948  2.00
      L1  H     6    51       P1 10175  2.00

> <Gold.PLP.Chemscore.Internal.Correction>
0.0479

> <Gold.Rescore>
     Score         DG    S(hbond)    S(metal)    S(lipo)     H(rot)  DE(clash)    DE(int)     intcor
     17.81     -19.63       1.98        0.00      91.81       1.26       0.16       1.66       ----

> <Gold.Chemscore.Fitness>
17.8101

> <Gold.Chemscore.DG>
-19.6285

> <Gold.Chemscore.ZeroCoef>
-5.4800

> <Gold.Chemscore.Hbond>
1.9825

> <Gold.Chemscore.Metal>
0.0000

> <Gold.Chemscore.Lipo>
91.8112

> <Gold.Chemscore.Internal_Hbond>
0.0000

> <Gold.Chemscore.DEClash>
0.1566

> <Gold.Chemscore.DEInternal>
1.6618

> <Gold.Chemscore.Rot>
1.2559

> <Gold.Chemscore.Internal.Correction>
   9.000000E+99

> <Gold.Chemscore.Hbonds>
donor molecule, donor type, donor heavy atom, donor atom, acceptor molecule, acceptor atom, score
      L1  H     2    52       P1  7948  0.98
      L1  H     6    51       P1 10175  1.00

> <Gold.Chemscore.Hbond.Weighted>
-6.6217

> <Gold.Chemscore.Metal.Weighted>
-0.0000

> <Gold.Chemscore.Lipo.Weighted>
-10.7419

> <Gold.Chemscore.Internal_Hbond.Weighted>
0.0000

> <Gold.Chemscore.DEClash.Weighted>
0.1566

> <Gold.Chemscore.DEInternal.Weighted>
1.6618

> <Gold.Chemscore.Rot.Weighted>
3.2151

> <Gold.Chemscore.Internal.Correction.Weighted>
   9.000000E+99

> <Gold.Protein.RotatedTorsions>
[ 6907 6896 6895 6894 ] final  -25.27 input  -60.11 | X-H torsion
[ 7974 7965 7964 7962 ] final  -92.93 input  175.53 | X-H torsion
[ 8008 7997 7996 7995 ] final   22.26 input   59.86 | X-H torsion
[ 10167 10162 10161 10158 ] final  107.50 input  -65.29 | X-H torsion
[ 10718 10713 10712 10709 ] final   -1.81 input   66.30 | X-H torsion
[ 10763 10752 10751 10750 ] final -160.43 input  -60.55 | X-H torsion
[ 11005 11000 10999 10996 ] final   60.01 input  -57.11 | X-H torsion

> <Gold.Protein.ActiveResidues>
 VAL166  LYS551  ARG553  GLY616  TRP617  ASP618  TYR619  PRO620  LYS621  CYS622 
 ASP623  PHE694  ASN695  SER759  ASP760  ASP761  ALA762  ILE779  LEU786  VAL792 
 PHE793  MET794  SER795  GLU796  ALA797  LYS798  CYS799  TRP800  GLU811  SER814 

> <Gold.Protein.RotatedAtoms>
  151.1776  135.0346  159.8778 H   0  0  0  0  0  0  0  0  0  0  0  0  # atno 6907 bound_to 6896
  152.5446  134.1099  159.8364 H   0  0  0  0  0  0  0  0  0  0  0  0  # atno 6908 bound_to 6896
  151.1212  133.5056  159.2634 H   0  0  0  0  0  0  0  0  0  0  0  0  # atno 6909 bound_to 6896
  145.3933  140.9530  143.2328 H   0  0  0  0  0  0  0  0  0  0  0  0  # atno 7974 bound_to 7965
  154.9630  140.3080  155.5022 H   0  0  0  0  0  0  0  0  0  0  0  0  # atno 8008 bound_to 7997
  156.2975  140.2298  156.4655 H   0  0  0  0  0  0  0  0  0  0  0  0  # atno 8009 bound_to 7997
  154.7947  140.0437  157.1216 H   0  0  0  0  0  0  0  0  0  0  0  0  # atno 8010 bound_to 7997
  139.6922  144.7106  151.1329 H   0  0  0  0  0  0  0  0  0  0  0  0  # atno 10167 bound_to 10162
  156.8001  130.5390  149.5723 H   0  0  0  0  0  0  0  0  0  0  0  0  # atno 10718 bound_to 10713
  154.7391  135.3064  154.8760 H   0  0  0  0  0  0  0  0  0  0  0  0  # atno 10763 bound_to 10752
  153.9579  135.6756  153.4749 H   0  0  0  0  0  0  0  0  0  0  0  0  # atno 10764 bound_to 10752
  153.0991  135.4921  154.8758 H   0  0  0  0  0  0  0  0  0  0  0  0  # atno 10765 bound_to 10752
  140.0263  134.6078  155.9569 H   0  0  0  0  0  0  0  0  0  0  0  0  # atno 11005 bound_to 11000
  144.8425  139.5450  143.6894 LP  0  0  0  0  0  0  0  0  0  0  0  0  # atno 17320 bound_to 7965
  146.2787  139.6820  142.9244 LP  0  0  0  0  0  0  0  0  0  0  0  0  # atno 17321 bound_to 7965
  140.7686  143.5543  150.9169 LP  0  0  0  0  0  0  0  0  0  0  0  0  # atno 17342 bound_to 10162
  139.9221  143.6594  152.3094 LP  0  0  0  0  0  0  0  0  0  0  0  0  # atno 17343 bound_to 10162
  156.1106  130.6037  151.0041 LP  0  0  0  0  0  0  0  0  0  0  0  0  # atno 17370 bound_to 10713
  157.6558  131.0889  150.7951 LP  0  0  0  0  0  0  0  0  0  0  0  0  # atno 17371 bound_to 10713
  141.1804  133.6546  156.4998 LP  0  0  0  0  0  0  0  0  0  0  0  0  # atno 17394 bound_to 11000
  140.4301  134.7109  157.4937 LP  0  0  0  0  0  0  0  0  0  0  0  0  # atno 17395 bound_to 11000

$$$$
