#       Name:                AV-unprocessed.smi:2093
#       Creating user name   scv26
#       Creation time:       Fri Mar 27 11:26:54 2020


#       File generated by GOLD software.
#

@<TRIPOS>MOLECULE
AV-unprocessed.smi:2093
    36    37     1
SMALL
NO_CHARGES


@<TRIPOS>ATOM
      1 ****        -1.8261  -1.3449   2.1340 C.3            1 S1                 0.0000
      2 ****        -1.3200  -0.5635   0.9128 C.3            1 S1                 0.0000
      3 ****         0.1392  -0.4890   0.9730 N.am           1 S1                 0.0000
      4 ****         0.8774   0.6203   0.8181 C.2            1 S1                 0.0000
      5 ****         0.3992   1.7336   0.5992 O.2            1 S1                 0.0000
      6 ****         2.1893   0.3470   0.9257 N.am           1 S1                 0.0000
      7 ****         3.2846   1.2444   0.8242 C.2            1 S1                 0.0000
      8 ****         3.1653   2.5621   0.6237 N.2            1 S1                 0.0000
      9 ****         4.4077   3.1989   0.5686 C.2            1 S1                 0.0000
     10 ****         5.4699   2.3445   0.7297 C.2            1 S1                 0.0000
     11 ****         4.9490   0.6967   0.9594 S.3            1 S1                 0.0000
     12 ****        -1.7709  -1.2115  -0.4125 C.3            1 S1                 0.0000
     13 ****        -1.2962  -0.4926  -1.6777 C.3            1 S1                 0.0000
     14 ****        -2.3275  -0.9383  -2.6878 C.3            1 S1                 0.0000
     15 ****        -3.6016  -0.9305  -1.8496 C.3            1 S1                 0.0000
     16 ****        -3.1939  -1.2124  -0.5130 O.3            1 S1                 0.0000
     17 ****        -2.9155  -1.3864   2.1514 H              1 S1                 0.0000
     18 ****        -1.5030  -0.8734   3.0626 H              1 S1                 0.0000
     19 ****        -1.4544  -2.3703   2.1331 H              1 S1                 0.0000
     20 ****        -1.7462   0.4399   0.9664 H              1 S1                 0.0000
     21 ****         0.6250  -1.3572   1.1440 H              1 S1                 0.0000
     22 ****         2.4339  -0.6167   1.0986 H              1 S1                 0.0000
     23 ****         4.4437   4.2668   0.4111 H              1 S1                 0.0000
     24 ****         6.5229   2.5840   0.7278 H              1 S1                 0.0000
     25 ****        -1.4381  -2.2502  -0.4533 H              1 S1                 0.0000
     26 ****        -1.3463   0.5896  -1.5479 H              1 S1                 0.0000
     27 ****        -0.2773  -0.7565  -1.9624 H              1 S1                 0.0000
     28 ****        -2.3863  -0.2873  -3.5603 H              1 S1                 0.0000
     29 ****        -2.1052  -1.9506  -3.0282 H              1 S1                 0.0000
     30 ****        -4.0631   0.0576  -1.8678 H              1 S1                 0.0000
     31 ****        -4.3360  -1.6541  -2.2039 H              1 S1                 0.0000
     32 ****        -0.5918   1.8469   0.5279 LP             1 S1                 0.0000
     33 ****         1.0018   2.5245   0.4928 LP             1 S1                 0.0000
     34 ****         2.2899   3.0353   0.5250 LP             1 S1                 0.0000
     35 ****        -3.5672  -0.5149   0.0987 LP             1 S1                 0.0000
     36 ****        -3.5419  -2.1110  -0.2456 LP             1 S1                 0.0000
@<TRIPOS>BOND
    1    1    2 1     
    2    1   17 1     
    3    1   18 1     
    4    1   19 1     
    5    2    3 1     
    6    2   12 1     
    7    2   20 1     
    8    3    4 am    
    9    3   21 1     
   10    4    5 2     
   11    4    6 am    
   12    6    7 1     
   13    6   22 1     
   14    7   11 1     
   15    7    8 2     
   16    8    9 1     
   17    9   10 2     
   18    9   23 1     
   19   10   11 1     
   20   10   24 1     
   21   12   16 1     
   22   12   13 1     
   23   12   25 1     
   24   13   14 1     
   25   13   26 1     
   26   13   27 1     
   27   14   15 1     
   28   14   28 1     
   29   14   29 1     
   30   15   16 1     
   31   15   30 1     
   32   15   31 1     
   33    5   32 1     
   34    5   33 1     
   35    8   34 1     
   36   16   35 1     
   37   16   36 1     
@<TRIPOS>SUBSTRUCTURE
      1 S1             1
@<TRIPOS>SET
LONE_PAIRS      STATIC     ATOMS    <user>   **** ""
5 32 33 34 35 36
DONOR_HYDROGENS      STATIC     ATOMS    <user>   **** ""
2 21 22
ATOM$BLUE        STATIC     ATOMS    COLORGROUP SYSTEM
5 32 33 34 35 36
ATOM$RED        STATIC     ATOMS    COLORGROUP SYSTEM
2 21 22
