AV-unprocessed.smi:1978|AV-procd|sdf|8012|dock8
  -GOLD-   2272010203D 1   1.00000     0.00000
 Structure written by MMmdl.
 44 45  0  0  0  0  0  0  0  0  3 V2000
  153.6836  142.3991  160.8382 C   0  0  0  0  0  0  0  0  0  0  0  0
  153.3882  141.4764  159.7061 C   0  0  0  0  0  0  0  0  0  0  0  0
  152.4554  141.4973  158.7079 C   0  0  0  0  0  0  0  0  0  0  0  0
  152.7367  140.3102  157.9804 C   0  0  0  0  0  0  0  0  0  0  0  0
  151.9669  139.9612  156.8393 N   0  0  0  0  0  0  0  0  0  0  0  0
  152.3882  139.5085  155.6441 C   0  0  0  0  0  0  0  0  0  0  0  0
  153.5944  139.3384  155.4299 O   0  0  0  0  0  0  0  0  0  0  0  0
  151.3552  139.2864  154.7861 N   0  5  0  0  0  0  0  0  0  0  0  0
  150.9469  137.9685  154.3003 C   0  0  0  0  0  0  0  0  0  0  0  0
  149.7234  137.4449  155.1018 C   0  0  2  0  0  0  0  0  0  0  0  0
  149.8986  137.4950  156.6416 C   0  0  0  0  0  0  0  0  0  0  0  0
  149.3036  136.0883  154.6049 N   0  3  1  0  0  0  0  0  0  0  0  0
  150.3114  135.0074  154.8539 C   0  0  0  0  0  0  0  0  0  0  0  0
  149.9635  133.7170  154.1032 C   0  0  0  0  0  0  0  0  0  0  0  0
  148.5840  133.2190  154.5312 C   0  0  0  0  0  0  0  0  0  0  0  0
  147.5513  134.3218  154.2882 C   0  0  0  0  0  0  0  0  0  0  0  0
  147.9192  135.6483  154.9941 C   0  0  2  0  0  0  0  0  0  0  0  0
  146.8182  136.6795  154.6605 C   0  0  0  0  0  0  0  0  0  0  0  0
  153.7540  139.6292  158.4875 N   0  0  0  0  0  0  0  0  0  0  0  0
  154.1764  140.3730  159.5956 O   0  0  0  0  0  0  0  0  0  0  0  0
  152.8896  143.1366  160.9571 H   0  0  0  0  0  0  0  0  0  0  0  0
  154.6186  142.9325  160.6671 H   0  0  0  0  0  0  0  0  0  0  0  0
  153.7743  141.8472  161.7739 H   0  0  0  0  0  0  0  0  0  0  0  0
  151.6931  142.2412  158.5297 H   0  0  0  0  0  0  0  0  0  0  0  0
  150.9682  140.0614  156.9411 H   0  0  0  0  0  0  0  0  0  0  0  0
  150.6717  138.0032  153.2449 H   0  0  0  0  0  0  0  0  0  0  0  0
  151.7587  137.2439  154.3680 H   0  0  0  0  0  0  0  0  0  0  0  0
  148.9387  138.1597  154.8759 H   0  0  0  0  0  0  0  0  0  0  0  0
  150.0350  138.5163  157.0015 H   0  0  0  0  0  0  0  0  0  0  0  0
  150.7540  136.9148  156.9920 H   0  0  0  0  0  0  0  0  0  0  0  0
  149.0113  137.1084  157.1434 H   0  0  0  0  0  0  0  0  0  0  0  0
  151.3076  135.3251  154.5459 H   0  0  0  0  0  0  0  0  0  0  0  0
  150.3686  134.7906  155.9215 H   0  0  0  0  0  0  0  0  0  0  0  0
  149.9822  133.8950  153.0271 H   0  0  0  0  0  0  0  0  0  0  0  0
  150.7141  132.9529  154.3073 H   0  0  0  0  0  0  0  0  0  0  0  0
  148.3163  132.3199  153.9753 H   0  0  0  0  0  0  0  0  0  0  0  0
  148.5950  132.9450  155.5870 H   0  0  0  0  0  0  0  0  0  0  0  0
  147.4574  134.4928  153.2146 H   0  0  0  0  0  0  0  0  0  0  0  0
  146.5748  133.9747  154.6283 H   0  0  0  0  0  0  0  0  0  0  0  0
  147.9103  135.4772  156.0716 H   0  0  0  0  0  0  0  0  0  0  0  0
  145.8270  136.2344  154.7514 H   0  0  0  0  0  0  0  0  0  0  0  0
  146.9161  137.0519  153.6402 H   0  0  0  0  0  0  0  0  0  0  0  0
  146.8190  137.5309  155.3398 H   0  0  0  0  0  0  0  0  0  0  0  0
  149.2629  136.1982  153.6014 H   0  0  0  0  0  0  0  0  0  0  0  0
  1  2  1  0  0  0  0
  1 21  1  0  0  0  0
  1 22  1  0  0  0  0
  1 23  1  0  0  0  0
  2 20  1  0  0  0  0
  2  3  2  0  0  0  0
  3  4  1  0  0  0  0
  3 24  1  0  0  0  0
  4  5  1  0  0  0  0
  4 19  2  0  0  0  0
  5  6  1  0  0  0  0
  5 25  1  0  0  0  0
  6  7  2  0  0  0  0
  6  8  1  0  0  0  0
  8  9  1  0  0  0  0
  9 10  1  0  0  0  0
  9 26  1  0  0  0  0
  9 27  1  0  0  0  0
 10 11  1  0  0  0  0
 10 12  1  0  0  0  0
 10 28  1  0  0  0  0
 11 29  1  0  0  0  0
 11 30  1  0  0  0  0
 11 31  1  0  0  0  0
 12 17  1  0  0  0  0
 12 13  1  0  0  0  0
 12 44  1  0  0  0  0
 13 14  1  0  0  0  0
 13 32  1  0  0  0  0
 13 33  1  0  0  0  0
 14 15  1  0  0  0  0
 14 34  1  0  0  0  0
 14 35  1  0  0  0  0
 15 16  1  0  0  0  0
 15 36  1  0  0  0  0
 15 37  1  0  0  0  0
 16 17  1  0  0  0  0
 16 38  1  0  0  0  0
 16 39  1  0  0  0  0
 17 18  1  0  0  0  0
 17 40  1  0  0  0  0
 18 41  1  0  0  0  0
 18 42  1  0  0  0  0
 18 43  1  0  0  0  0
 19 20  1  0  0  0  0
M  CHG  1   8  -1
M  CHG  1  12   1
M  END
> <s_m_source_file>
AV-unprocessed.smi

> <i_m_source_file_index>
1978

> <i_lp_mmshare_version>
43012

> <i_f3d_flags>
0

> <s_epik_input>
W0NIM11jMVtjSF1jKG5vMSlbTkhdQyg9TylbTkhdW0NIMl1bQ0BIXShbQ0gzXSlOMltDSDJdW0NIMl1bQ0gyXVtDSDJdW0NASF0yW0NIM10=

> <s_epik_cmdline>
J2VwaWtfcHl0aG9uJywgJy1waCcsICc3LjAnLCAnLXRuJywgJzgnLCAnLW1hJywgJzIwMCcsICctbWV0YWxfYmluZGluZycsICctaW1hZScsICc8aW5maWxlLm1hZT4nLCAnLW9tYWUnLCAnPG91dGZpbGUubWFlPic=

> <r_epik_Ionization_Penalty>
6.7666

> <r_epik_Ionization_Penalty_Charging>
6.7666

> <r_epik_Ionization_Penalty_Neutral>
5.77131e-06

> <r_epik_State_Penalty>
6.79217

> <r_epik_Charging_Adjusted_Penalty>
13.5588

> <i_epik_Tot_Q>
0

> <i_epik_Tot_abs_Q>
2

> <r_epik_Metal_State_Penalty>
2.72569

> <b_epik_Metal_Only>
1

> <s_lp_Force_Field>
OPLS_2005

> <r_lp_Energy>
22.8368

> <b_lp_Chiralities_Consistent>
1

> <s_lp_Variant>
AV-unprocessed.smi:1978-21

> <Gold.Version>
5.8.1

> <Gold.Id.Protein>
6NUR|6NUR_protein|mol2

> <Gold.PLP.Fitness>
41.4824

> <Gold.PLP.PLP>
-30.5410

> <Gold.PLP.part.hbond>
-3.5235

> <Gold.PLP.part.metal>
0.0000

> <Gold.PLP.part.buried>
-4.2332

> <Gold.PLP.part.nonpolar>
-22.8001

> <Gold.PLP.part.repulsive>
0.2061

> <Gold.PLP.ligand.clash>
0.0000

> <Gold.PLP.ligand.torsion>
1.2678

> <Gold.PLP.Chemscore.Hbond>
4.4346

> <Gold.PLP.Chemscore.CHOScore>
0.0000

> <Gold.PLP.Chemscore.Metal>
0.0000

> <Gold.Chemscore.Hbonds>
donor molecule, donor type, donor heavy atom, donor atom, acceptor molecule, acceptor atom, score
      L1  H    12    44       P1  7948  2.00
      P1  H  7989  7998       L1     8  0.90
      P1  H  7997  8008       L1    19  0.85
      P1  H  7997  8009       L1     7  0.52

> <Gold.PLP.Chemscore.Internal.Correction>
0.1733

> <Gold.Rescore>
     Score         DG    S(hbond)    S(metal)    S(lipo)     H(rot)  DE(clash)    DE(int)     intcor
     14.60     -15.91       1.96        0.00      66.57       1.52       0.04       1.27       ----

> <Gold.Chemscore.Fitness>
14.6029

> <Gold.Chemscore.DG>
-15.9118

> <Gold.Chemscore.ZeroCoef>
-5.4800

> <Gold.Chemscore.Hbond>
1.9557

> <Gold.Chemscore.Metal>
0.0000

> <Gold.Chemscore.Lipo>
66.5676

> <Gold.Chemscore.Internal_Hbond>
0.0000

> <Gold.Chemscore.DEClash>
0.0361

> <Gold.Chemscore.DEInternal>
1.2727

> <Gold.Chemscore.Rot>
1.5190

> <Gold.Chemscore.Internal.Correction>
   9.000000E+99

> <Gold.Chemscore.Hbonds>
donor molecule, donor type, donor heavy atom, donor atom, acceptor molecule, acceptor atom, score
      L1  H    12    44       P1  7948  0.85
      P1  H  7989  7998       L1     8  0.19
      P1  H  7997  8008       L1    19  0.06
      P1  H  7997  8009       L1     7  0.51

> <Gold.Chemscore.Hbond.Weighted>
-6.5320

> <Gold.Chemscore.Metal.Weighted>
-0.0000

> <Gold.Chemscore.Lipo.Weighted>
-7.7884

> <Gold.Chemscore.Internal_Hbond.Weighted>
0.0000

> <Gold.Chemscore.DEClash.Weighted>
0.0361

> <Gold.Chemscore.DEInternal.Weighted>
1.2727

> <Gold.Chemscore.Rot.Weighted>
3.8886

> <Gold.Chemscore.Internal.Correction.Weighted>
   9.000000E+99

> <Gold.Protein.RotatedTorsions>
[ 6907 6896 6895 6894 ] final   12.63 input  -60.11 | X-H torsion
[ 7974 7965 7964 7962 ] final  -98.67 input  175.53 | X-H torsion
[ 8008 7997 7996 7995 ] final -109.49 input   59.86 | X-H torsion
[ 10167 10162 10161 10158 ] final  111.66 input  -65.29 | X-H torsion
[ 10718 10713 10712 10709 ] final -154.99 input   66.30 | X-H torsion
[ 10763 10752 10751 10750 ] final   -1.26 input  -60.55 | X-H torsion
[ 11005 11000 10999 10996 ] final  118.57 input  -57.11 | X-H torsion

> <Gold.Protein.ActiveResidues>
 VAL166  LYS551  ARG553  GLY616  TRP617  ASP618  TYR619  PRO620  LYS621  CYS622 
 ASP623  PHE694  ASN695  SER759  ASP760  ASP761  ALA762  ILE779  LEU786  VAL792 
 PHE793  MET794  SER795  GLU796  ALA797  LYS798  CYS799  TRP800  GLU811  SER814 

> <Gold.Protein.RotatedAtoms>
  151.7734  135.0780  160.0363 H   0  0  0  0  0  0  0  0  0  0  0  0  # atno 6907 bound_to 6896
  152.3273  133.5914  159.5793 H   0  0  0  0  0  0  0  0  0  0  0  0  # atno 6908 bound_to 6896
  150.7402  133.9838  159.3626 H   0  0  0  0  0  0  0  0  0  0  0  0  # atno 6909 bound_to 6896
  145.3176  140.9414  143.2734 H   0  0  0  0  0  0  0  0  0  0  0  0  # atno 7974 bound_to 7965
  154.9602  140.0399  157.2186 H   0  0  0  0  0  0  0  0  0  0  0  0  # atno 8008 bound_to 7997
  154.7896  140.2833  155.5979 H   0  0  0  0  0  0  0  0  0  0  0  0  # atno 8009 bound_to 7997
  156.2948  140.2576  156.2741 H   0  0  0  0  0  0  0  0  0  0  0  0  # atno 8010 bound_to 7997
  139.6595  144.7129  151.1893 H   0  0  0  0  0  0  0  0  0  0  0  0  # atno 10167 bound_to 10162
  156.5068  130.8417  151.2631 H   0  0  0  0  0  0  0  0  0  0  0  0  # atno 10718 bound_to 10713
  153.3425  135.6981  153.6855 H   0  0  0  0  0  0  0  0  0  0  0  0  # atno 10763 bound_to 10752
  153.5614  135.3534  155.2801 H   0  0  0  0  0  0  0  0  0  0  0  0  # atno 10764 bound_to 10752
  154.8639  135.4250  154.2642 H   0  0  0  0  0  0  0  0  0  0  0  0  # atno 10765 bound_to 10752
  139.9114  134.9621  156.7522 H   0  0  0  0  0  0  0  0  0  0  0  0  # atno 11005 bound_to 11000
  144.8965  139.4705  143.6653 LP  0  0  0  0  0  0  0  0  0  0  0  0  # atno 17320 bound_to 7965
  146.3094  139.7694  142.9031 LP  0  0  0  0  0  0  0  0  0  0  0  0  # atno 17321 bound_to 7965
  140.7573  143.6018  150.8692 LP  0  0  0  0  0  0  0  0  0  0  0  0  # atno 17342 bound_to 10162
  139.9674  143.6095  152.2984 LP  0  0  0  0  0  0  0  0  0  0  0  0  # atno 17343 bound_to 10162
  157.7456  130.9963  150.2774 LP  0  0  0  0  0  0  0  0  0  0  0  0  # atno 17370 bound_to 10713
  156.3279  130.3796  149.7517 LP  0  0  0  0  0  0  0  0  0  0  0  0  # atno 17371 bound_to 10713
  140.6764  133.9513  155.7885 LP  0  0  0  0  0  0  0  0  0  0  0  0  # atno 17394 bound_to 11000
  141.0541  134.0442  157.3745 LP  0  0  0  0  0  0  0  0  0  0  0  0  # atno 17395 bound_to 11000

$$$$
