#       Name:                AV-unprocessed.smi:528
#       Creating user name   scv26
#       Creation time:       Thu Mar 26 23:31:55 2020


#       File generated by GOLD software.
#

@<TRIPOS>MOLECULE
AV-unprocessed.smi:528
    49    51     1
SMALL
NO_CHARGES


@<TRIPOS>ATOM
      1 ****        -2.0332  -1.7134  -2.8529 C.3            1 S1                 0.0000
      2 ****        -1.5370  -1.0035  -1.5837 C.3            1 S1                 0.0000
      3 ****        -0.0766  -1.0555  -1.5537 N.am           1 S1                 0.0000
      4 ****         0.7520  -0.0030  -1.6390 C.2            1 S1                 0.0000
      5 ****         0.3643   1.1536  -1.8092 O.2            1 S1                 0.0000
      6 ****         2.2488  -0.3177  -1.5166 C.3            1 S1                 0.0000
      7 ****         3.0120   0.7866  -0.9131 N.am           1 S1                 0.0000
      8 ****         3.0460   0.8327   0.4944 C.2            1 S1                 0.0000
      9 ****         3.7018   1.7867   1.1820 C.2            1 S1                 0.0000
     10 ****         3.6637   1.8434   2.7011 C.3            1 S1                 0.0000
     11 ****         3.8410   3.0892   3.1412 F              1 S1                 0.0000
     12 ****         2.4980   1.3953   3.1691 F              1 S1                 0.0000
     13 ****         4.6330   1.0819   3.2067 F              1 S1                 0.0000
     14 ****         4.3656   2.8071   0.3947 C.2            1 S1                 0.0000
     15 ****         4.3309   2.7860  -0.9523 C.2            1 S1                 0.0000
     16 ****         3.6224   1.7342  -1.6857 C.2            1 S1                 0.0000
     17 ****         3.5791   1.7099  -2.9157 O.2            1 S1                 0.0000
     18 ****        -2.1090  -1.6418  -0.2954 C.3            1 S1                 0.0000
     19 ****        -3.6343  -1.4795  -0.1068 C.3            1 S1                 0.0000
     20 ****        -3.7528  -0.9670   1.3412 C.3            1 S1                 0.0000
     21 ****        -3.3110   0.5067   1.3909 C.3            1 S1                 0.0000
     22 ****        -1.7859   0.4072   1.2100 C.3            1 S1                 0.0000
     23 ****        -1.5567  -1.1107   1.0524 C.3            1 S1                 0.0000
     24 ****        -2.5868  -1.6671   2.0302 C.3            1 S1                 0.0000
     25 ****        -3.1193  -1.6688  -2.9346 H              1 S1                 0.0000
     26 ****        -1.7424  -2.7643  -2.8609 H              1 S1                 0.0000
     27 ****        -1.6207  -1.2472  -3.7484 H              1 S1                 0.0000
     28 ****        -1.8771   0.0312  -1.6406 H              1 S1                 0.0000
     29 ****         0.3371  -1.9675  -1.4257 H              1 S1                 0.0000
     30 ****         2.3823  -1.2193  -0.9158 H              1 S1                 0.0000
     31 ****         2.6309  -0.5766  -2.5053 H              1 S1                 0.0000
     32 ****         2.4898   0.0439   0.9809 H              1 S1                 0.0000
     33 ****         4.9029   3.6008   0.8924 H              1 S1                 0.0000
     34 ****         4.8382   3.5618  -1.5068 H              1 S1                 0.0000
     35 ****        -1.8871  -2.7102  -0.3325 H              1 S1                 0.0000
     36 ****        -4.0818  -0.7830  -0.8170 H              1 S1                 0.0000
     37 ****        -4.1376  -2.4399  -0.2255 H              1 S1                 0.0000
     38 ****        -4.7304  -1.1450   1.7900 H              1 S1                 0.0000
     39 ****        -3.7836   1.1082   0.6136 H              1 S1                 0.0000
     40 ****        -3.5538   0.9549   2.3552 H              1 S1                 0.0000
     41 ****        -1.4247   0.9919   0.3655 H              1 S1                 0.0000
     42 ****        -1.2753   0.7776   2.1000 H              1 S1                 0.0000
     43 ****        -0.5305  -1.4183   1.2560 H              1 S1                 0.0000
     44 ****        -2.4311  -1.3379   3.0593 H              1 S1                 0.0000
     45 ****        -2.6631  -2.7557   2.0111 H              1 S1                 0.0000
     46 ****        -0.6135   1.3462  -1.8913 LP             1 S1                 0.0000
     47 ****         1.0274   1.9001  -1.8653 LP             1 S1                 0.0000
     48 ****         3.0842   0.9782  -3.3842 LP             1 S1                 0.0000
     49 ****         4.0389   2.4220  -3.4464 LP             1 S1                 0.0000
@<TRIPOS>BOND
    1    1    2 1     
    2    1   25 1     
    3    1   26 1     
    4    1   27 1     
    5    2    3 1     
    6    2   18 1     
    7    2   28 1     
    8    3    4 am    
    9    3   29 1     
   10    4    5 2     
   11    4    6 1     
   12    6    7 1     
   13    6   30 1     
   14    6   31 1     
   15    7   16 am    
   16    7    8 1     
   17    8    9 2     
   18    8   32 1     
   19    9   10 1     
   20    9   14 1     
   21   10   11 1     
   22   10   12 1     
   23   10   13 1     
   24   14   15 2     
   25   14   33 1     
   26   15   16 1     
   27   15   34 1     
   28   16   17 2     
   29   18   23 1     
   30   18   19 1     
   31   18   35 1     
   32   19   20 1     
   33   19   36 1     
   34   19   37 1     
   35   20   24 1     
   36   20   21 1     
   37   20   38 1     
   38   21   22 1     
   39   21   39 1     
   40   21   40 1     
   41   22   23 1     
   42   22   41 1     
   43   22   42 1     
   44   23   24 1     
   45   23   43 1     
   46   24   44 1     
   47   24   45 1     
   48    5   46 1     
   49    5   47 1     
   50   17   48 1     
   51   17   49 1     
@<TRIPOS>SUBSTRUCTURE
      1 S1             1
@<TRIPOS>SET
LONE_PAIRS      STATIC     ATOMS    <user>   **** ""
4 46 47 48 49
DONOR_HYDROGENS      STATIC     ATOMS    <user>   **** ""
1 29
ATOM$BLUE        STATIC     ATOMS    COLORGROUP SYSTEM
4 46 47 48 49
ATOM$RED        STATIC     ATOMS    COLORGROUP SYSTEM
1 29
