AV-unprocessed.smi:2007|AV-procd|sdf|8138|dock1
  -GOLD-   2272010373D 1   1.00000     0.00000
 Structure written by MMmdl.
 35 36  0  0  0  0  0  0  0  0  2 V2000
  147.7638  136.1913  156.0967 C   0  0  0  0  0  0  0  0  0  0  0  0
  148.5315  137.2579  156.8891 C   0  0  1  0  0  0  0  0  0  0  0  0
  148.4167  138.6428  156.2171 C   0  0  0  0  0  0  0  0  0  0  0  0
  149.6831  139.3163  155.9243 N   0  0  0  0  0  0  0  0  0  0  0  0
  150.3018  139.9030  157.1107 C   0  0  0  0  0  0  0  0  0  0  0  0
  151.6358  140.5929  156.7770 C   0  0  0  0  0  0  0  0  0  0  0  0
  152.5145  139.6609  156.1546 O   0  0  0  0  0  0  0  0  0  0  0  0
  151.9642  139.0990  154.9675 C   0  0  0  0  0  0  0  0  0  0  0  0
  150.6315  138.4041  155.2957 C   0  0  0  0  0  0  0  0  0  0  0  0
  148.0011  137.3119  158.2516 N   0  0  0  0  0  0  0  0  0  0  0  0
  148.6632  137.0316  159.3842 C   0  0  0  0  0  0  0  0  0  0  0  0
  149.8407  136.6682  159.3417 O   0  0  0  0  0  0  0  0  0  0  0  0
  147.9174  137.1942  160.5012 N   0  5  0  0  0  0  0  0  0  0  0  0
  147.5686  136.1265  161.2371 C   0  0  0  0  0  0  0  0  0  0  0  0
  147.3807  134.9100  160.7128 N   0  0  0  0  0  0  0  0  0  0  0  0
  147.0164  133.9485  161.6572 C   0  0  0  0  0  0  0  0  0  0  0  0
  146.9164  134.4463  162.9293 C   0  0  0  0  0  0  0  0  0  0  0  0
  147.2773  136.1484  162.9791 S   0  0  0  0  0  0  0  0  0  0  0  0
  148.1440  136.1109  155.0781 H   0  0  0  0  0  0  0  0  0  0  0  0
  146.7005  136.4270  156.0382 H   0  0  0  0  0  0  0  0  0  0  0  0
  147.8623  135.2104  156.5631 H   0  0  0  0  0  0  0  0  0  0  0  0
  149.5764  136.9469  156.8949 H   0  0  0  0  0  0  0  0  0  0  0  0
  147.8368  138.5493  155.2977 H   0  0  0  0  0  0  0  0  0  0  0  0
  147.8254  139.2809  156.8755 H   0  0  0  0  0  0  0  0  0  0  0  0
  149.6369  140.6374  157.5628 H   0  0  0  0  0  0  0  0  0  0  0  0
  150.4710  139.1298  157.8613 H   0  0  0  0  0  0  0  0  0  0  0  0
  151.4728  141.4469  156.1175 H   0  0  0  0  0  0  0  0  0  0  0  0
  152.1038  140.9739  157.6846 H   0  0  0  0  0  0  0  0  0  0  0  0
  151.8181  139.8805  154.2202 H   0  0  0  0  0  0  0  0  0  0  0  0
  152.6722  138.3831  154.5500 H   0  0  0  0  0  0  0  0  0  0  0  0
  150.8202  137.5546  155.9539 H   0  0  0  0  0  0  0  0  0  0  0  0
  150.2026  137.9993  154.3783 H   0  0  0  0  0  0  0  0  0  0  0  0
  147.0412  137.6079  158.3487 H   0  0  0  0  0  0  0  0  0  0  0  0
  146.8468  132.9320  161.3342 H   0  0  0  0  0  0  0  0  0  0  0  0
  146.6528  133.9207  163.8344 H   0  0  0  0  0  0  0  0  0  0  0  0
  1  2  1  0  0  0  0
  1 19  1  0  0  0  0
  1 20  1  0  0  0  0
  1 21  1  0  0  0  0
  2  3  1  0  0  0  0
  2 10  1  0  0  0  0
  2 22  1  0  0  0  0
  3  4  1  0  0  0  0
  3 23  1  0  0  0  0
  3 24  1  0  0  0  0
  4  9  1  0  0  0  0
  4  5  1  0  0  0  0
  5  6  1  0  0  0  0
  5 25  1  0  0  0  0
  5 26  1  0  0  0  0
  6  7  1  0  0  0  0
  6 27  1  0  0  0  0
  6 28  1  0  0  0  0
  7  8  1  0  0  0  0
  8  9  1  0  0  0  0
  8 29  1  0  0  0  0
  8 30  1  0  0  0  0
  9 31  1  0  0  0  0
  9 32  1  0  0  0  0
 10 11  1  0  0  0  0
 10 33  1  0  0  0  0
 11 12  2  0  0  0  0
 11 13  1  0  0  0  0
 13 14  1  0  0  0  0
 14 18  1  0  0  0  0
 14 15  2  0  0  0  0
 15 16  1  0  0  0  0
 16 17  2  0  0  0  0
 16 34  1  0  0  0  0
 17 18  1  0  0  0  0
 17 35  1  0  0  0  0
M  CHG  1  13  -1
M  END
> <s_m_source_file>
AV-unprocessed.smi

> <i_m_source_file_index>
2007

> <i_lp_mmshare_version>
43012

> <i_f3d_flags>
0

> <s_epik_input>
W0NIMl0xW0NIMl1PW0NIMl1bQ0gyXU4xW0NIMl1bQ0BASF0oW0NIM10pW05IXUMoPU8pW05IXWMybltjSF1bY0hdczI=

> <s_epik_cmdline>
J2VwaWtfcHl0aG9uJywgJy1waCcsICc3LjAnLCAnLXRuJywgJzgnLCAnLW1hJywgJzIwMCcsICctbWV0YWxfYmluZGluZycsICctaW1hZScsICc8aW5maWxlLm1hZT4nLCAnLW9tYWUnLCAnPG91dGZpbGUubWFlPic=

> <r_lp_tautomer_probability>
0.999

> <r_epik_Ionization_Penalty>
7.09127

> <r_epik_Ionization_Penalty_Charging>
5.74083

> <r_epik_Ionization_Penalty_Neutral>
1.35044

> <r_epik_State_Penalty>
5.95014

> <r_epik_Charging_Adjusted_Penalty>
11.691

> <i_epik_Tot_Q>
-1

> <i_epik_Tot_abs_Q>
1

> <r_epik_Metal_State_Penalty>
1.93831

> <b_epik_Metal_Only>
1

> <s_lp_Force_Field>
OPLS_2005

> <r_lp_Energy>
21.094

> <b_lp_Chiralities_Consistent>
1

> <s_lp_Variant>
AV-unprocessed.smi:2007-6

> <Gold.Version>
5.8.1

> <Gold.Id.Protein>
6NUR|6NUR_protein|mol2

> <Gold.PLP.Fitness>
40.3020

> <Gold.PLP.PLP>
-28.6111

> <Gold.PLP.part.hbond>
-3.9832

> <Gold.PLP.part.metal>
0.0000

> <Gold.PLP.part.buried>
-3.5712

> <Gold.PLP.part.nonpolar>
-22.5532

> <Gold.PLP.part.repulsive>
0.0984

> <Gold.PLP.ligand.clash>
0.0000

> <Gold.PLP.ligand.torsion>
1.6735

> <Gold.PLP.Chemscore.Hbond>
4.9460

> <Gold.PLP.Chemscore.CHOScore>
0.0000

> <Gold.PLP.Chemscore.Metal>
0.0000

> <Gold.Chemscore.Hbonds>
donor molecule, donor type, donor heavy atom, donor atom, acceptor molecule, acceptor atom, score
      P1  H  6896  6908       L1    12  0.91
      P1  H  6931  6943       L1    13  1.34
      P1  H  6934  6947       L1    13  1.60
      P1  H  7997  8009       L1     7  1.00

> <Gold.PLP.Chemscore.Internal.Correction>
0.2000

> <Gold.Rescore>
     Score         DG    S(hbond)    S(metal)    S(lipo)     H(rot)  DE(clash)    DE(int)     intcor
     15.93     -17.49       2.99        0.00      51.19       1.55       0.01       1.56       ----

> <Gold.Chemscore.Fitness>
15.9284

> <Gold.Chemscore.DG>
-17.4947

> <Gold.Chemscore.ZeroCoef>
-5.4800

> <Gold.Chemscore.Hbond>
2.9929

> <Gold.Chemscore.Metal>
0.0000

> <Gold.Chemscore.Lipo>
51.1882

> <Gold.Chemscore.Internal_Hbond>
0.0000

> <Gold.Chemscore.DEClash>
0.0106

> <Gold.Chemscore.DEInternal>
1.5557

> <Gold.Chemscore.Rot>
1.5510

> <Gold.Chemscore.Internal.Correction>
   9.000000E+99

> <Gold.Chemscore.Hbonds>
donor molecule, donor type, donor heavy atom, donor atom, acceptor molecule, acceptor atom, score
      P1  H  6896  6908       L1    12  0.87
      P1  H  6931  6943       L1    13  0.13
      P1  H  6934  6947       L1    13  0.71
      P1  H  7997  8009       L1     7  0.82

> <Gold.Chemscore.Hbond.Weighted>
-9.9963

> <Gold.Chemscore.Metal.Weighted>
-0.0000

> <Gold.Chemscore.Lipo.Weighted>
-5.9890

> <Gold.Chemscore.Internal_Hbond.Weighted>
0.0000

> <Gold.Chemscore.DEClash.Weighted>
0.0106

> <Gold.Chemscore.DEInternal.Weighted>
1.5557

> <Gold.Chemscore.Rot.Weighted>
3.9706

> <Gold.Chemscore.Internal.Correction.Weighted>
   9.000000E+99

> <Gold.Protein.RotatedTorsions>
[ 6907 6896 6895 6894 ] final -163.24 input  -60.11 | X-H torsion
[ 7974 7965 7964 7962 ] final  -86.24 input  175.53 | X-H torsion
[ 8008 7997 7996 7995 ] final -170.22 input   59.86 | X-H torsion
[ 10167 10162 10161 10158 ] final  -44.96 input  -65.29 | X-H torsion
[ 10718 10713 10712 10709 ] final  -72.35 input   66.30 | X-H torsion
[ 10763 10752 10751 10750 ] final -162.62 input  -60.55 | X-H torsion
[ 11005 11000 10999 10996 ] final -133.16 input  -57.11 | X-H torsion

> <Gold.Protein.ActiveResidues>
 VAL166  LYS551  ARG553  GLY616  TRP617  ASP618  TYR619  PRO620  LYS621  CYS622 
 ASP623  PHE694  ASN695  SER759  ASP760  ASP761  ALA762  ILE779  LEU786  VAL792 
 PHE793  MET794  SER795  GLU796  ALA797  LYS798  CYS799  TRP800  GLU811  SER814 

> <Gold.Protein.RotatedAtoms>
  151.3929  133.3783  159.2722 H   0  0  0  0  0  0  0  0  0  0  0  0  # atno 6907 bound_to 6896
  150.9491  134.8894  159.7671 H   0  0  0  0  0  0  0  0  0  0  0  0  # atno 6908 bound_to 6896
  152.5104  134.3883  159.9427 H   0  0  0  0  0  0  0  0  0  0  0  0  # atno 6909 bound_to 6896
  145.4826  140.9556  143.1856 H   0  0  0  0  0  0  0  0  0  0  0  0  # atno 7974 bound_to 7965
  155.9155  140.1065  157.1247 H   0  0  0  0  0  0  0  0  0  0  0  0  # atno 8008 bound_to 7997
  154.4046  140.1266  156.4677 H   0  0  0  0  0  0  0  0  0  0  0  0  # atno 8009 bound_to 7997
  155.7259  140.3469  155.5039 H   0  0  0  0  0  0  0  0  0  0  0  0  # atno 8010 bound_to 7997
  140.6876  143.2903  151.3571 H   0  0  0  0  0  0  0  0  0  0  0  0  # atno 10167 bound_to 10162
  156.0324  130.4370  150.2580 H   0  0  0  0  0  0  0  0  0  0  0  0  # atno 10718 bound_to 10713
  154.7197  135.3023  154.9066 H   0  0  0  0  0  0  0  0  0  0  0  0  # atno 10763 bound_to 10752
  153.9942  135.6715  153.4759 H   0  0  0  0  0  0  0  0  0  0  0  0  # atno 10764 bound_to 10752
  153.0824  135.5002  154.8446 H   0  0  0  0  0  0  0  0  0  0  0  0  # atno 10765 bound_to 10752
  140.9106  134.1573  157.4392 H   0  0  0  0  0  0  0  0  0  0  0  0  # atno 11005 bound_to 11000
  144.7880  139.6387  143.7125 LP  0  0  0  0  0  0  0  0  0  0  0  0  # atno 17320 bound_to 7965
  146.2332  139.5854  142.9541 LP  0  0  0  0  0  0  0  0  0  0  0  0  # atno 17321 bound_to 7965
  139.6249  144.0833  152.2425 LP  0  0  0  0  0  0  0  0  0  0  0  0  # atno 17342 bound_to 10162
  140.0290  144.6096  150.7504 LP  0  0  0  0  0  0  0  0  0  0  0  0  # atno 17343 bound_to 10162
  157.0681  131.0109  151.3199 LP  0  0  0  0  0  0  0  0  0  0  0  0  # atno 17370 bound_to 10713
  157.5020  130.7885  149.7614 LP  0  0  0  0  0  0  0  0  0  0  0  0  # atno 17371 bound_to 10713
  139.8757  134.9934  156.5643 LP  0  0  0  0  0  0  0  0  0  0  0  0  # atno 17394 bound_to 11000
  140.8115  133.8425  155.8814 LP  0  0  0  0  0  0  0  0  0  0  0  0  # atno 17395 bound_to 11000

$$$$
