AV-unprocessed.smi:2943|AV-procd|sdf|11271|dock4
  -GOLD-   2272016163D 1   1.00000     0.00000
 Structure written by MMmdl.
 37 39  0  0  0  0  0  0  0  0  2 V2000
  149.8369  137.5901  154.8543 C   0  0  0  0  0  0  0  0  0  0  0  0
  149.6772  139.0523  155.1495 C   0  0  0  0  0  0  0  0  0  0  0  0
  150.5472  139.8395  155.8703 C   0  0  0  0  0  0  0  0  0  0  0  0
  151.8324  139.4362  156.5261 C   0  0  0  0  0  0  0  0  0  0  0  0
  150.0691  141.1512  155.9207 N   0  0  0  0  0  0  0  0  0  0  0  0
  150.7151  142.2759  156.5827 C   0  0  0  0  0  0  0  0  0  0  0  0
  150.7744  142.0868  158.1068 C   0  0  1  0  0  0  0  0  0  0  0  0
  152.1168  141.5689  158.6159 C   0  0  0  0  0  0  0  0  0  0  0  0
  152.0853  142.0243  160.0570 C   0  0  0  0  0  0  0  0  0  0  0  0
  151.4116  143.3895  159.9420 C   0  0  0  0  0  0  0  0  0  0  0  0
  150.5757  143.3230  158.7885 O   0  0  0  0  0  0  0  0  0  0  0  0
  148.8628  141.2055  155.2413 C   0  0  0  0  0  0  0  0  0  0  0  0
  148.0469  142.2776  155.0510 N   0  3  0  0  0  0  0  0  0  0  0  0
  146.9214  142.0738  154.3582 C   0  0  0  0  0  0  0  0  0  0  0  0
  146.5853  140.8760  153.8578 N   0  0  0  0  0  0  0  0  0  0  0  0
  147.3752  139.7873  154.0276 C   0  0  0  0  0  0  0  0  0  0  0  0
  146.9327  138.5893  153.4718 N   0  0  0  0  0  0  0  0  0  0  0  0
  148.5911  139.9054  154.7506 C   0  0  0  0  0  0  0  0  0  0  0  0
  150.8868  137.3047  154.7883 H   0  0  0  0  0  0  0  0  0  0  0  0
  149.3770  137.3210  153.9041 H   0  0  0  0  0  0  0  0  0  0  0  0
  149.3757  136.9809  155.6317 H   0  0  0  0  0  0  0  0  0  0  0  0
  151.8893  138.3563  156.6607 H   0  0  0  0  0  0  0  0  0  0  0  0
  151.9347  139.8872  157.5131 H   0  0  0  0  0  0  0  0  0  0  0  0
  152.6866  139.7436  155.9226 H   0  0  0  0  0  0  0  0  0  0  0  0
  151.7177  142.4069  156.1752 H   0  0  0  0  0  0  0  0  0  0  0  0
  150.1683  143.1867  156.3360 H   0  0  0  0  0  0  0  0  0  0  0  0
  149.9871  141.4043  158.4307 H   0  0  0  0  0  0  0  0  0  0  0  0
  152.2242  140.4890  158.5097 H   0  0  0  0  0  0  0  0  0  0  0  0
  152.9429  142.0504  158.0907 H   0  0  0  0  0  0  0  0  0  0  0  0
  151.4659  141.3482  160.6480 H   0  0  0  0  0  0  0  0  0  0  0  0
  153.0733  142.0721  160.5160 H   0  0  0  0  0  0  0  0  0  0  0  0
  150.8388  143.6435  160.8341 H   0  0  0  0  0  0  0  0  0  0  0  0
  152.1557  144.1709  159.7840 H   0  0  0  0  0  0  0  0  0  0  0  0
  146.2758  142.9275  154.2134 H   0  0  0  0  0  0  0  0  0  0  0  0
  146.0617  138.5321  152.9641 H   0  0  0  0  0  0  0  0  0  0  0  0
  147.4755  137.7409  153.5484 H   0  0  0  0  0  0  0  0  0  0  0  0
  148.2890  143.1921  155.4326 H   0  0  0  0  0  0  0  0  0  0  0  0
  1  2  1  0  0  0  0
  1 19  1  0  0  0  0
  1 20  1  0  0  0  0
  1 21  1  0  0  0  0
  2 18  1  0  0  0  0
  2  3  2  0  0  0  0
  3  4  1  0  0  0  0
  3  5  1  0  0  0  0
  4 22  1  0  0  0  0
  4 23  1  0  0  0  0
  4 24  1  0  0  0  0
  5  6  1  0  0  0  0
  5 12  1  0  0  0  0
  6  7  1  0  0  0  0
  6 25  1  0  0  0  0
  6 26  1  0  0  0  0
  7 11  1  0  0  0  0
  7  8  1  0  0  0  0
  7 27  1  0  0  0  0
  8  9  1  0  0  0  0
  8 28  1  0  0  0  0
  8 29  1  0  0  0  0
  9 10  1  0  0  0  0
  9 30  1  0  0  0  0
  9 31  1  0  0  0  0
 10 11  1  0  0  0  0
 10 32  1  0  0  0  0
 10 33  1  0  0  0  0
 12 18  1  0  0  0  0
 12 13  2  0  0  0  0
 13 14  1  0  0  0  0
 13 37  1  0  0  0  0
 14 15  2  0  0  0  0
 14 34  1  0  0  0  0
 15 16  1  0  0  0  0
 16 17  1  0  0  0  0
 16 18  2  0  0  0  0
 17 35  1  0  0  0  0
 17 36  1  0  0  0  0
M  CHG  1  13   1
M  END
> <s_m_source_file>
AV-unprocessed.smi

> <i_m_source_file_index>
2943

> <i_lp_mmshare_version>
43012

> <i_f3d_flags>
0

> <s_epik_input>
bjFbY0hdbmMoW05IMl0pYyhjMTIpYyhbQ0gzXSljKFtDSDNdKW4yW0NIMl1bQ0BASF0zW0NIMl1bQ0gyXVtDSDJdTzM=

> <s_epik_cmdline>
J2VwaWtfcHl0aG9uJywgJy1waCcsICc3LjAnLCAnLXRuJywgJzgnLCAnLW1hJywgJzIwMCcsICctbWV0YWxfYmluZGluZycsICctaW1hZScsICc8aW5maWxlLm1hZT4nLCAnLW9tYWUnLCAnPG91dGZpbGUubWFlPic=

> <r_epik_Ionization_Penalty>
2.35523

> <r_epik_Ionization_Penalty_Charging>
2.35518

> <r_epik_Ionization_Penalty_Neutral>
5.21205e-05

> <r_epik_State_Penalty>
2.50981

> <r_epik_Charging_Adjusted_Penalty>
4.86499

> <i_epik_Tot_Q>
1

> <i_epik_Tot_abs_Q>
1

> <r_epik_Metal_State_Penalty>
2.52087

> <b_epik_Metal_Only>
0

> <s_lp_Force_Field>
OPLS_2005

> <r_lp_Energy>
21.0174

> <b_lp_Chiralities_Consistent>
1

> <s_lp_Variant>
AV-unprocessed.smi:2943-4

> <Gold.Version>
5.8.1

> <Gold.Id.Protein>
6NUR|6NUR_protein|mol2

> <Gold.PLP.Fitness>
44.0393

> <Gold.PLP.PLP>
-36.7445

> <Gold.PLP.part.hbond>
-3.0000

> <Gold.PLP.part.metal>
0.0000

> <Gold.PLP.part.buried>
-0.8540

> <Gold.PLP.part.nonpolar>
-33.1596

> <Gold.PLP.part.repulsive>
0.5055

> <Gold.PLP.ligand.clash>
0.0210

> <Gold.PLP.ligand.torsion>
0.5562

> <Gold.PLP.Chemscore.Hbond>
2.8089

> <Gold.PLP.Chemscore.CHOScore>
0.0000

> <Gold.PLP.Chemscore.Metal>
0.0000

> <Gold.Chemscore.Hbonds>
donor molecule, donor type, donor heavy atom, donor atom, acceptor molecule, acceptor atom, score
      L1  H    13    37       P1  8028  2.00

> <Gold.PLP.Chemscore.Internal.Correction>
0.0015

> <Gold.Rescore>
     Score         DG    S(hbond)    S(metal)    S(lipo)     H(rot)  DE(clash)    DE(int)     intcor
     14.18     -16.94       1.57        0.00      80.95       1.27       2.07       0.69       ----

> <Gold.Chemscore.Fitness>
14.1798

> <Gold.Chemscore.DG>
-16.9428

> <Gold.Chemscore.ZeroCoef>
-5.4800

> <Gold.Chemscore.Hbond>
1.5718

> <Gold.Chemscore.Metal>
0.0000

> <Gold.Chemscore.Lipo>
80.9461

> <Gold.Chemscore.Internal_Hbond>
0.0000

> <Gold.Chemscore.DEClash>
2.0734

> <Gold.Chemscore.DEInternal>
0.6896

> <Gold.Chemscore.Rot>
1.2725

> <Gold.Chemscore.Internal.Correction>
   9.000000E+99

> <Gold.Chemscore.Hbonds>
donor molecule, donor type, donor heavy atom, donor atom, acceptor molecule, acceptor atom, score
      L1  H    13    37       P1  8028  0.95

> <Gold.Chemscore.Hbond.Weighted>
-5.2497

> <Gold.Chemscore.Metal.Weighted>
-0.0000

> <Gold.Chemscore.Lipo.Weighted>
-9.4707

> <Gold.Chemscore.Internal_Hbond.Weighted>
0.0000

> <Gold.Chemscore.DEClash.Weighted>
2.0734

> <Gold.Chemscore.DEInternal.Weighted>
0.6896

> <Gold.Chemscore.Rot.Weighted>
3.2576

> <Gold.Chemscore.Internal.Correction.Weighted>
   9.000000E+99

> <Gold.Protein.RotatedTorsions>
[ 6907 6896 6895 6894 ] final  111.33 input  -60.11 | X-H torsion
[ 7974 7965 7964 7962 ] final  -66.32 input  175.53 | X-H torsion
[ 8008 7997 7996 7995 ] final   11.00 input   59.86 | X-H torsion
[ 10167 10162 10161 10158 ] final  120.29 input  -65.29 | X-H torsion
[ 10718 10713 10712 10709 ] final  149.08 input   66.30 | X-H torsion
[ 10763 10752 10751 10750 ] final -126.35 input  -60.55 | X-H torsion
[ 11005 11000 10999 10996 ] final  -59.83 input  -57.11 | X-H torsion

> <Gold.Protein.ActiveResidues>
 VAL166  LYS551  ARG553  GLY616  TRP617  ASP618  TYR619  PRO620  LYS621  CYS622 
 ASP623  PHE694  ASN695  SER759  ASP760  ASP761  ALA762  ILE779  LEU786  VAL792 
 PHE793  MET794  SER795  GLU796  ALA797  LYS798  CYS799  TRP800  GLU811  SER814 

> <Gold.Protein.RotatedAtoms>
  152.4975  133.8673  159.7280 H   0  0  0  0  0  0  0  0  0  0  0  0  # atno 6907 bound_to 6896
  150.9169  133.6919  159.2848 H   0  0  0  0  0  0  0  0  0  0  0  0  # atno 6908 bound_to 6896
  151.4310  135.1014  159.9694 H   0  0  0  0  0  0  0  0  0  0  0  0  # atno 6909 bound_to 6896
  145.7432  140.8943  143.0519 H   0  0  0  0  0  0  0  0  0  0  0  0  # atno 7974 bound_to 7965
  154.8010  140.2852  155.5921 H   0  0  0  0  0  0  0  0  0  0  0  0  # atno 8008 bound_to 7997
  156.2977  140.2586  156.2808 H   0  0  0  0  0  0  0  0  0  0  0  0  # atno 8009 bound_to 7997
  154.9558  140.0378  157.2155 H   0  0  0  0  0  0  0  0  0  0  0  0  # atno 8010 bound_to 7997
  139.5992  144.7051  151.3104 H   0  0  0  0  0  0  0  0  0  0  0  0  # atno 10167 bound_to 10162
  157.3006  131.0870  151.1393 H   0  0  0  0  0  0  0  0  0  0  0  0  # atno 10718 bound_to 10713
  154.8745  135.3998  154.3417 H   0  0  0  0  0  0  0  0  0  0  0  0  # atno 10763 bound_to 10752
  153.4216  135.7023  153.6296 H   0  0  0  0  0  0  0  0  0  0  0  0  # atno 10764 bound_to 10752
  153.4956  135.3739  155.2484 H   0  0  0  0  0  0  0  0  0  0  0  0  # atno 10765 bound_to 10752
  141.1263  133.6618  156.5131 H   0  0  0  0  0  0  0  0  0  0  0  0  # atno 11005 bound_to 11000
  144.6866  139.9489  143.7477 LP  0  0  0  0  0  0  0  0  0  0  0  0  # atno 17320 bound_to 7965
  146.0428  139.3437  143.0687 LP  0  0  0  0  0  0  0  0  0  0  0  0  # atno 17321 bound_to 7965
  140.7236  143.7067  150.7802 LP  0  0  0  0  0  0  0  0  0  0  0  0  # atno 17342 bound_to 10162
  140.0640  143.5127  152.2613 LP  0  0  0  0  0  0  0  0  0  0  0  0  # atno 17343 bound_to 10162
  157.2753  130.6724  149.6039 LP  0  0  0  0  0  0  0  0  0  0  0  0  # atno 17370 bound_to 10713
  155.9671  130.4466  150.5549 LP  0  0  0  0  0  0  0  0  0  0  0  0  # atno 17371 bound_to 10713
  140.4353  134.7065  157.4963 LP  0  0  0  0  0  0  0  0  0  0  0  0  # atno 17394 bound_to 11000
  140.0266  134.6468  155.9164 LP  0  0  0  0  0  0  0  0  0  0  0  0  # atno 17395 bound_to 11000

$$$$
