#       Name:                AV-unprocessed.smi:2312
#       Creating user name   scv26
#       Creation time:       Fri Mar 27 12:48:45 2020


#       File generated by GOLD software.
#

@<TRIPOS>MOLECULE
AV-unprocessed.smi:2312
    40    41     1
SMALL
NO_CHARGES


@<TRIPOS>ATOM
      1 ****        -1.6217   1.3298  -2.7741 C.3            1 S1                 0.0000
      2 ****        -2.1342   0.6383  -1.6425 O.3            1 S1                 0.0000
      3 ****        -1.8178  -0.7520  -1.5631 C.3            1 S1                 0.0000
      4 ****        -0.3117  -0.9864  -1.3815 C.3            1 S1                 0.0000
      5 ****         0.1869  -0.2531  -0.2259 N.am           1 S1                 0.0000
      6 ****         1.4357  -0.3425   0.2478 C.2            1 S1                 0.0000
      7 ****         2.2963  -1.0745  -0.2417 O.2            1 S1                 0.0000
      8 ****         1.6142   0.4677   1.3048 N.am           1 S1                 0.0000
      9 ****         2.7928   0.6430   2.0782 C.2            1 S1                 0.0000
     10 ****         3.9352  -0.0197   1.9262 N.2            1 S1                 0.0000
     11 ****         4.6675   0.5567   2.9248 C.2            1 S1                 0.0000
     12 ****         4.0452   1.4944   3.6397 N.2            1 S1                 0.0000
     13 ****         2.8182   1.5383   3.0699 N.pl3          1 S1                 0.0000
     14 ****         1.8020   2.4502   3.5588 C.3            1 S1                 0.0000
     15 ****        -2.7701  -1.3988  -0.5396 C.3            1 S1                 0.0000
     16 ****        -3.0122  -2.5320  -1.5383 C.3            1 S1                 0.0000
     17 ****        -2.5722  -1.5624  -2.6361 C.3            1 S1                 0.0000
     18 ****        -2.0087   2.3484  -2.7750 H              1 S1                 0.0000
     19 ****        -1.9234   0.8609  -3.7109 H              1 S1                 0.0000
     20 ****        -0.5344   1.3971  -2.7495 H              1 S1                 0.0000
     21 ****        -0.1108  -2.0494  -1.2396 H              1 S1                 0.0000
     22 ****         0.2461  -0.6915  -2.2708 H              1 S1                 0.0000
     23 ****        -0.4608   0.3727   0.2302 H              1 S1                 0.0000
     24 ****         0.8212   1.0251   1.5857 H              1 S1                 0.0000
     25 ****         5.6896   0.2758   3.1324 H              1 S1                 0.0000
     26 ****         1.0407   1.8913   4.1035 H              1 S1                 0.0000
     27 ****         1.3347   2.9662   2.7198 H              1 S1                 0.0000
     28 ****         2.2435   3.1924   4.2249 H              1 S1                 0.0000
     29 ****        -2.2999  -1.7132   0.3927 H              1 S1                 0.0000
     30 ****        -3.6688  -0.8079  -0.3528 H              1 S1                 0.0000
     31 ****        -2.3230  -3.3680  -1.4085 H              1 S1                 0.0000
     32 ****        -4.0479  -2.8653  -1.6104 H              1 S1                 0.0000
     33 ****        -3.4144  -1.0237  -3.0740 H              1 S1                 0.0000
     34 ****        -1.9384  -2.0070  -3.4040 H              1 S1                 0.0000
     35 ****        -3.1303   0.7252  -1.6560 LP             1 S1                 0.0000
     36 ****        -1.7719   1.0819  -0.8228 LP             1 S1                 0.0000
     37 ****         2.0773  -1.6425  -1.0351 LP             1 S1                 0.0000
     38 ****         3.2142  -1.1011   0.1541 LP             1 S1                 0.0000
     39 ****         4.1856  -0.7328   1.2713 LP             1 S1                 0.0000
     40 ****         4.3973   2.0316   4.4061 LP             1 S1                 0.0000
@<TRIPOS>BOND
    1    1    2 1     
    2    1   18 1     
    3    1   19 1     
    4    1   20 1     
    5    2    3 1     
    6    3   17 1     
    7    3    4 1     
    8    3   15 1     
    9    4    5 1     
   10    4   21 1     
   11    4   22 1     
   12    5    6 am    
   13    5   23 1     
   14    6    7 2     
   15    6    8 am    
   16    8    9 1     
   17    8   24 1     
   18    9   13 1     
   19    9   10 2     
   20   10   11 1     
   21   11   12 2     
   22   11   25 1     
   23   12   13 1     
   24   13   14 1     
   25   14   26 1     
   26   14   27 1     
   27   14   28 1     
   28   15   16 1     
   29   15   29 1     
   30   15   30 1     
   31   16   17 1     
   32   16   31 1     
   33   16   32 1     
   34   17   33 1     
   35   17   34 1     
   36    2   35 1     
   37    2   36 1     
   38    7   37 1     
   39    7   38 1     
   40   10   39 1     
   41   12   40 1     
@<TRIPOS>SUBSTRUCTURE
      1 S1             1
@<TRIPOS>SET
LONE_PAIRS      STATIC     ATOMS    <user>   **** ""
6 35 36 37 38 39 40
DONOR_HYDROGENS      STATIC     ATOMS    <user>   **** ""
2 23 24
ATOM$BLUE        STATIC     ATOMS    COLORGROUP SYSTEM
6 35 36 37 38 39 40
ATOM$RED        STATIC     ATOMS    COLORGROUP SYSTEM
2 23 24
