AV-unprocessed.smi:232|AV-procd|sdf|1773|dock4
  -GOLD-   2262020313D 1   1.00000     0.00000
 Structure written by MMmdl.
 52 55  0  0  0  0  0  0  0  0  1 V2000
  154.5161  140.3109  160.7204 C   0  0  0  0  0  0  0  0  0  0  0  0
  153.3289  139.8909  159.8453 C   0  0  0  0  0  0  0  0  0  0  0  0
  152.9263  140.9645  158.8133 C   0  0  2  0  0  0  0  0  0  0  0  0
  152.6058  142.3339  159.4286 C   0  0  0  0  0  0  0  0  0  0  0  0
  151.5329  142.9338  158.5115 C   0  0  0  0  0  0  0  0  0  0  0  0
  151.2777  141.8551  157.4509 C   0  0  2  0  0  0  0  0  0  0  0  0
  149.8184  141.8060  156.9670 C   0  0  0  0  0  0  0  0  0  0  0  0
  151.7209  140.6128  158.0707 N   0  0  0  0  0  0  0  0  0  0  0  0
  151.8229  139.5600  157.2258 C   0  0  0  0  0  0  0  0  0  0  0  0
  152.6481  139.6154  156.1464 N   0  0  0  0  0  0  0  0  0  0  0  0
  152.7388  138.5669  155.3219 C   0  0  0  0  0  0  0  0  0  0  0  0
  152.1072  137.3925  155.3908 N   0  0  0  0  0  0  0  0  0  0  0  0
  151.2769  137.3397  156.4721 C   0  0  0  0  0  0  0  0  0  0  0  0
  151.0753  138.3716  157.4299 C   0  0  0  0  0  0  0  0  0  0  0  0
  150.1559  137.9639  158.3879 N   0  0  0  0  0  0  0  0  0  0  0  0
  149.8309  136.7552  158.0170 C   0  0  0  0  0  0  0  0  0  0  0  0
  150.4591  136.3009  156.8795 N   0  0  0  0  0  0  0  0  0  0  0  0
  150.2849  135.0020  156.2544 C   0  0  0  0  0  0  0  0  0  0  0  0
  148.8048  134.6756  155.9746 C   0  0  1  0  0  0  0  0  0  0  0  0
  148.2975  135.5907  155.0219 O   0  0  0  0  0  0  0  0  0  0  0  0
  148.6140  133.2432  155.4417 C   0  0  2  0  0  0  0  0  0  0  0  0
  149.2169  132.9987  154.0570 C   0  0  0  0  0  0  0  0  0  0  0  0
  148.3961  131.8278  153.5685 C   0  0  0  0  0  0  0  0  0  0  0  0
  147.0110  132.1779  154.1018 C   0  0  0  0  0  0  0  0  0  0  0  0
  147.2269  132.9511  155.2800 O   0  0  0  0  0  0  0  0  0  0  0  0
  154.7862  139.5130  161.4126 H   0  0  0  0  0  0  0  0  0  0  0  0
  154.2829  141.1959  161.3126 H   0  0  0  0  0  0  0  0  0  0  0  0
  155.3926  140.5347  160.1117 H   0  0  0  0  0  0  0  0  0  0  0  0
  153.5963  138.9676  159.3301 H   0  0  0  0  0  0  0  0  0  0  0  0
  152.4750  139.6477  160.4790 H   0  0  0  0  0  0  0  0  0  0  0  0
  153.7451  141.0973  158.1038 H   0  0  0  0  0  0  0  0  0  0  0  0
  152.2014  142.2229  160.4357 H   0  0  0  0  0  0  0  0  0  0  0  0
  153.4936  142.9633  159.4961 H   0  0  0  0  0  0  0  0  0  0  0  0
  150.6310  143.1383  159.0901 H   0  0  0  0  0  0  0  0  0  0  0  0
  151.8542  143.8714  158.0569 H   0  0  0  0  0  0  0  0  0  0  0  0
  151.9228  142.0607  156.5947 H   0  0  0  0  0  0  0  0  0  0  0  0
  149.5142  142.7672  156.5526 H   0  0  0  0  0  0  0  0  0  0  0  0
  149.1378  141.5642  157.7841 H   0  0  0  0  0  0  0  0  0  0  0  0
  149.6816  141.0564  156.1871 H   0  0  0  0  0  0  0  0  0  0  0  0
  153.4142  138.6858  154.4875 H   0  0  0  0  0  0  0  0  0  0  0  0
  149.1189  136.1565  158.5663 H   0  0  0  0  0  0  0  0  0  0  0  0
  150.8650  134.9751  155.3310 H   0  0  0  0  0  0  0  0  0  0  0  0
  150.7196  134.2506  156.9145 H   0  0  0  0  0  0  0  0  0  0  0  0
  148.2301  134.7961  156.8939 H   0  0  0  0  0  0  0  0  0  0  0  0
  148.7559  135.4591  154.2059 H   0  0  0  0  0  0  0  0  0  0  0  0
  149.0259  132.5176  156.1457 H   0  0  0  0  0  0  0  0  0  0  0  0
  149.0577  133.8614  153.4082 H   0  0  0  0  0  0  0  0  0  0  0  0
  150.2860  132.7868  154.0889 H   0  0  0  0  0  0  0  0  0  0  0  0
  148.4193  131.7070  152.4853 H   0  0  0  0  0  0  0  0  0  0  0  0
  148.7537  130.9040  154.0252 H   0  0  0  0  0  0  0  0  0  0  0  0
  146.4690  132.7918  153.3819 H   0  0  0  0  0  0  0  0  0  0  0  0
  146.4113  131.2918  154.3111 H   0  0  0  0  0  0  0  0  0  0  0  0
  1  2  1  0  0  0  0
  1 26  1  0  0  0  0
  1 27  1  0  0  0  0
  1 28  1  0  0  0  0
  2  3  1  0  0  0  0
  2 29  1  0  0  0  0
  2 30  1  0  0  0  0
  3  8  1  0  0  0  0
  3  4  1  0  0  0  0
  3 31  1  0  0  0  0
  4  5  1  0  0  0  0
  4 32  1  0  0  0  0
  4 33  1  0  0  0  0
  5  6  1  0  0  0  0
  5 34  1  0  0  0  0
  5 35  1  0  0  0  0
  6  7  1  0  0  0  0
  6  8  1  0  0  0  0
  6 36  1  0  0  0  0
  7 37  1  0  0  0  0
  7 38  1  0  0  0  0
  7 39  1  0  0  0  0
  8  9  1  0  0  0  0
  9 14  1  0  0  0  0
  9 10  2  0  0  0  0
 10 11  1  0  0  0  0
 11 12  2  0  0  0  0
 11 40  1  0  0  0  0
 12 13  1  0  0  0  0
 13 17  1  0  0  0  0
 13 14  2  0  0  0  0
 14 15  1  0  0  0  0
 15 16  2  0  0  0  0
 16 17  1  0  0  0  0
 16 41  1  0  0  0  0
 17 18  1  0  0  0  0
 18 19  1  0  0  0  0
 18 42  1  0  0  0  0
 18 43  1  0  0  0  0
 19 20  1  0  0  0  0
 19 21  1  0  0  0  0
 19 44  1  0  0  0  0
 20 45  1  0  0  0  0
 21 25  1  0  0  0  0
 21 22  1  0  0  0  0
 21 46  1  0  0  0  0
 22 23  1  0  0  0  0
 22 47  1  0  0  0  0
 22 48  1  0  0  0  0
 23 24  1  0  0  0  0
 23 49  1  0  0  0  0
 23 50  1  0  0  0  0
 24 25  1  0  0  0  0
 24 51  1  0  0  0  0
 24 52  1  0  0  0  0
M  END
> <s_m_source_file>
AV-unprocessed.smi

> <i_m_source_file_index>
232

> <i_lp_mmshare_version>
43012

> <i_f3d_flags>
0

> <s_epik_input>
W0NIM11bQ0gyXVtDQEBIXTFbQ0gyXVtDSDJdW0NAQEhdKFtDSDNdKU4xYyhuW2NIXW4yKWMoYzIzKW5bY0hdbjNbQ0gyXVtDQEhdKFtPSF0pW0NAQEhdNFtDSDJdW0NIMl1bQ0gyXU80

> <s_epik_cmdline>
J2VwaWtfcHl0aG9uJywgJy1waCcsICc3LjAnLCAnLXRuJywgJzgnLCAnLW1hJywgJzIwMCcsICctbWV0YWxfYmluZGluZycsICctaW1hZScsICc8aW5maWxlLm1hZT4nLCAnLW9tYWUnLCAnPG91dGZpbGUubWFlPic=

> <r_lp_tautomer_probability>
1

> <r_epik_Ionization_Penalty>
0.00258048

> <r_epik_Ionization_Penalty_Charging>
0

> <r_epik_Ionization_Penalty_Neutral>
0.00258048

> <r_epik_State_Penalty>
0.00168551

> <r_epik_Charging_Adjusted_Penalty>
0.00168551

> <i_epik_Tot_Q>
0

> <i_epik_Tot_abs_Q>
0

> <r_epik_Metal_State_Penalty>
-0

> <b_epik_Metal_Only>
0

> <s_lp_Force_Field>
OPLS_2005

> <r_lp_Energy>
51.2688

> <b_lp_Chiralities_Consistent>
1

> <s_lp_Variant>
AV-unprocessed.smi:232-7

> <Gold.Version>
5.8.1

> <Gold.Id.Protein>
6NUR|6NUR_protein|mol2

> <Gold.PLP.Fitness>
42.2858

> <Gold.PLP.PLP>
-34.7715

> <Gold.PLP.part.hbond>
-3.0000

> <Gold.PLP.part.metal>
0.0000

> <Gold.PLP.part.buried>
-3.8122

> <Gold.PLP.part.nonpolar>
-28.1833

> <Gold.PLP.part.repulsive>
0.0941

> <Gold.PLP.ligand.clash>
0.0000

> <Gold.PLP.ligand.torsion>
0.1178

> <Gold.PLP.Chemscore.Hbond>
2.5493

> <Gold.PLP.Chemscore.CHOScore>
0.0000

> <Gold.PLP.Chemscore.Metal>
0.0000

> <Gold.Chemscore.Hbonds>
donor molecule, donor type, donor heavy atom, donor atom, acceptor molecule, acceptor atom, score
      P1  H  7997  8009       L1    10  1.00
      P1  H 10752 10765       L1    12  0.62

> <Gold.PLP.Chemscore.Internal.Correction>
0.1021

> <Gold.Rescore>
     Score         DG    S(hbond)    S(metal)    S(lipo)     H(rot)  DE(clash)    DE(int)     intcor
     17.21     -17.42       2.36        0.00      87.72       2.43       0.14       0.07       ----

> <Gold.Chemscore.Fitness>
17.2089

> <Gold.Chemscore.DG>
-17.4222

> <Gold.Chemscore.ZeroCoef>
-5.4800

> <Gold.Chemscore.Hbond>
2.3621

> <Gold.Chemscore.Metal>
0.0000

> <Gold.Chemscore.Lipo>
87.7220

> <Gold.Chemscore.Internal_Hbond>
0.0000

> <Gold.Chemscore.DEClash>
0.1397

> <Gold.Chemscore.DEInternal>
0.0736

> <Gold.Chemscore.Rot>
2.4260

> <Gold.Chemscore.Internal.Correction>
   9.000000E+99

> <Gold.Chemscore.Hbonds>
donor molecule, donor type, donor heavy atom, donor atom, acceptor molecule, acceptor atom, score
      L1  H    20    45       P1  7948  0.04
      P1  H  7997  8009       L1    10  0.34
      P1  H 10752 10765       L1    12  0.60

> <Gold.Chemscore.Hbond.Weighted>
-7.8894

> <Gold.Chemscore.Metal.Weighted>
-0.0000

> <Gold.Chemscore.Lipo.Weighted>
-10.2635

> <Gold.Chemscore.Internal_Hbond.Weighted>
0.0000

> <Gold.Chemscore.DEClash.Weighted>
0.1397

> <Gold.Chemscore.DEInternal.Weighted>
0.0736

> <Gold.Chemscore.Rot.Weighted>
6.2107

> <Gold.Chemscore.Internal.Correction.Weighted>
   9.000000E+99

> <Gold.Protein.RotatedTorsions>
[ 6907 6896 6895 6894 ] final  -34.73 input  -60.11 | X-H torsion
[ 7974 7965 7964 7962 ] final  111.30 input  175.53 | X-H torsion
[ 8008 7997 7996 7995 ] final -157.24 input   59.86 | X-H torsion
[ 10167 10162 10161 10158 ] final  -31.77 input  -65.29 | X-H torsion
[ 10718 10713 10712 10709 ] final  104.07 input   66.30 | X-H torsion
[ 10763 10752 10751 10750 ] final  178.76 input  -60.55 | X-H torsion
[ 11005 11000 10999 10996 ] final  142.56 input  -57.11 | X-H torsion

> <Gold.Protein.ActiveResidues>
 VAL166  LYS551  ARG553  GLY616  TRP617  ASP618  TYR619  PRO620  LYS621  CYS622 
 ASP623  PHE694  ASN695  SER759  ASP760  ASP761  ALA762  ILE779  LEU786  VAL792 
 PHE793  MET794  SER795  GLU796  ALA797  LYS798  CYS799  TRP800  GLU811  SER814 

> <Gold.Protein.RotatedAtoms>
  151.0488  134.9658  159.8200 H   0  0  0  0  0  0  0  0  0  0  0  0  # atno 6907 bound_to 6896
  152.5377  134.2564  159.8928 H   0  0  0  0  0  0  0  0  0  0  0  0  # atno 6908 bound_to 6896
  151.2579  133.4274  159.2648 H   0  0  0  0  0  0  0  0  0  0  0  0  # atno 6909 bound_to 6896
  145.2440  139.2767  143.4102 H   0  0  0  0  0  0  0  0  0  0  0  0  # atno 7974 bound_to 7965
  155.7294  140.0800  157.2295 H   0  0  0  0  0  0  0  0  0  0  0  0  # atno 8008 bound_to 7997
  154.4035  140.1598  156.2546 H   0  0  0  0  0  0  0  0  0  0  0  0  # atno 8009 bound_to 7997
  155.9123  140.3403  155.6111 H   0  0  0  0  0  0  0  0  0  0  0  0  # atno 8010 bound_to 7997
  140.7231  143.3746  151.1714 H   0  0  0  0  0  0  0  0  0  0  0  0  # atno 10167 bound_to 10162
  157.6752  131.0795  150.5651 H   0  0  0  0  0  0  0  0  0  0  0  0  # atno 10718 bound_to 10713
  154.5118  135.2789  155.1336 H   0  0  0  0  0  0  0  0  0  0  0  0  # atno 10763 bound_to 10752
  154.2928  135.6263  153.5396 H   0  0  0  0  0  0  0  0  0  0  0  0  # atno 10764 bound_to 10752
  152.9920  135.5678  154.5586 H   0  0  0  0  0  0  0  0  0  0  0  0  # atno 10765 bound_to 10752
  140.0486  134.9267  157.0975 H   0  0  0  0  0  0  0  0  0  0  0  0  # atno 11005 bound_to 11000
  146.3321  140.2812  142.8610 LP  0  0  0  0  0  0  0  0  0  0  0  0  # atno 17320 bound_to 7965
  144.9563  140.8230  143.5541 LP  0  0  0  0  0  0  0  0  0  0  0  0  # atno 17321 bound_to 7965
  139.7323  143.9053  152.3023 LP  0  0  0  0  0  0  0  0  0  0  0  0  # atno 17342 bound_to 10162
  139.8846  144.6999  150.8839 LP  0  0  0  0  0  0  0  0  0  0  0  0  # atno 17343 bound_to 10162
  156.5953  130.4340  149.5919 LP  0  0  0  0  0  0  0  0  0  0  0  0  # atno 17370 bound_to 10713
  156.2550  130.6929  151.1679 LP  0  0  0  0  0  0  0  0  0  0  0  0  # atno 17371 bound_to 10713
  140.3954  134.2140  155.7165 LP  0  0  0  0  0  0  0  0  0  0  0  0  # atno 17394 bound_to 11000
  141.1919  133.8184  157.0860 LP  0  0  0  0  0  0  0  0  0  0  0  0  # atno 17395 bound_to 11000

$$$$
