AV-unprocessed.smi:893|AV-procd|sdf|4066|dock3
  -GOLD-   22720 1553D 1   1.00000     0.00000
 Structure written by MMmdl.
 27 28  0  0  0  0  0  0  0  0  1 V2000
  150.0564  141.2881  155.4498 C   0  0  0  0  0  0  0  0  0  0  0  0
  149.7521  140.3932  156.6615 C   0  0  0  0  0  0  0  0  0  0  0  0
  150.9732  140.1337  157.5758 C   0  0  1  0  0  0  0  0  0  0  0  0
  151.5975  141.4148  158.0979 C   0  0  0  0  0  0  0  0  0  0  0  0
  152.7064  141.5659  158.9829 C   0  0  0  0  0  0  0  0  0  0  0  0
  152.9968  142.8299  159.2417 N   0  0  0  0  0  0  0  0  0  0  0  0
  152.0894  143.5330  158.5359 N   0  0  0  0  0  0  0  0  0  0  0  0
  152.1131  144.9792  158.5836 C   0  0  0  0  0  0  0  0  0  0  0  0
  151.2329  142.7085  157.8399 C   0  0  0  0  0  0  0  0  0  0  0  0
  150.6428  139.1987  158.6428 N   0  0  0  0  0  0  0  0  0  0  0  0
  151.3814  138.0813  158.6062 C   0  0  0  0  0  0  0  0  0  0  0  0
  151.3142  137.1445  159.3980 O   0  0  0  0  0  0  0  0  0  0  0  0
  152.1980  138.1642  157.5517 N   0  0  0  0  0  0  0  0  0  0  0  0
  152.0365  139.2980  156.8715 C   0  0  0  0  0  0  0  0  0  0  0  0
  152.6323  139.6319  155.8481 O   0  0  0  0  0  0  0  0  0  0  0  0
  149.1607  141.4372  154.8468 H   0  0  0  0  0  0  0  0  0  0  0  0
  150.8158  140.8446  154.8056 H   0  0  0  0  0  0  0  0  0  0  0  0
  150.4113  142.2710  155.7599 H   0  0  0  0  0  0  0  0  0  0  0  0
  148.9488  140.8537  157.2393 H   0  0  0  0  0  0  0  0  0  0  0  0
  149.3523  139.4434  156.3035 H   0  0  0  0  0  0  0  0  0  0  0  0
  153.3073  140.7959  159.4438 H   0  0  0  0  0  0  0  0  0  0  0  0
  151.3478  145.3885  157.9233 H   0  0  0  0  0  0  0  0  0  0  0  0
  153.0895  145.3434  158.2621 H   0  0  0  0  0  0  0  0  0  0  0  0
  151.9213  145.3180  159.6021 H   0  0  0  0  0  0  0  0  0  0  0  0
  150.4413  143.1039  157.2203 H   0  0  0  0  0  0  0  0  0  0  0  0
  149.9393  139.3927  159.3405 H   0  0  0  0  0  0  0  0  0  0  0  0
  152.8546  137.4424  157.2927 H   0  0  0  0  0  0  0  0  0  0  0  0
  1  2  1  0  0  0  0
  1 16  1  0  0  0  0
  1 17  1  0  0  0  0
  1 18  1  0  0  0  0
  2  3  1  0  0  0  0
  2 19  1  0  0  0  0
  2 20  1  0  0  0  0
  3 14  1  0  0  0  0
  3  4  1  0  0  0  0
  3 10  1  0  0  0  0
  4  9  2  0  0  0  0
  4  5  1  0  0  0  0
  5  6  2  0  0  0  0
  5 21  1  0  0  0  0
  6  7  1  0  0  0  0
  7  8  1  0  0  0  0
  7  9  1  0  0  0  0
  8 22  1  0  0  0  0
  8 23  1  0  0  0  0
  8 24  1  0  0  0  0
  9 25  1  0  0  0  0
 10 11  1  0  0  0  0
 10 26  1  0  0  0  0
 11 12  2  0  0  0  0
 11 13  1  0  0  0  0
 13 14  1  0  0  0  0
 13 27  1  0  0  0  0
 14 15  2  0  0  0  0
M  END
> <s_m_source_file>
AV-unprocessed.smi

> <i_m_source_file_index>
893

> <i_lp_mmshare_version>
43012

> <i_f3d_flags>
0

> <s_epik_input>
Tz1DMVtOSF1DKD1PKVtOSF1bQ0BAXTEoW0NIMl1bQ0gzXSljMltjSF1ubihbQ0gzXSlbY0hdMg==

> <s_epik_cmdline>
J2VwaWtfcHl0aG9uJywgJy1waCcsICc3LjAnLCAnLXRuJywgJzgnLCAnLW1hJywgJzIwMCcsICctbWV0YWxfYmluZGluZycsICctaW1hZScsICc8aW5maWxlLm1hZT4nLCAnLW9tYWUnLCAnPG91dGZpbGUubWFlPic=

> <r_lp_tautomer_probability>
1

> <r_epik_Ionization_Penalty>
0.0236181

> <r_epik_Ionization_Penalty_Charging>
0

> <r_epik_Ionization_Penalty_Neutral>
0.0236181

> <r_epik_State_Penalty>
0.0189572

> <r_epik_Charging_Adjusted_Penalty>
0.0189572

> <i_epik_Tot_Q>
0

> <i_epik_Tot_abs_Q>
0

> <r_epik_Metal_State_Penalty>
0.411796

> <b_epik_Metal_Only>
0

> <s_lp_Force_Field>
OPLS_2005

> <r_lp_Energy>
15.567

> <b_lp_Chiralities_Consistent>
1

> <s_lp_Variant>
AV-unprocessed.smi:893-1

> <Gold.Version>
5.8.1

> <Gold.Id.Protein>
6NUR|6NUR_protein|mol2

> <Gold.PLP.Fitness>
34.0740

> <Gold.PLP.PLP>
-26.7132

> <Gold.PLP.part.hbond>
-1.9063

> <Gold.PLP.part.metal>
0.0000

> <Gold.PLP.part.buried>
-4.7816

> <Gold.PLP.part.nonpolar>
-20.5456

> <Gold.PLP.part.repulsive>
0.2518

> <Gold.PLP.ligand.clash>
0.0000

> <Gold.PLP.ligand.torsion>
0.0998

> <Gold.PLP.Chemscore.Hbond>
1.8938

> <Gold.PLP.Chemscore.CHOScore>
0.5689

> <Gold.PLP.Chemscore.Metal>
0.0000

> <Gold.Chemscore.Hbonds>
donor molecule, donor type, donor heavy atom, donor atom, acceptor molecule, acceptor atom, score
      P1  H  6896  6907       L1    12  0.94
      P1  H  7997  8009       L1    15  1.00
      L1  C     9    25       P1  8028  0.52

> <Gold.PLP.Chemscore.Internal.Correction>
0.1725

> <Gold.Rescore>
     Score         DG    S(hbond)    S(metal)    S(lipo)     H(rot)  DE(clash)    DE(int)     intcor
     14.87     -15.24       1.98        0.00      55.28       1.30       0.01       0.36       ----

> <Gold.Chemscore.Fitness>
14.8667

> <Gold.Chemscore.DG>
-15.2351

> <Gold.Chemscore.ZeroCoef>
-5.4800

> <Gold.Chemscore.Hbond>
1.9772

> <Gold.Chemscore.Metal>
0.0000

> <Gold.Chemscore.Lipo>
55.2777

> <Gold.Chemscore.Internal_Hbond>
0.0000

> <Gold.Chemscore.DEClash>
0.0059

> <Gold.Chemscore.DEInternal>
0.3624

> <Gold.Chemscore.Rot>
1.2955

> <Gold.Chemscore.Internal.Correction>
   9.000000E+99

> <Gold.Chemscore.Hbonds>
donor molecule, donor type, donor heavy atom, donor atom, acceptor molecule, acceptor atom, score
      P1  H  6896  6907       L1    12  0.90
      P1  H  7997  8009       L1    15  0.96

> <Gold.Chemscore.Hbond.Weighted>
-6.6039

> <Gold.Chemscore.Metal.Weighted>
-0.0000

> <Gold.Chemscore.Lipo.Weighted>
-6.4675

> <Gold.Chemscore.Internal_Hbond.Weighted>
0.0000

> <Gold.Chemscore.DEClash.Weighted>
0.0059

> <Gold.Chemscore.DEInternal.Weighted>
0.3624

> <Gold.Chemscore.Rot.Weighted>
3.3164

> <Gold.Chemscore.Internal.Correction.Weighted>
   9.000000E+99

> <Gold.Protein.RotatedTorsions>
[ 6907 6896 6895 6894 ] final  -12.52 input  -60.11 | X-H torsion
[ 7974 7965 7964 7962 ] final -146.37 input  175.53 | X-H torsion
[ 8008 7997 7996 7995 ] final -137.45 input   59.86 | X-H torsion
[ 10167 10162 10161 10158 ] final -103.74 input  -65.29 | X-H torsion
[ 10718 10713 10712 10709 ] final  136.43 input   66.30 | X-H torsion
[ 10763 10752 10751 10750 ] final   26.97 input  -60.55 | X-H torsion
[ 11005 11000 10999 10996 ] final  154.63 input  -57.11 | X-H torsion

> <Gold.Protein.ActiveResidues>
 VAL166  LYS551  ARG553  GLY616  TRP617  ASP618  TYR619  PRO620  LYS621  CYS622 
 ASP623  PHE694  ASN695  SER759  ASP760  ASP761  ALA762  ILE779  LEU786  VAL792 
 PHE793  MET794  SER795  GLU796  ALA797  LYS798  CYS799  TRP800  GLU811  SER814 

> <Gold.Protein.RotatedAtoms>
  151.3692  135.0919  159.9459 H   0  0  0  0  0  0  0  0  0  0  0  0  # atno 6907 bound_to 6896
  152.5140  133.9181  159.7531 H   0  0  0  0  0  0  0  0  0  0  0  0  # atno 6908 bound_to 6896
  150.9591  133.6410  159.2787 H   0  0  0  0  0  0  0  0  0  0  0  0  # atno 6909 bound_to 6896
  144.8164  140.5464  143.5608 H   0  0  0  0  0  0  0  0  0  0  0  0  # atno 7974 bound_to 7965
  155.4120  140.0513  157.3031 H   0  0  0  0  0  0  0  0  0  0  0  0  # atno 8008 bound_to 7997
  154.4942  140.2132  155.9443 H   0  0  0  0  0  0  0  0  0  0  0  0  # atno 8009 bound_to 7997
  156.1383  140.3159  155.8460 H   0  0  0  0  0  0  0  0  0  0  0  0  # atno 8010 bound_to 7997
  140.2167  143.3706  152.1004 H   0  0  0  0  0  0  0  0  0  0  0  0  # atno 10167 bound_to 10162
  157.4467  131.1062  151.0081 H   0  0  0  0  0  0  0  0  0  0  0  0  # atno 10718 bound_to 10713
  153.0586  135.6548  154.0516 H   0  0  0  0  0  0  0  0  0  0  0  0  # atno 10763 bound_to 10752
  154.0189  135.2921  155.3385 H   0  0  0  0  0  0  0  0  0  0  0  0  # atno 10764 bound_to 10752
  154.6914  135.5281  153.8465 H   0  0  0  0  0  0  0  0  0  0  0  0  # atno 10765 bound_to 10752
  140.1507  134.8677  157.2450 H   0  0  0  0  0  0  0  0  0  0  0  0  # atno 11005 bound_to 11000
  145.5205  139.1477  143.3555 LP  0  0  0  0  0  0  0  0  0  0  0  0  # atno 17320 bound_to 7965
  146.2467  140.5346  142.8911 LP  0  0  0  0  0  0  0  0  0  0  0  0  # atno 17321 bound_to 7965
  139.5159  144.6970  151.5602 LP  0  0  0  0  0  0  0  0  0  0  0  0  # atno 17342 bound_to 10162
  140.6284  143.9123  150.6584 LP  0  0  0  0  0  0  0  0  0  0  0  0  # atno 17343 bound_to 10162
  157.0925  130.5948  149.5443 LP  0  0  0  0  0  0  0  0  0  0  0  0  # atno 17370 bound_to 10713
  155.9970  130.5041  150.7518 LP  0  0  0  0  0  0  0  0  0  0  0  0  # atno 17371 bound_to 10713
  140.2608  134.3573  155.7407 LP  0  0  0  0  0  0  0  0  0  0  0  0  # atno 17394 bound_to 11000
  141.2198  133.7368  156.9077 LP  0  0  0  0  0  0  0  0  0  0  0  0  # atno 17395 bound_to 11000

$$$$
