AV-unprocessed.smi:34|AV-procd|sdf|245|dock8
  -GOLD-   2262016 03D 1   1.00000     0.00000
 Structure written by MMmdl.
 54 58  0  0  0  0  0  0  0  0  2 V2000
  147.0390  131.7824  154.6674 O   0  0  0  0  0  0  0  0  0  0  0  0
  148.0268  131.3041  154.1060 C   0  0  0  0  0  0  0  0  0  0  0  0
  149.3213  131.6959  154.2196 N   0  5  0  0  0  0  0  0  0  0  0  0
  149.6263  132.8153  154.8935 C   0  0  0  0  0  0  0  0  0  0  0  0
  150.7512  132.8760  155.6504 N   0  0  0  0  0  0  0  0  0  0  0  0
  151.0612  133.9977  156.3106 C   0  0  0  0  0  0  0  0  0  0  0  0
  150.4025  135.1597  156.3477 N   0  0  0  0  0  0  0  0  0  0  0  0
  149.2691  135.1145  155.5881 C   0  0  0  0  0  0  0  0  0  0  0  0
  148.8239  133.9878  154.8359 C   0  0  0  0  0  0  0  0  0  0  0  0
  147.6431  134.2756  154.1676 N   0  0  0  0  0  0  0  0  0  0  0  0
  147.4271  135.5357  154.5367 C   0  0  0  0  0  0  0  0  0  0  0  0
  148.3237  136.1050  155.3669 N   0  0  0  0  0  0  0  0  0  0  0  0
  148.2868  137.5001  155.9109 C   0  0  2  0  0  0  0  0  0  0  0  0
  149.5605  138.0580  155.7903 O   0  0  0  0  0  0  0  0  0  0  0  0
  149.8530  138.8019  156.9664 C   0  0  2  0  0  0  0  0  0  0  0  0
  151.3663  139.0028  157.1211 C   0  0  0  0  0  0  0  0  0  0  0  0
  151.6147  140.2025  157.8365 O   0  0  0  0  0  0  0  0  0  0  0  0
  151.2114  141.3845  157.3297 C   0  0  0  0  0  0  0  0  0  0  0  0
  150.6707  141.5051  156.2283 O   0  0  0  0  0  0  0  0  0  0  0  0
  151.4813  142.5320  158.2437 C   0  0  0  0  0  0  0  0  0  0  0  0
  152.0740  142.2884  159.5049 C   0  0  0  0  0  0  0  0  0  0  0  0
  152.3452  143.3516  160.3879 C   0  0  0  0  0  0  0  0  0  0  0  0
  152.0255  144.6719  160.0211 C   0  0  0  0  0  0  0  0  0  0  0  0
  151.4331  144.9273  158.7705 C   0  0  0  0  0  0  0  0  0  0  0  0
  151.1620  143.8652  157.8857 C   0  0  0  0  0  0  0  0  0  0  0  0
  149.1805  137.9962  158.0797 C   0  0  2  0  0  0  0  0  0  0  0  0
  149.9401  136.9444  158.3934 F   0  0  0  0  0  0  0  0  0  0  0  0
  147.8897  137.5599  157.4021 C   0  0  2  0  0  0  0  0  0  0  0  0
  147.3646  136.3655  157.9541 O   0  0  0  0  0  0  0  0  0  0  0  0
  147.8468  130.0987  153.2222 C   0  0  0  0  0  0  0  0  0  0  0  0
  148.8599  129.1145  153.1644 C   0  0  0  0  0  0  0  0  0  0  0  0
  148.6987  127.9666  152.3639 C   0  0  0  0  0  0  0  0  0  0  0  0
  147.5176  127.7860  151.6199 C   0  0  0  0  0  0  0  0  0  0  0  0
  146.4961  128.7522  151.6803 C   0  0  0  0  0  0  0  0  0  0  0  0
  146.6567  129.9003  152.4802 C   0  0  0  0  0  0  0  0  0  0  0  0
  151.9707  133.9596  156.8914 H   0  0  0  0  0  0  0  0  0  0  0  0
  146.5622  136.0775  154.1836 H   0  0  0  0  0  0  0  0  0  0  0  0
  147.5798  138.0244  155.2663 H   0  0  0  0  0  0  0  0  0  0  0  0
  149.3620  139.7723  156.8713 H   0  0  0  0  0  0  0  0  0  0  0  0
  151.8210  138.1524  157.6309 H   0  0  0  0  0  0  0  0  0  0  0  0
  151.8271  139.0734  156.1348 H   0  0  0  0  0  0  0  0  0  0  0  0
  152.3295  141.2832  159.8080 H   0  0  0  0  0  0  0  0  0  0  0  0
  152.7997  143.1533  161.3473 H   0  0  0  0  0  0  0  0  0  0  0  0
  152.2341  145.4873  160.6982 H   0  0  0  0  0  0  0  0  0  0  0  0
  151.1861  145.9405  158.4887 H   0  0  0  0  0  0  0  0  0  0  0  0
  150.7064  144.0964  156.9339 H   0  0  0  0  0  0  0  0  0  0  0  0
  149.0186  138.5696  158.9930 H   0  0  0  0  0  0  0  0  0  0  0  0
  147.1450  138.3499  157.5068 H   0  0  0  0  0  0  0  0  0  0  0  0
  147.8221  135.6303  157.5758 H   0  0  0  0  0  0  0  0  0  0  0  0
  149.7714  129.2371  153.7316 H   0  0  0  0  0  0  0  0  0  0  0  0
  149.4818  127.2242  152.3229 H   0  0  0  0  0  0  0  0  0  0  0  0
  147.3933  126.9056  151.0070 H   0  0  0  0  0  0  0  0  0  0  0  0
  145.5863  128.6122  151.1156 H   0  0  0  0  0  0  0  0  0  0  0  0
  145.8557  130.6243  152.5214 H   0  0  0  0  0  0  0  0  0  0  0  0
  1  2  2  0  0  0  0
  2  3  1  0  0  0  0
  2 30  1  0  0  0  0
  3  4  1  0  0  0  0
  4  9  1  0  0  0  0
  4  5  2  0  0  0  0
  5  6  1  0  0  0  0
  6  7  2  0  0  0  0
  6 36  1  0  0  0  0
  7  8  1  0  0  0  0
  8 12  1  0  0  0  0
  8  9  2  0  0  0  0
  9 10  1  0  0  0  0
 10 11  2  0  0  0  0
 11 12  1  0  0  0  0
 11 37  1  0  0  0  0
 12 13  1  0  0  0  0
 13 28  1  0  0  0  0
 13 14  1  0  0  0  0
 13 38  1  0  0  0  0
 14 15  1  0  0  0  0
 15 16  1  0  0  0  0
 15 26  1  0  0  0  0
 15 39  1  0  0  0  0
 16 17  1  0  0  0  0
 16 40  1  0  0  0  0
 16 41  1  0  0  0  0
 17 18  1  0  0  0  0
 18 19  2  0  0  0  0
 18 20  1  0  0  0  0
 20 25  1  0  0  0  0
 20 21  2  0  0  0  0
 21 22  1  0  0  0  0
 21 42  1  0  0  0  0
 22 23  2  0  0  0  0
 22 43  1  0  0  0  0
 23 24  1  0  0  0  0
 23 44  1  0  0  0  0
 24 25  2  0  0  0  0
 24 45  1  0  0  0  0
 25 46  1  0  0  0  0
 26 27  1  0  0  0  0
 26 28  1  0  0  0  0
 26 47  1  0  0  0  0
 28 29  1  0  0  0  0
 28 48  1  0  0  0  0
 29 49  1  0  0  0  0
 30 35  1  0  0  0  0
 30 31  2  0  0  0  0
 31 32  1  0  0  0  0
 31 50  1  0  0  0  0
 32 33  2  0  0  0  0
 32 51  1  0  0  0  0
 33 34  1  0  0  0  0
 33 52  1  0  0  0  0
 34 35  2  0  0  0  0
 34 53  1  0  0  0  0
 35 54  1  0  0  0  0
M  CHG  1   3  -1
M  END
> <s_m_source_file>
AV-unprocessed.smi

> <i_m_source_file_index>
34

> <i_lp_mmshare_version>
43012

> <i_f3d_flags>
0

> <s_epik_input>
W2NIXTFbY0hdW2NIXVtjSF1bY0hdYzFDKD1PKVtOSF1jKG5bY0hdbjIpYyhjMjMpbltjSF1uM1tDQEBIXTRPW0NASF0oW0NAQEhdKEYpW0NASF00W09IXSlbQ0gyXU9DKD1PKWM1W2NIXVtjSF1bY0hdW2NIXVtjSF01

> <s_epik_cmdline>
J2VwaWtfcHl0aG9uJywgJy1waCcsICc3LjAnLCAnLXRuJywgJzgnLCAnLW1hJywgJzIwMCcsICctbWV0YWxfYmluZGluZycsICctaW1hZScsICc8aW5maWxlLm1hZT4nLCAnLW9tYWUnLCAnPG91dGZpbGUubWFlPic=

> <r_lp_tautomer_probability>
1

> <r_epik_Ionization_Penalty>
4.33227

> <r_epik_Ionization_Penalty_Charging>
3.41027

> <r_epik_Ionization_Penalty_Neutral>
0.922001

> <r_epik_State_Penalty>
3.41358

> <r_epik_Charging_Adjusted_Penalty>
6.82385

> <i_epik_Tot_Q>
-1

> <i_epik_Tot_abs_Q>
1

> <r_epik_Metal_State_Penalty>
0.496292

> <b_epik_Metal_Only>
1

> <s_epik_Chemistry_Notes>
This compound has an ester and may undergo hydrolysis at high or low pH. This compound contains an acetal/aminal-like group ( X-CH(R)-Y where X, Y are N, S, or O) that may be acid/base labile, releasing an aldehyde.

> <s_lp_Force_Field>
OPLS_2005

> <r_lp_Energy>
53.545

> <b_lp_Chiralities_Consistent>
1

> <s_lp_Variant>
AV-unprocessed.smi:34-31

> <Gold.Version>
5.8.1

> <Gold.Id.Protein>
6NUR|6NUR_protein|mol2

> <Gold.PLP.Fitness>
49.9585

> <Gold.PLP.PLP>
-52.3327

> <Gold.PLP.part.hbond>
0.0000

> <Gold.PLP.part.metal>
0.0000

> <Gold.PLP.part.buried>
-7.3623

> <Gold.PLP.part.nonpolar>
-45.3136

> <Gold.PLP.part.repulsive>
0.3326

> <Gold.PLP.ligand.clash>
0.0000

> <Gold.PLP.ligand.torsion>
1.4432

> <Gold.PLP.Chemscore.Hbond>
0.0000

> <Gold.PLP.Chemscore.CHOScore>
0.0000

> <Gold.PLP.Chemscore.Metal>
0.0000

> <Gold.PLP.Chemscore.Internal.Correction>
0.5123

> <Gold.Rescore>
     Score         DG    S(hbond)    S(metal)    S(lipo)     H(rot)  DE(clash)    DE(int)     intcor
      8.10     -14.18       0.00        0.00     133.35       2.69       0.04       6.04       ----

> <Gold.Chemscore.Fitness>
8.1028

> <Gold.Chemscore.DG>
-14.1842

> <Gold.Chemscore.ZeroCoef>
-5.4800

> <Gold.Chemscore.Hbond>
0.0000

> <Gold.Chemscore.Metal>
0.0000

> <Gold.Chemscore.Lipo>
133.3479

> <Gold.Chemscore.Internal_Hbond>
0.0000

> <Gold.Chemscore.DEClash>
0.0405

> <Gold.Chemscore.DEInternal>
6.0408

> <Gold.Chemscore.Rot>
2.6944

> <Gold.Chemscore.Internal.Correction>
   9.000000E+99

> <Gold.Chemscore.Hbond.Weighted>
-0.0000

> <Gold.Chemscore.Metal.Weighted>
-0.0000

> <Gold.Chemscore.Lipo.Weighted>
-15.6017

> <Gold.Chemscore.Internal_Hbond.Weighted>
0.0000

> <Gold.Chemscore.DEClash.Weighted>
0.0405

> <Gold.Chemscore.DEInternal.Weighted>
6.0408

> <Gold.Chemscore.Rot.Weighted>
6.8975

> <Gold.Chemscore.Internal.Correction.Weighted>
   9.000000E+99

> <Gold.Protein.RotatedTorsions>
[ 6907 6896 6895 6894 ] final  -91.22 input  -60.11 | X-H torsion
[ 7974 7965 7964 7962 ] final  -53.55 input  175.53 | X-H torsion
[ 8008 7997 7996 7995 ] final  172.63 input   59.86 | X-H torsion
[ 10167 10162 10161 10158 ] final -155.16 input  -65.29 | X-H torsion
[ 10718 10713 10712 10709 ] final   53.65 input   66.30 | X-H torsion
[ 10763 10752 10751 10750 ] final -143.54 input  -60.55 | X-H torsion
[ 11005 11000 10999 10996 ] final  109.23 input  -57.11 | X-H torsion

> <Gold.Protein.ActiveResidues>
 VAL166  LYS551  ARG553  GLY616  TRP617  ASP618  TYR619  PRO620  LYS621  CYS622 
 ASP623  PHE694  ASN695  SER759  ASP760  ASP761  ALA762  ILE779  LEU786  VAL792 
 PHE793  MET794  SER795  GLU796  ALA797  LYS798  CYS799  TRP800  GLU811  SER814 

> <Gold.Protein.RotatedAtoms>
  150.6890  134.2310  159.4434 H   0  0  0  0  0  0  0  0  0  0  0  0  # atno 6907 bound_to 6896
  152.0261  134.9792  160.0581 H   0  0  0  0  0  0  0  0  0  0  0  0  # atno 6908 bound_to 6896
  152.1350  133.4395  159.4776 H   0  0  0  0  0  0  0  0  0  0  0  0  # atno 6909 bound_to 6896
  145.8955  140.8036  142.9769 H   0  0  0  0  0  0  0  0  0  0  0  0  # atno 7974 bound_to 7965
  156.1155  140.1481  156.9279 H   0  0  0  0  0  0  0  0  0  0  0  0  # atno 8008 bound_to 7997
  154.4797  140.0883  156.7391 H   0  0  0  0  0  0  0  0  0  0  0  0  # atno 8009 bound_to 7997
  155.4521  140.3435  155.4304 H   0  0  0  0  0  0  0  0  0  0  0  0  # atno 8010 bound_to 7997
  139.6954  143.9351  152.2404 H   0  0  0  0  0  0  0  0  0  0  0  0  # atno 10167 bound_to 10162
  157.5186  130.8549  149.8529 H   0  0  0  0  0  0  0  0  0  0  0  0  # atno 10718 bound_to 10713
  154.8465  135.3465  154.6204 H   0  0  0  0  0  0  0  0  0  0  0  0  # atno 10763 bound_to 10752
  153.6813  135.6980  153.5122 H   0  0  0  0  0  0  0  0  0  0  0  0  # atno 10764 bound_to 10752
  153.2666  135.4306  155.0903 H   0  0  0  0  0  0  0  0  0  0  0  0  # atno 10765 bound_to 10752
  139.8858  134.9452  156.6093 H   0  0  0  0  0  0  0  0  0  0  0  0  # atno 11005 bound_to 11000
  144.6732  140.1596  143.7423 LP  0  0  0  0  0  0  0  0  0  0  0  0  # atno 17320 bound_to 7965
  145.8855  139.2346  143.1580 LP  0  0  0  0  0  0  0  0  0  0  0  0  # atno 17321 bound_to 7965
  139.9178  144.6818  150.8493 LP  0  0  0  0  0  0  0  0  0  0  0  0  # atno 17342 bound_to 10162
  140.7695  143.3396  151.2235 LP  0  0  0  0  0  0  0  0  0  0  0  0  # atno 17343 bound_to 10162
  156.0338  130.3757  150.1616 LP  0  0  0  0  0  0  0  0  0  0  0  0  # atno 17370 bound_to 10713
  156.9805  130.9862  151.3438 LP  0  0  0  0  0  0  0  0  0  0  0  0  # atno 17371 bound_to 10713
  140.7824  133.8649  155.8578 LP  0  0  0  0  0  0  0  0  0  0  0  0  # atno 17394 bound_to 11000
  140.9749  134.1482  157.4545 LP  0  0  0  0  0  0  0  0  0  0  0  0  # atno 17395 bound_to 11000

$$$$
