AV-unprocessed.smi:1042|AV-procd|sdf|4537|dock6
  -GOLD-   22720 2563D 1   1.00000     0.00000
 Structure written by MMmdl.
 40 42  0  0  0  0  0  0  0  0  2 V2000
  146.4550  139.3467  153.6419 O   0  0  0  0  0  0  0  0  0  0  0  0
  147.1921  138.5190  153.1058 C   0  0  0  0  0  0  0  0  0  0  0  0
  146.7499  137.5797  152.2566 N   0  0  0  0  0  0  0  0  0  0  0  0
  145.3599  137.4079  151.8448 C   0  0  0  0  0  0  0  0  0  0  0  0
  144.8436  135.9768  152.0954 C   0  0  1  0  0  0  0  0  0  0  0  0
  143.6084  135.9069  152.9876 C   0  0  0  0  0  0  0  0  0  0  0  0
  143.0656  134.5119  152.6877 C   0  0  0  0  0  0  0  0  0  0  0  0
  143.3340  134.2814  151.2512 N   0  3  2  0  0  0  0  0  0  0  0  0
  143.6035  132.8675  150.9127 C   0  0  0  0  0  0  0  0  0  0  0  0
  145.0745  132.5398  150.8164 C   0  0  0  0  0  0  0  0  0  0  0  0
  144.2451  132.6813  149.5585 C   0  0  0  0  0  0  0  0  0  0  0  0
  144.4056  135.2168  150.8350 C   0  0  0  0  0  0  0  0  0  0  0  0
  148.5219  138.4286  153.2844 N   0  0  0  0  0  0  0  0  0  0  0  0
  149.3475  139.2107  154.1360 C   0  0  0  0  0  0  0  0  0  0  0  0
  148.8446  140.4953  154.4432 C   0  0  0  0  0  0  0  0  0  0  0  0
  149.5915  141.3504  155.2769 C   0  0  0  0  0  0  0  0  0  0  0  0
  150.8240  140.8986  155.7816 C   0  0  0  0  0  0  0  0  0  0  0  0
  151.2521  139.6064  155.4264 C   0  0  0  0  0  0  0  0  0  0  0  0
  150.5383  138.7855  154.6270 N   0  0  0  0  0  0  0  0  0  0  0  0
  147.4256  136.9455  151.8559 H   0  0  0  0  0  0  0  0  0  0  0  0
  144.7315  138.1321  152.3659 H   0  0  0  0  0  0  0  0  0  0  0  0
  145.2923  137.6496  150.7837 H   0  0  0  0  0  0  0  0  0  0  0  0
  145.6274  135.3942  152.5823 H   0  0  0  0  0  0  0  0  0  0  0  0
  143.8390  136.0527  154.0435 H   0  0  0  0  0  0  0  0  0  0  0  0
  142.8797  136.6633  152.6919 H   0  0  0  0  0  0  0  0  0  0  0  0
  143.6053  133.7777  153.2885 H   0  0  0  0  0  0  0  0  0  0  0  0
  142.0038  134.4160  152.9171 H   0  0  0  0  0  0  0  0  0  0  0  0
  142.8987  132.1327  151.2983 H   0  0  0  0  0  0  0  0  0  0  0  0
  145.7939  133.3270  151.0354 H   0  0  0  0  0  0  0  0  0  0  0  0
  145.3847  131.5354  151.0978 H   0  0  0  0  0  0  0  0  0  0  0  0
  144.0100  131.7703  149.0120 H   0  0  0  0  0  0  0  0  0  0  0  0
  144.4127  133.5628  148.9423 H   0  0  0  0  0  0  0  0  0  0  0  0
  143.9832  135.9000  150.0974 H   0  0  0  0  0  0  0  0  0  0  0  0
  145.2485  134.7076  150.3647 H   0  0  0  0  0  0  0  0  0  0  0  0
  148.9989  137.7115  152.7584 H   0  0  0  0  0  0  0  0  0  0  0  0
  147.8955  140.8270  154.0474 H   0  0  0  0  0  0  0  0  0  0  0  0
  149.2244  142.3356  155.5240 H   0  0  0  0  0  0  0  0  0  0  0  0
  151.4251  141.5252  156.4239 H   0  0  0  0  0  0  0  0  0  0  0  0
  152.1922  139.2213  155.7928 H   0  0  0  0  0  0  0  0  0  0  0  0
  142.5036  134.5594  150.7481 H   0  0  0  0  0  0  0  0  0  0  0  0
  1  2  2  0  0  0  0
  2  3  1  0  0  0  0
  2 13  1  0  0  0  0
  3  4  1  0  0  0  0
  3 20  1  0  0  0  0
  4  5  1  0  0  0  0
  4 21  1  0  0  0  0
  4 22  1  0  0  0  0
  5 12  1  0  0  0  0
  5  6  1  0  0  0  0
  5 23  1  0  0  0  0
  6  7  1  0  0  0  0
  6 24  1  0  0  0  0
  6 25  1  0  0  0  0
  7  8  1  0  0  0  0
  7 26  1  0  0  0  0
  7 27  1  0  0  0  0
  8  9  1  0  0  0  0
  8 12  1  0  0  0  0
  8 40  1  0  0  0  0
  9 11  1  0  0  0  0
  9 10  1  0  0  0  0
  9 28  1  0  0  0  0
 10 11  1  0  0  0  0
 10 29  1  0  0  0  0
 10 30  1  0  0  0  0
 11 31  1  0  0  0  0
 11 32  1  0  0  0  0
 12 33  1  0  0  0  0
 12 34  1  0  0  0  0
 13 14  1  0  0  0  0
 13 35  1  0  0  0  0
 14 19  1  0  0  0  0
 14 15  2  0  0  0  0
 15 16  1  0  0  0  0
 15 36  1  0  0  0  0
 16 17  2  0  0  0  0
 16 37  1  0  0  0  0
 17 18  1  0  0  0  0
 17 38  1  0  0  0  0
 18 19  2  0  0  0  0
 18 39  1  0  0  0  0
M  CHG  1   8   1
M  END
> <s_m_source_file>
AV-unprocessed.smi

> <i_m_source_file_index>
1042

> <i_lp_mmshare_version>
43012

> <i_f3d_flags>
0

> <s_epik_input>
bjFbY0hdW2NIXVtjSF1bY0hdYzFbTkhdQyg9TylbTkhdW0NIMl1bQ0BASF0yW0NIMl1bQ0gyXU4oW0NIMl0yKVtDSF0zW0NIMl1bQ0gyXTM=

> <s_epik_cmdline>
J2VwaWtfcHl0aG9uJywgJy1waCcsICc3LjAnLCAnLXRuJywgJzgnLCAnLW1hJywgJzIwMCcsICctbWV0YWxfYmluZGluZycsICctaW1hZScsICc8aW5maWxlLm1hZT4nLCAnLW9tYWUnLCAnPG91dGZpbGUubWFlPic=

> <r_lp_tautomer_probability>
1

> <r_epik_Ionization_Penalty>
0.000244736

> <r_epik_Ionization_Penalty_Charging>
0.000203384

> <r_epik_Ionization_Penalty_Neutral>
4.13519e-05

> <r_epik_State_Penalty>
-0

> <r_epik_Charging_Adjusted_Penalty>
0.000203384

> <i_epik_Tot_Q>
1

> <i_epik_Tot_abs_Q>
1

> <r_epik_Metal_State_Penalty>
-0

> <b_epik_Metal_Only>
0

> <s_lp_Force_Field>
OPLS_2005

> <r_lp_Energy>
38.5501

> <b_lp_Chiralities_Consistent>
1

> <s_lp_Variant>
AV-unprocessed.smi:1042-2

> <Gold.Version>
5.8.1

> <Gold.Id.Protein>
6NUR|6NUR_protein|mol2

> <Gold.PLP.Fitness>
47.9042

> <Gold.PLP.PLP>
-37.8812

> <Gold.PLP.part.hbond>
-3.9081

> <Gold.PLP.part.metal>
0.0000

> <Gold.PLP.part.buried>
-0.6947

> <Gold.PLP.part.nonpolar>
-34.4273

> <Gold.PLP.part.repulsive>
0.4854

> <Gold.PLP.ligand.clash>
0.0000

> <Gold.PLP.ligand.torsion>
1.5352

> <Gold.PLP.Chemscore.Hbond>
3.9440

> <Gold.PLP.Chemscore.CHOScore>
0.0000

> <Gold.PLP.Chemscore.Metal>
0.0000

> <Gold.Chemscore.Hbonds>
donor molecule, donor type, donor heavy atom, donor atom, acceptor molecule, acceptor atom, score
      L1  H     3    20       P1  7948  1.00
      L1  H     8    40       P1 10186  1.60
      L1  H    13    35       P1  7948  1.00

> <Gold.PLP.Chemscore.Internal.Correction>
1.2614

> <Gold.Rescore>
     Score         DG    S(hbond)    S(metal)    S(lipo)     H(rot)  DE(clash)    DE(int)     intcor
     15.89     -20.30       2.72        0.00      81.21       1.47       1.47       2.94       ----

> <Gold.Chemscore.Fitness>
15.8878

> <Gold.Chemscore.DG>
-20.3022

> <Gold.Chemscore.ZeroCoef>
-5.4800

> <Gold.Chemscore.Hbond>
2.7202

> <Gold.Chemscore.Metal>
0.0000

> <Gold.Chemscore.Lipo>
81.2122

> <Gold.Chemscore.Internal_Hbond>
0.0000

> <Gold.Chemscore.DEClash>
1.4698

> <Gold.Chemscore.DEInternal>
2.9446

> <Gold.Chemscore.Rot>
1.4707

> <Gold.Chemscore.Internal.Correction>
   9.000000E+99

> <Gold.Chemscore.Hbonds>
donor molecule, donor type, donor heavy atom, donor atom, acceptor molecule, acceptor atom, score
      L1  H     3    20       P1  7948  0.96
      L1  H     8    40       P1 10186  0.12
      L1  H    13    35       P1  7948  0.95

> <Gold.Chemscore.Hbond.Weighted>
-9.0854

> <Gold.Chemscore.Metal.Weighted>
-0.0000

> <Gold.Chemscore.Lipo.Weighted>
-9.5018

> <Gold.Chemscore.Internal_Hbond.Weighted>
0.0000

> <Gold.Chemscore.DEClash.Weighted>
1.4698

> <Gold.Chemscore.DEInternal.Weighted>
2.9446

> <Gold.Chemscore.Rot.Weighted>
3.7650

> <Gold.Chemscore.Internal.Correction.Weighted>
   9.000000E+99

> <Gold.Protein.RotatedTorsions>
[ 6907 6896 6895 6894 ] final  162.98 input  -60.11 | X-H torsion
[ 7974 7965 7964 7962 ] final  119.84 input  175.53 | X-H torsion
[ 8008 7997 7996 7995 ] final  172.10 input   59.86 | X-H torsion
[ 10167 10162 10161 10158 ] final  109.85 input  -65.29 | X-H torsion
[ 10718 10713 10712 10709 ] final -167.77 input   66.30 | X-H torsion
[ 10763 10752 10751 10750 ] final  -70.08 input  -60.55 | X-H torsion
[ 11005 11000 10999 10996 ] final  142.20 input  -57.11 | X-H torsion

> <Gold.Protein.ActiveResidues>
 VAL166  LYS551  ARG553  GLY616  TRP617  ASP618  TYR619  PRO620  LYS621  CYS622 
 ASP623  PHE694  ASN695  SER759  ASP760  ASP761  ALA762  ILE779  LEU786  VAL792 
 PHE793  MET794  SER795  GLU796  ALA797  LYS798  CYS799  TRP800  GLU811  SER814 

> <Gold.Protein.RotatedAtoms>
  151.9321  133.3614  159.3934 H   0  0  0  0  0  0  0  0  0  0  0  0  # atno 6907 bound_to 6896
  150.7015  134.4526  159.5353 H   0  0  0  0  0  0  0  0  0  0  0  0  # atno 6908 bound_to 6896
  152.2168  134.8450  160.0541 H   0  0  0  0  0  0  0  0  0  0  0  0  # atno 6909 bound_to 6896
  145.1383  139.3284  143.4629 H   0  0  0  0  0  0  0  0  0  0  0  0  # atno 7974 bound_to 7965
  156.1207  140.1494  156.9209 H   0  0  0  0  0  0  0  0  0  0  0  0  # atno 8008 bound_to 7997
  154.4833  140.0872  156.7471 H   0  0  0  0  0  0  0  0  0  0  0  0  # atno 8009 bound_to 7997
  155.4434  140.3432  155.4294 H   0  0  0  0  0  0  0  0  0  0  0  0  # atno 8010 bound_to 7997
  139.6734  144.7124  151.1646 H   0  0  0  0  0  0  0  0  0  0  0  0  # atno 10167 bound_to 10162
  156.6872  130.9145  151.3064 H   0  0  0  0  0  0  0  0  0  0  0  0  # atno 10718 bound_to 10713
  154.4126  135.6005  153.5961 H   0  0  0  0  0  0  0  0  0  0  0  0  # atno 10763 bound_to 10752
  152.9791  135.5933  154.4052 H   0  0  0  0  0  0  0  0  0  0  0  0  # atno 10764 bound_to 10752
  154.3866  135.2841  155.2158 H   0  0  0  0  0  0  0  0  0  0  0  0  # atno 10765 bound_to 10752
  140.0459  134.9281  157.0928 H   0  0  0  0  0  0  0  0  0  0  0  0  # atno 11005 bound_to 11000
  146.3507  140.1409  142.8594 LP  0  0  0  0  0  0  0  0  0  0  0  0  # atno 17320 bound_to 7965
  145.0560  140.9053  143.4967 LP  0  0  0  0  0  0  0  0  0  0  0  0  # atno 17321 bound_to 7965
  140.7626  143.5809  150.8896 LP  0  0  0  0  0  0  0  0  0  0  0  0  # atno 17342 bound_to 10162
  139.9476  143.6310  152.3037 LP  0  0  0  0  0  0  0  0  0  0  0  0  # atno 17343 bound_to 10162
  157.7022  130.9345  150.0820 LP  0  0  0  0  0  0  0  0  0  0  0  0  # atno 17370 bound_to 10713
  156.1824  130.3650  149.9018 LP  0  0  0  0  0  0  0  0  0  0  0  0  # atno 17371 bound_to 10713
  140.3995  134.2098  155.7164 LP  0  0  0  0  0  0  0  0  0  0  0  0  # atno 17394 bound_to 11000
  141.1906  133.8212  157.0910 LP  0  0  0  0  0  0  0  0  0  0  0  0  # atno 17395 bound_to 11000

$$$$
