AV-unprocessed.smi:2454|AV-procd|sdf|9697|dock6
  -GOLD-   2272013333D 1   1.00000     0.00000
 Structure written by MMmdl.
 42 43  0  0  0  0  0  0  0  0  1 V2000
  154.6374  135.7792  159.3310 C   0  0  0  0  0  0  0  0  0  0  0  0
  154.0724  135.1061  160.4422 O   0  0  0  0  0  0  0  0  0  0  0  0
  155.0115  134.8929  161.4825 C   0  0  0  0  0  0  0  0  0  0  0  0
  155.2005  136.1411  162.3194 C   0  0  0  0  0  0  0  0  0  0  0  0
  154.6938  137.3889  161.8989 C   0  0  0  0  0  0  0  0  0  0  0  0
  154.9101  138.4976  162.7483 C   0  0  0  0  0  0  0  0  0  0  0  0
  154.3795  139.7344  162.2766 N   0  0  0  0  0  0  0  0  0  0  0  0
  154.1168  140.1763  161.0278 C   0  0  0  0  0  0  0  0  0  0  0  0
  154.3360  139.4685  160.0460 O   0  0  0  0  0  0  0  0  0  0  0  0
  153.6102  141.4165  160.9303 N   0  0  0  0  0  0  0  0  0  0  0  0
  153.2440  142.0945  159.6912 C   0  0  2  0  0  0  0  0  0  0  0  0
  152.8118  143.5467  159.9739 C   0  0  0  0  0  0  0  0  0  0  0  0
  152.3433  144.2476  158.6901 C   0  0  0  0  0  0  0  0  0  0  0  0
  151.2182  143.4590  158.0016 C   0  0  0  0  0  0  0  0  0  0  0  0
  151.6436  142.0063  157.7006 C   0  0  2  0  0  0  0  0  0  0  0  0
  150.5275  141.2117  156.9916 C   0  0  0  0  0  0  0  0  0  0  0  0
  150.8923  139.9427  156.8054 F   0  0  0  0  0  0  0  0  0  0  0  0
  149.4143  141.2367  157.7243 F   0  0  0  0  0  0  0  0  0  0  0  0
  150.2569  141.7607  155.8074 F   0  0  0  0  0  0  0  0  0  0  0  0
  152.1131  141.3127  158.9971 C   0  0  0  0  0  0  0  0  0  0  0  0
  155.5830  138.3277  163.9154 N   0  0  0  0  0  0  0  0  0  0  0  0
  156.0189  137.1027  164.2190 C   0  0  0  0  0  0  0  0  0  0  0  0
  155.8654  136.0001  163.4857 N   0  0  0  0  0  0  0  0  0  0  0  0
  153.8776  135.9184  158.5623 H   0  0  0  0  0  0  0  0  0  0  0  0
  155.4557  135.2040  158.8952 H   0  0  0  0  0  0  0  0  0  0  0  0
  155.0132  136.7629  159.6154 H   0  0  0  0  0  0  0  0  0  0  0  0
  154.6791  134.0753  162.1247 H   0  0  0  0  0  0  0  0  0  0  0  0
  155.9737  134.5976  161.0608 H   0  0  0  0  0  0  0  0  0  0  0  0
  154.1597  137.4869  160.9647 H   0  0  0  0  0  0  0  0  0  0  0  0
  154.1591  140.3965  163.0061 H   0  0  0  0  0  0  0  0  0  0  0  0
  153.4629  141.9284  161.7893 H   0  0  0  0  0  0  0  0  0  0  0  0
  154.1080  142.1054  159.0240 H   0  0  0  0  0  0  0  0  0  0  0  0
  152.0037  143.5566  160.7068 H   0  0  0  0  0  0  0  0  0  0  0  0
  153.6361  144.1077  160.4155 H   0  0  0  0  0  0  0  0  0  0  0  0
  152.0012  145.2565  158.9224 H   0  0  0  0  0  0  0  0  0  0  0  0
  153.1852  144.3568  158.0053 H   0  0  0  0  0  0  0  0  0  0  0  0
  150.3328  143.4613  158.6386 H   0  0  0  0  0  0  0  0  0  0  0  0
  150.9349  143.9663  157.0790 H   0  0  0  0  0  0  0  0  0  0  0  0
  152.4959  142.0458  157.0207 H   0  0  0  0  0  0  0  0  0  0  0  0
  152.4561  140.3020  158.7725 H   0  0  0  0  0  0  0  0  0  0  0  0
  151.2690  141.2053  159.6802 H   0  0  0  0  0  0  0  0  0  0  0  0
  156.5503  136.9947  165.1529 H   0  0  0  0  0  0  0  0  0  0  0  0
  1  2  1  0  0  0  0
  1 24  1  0  0  0  0
  1 25  1  0  0  0  0
  1 26  1  0  0  0  0
  2  3  1  0  0  0  0
  3  4  1  0  0  0  0
  3 27  1  0  0  0  0
  3 28  1  0  0  0  0
  4 23  1  0  0  0  0
  4  5  2  0  0  0  0
  5  6  1  0  0  0  0
  5 29  1  0  0  0  0
  6  7  1  0  0  0  0
  6 21  2  0  0  0  0
  7  8  1  0  0  0  0
  7 30  1  0  0  0  0
  8  9  2  0  0  0  0
  8 10  1  0  0  0  0
 10 11  1  0  0  0  0
 10 31  1  0  0  0  0
 11 20  1  0  0  0  0
 11 12  1  0  0  0  0
 11 32  1  0  0  0  0
 12 13  1  0  0  0  0
 12 33  1  0  0  0  0
 12 34  1  0  0  0  0
 13 14  1  0  0  0  0
 13 35  1  0  0  0  0
 13 36  1  0  0  0  0
 14 15  1  0  0  0  0
 14 37  1  0  0  0  0
 14 38  1  0  0  0  0
 15 16  1  0  0  0  0
 15 20  1  0  0  0  0
 15 39  1  0  0  0  0
 16 17  1  0  0  0  0
 16 18  1  0  0  0  0
 16 19  1  0  0  0  0
 20 40  1  0  0  0  0
 20 41  1  0  0  0  0
 21 22  1  0  0  0  0
 22 23  2  0  0  0  0
 22 42  1  0  0  0  0
M  END
> <s_m_source_file>
AV-unprocessed.smi

> <i_m_source_file_index>
2454

> <i_lp_mmshare_version>
43012

> <i_f3d_flags>
0

> <s_epik_input>
W0NIM11PW0NIMl1jMVtjSF1jKG5bY0hdbjEpW05IXUMoPU8pW05IXVtDQEBIXTJbQ0gyXVtDSDJdW0NIMl1bQ0BASF0oQyhGKShGKUYpW0NIMl0y

> <s_epik_cmdline>
J2VwaWtfcHl0aG9uJywgJy1waCcsICc3LjAnLCAnLXRuJywgJzgnLCAnLW1hJywgJzIwMCcsICctbWV0YWxfYmluZGluZycsICctaW1hZScsICc8aW5maWxlLm1hZT4nLCAnLW9tYWUnLCAnPG91dGZpbGUubWFlPic=

> <r_lp_tautomer_probability>
1

> <r_epik_Ionization_Penalty>
3.01554e-05

> <r_epik_Ionization_Penalty_Charging>
0

> <r_epik_Ionization_Penalty_Neutral>
3.01554e-05

> <r_epik_State_Penalty>
-0

> <r_epik_Charging_Adjusted_Penalty>
0

> <i_epik_Tot_Q>
0

> <i_epik_Tot_abs_Q>
0

> <r_epik_Metal_State_Penalty>
-0

> <b_epik_Metal_Only>
0

> <s_lp_Force_Field>
OPLS_2005

> <r_lp_Energy>
14.2483

> <b_lp_Chiralities_Consistent>
1

> <s_lp_Variant>
AV-unprocessed.smi:2454-3

> <Gold.Version>
5.8.1

> <Gold.Id.Protein>
6NUR|6NUR_protein|mol2

> <Gold.PLP.Fitness>
38.2676

> <Gold.PLP.PLP>
-36.0793

> <Gold.PLP.part.hbond>
-1.0000

> <Gold.PLP.part.metal>
0.0000

> <Gold.PLP.part.buried>
-5.7155

> <Gold.PLP.part.nonpolar>
-29.8388

> <Gold.PLP.part.repulsive>
0.0699

> <Gold.PLP.ligand.clash>
0.0000

> <Gold.PLP.ligand.torsion>
0.4349

> <Gold.PLP.Chemscore.Hbond>
1.0000

> <Gold.PLP.Chemscore.CHOScore>
0.0000

> <Gold.PLP.Chemscore.Metal>
0.0000

> <Gold.Chemscore.Hbonds>
donor molecule, donor type, donor heavy atom, donor atom, acceptor molecule, acceptor atom, score
      P1  H  6896  6908       L1     2  1.00

> <Gold.PLP.Chemscore.Internal.Correction>
0.0581

> <Gold.Rescore>
     Score         DG    S(hbond)    S(metal)    S(lipo)     H(rot)  DE(clash)    DE(int)     intcor
     13.08     -14.96       0.98        0.00      88.26       1.60       0.02       1.87       ----

> <Gold.Chemscore.Fitness>
13.0817

> <Gold.Chemscore.DG>
-14.9637

> <Gold.Chemscore.ZeroCoef>
-5.4800

> <Gold.Chemscore.Hbond>
0.9767

> <Gold.Chemscore.Metal>
0.0000

> <Gold.Chemscore.Lipo>
88.2625

> <Gold.Chemscore.Internal_Hbond>
0.0000

> <Gold.Chemscore.DEClash>
0.0150

> <Gold.Chemscore.DEInternal>
1.8671

> <Gold.Chemscore.Rot>
1.6035

> <Gold.Chemscore.Internal.Correction>
   9.000000E+99

> <Gold.Chemscore.Hbonds>
donor molecule, donor type, donor heavy atom, donor atom, acceptor molecule, acceptor atom, score
      P1  H  6896  6908       L1     2  0.65

> <Gold.Chemscore.Hbond.Weighted>
-3.2621

> <Gold.Chemscore.Metal.Weighted>
-0.0000

> <Gold.Chemscore.Lipo.Weighted>
-10.3267

> <Gold.Chemscore.Internal_Hbond.Weighted>
0.0000

> <Gold.Chemscore.DEClash.Weighted>
0.0150

> <Gold.Chemscore.DEInternal.Weighted>
1.8671

> <Gold.Chemscore.Rot.Weighted>
4.1050

> <Gold.Chemscore.Internal.Correction.Weighted>
   9.000000E+99

> <Gold.Protein.RotatedTorsions>
[ 6907 6896 6895 6894 ] final  -50.18 input  -60.11 | X-H torsion
[ 7974 7965 7964 7962 ] final -173.57 input  175.53 | X-H torsion
[ 8008 7997 7996 7995 ] final   48.64 input   59.86 | X-H torsion
[ 10167 10162 10161 10158 ] final -129.24 input  -65.29 | X-H torsion
[ 10718 10713 10712 10709 ] final  -33.23 input   66.30 | X-H torsion
[ 10763 10752 10751 10750 ] final   84.07 input  -60.55 | X-H torsion
[ 11005 11000 10999 10996 ] final -100.66 input  -57.11 | X-H torsion

> <Gold.Protein.ActiveResidues>
 VAL166  LYS551  ARG553  GLY616  TRP617  ASP618  TYR619  PRO620  LYS621  CYS622 
 ASP623  PHE694  ASN695  SER759  ASP760  ASP761  ALA762  ILE779  LEU786  VAL792 
 PHE793  MET794  SER795  GLU796  ALA797  LYS798  CYS799  TRP800  GLU811  SER814 

> <Gold.Protein.RotatedAtoms>
  150.8732  134.8110  159.7169 H   0  0  0  0  0  0  0  0  0  0  0  0  # atno 6907 bound_to 6896
  152.4729  134.4914  159.9706 H   0  0  0  0  0  0  0  0  0  0  0  0  # atno 6908 bound_to 6896
  151.4999  133.3468  159.2903 H   0  0  0  0  0  0  0  0  0  0  0  0  # atno 6909 bound_to 6896
  144.7137  140.1601  143.6377 H   0  0  0  0  0  0  0  0  0  0  0  0  # atno 7974 bound_to 7965
  155.3891  140.3432  155.4250 H   0  0  0  0  0  0  0  0  0  0  0  0  # atno 8008 bound_to 7997
  156.1568  140.1588  156.8712 H   0  0  0  0  0  0  0  0  0  0  0  0  # atno 8009 bound_to 7997
  154.5102  140.0792  156.7956 H   0  0  0  0  0  0  0  0  0  0  0  0  # atno 8010 bound_to 7997
  139.9419  143.6154  152.2501 H   0  0  0  0  0  0  0  0  0  0  0  0  # atno 10167 bound_to 10162
  156.3651  130.4330  149.7591 H   0  0  0  0  0  0  0  0  0  0  0  0  # atno 10718 bound_to 10713
  153.1348  135.4668  154.9405 H   0  0  0  0  0  0  0  0  0  0  0  0  # atno 10763 bound_to 10752
  154.7696  135.3155  154.8219 H   0  0  0  0  0  0  0  0  0  0  0  0  # atno 10764 bound_to 10752
  153.8753  135.6899  153.4825 H   0  0  0  0  0  0  0  0  0  0  0  0  # atno 10765 bound_to 10752
  141.1262  133.8416  157.1131 H   0  0  0  0  0  0  0  0  0  0  0  0  # atno 11005 bound_to 11000
  145.9038  139.2446  143.1478 LP  0  0  0  0  0  0  0  0  0  0  0  0  # atno 17320 bound_to 7965
  145.9784  140.8703  143.0127 LP  0  0  0  0  0  0  0  0  0  0  0  0  # atno 17321 bound_to 7965
  139.6698  144.7661  151.1805 LP  0  0  0  0  0  0  0  0  0  0  0  0  # atno 17342 bound_to 10162
  140.7608  143.5883  150.8823 LP  0  0  0  0  0  0  0  0  0  0  0  0  # atno 17343 bound_to 10162
  156.4740  130.8010  151.3027 LP  0  0  0  0  0  0  0  0  0  0  0  0  # atno 17370 bound_to 10713
  157.7478  131.0027  150.3010 LP  0  0  0  0  0  0  0  0  0  0  0  0  # atno 17371 bound_to 10713
  140.0263  134.9922  157.0692 LP  0  0  0  0  0  0  0  0  0  0  0  0  # atno 17394 bound_to 11000
  140.4358  134.1733  155.7170 LP  0  0  0  0  0  0  0  0  0  0  0  0  # atno 17395 bound_to 11000

$$$$
