AV-unprocessed.smi:793|AV-procd|sdf|3752|dock8
  -GOLD-   22720 1183D 1   1.00000     0.00000
 Structure written by MMmdl.
 39 40  0  0  0  0  0  0  0  0  1 V2000
  151.3041  139.4639  156.5966 C   0  0  0  0  0  0  0  0  0  0  0  0
  150.8328  140.7039  155.8269 C   0  0  0  0  0  0  0  0  0  0  0  0
  150.3421  141.8310  156.7551 C   0  0  2  0  0  0  0  0  0  0  0  0
  151.2897  141.9683  157.8135 O   0  0  0  0  0  0  0  0  0  0  0  0
  151.1649  143.1292  158.6309 C   0  0  0  0  0  0  0  0  0  0  0  0
  151.7118  144.3955  157.9632 C   0  0  0  0  0  0  0  0  0  0  0  0
  152.1489  145.3104  159.1158 C   0  0  0  0  0  0  0  0  0  0  0  0
  152.2204  144.4260  160.3701 C   0  0  0  0  0  0  0  0  0  0  0  0
  152.0323  142.9891  159.8796 C   0  0  0  0  0  0  0  0  0  0  0  0
  148.9524  141.5153  157.3325 C   0  0  0  0  0  0  0  0  0  0  0  0
  148.7934  140.4960  158.0036 O   0  0  0  0  0  0  0  0  0  0  0  0
  147.9965  142.4268  157.0660 N   0  0  0  0  0  0  0  0  0  0  0  0
  146.6417  142.4308  157.4347 C   0  0  0  0  0  0  0  0  0  0  0  0
  145.5874  142.3515  156.5827 C   0  0  0  0  0  0  0  0  0  0  0  0
  144.2613  142.3693  156.9908 N   0  0  0  0  0  0  0  0  0  0  0  0
  143.9772  142.4816  158.3421 C   0  0  0  0  0  0  0  0  0  0  0  0
  144.9295  142.5721  159.2912 C   0  0  0  0  0  0  0  0  0  0  0  0
  146.3549  142.5529  158.8918 C   0  0  0  0  0  0  0  0  0  0  0  0
  147.2503  142.6340  159.7326 O   0  0  0  0  0  0  0  0  0  0  0  0
  151.6485  138.6902  155.9104 H   0  0  0  0  0  0  0  0  0  0  0  0
  150.4977  139.0405  157.1960 H   0  0  0  0  0  0  0  0  0  0  0  0
  152.1293  139.7060  157.2668 H   0  0  0  0  0  0  0  0  0  0  0  0
  151.6587  141.0651  155.2123 H   0  0  0  0  0  0  0  0  0  0  0  0
  150.0394  140.4170  155.1355 H   0  0  0  0  0  0  0  0  0  0  0  0
  150.2921  142.7531  156.1736 H   0  0  0  0  0  0  0  0  0  0  0  0
  150.1342  143.2925  158.9485 H   0  0  0  0  0  0  0  0  0  0  0  0
  152.5816  144.1417  157.3552 H   0  0  0  0  0  0  0  0  0  0  0  0
  150.9811  144.8728  157.3096 H   0  0  0  0  0  0  0  0  0  0  0  0
  153.1132  145.7704  158.8974 H   0  0  0  0  0  0  0  0  0  0  0  0
  151.4297  146.1166  159.2650 H   0  0  0  0  0  0  0  0  0  0  0  0
  153.1563  144.5525  160.9150 H   0  0  0  0  0  0  0  0  0  0  0  0
  151.4083  144.6898  161.0489 H   0  0  0  0  0  0  0  0  0  0  0  0
  151.5834  142.3414  160.6330 H   0  0  0  0  0  0  0  0  0  0  0  0
  153.0016  142.5660  159.6110 H   0  0  0  0  0  0  0  0  0  0  0  0
  148.2902  143.2400  156.5439 H   0  0  0  0  0  0  0  0  0  0  0  0
  145.6808  142.2789  155.5111 H   0  0  0  0  0  0  0  0  0  0  0  0
  142.9222  142.4908  158.5730 H   0  0  0  0  0  0  0  0  0  0  0  0
  144.6767  142.6587  160.3377 H   0  0  0  0  0  0  0  0  0  0  0  0
  143.5154  142.3093  156.3118 H   0  0  0  0  0  0  0  0  0  0  0  0
  1  2  1  0  0  0  0
  1 20  1  0  0  0  0
  1 21  1  0  0  0  0
  1 22  1  0  0  0  0
  2  3  1  0  0  0  0
  2 23  1  0  0  0  0
  2 24  1  0  0  0  0
  3  4  1  0  0  0  0
  3 10  1  0  0  0  0
  3 25  1  0  0  0  0
  4  5  1  0  0  0  0
  5  9  1  0  0  0  0
  5  6  1  0  0  0  0
  5 26  1  0  0  0  0
  6  7  1  0  0  0  0
  6 27  1  0  0  0  0
  6 28  1  0  0  0  0
  7  8  1  0  0  0  0
  7 29  1  0  0  0  0
  7 30  1  0  0  0  0
  8  9  1  0  0  0  0
  8 31  1  0  0  0  0
  8 32  1  0  0  0  0
  9 33  1  0  0  0  0
  9 34  1  0  0  0  0
 10 11  2  0  0  0  0
 10 12  1  0  0  0  0
 12 35  1  0  0  0  0
 12 13  1  0  0  0  0
 13 18  1  0  0  0  0
 13 14  2  0  0  0  0
 14 36  1  0  0  0  0
 14 15  1  0  0  0  0
 15 39  1  0  0  0  0
 15 16  1  0  0  0  0
 16 37  1  0  0  0  0
 16 17  2  0  0  0  0
 17 18  1  0  0  0  0
 17 38  1  0  0  0  0
 18 19  2  0  0  0  0
M  END
> <s_m_source_file>
AV-unprocessed.smi

> <i_m_source_file_index>
793

> <i_lp_mmshare_version>
43012

> <i_f3d_flags>
0

> <s_epik_input>
W0NIMl0xW0NIMl1bQ0gyXVtDSDJdW0NIXTFPW0NAQEhdKFtDSDJdW0NIM10pQyg9TylbTkhdYzJbY0hdbltjSF1bY0hdYzJbT0hd

> <s_epik_cmdline>
J2VwaWtfcHl0aG9uJywgJy1waCcsICc3LjAnLCAnLXRuJywgJzgnLCAnLW1hJywgJzIwMCcsICctbWV0YWxfYmluZGluZycsICctaW1hZScsICc8aW5maWxlLm1hZT4nLCAnLW9tYWUnLCAnPG91dGZpbGUubWFlPic=

> <r_lp_tautomer_probability>
1

> <r_epik_Ionization_Penalty>
0.000234492

> <r_epik_Ionization_Penalty_Charging>
0.000234447

> <r_epik_Ionization_Penalty_Neutral>
4.48517e-08

> <r_epik_State_Penalty>
-0

> <r_epik_Charging_Adjusted_Penalty>
0.000234447

> <i_epik_Tot_Q>
0

> <i_epik_Tot_abs_Q>
0

> <r_epik_Metal_State_Penalty>
0.110344

> <b_epik_Metal_Only>
0

> <s_lp_Force_Field>
OPLS_2005

> <r_lp_Energy>
24.985

> <b_lp_Chiralities_Consistent>
1

> <s_lp_Variant>
AV-unprocessed.smi:793-1

> <Gold.Version>
5.8.1

> <Gold.Id.Protein>
6NUR|6NUR_protein|mol2

> <Gold.PLP.Fitness>
37.5324

> <Gold.PLP.PLP>
-32.5001

> <Gold.PLP.part.hbond>
-3.1235

> <Gold.PLP.part.metal>
0.0000

> <Gold.PLP.part.buried>
-4.8890

> <Gold.PLP.part.nonpolar>
-26.1673

> <Gold.PLP.part.repulsive>
0.1129

> <Gold.PLP.ligand.clash>
0.0000

> <Gold.PLP.ligand.torsion>
0.9070

> <Gold.PLP.Chemscore.Hbond>
2.2602

> <Gold.PLP.Chemscore.CHOScore>
0.0000

> <Gold.PLP.Chemscore.Metal>
0.0000

> <Gold.Chemscore.Hbonds>
donor molecule, donor type, donor heavy atom, donor atom, acceptor molecule, acceptor atom, score
      L1  H    12    35       P1  8028  1.00
      P1  H  6933  6944       L1    19  0.52
      P1  H  6934  6946       L1    19  0.67

> <Gold.PLP.Chemscore.Internal.Correction>
0.0659

> <Gold.Rescore>
     Score         DG    S(hbond)    S(metal)    S(lipo)     H(rot)  DE(clash)    DE(int)     intcor
     15.36     -16.48       1.69        0.00      81.00       1.61       0.00       1.12       ----

> <Gold.Chemscore.Fitness>
15.3629

> <Gold.Chemscore.DG>
-16.4784

> <Gold.Chemscore.ZeroCoef>
-5.4800

> <Gold.Chemscore.Hbond>
1.6864

> <Gold.Chemscore.Metal>
0.0000

> <Gold.Chemscore.Lipo>
81.0043

> <Gold.Chemscore.Internal_Hbond>
0.0000

> <Gold.Chemscore.DEClash>
0.0000

> <Gold.Chemscore.DEInternal>
1.1155

> <Gold.Chemscore.Rot>
1.6061

> <Gold.Chemscore.Internal.Correction>
   9.000000E+99

> <Gold.Chemscore.Hbonds>
donor molecule, donor type, donor heavy atom, donor atom, acceptor molecule, acceptor atom, score
      L1  H    12    35       P1  8028  0.40
      P1  H  6933  6944       L1    19  0.52
      P1  H  6934  6946       L1    19  0.15

> <Gold.Chemscore.Hbond.Weighted>
-5.6325

> <Gold.Chemscore.Metal.Weighted>
-0.0000

> <Gold.Chemscore.Lipo.Weighted>
-9.4775

> <Gold.Chemscore.Internal_Hbond.Weighted>
0.0000

> <Gold.Chemscore.DEClash.Weighted>
0.0000

> <Gold.Chemscore.DEInternal.Weighted>
1.1155

> <Gold.Chemscore.Rot.Weighted>
4.1116

> <Gold.Chemscore.Internal.Correction.Weighted>
   9.000000E+99

> <Gold.Protein.RotatedTorsions>
[ 6907 6896 6895 6894 ] final   59.03 input  -60.11 | X-H torsion
[ 7974 7965 7964 7962 ] final    6.63 input  175.53 | X-H torsion
[ 8008 7997 7996 7995 ] final -143.63 input   59.86 | X-H torsion
[ 10167 10162 10161 10158 ] final  136.81 input  -65.29 | X-H torsion
[ 10718 10713 10712 10709 ] final  -27.62 input   66.30 | X-H torsion
[ 10763 10752 10751 10750 ] final  166.87 input  -60.55 | X-H torsion
[ 11005 11000 10999 10996 ] final   45.68 input  -57.11 | X-H torsion

> <Gold.Protein.ActiveResidues>
 VAL166  LYS551  ARG553  GLY616  TRP617  ASP618  TYR619  PRO620  LYS621  CYS622 
 ASP623  PHE694  ASN695  SER759  ASP760  ASP761  ALA762  ILE779  LEU786  VAL792 
 PHE793  MET794  SER795  GLU796  ALA797  LYS798  CYS799  TRP800  GLU811  SER814 

> <Gold.Protein.RotatedAtoms>
  152.3878  134.6489  160.0118 H   0  0  0  0  0  0  0  0  0  0  0  0  # atno 6907 bound_to 6896
  151.6732  133.3308  159.3209 H   0  0  0  0  0  0  0  0  0  0  0  0  # atno 6908 bound_to 6896
  150.7800  134.6781  159.6473 H   0  0  0  0  0  0  0  0  0  0  0  0  # atno 6909 bound_to 6896
  146.2433  140.0204  142.8398 H   0  0  0  0  0  0  0  0  0  0  0  0  # atno 7974 bound_to 7965
  155.5137  140.0585  157.2919 H   0  0  0  0  0  0  0  0  0  0  0  0  # atno 8008 bound_to 7997
  154.4542  140.1964  156.0375 H   0  0  0  0  0  0  0  0  0  0  0  0  # atno 8009 bound_to 7997
  156.0766  140.3253  155.7646 H   0  0  0  0  0  0  0  0  0  0  0  0  # atno 8010 bound_to 7997
  139.5166  144.6444  151.5479 H   0  0  0  0  0  0  0  0  0  0  0  0  # atno 10167 bound_to 10162
  156.4358  130.4454  149.7086 H   0  0  0  0  0  0  0  0  0  0  0  0  # atno 10718 bound_to 10713
  154.3454  135.2753  155.2401 H   0  0  0  0  0  0  0  0  0  0  0  0  # atno 10763 bound_to 10752
  154.4653  135.5897  153.6287 H   0  0  0  0  0  0  0  0  0  0  0  0  # atno 10764 bound_to 10752
  152.9854  135.6075  154.3659 H   0  0  0  0  0  0  0  0  0  0  0  0  # atno 10765 bound_to 10752
  140.1438  134.4549  155.8431 H   0  0  0  0  0  0  0  0  0  0  0  0  # atno 11005 bound_to 11000
  145.1246  140.9482  143.4580 LP  0  0  0  0  0  0  0  0  0  0  0  0  # atno 17320 bound_to 7965
  145.0447  139.3230  143.5959 LP  0  0  0  0  0  0  0  0  0  0  0  0  # atno 17321 bound_to 7965
  140.6224  143.9234  150.6536 LP  0  0  0  0  0  0  0  0  0  0  0  0  # atno 17342 bound_to 10162
  140.2511  143.3592  152.1404 LP  0  0  0  0  0  0  0  0  0  0  0  0  # atno 17343 bound_to 10162
  156.3970  130.7656  151.2661 LP  0  0  0  0  0  0  0  0  0  0  0  0  # atno 17370 bound_to 10713
  157.7507  131.0251  150.3904 LP  0  0  0  0  0  0  0  0  0  0  0  0  # atno 17371 bound_to 10713
  141.2190  133.6844  156.7295 LP  0  0  0  0  0  0  0  0  0  0  0  0  # atno 17394 bound_to 11000
  140.2689  134.8407  157.3829 LP  0  0  0  0  0  0  0  0  0  0  0  0  # atno 17395 bound_to 11000

$$$$
