AV-unprocessed.smi:3285|AV-procd|sdf|12586|dock10
  -GOLD-   2272018513D 1   1.00000     0.00000
 Structure written by MMmdl.
 45 46  0  0  0  0  0  0  0  0  2 V2000
  146.5879  142.0952  153.7552 C   0  0  0  0  0  0  0  0  0  0  0  0
  147.4195  140.8449  153.7620 C   0  0  0  0  0  0  0  0  0  0  0  0
  146.8955  139.7202  153.3061 N   0  0  0  0  0  0  0  0  0  0  0  0
  147.8918  138.7497  153.4414 O   0  0  0  0  0  0  0  0  0  0  0  0
  148.9909  139.3343  153.9802 C   0  0  0  0  0  0  0  0  0  0  0  0
  150.1710  138.4479  154.1958 C   0  0  0  0  0  0  0  0  0  0  0  0
  148.7618  140.6647  154.2062 C   0  0  0  0  0  0  0  0  0  0  0  0
  149.6954  141.6998  154.7819 C   0  0  0  0  0  0  0  0  0  0  0  0
  150.1380  141.3510  156.2112 C   0  0  0  0  0  0  0  0  0  0  0  0
  149.9613  142.4996  157.1257 N   0  3  0  0  0  0  0  0  0  0  0  0
  151.2019  143.0255  157.7353 C   0  0  2  0  0  0  0  0  0  0  0  0
  151.9444  141.8872  158.4570 C   0  0  0  0  0  0  0  0  0  0  0  0
  153.2244  142.3924  159.1437 C   0  0  0  0  0  0  0  0  0  0  0  0
  152.9427  143.5456  160.1281 C   0  0  2  0  0  0  0  0  0  0  0  0
  152.2417  143.0428  161.4066 C   0  0  0  0  0  0  0  0  0  0  0  0
  152.1929  144.6909  159.4004 C   0  0  2  0  0  0  0  0  0  0  0  0
  151.9169  145.9058  160.3018 C   0  0  0  0  0  0  0  0  0  0  0  0
  150.9092  144.1866  158.7094 C   0  0  0  0  0  0  0  0  0  0  0  0
  147.2049  142.9866  153.8652 H   0  0  0  0  0  0  0  0  0  0  0  0
  145.8674  142.0873  154.5729 H   0  0  0  0  0  0  0  0  0  0  0  0
  146.0317  142.1950  152.8227 H   0  0  0  0  0  0  0  0  0  0  0  0
  150.9981  138.9933  154.6499 H   0  0  0  0  0  0  0  0  0  0  0  0
  150.5202  138.0346  153.2496 H   0  0  0  0  0  0  0  0  0  0  0  0
  149.9138  137.6178  154.8538 H   0  0  0  0  0  0  0  0  0  0  0  0
  150.5824  141.8000  154.1555 H   0  0  0  0  0  0  0  0  0  0  0  0
  149.2314  142.6867  154.7793 H   0  0  0  0  0  0  0  0  0  0  0  0
  149.5628  140.4997  156.5780 H   0  0  0  0  0  0  0  0  0  0  0  0
  151.1854  141.0497  156.2015 H   0  0  0  0  0  0  0  0  0  0  0  0
  149.4916  143.2481  156.6366 H   0  0  0  0  0  0  0  0  0  0  0  0
  151.8475  143.3884  156.9336 H   0  0  0  0  0  0  0  0  0  0  0  0
  151.2891  141.4229  159.1947 H   0  0  0  0  0  0  0  0  0  0  0  0
  152.2024  141.1022  157.7450 H   0  0  0  0  0  0  0  0  0  0  0  0
  153.7219  141.5690  159.6574 H   0  0  0  0  0  0  0  0  0  0  0  0
  153.9241  142.7352  158.3803 H   0  0  0  0  0  0  0  0  0  0  0  0
  153.9110  143.9371  160.4437 H   0  0  0  0  0  0  0  0  0  0  0  0
  151.2345  142.6772  161.2089 H   0  0  0  0  0  0  0  0  0  0  0  0
  152.1668  143.8292  162.1571 H   0  0  0  0  0  0  0  0  0  0  0  0
  152.8033  142.2262  161.8611 H   0  0  0  0  0  0  0  0  0  0  0  0
  152.8573  145.0458  158.6108 H   0  0  0  0  0  0  0  0  0  0  0  0
  151.1870  145.6767  161.0783 H   0  0  0  0  0  0  0  0  0  0  0  0
  151.5226  146.7401  159.7210 H   0  0  0  0  0  0  0  0  0  0  0  0
  152.8294  146.2493  160.7896 H   0  0  0  0  0  0  0  0  0  0  0  0
  150.4502  145.0163  158.1719 H   0  0  0  0  0  0  0  0  0  0  0  0
  150.1817  143.8709  159.4580 H   0  0  0  0  0  0  0  0  0  0  0  0
  149.3648  142.1865  157.8785 H   0  0  0  0  0  0  0  0  0  0  0  0
  1  2  1  0  0  0  0
  1 19  1  0  0  0  0
  1 20  1  0  0  0  0
  1 21  1  0  0  0  0
  2  7  1  0  0  0  0
  2  3  2  0  0  0  0
  3  4  1  0  0  0  0
  4  5  1  0  0  0  0
  5  6  1  0  0  0  0
  5  7  2  0  0  0  0
  6 22  1  0  0  0  0
  6 23  1  0  0  0  0
  6 24  1  0  0  0  0
  7  8  1  0  0  0  0
  8  9  1  0  0  0  0
  8 25  1  0  0  0  0
  8 26  1  0  0  0  0
  9 10  1  0  0  0  0
  9 27  1  0  0  0  0
  9 28  1  0  0  0  0
 10 11  1  0  0  0  0
 10 29  1  0  0  0  0
 10 45  1  0  0  0  0
 11 18  1  0  0  0  0
 11 12  1  0  0  0  0
 11 30  1  0  0  0  0
 12 13  1  0  0  0  0
 12 31  1  0  0  0  0
 12 32  1  0  0  0  0
 13 14  1  0  0  0  0
 13 33  1  0  0  0  0
 13 34  1  0  0  0  0
 14 15  1  0  0  0  0
 14 16  1  0  0  0  0
 14 35  1  0  0  0  0
 15 36  1  0  0  0  0
 15 37  1  0  0  0  0
 15 38  1  0  0  0  0
 16 17  1  0  0  0  0
 16 18  1  0  0  0  0
 16 39  1  0  0  0  0
 17 40  1  0  0  0  0
 17 41  1  0  0  0  0
 17 42  1  0  0  0  0
 18 43  1  0  0  0  0
 18 44  1  0  0  0  0
M  CHG  1  10   1
M  END
> <s_m_source_file>
AV-unprocessed.smi

> <i_m_source_file_index>
3285

> <i_lp_mmshare_version>
43012

> <i_f3d_flags>
0

> <s_epik_input>
W0NIM11jMW5vYyhbQ0gzXSljMVtDSDJdW0NIMl1bTkhdW0NAQEhdMltDSDJdW0NIMl1bQ0BASF0oW0NIM10pW0NAQEhdKFtDSDNdKVtDSDJdMg==

> <s_epik_cmdline>
J2VwaWtfcHl0aG9uJywgJy1waCcsICc3LjAnLCAnLXRuJywgJzgnLCAnLW1hJywgJzIwMCcsICctbWV0YWxfYmluZGluZycsICctaW1hZScsICc8aW5maWxlLm1hZT4nLCAnLW9tYWUnLCAnPG91dGZpbGUubWFlPic=

> <r_lp_tautomer_probability>
1

> <r_epik_Ionization_Penalty>
0.000204615

> <r_epik_Ionization_Penalty_Charging>
0.000204615

> <r_epik_Ionization_Penalty_Neutral>
9.28663e-11

> <r_epik_State_Penalty>
-0

> <r_epik_Charging_Adjusted_Penalty>
0.000204615

> <i_epik_Tot_Q>
1

> <i_epik_Tot_abs_Q>
1

> <r_epik_Metal_State_Penalty>
-0

> <b_epik_Metal_Only>
0

> <s_lp_Force_Field>
OPLS_2005

> <r_lp_Energy>
13.9003

> <b_lp_Chiralities_Consistent>
1

> <s_lp_Variant>
AV-unprocessed.smi:3285-7

> <Gold.Version>
5.8.1

> <Gold.Id.Protein>
6NUR|6NUR_protein|mol2

> <Gold.PLP.Fitness>
47.8674

> <Gold.PLP.PLP>
-43.3199

> <Gold.PLP.part.hbond>
-1.0000

> <Gold.PLP.part.metal>
0.0000

> <Gold.PLP.part.buried>
-3.1436

> <Gold.PLP.part.nonpolar>
-39.8166

> <Gold.PLP.part.repulsive>
0.4258

> <Gold.PLP.ligand.clash>
0.0000

> <Gold.PLP.ligand.torsion>
0.7293

> <Gold.PLP.Chemscore.Hbond>
2.0000

> <Gold.PLP.Chemscore.CHOScore>
0.0000

> <Gold.PLP.Chemscore.Metal>
0.0000

> <Gold.Chemscore.Hbonds>
donor molecule, donor type, donor heavy atom, donor atom, acceptor molecule, acceptor atom, score
      L1  H    10    29       P1  8028  2.00

> <Gold.PLP.Chemscore.Internal.Correction>
0.0061

> <Gold.Rescore>
     Score         DG    S(hbond)    S(metal)    S(lipo)     H(rot)  DE(clash)    DE(int)     intcor
     20.81     -21.59       0.99        0.00     138.77       1.35       0.04       0.73       ----

> <Gold.Chemscore.Fitness>
20.8109

> <Gold.Chemscore.DG>
-21.5850

> <Gold.Chemscore.ZeroCoef>
-5.4800

> <Gold.Chemscore.Hbond>
0.9928

> <Gold.Chemscore.Metal>
0.0000

> <Gold.Chemscore.Lipo>
138.7692

> <Gold.Chemscore.Internal_Hbond>
0.0000

> <Gold.Chemscore.DEClash>
0.0449

> <Gold.Chemscore.DEInternal>
0.7293

> <Gold.Chemscore.Rot>
1.3465

> <Gold.Chemscore.Internal.Correction>
   9.000000E+99

> <Gold.Chemscore.Hbonds>
donor molecule, donor type, donor heavy atom, donor atom, acceptor molecule, acceptor atom, score
      L1  H    10    29       P1  8028  1.00

> <Gold.Chemscore.Hbond.Weighted>
-3.3160

> <Gold.Chemscore.Metal.Weighted>
-0.0000

> <Gold.Chemscore.Lipo.Weighted>
-16.2360

> <Gold.Chemscore.Internal_Hbond.Weighted>
0.0000

> <Gold.Chemscore.DEClash.Weighted>
0.0449

> <Gold.Chemscore.DEInternal.Weighted>
0.7293

> <Gold.Chemscore.Rot.Weighted>
3.4470

> <Gold.Chemscore.Internal.Correction.Weighted>
   9.000000E+99

> <Gold.Protein.RotatedTorsions>
[ 6907 6896 6895 6894 ] final -179.65 input  -60.11 | X-H torsion
[ 7974 7965 7964 7962 ] final -145.93 input  175.53 | X-H torsion
[ 8008 7997 7996 7995 ] final  -86.32 input   59.86 | X-H torsion
[ 10167 10162 10161 10158 ] final  -55.62 input  -65.29 | X-H torsion
[ 10718 10713 10712 10709 ] final  136.26 input   66.30 | X-H torsion
[ 10763 10752 10751 10750 ] final   58.65 input  -60.55 | X-H torsion
[ 11005 11000 10999 10996 ] final -100.96 input  -57.11 | X-H torsion

> <Gold.Protein.ActiveResidues>
 VAL166  LYS551  ARG553  GLY616  TRP617  ASP618  TYR619  PRO620  LYS621  CYS622 
 ASP623  PHE694  ASN695  SER759  ASP760  ASP761  ALA762  ILE779  LEU786  VAL792 
 PHE793  MET794  SER795  GLU796  ALA797  LYS798  CYS799  TRP800  GLU811  SER814 

> <Gold.Protein.RotatedAtoms>
  151.6569  133.3318  159.3164 H   0  0  0  0  0  0  0  0  0  0  0  0  # atno 6907 bound_to 6896
  150.7933  134.6977  159.6542 H   0  0  0  0  0  0  0  0  0  0  0  0  # atno 6908 bound_to 6896
  152.4016  134.6281  160.0120 H   0  0  0  0  0  0  0  0  0  0  0  0  # atno 6909 bound_to 6896
  144.8194  140.5521  143.5589 H   0  0  0  0  0  0  0  0  0  0  0  0  # atno 7974 bound_to 7965
  154.6506  140.0580  156.9951 H   0  0  0  0  0  0  0  0  0  0  0  0  # atno 8008 bound_to 7997
  155.1377  140.3262  155.4440 H   0  0  0  0  0  0  0  0  0  0  0  0  # atno 8009 bound_to 7997
  156.2574  140.1969  156.6494 H   0  0  0  0  0  0  0  0  0  0  0  0  # atno 8010 bound_to 7997
  140.6364  143.2484  151.5106 H   0  0  0  0  0  0  0  0  0  0  0  0  # atno 10167 bound_to 10162
  157.4485  131.1064  151.0061 H   0  0  0  0  0  0  0  0  0  0  0  0  # atno 10718 bound_to 10713
  152.9876  135.5599  154.5587 H   0  0  0  0  0  0  0  0  0  0  0  0  # atno 10763 bound_to 10752
  154.5010  135.2797  155.1423 H   0  0  0  0  0  0  0  0  0  0  0  0  # atno 10764 bound_to 10752
  154.2853  135.6337  153.5416 H   0  0  0  0  0  0  0  0  0  0  0  0  # atno 10765 bound_to 10752
  141.1250  133.8440  157.1170 H   0  0  0  0  0  0  0  0  0  0  0  0  # atno 11005 bound_to 11000
  145.5140  139.1478  143.3589 LP  0  0  0  0  0  0  0  0  0  0  0  0  # atno 17320 bound_to 7965
  146.2498  140.5281  142.8898 LP  0  0  0  0  0  0  0  0  0  0  0  0  # atno 17321 bound_to 7965
  139.5575  144.2240  152.1636 LP  0  0  0  0  0  0  0  0  0  0  0  0  # atno 17342 bound_to 10162
  140.1498  144.5125  150.6694 LP  0  0  0  0  0  0  0  0  0  0  0  0  # atno 17343 bound_to 10162
  157.0900  130.5938  149.5437 LP  0  0  0  0  0  0  0  0  0  0  0  0  # atno 17370 bound_to 10713
  155.9977  130.5049  150.7544 LP  0  0  0  0  0  0  0  0  0  0  0  0  # atno 17371 bound_to 10713
  140.0240  134.9932  157.0649 LP  0  0  0  0  0  0  0  0  0  0  0  0  # atno 17394 bound_to 11000
  140.4392  134.1698  155.7173 LP  0  0  0  0  0  0  0  0  0  0  0  0  # atno 17395 bound_to 11000

$$$$
