#       Name:                AV-unprocessed.smi:1648
#       Creating user name   scv26
#       Creation time:       Fri Mar 27 07:33:37 2020


#       File generated by GOLD software.
#

@<TRIPOS>MOLECULE
AV-unprocessed.smi:1648
    46    46     1
SMALL
NO_CHARGES


@<TRIPOS>ATOM
      1 ****        -2.3885  -0.2169  -2.8581 C.3            1 S1                 0.0000
      2 ****        -2.6465  -1.6558  -2.4067 C.2            1 S1                 0.0000
      3 ****        -3.0563  -2.4796  -3.2211 O.2            1 S1                 0.0000
      4 ****        -2.4242  -1.9938  -1.1244 N.am           1 S1                 0.0000
      5 ****        -2.6098  -3.3085  -0.5034 C.3            1 S1                 0.0000
      6 ****        -4.0903  -3.4607  -0.1049 C.2            1 S1                 0.0000
      7 ****        -4.6729  -2.5594   0.5003 O.2            1 S1                 0.0000
      8 ****        -4.6789  -4.6174  -0.4468 N.am           1 S1                 0.0000
      9 ****        -6.0674  -4.9755  -0.1754 C.3            1 S1                 0.0000
     10 ****        -6.9901  -4.3700  -1.2503 C.3            1 S1                 0.0000
     11 ****        -6.1766  -6.5100  -0.0735 C.3            1 S1                 0.0000
     12 ****        -7.5298  -6.9639   0.1863 N.pl3          1 S1                 0.0000
     13 ****        -8.3965  -7.5765  -0.7097 C.2            1 S1                 0.0000
     14 ****        -9.5605  -7.8296  -0.0198 C.2            1 S1                 0.0000
     15 ****        -9.4313  -7.3890   1.2953 N.2            1 S1                 0.0000
     16 ****        -8.2025  -6.8910   1.3431 C.2            1 S1                 0.0000
     17 ****        -1.7086  -3.3968   0.7640 C.3            1 S1                 0.0000
     18 ****        -0.2228  -3.1548   0.4313 C.3            1 S1                 0.0000
     19 ****        -1.8434  -4.7421   1.5081 C.3            1 S1                 0.0000
     20 ****        -3.0345   0.4777  -2.3209 H              1 S1                 0.0000
     21 ****        -2.5934  -0.1068  -3.9236 H              1 S1                 0.0000
     22 ****        -1.3494   0.0650  -2.6877 H              1 S1                 0.0000
     23 ****        -2.1085  -1.2582  -0.5087 H              1 S1                 0.0000
     24 ****        -2.3237  -4.0994  -1.1990 H              1 S1                 0.0000
     25 ****        -4.1219  -5.3018  -0.9378 H              1 S1                 0.0000
     26 ****        -6.3517  -4.5575   0.7922 H              1 S1                 0.0000
     27 ****        -8.0405  -4.5605  -1.0293 H              1 S1                 0.0000
     28 ****        -6.7755  -4.7856  -2.2352 H              1 S1                 0.0000
     29 ****        -6.8687  -3.2880  -1.3129 H              1 S1                 0.0000
     30 ****        -5.8288  -6.9770  -0.9963 H              1 S1                 0.0000
     31 ****        -5.5344  -6.8820   0.7263 H              1 S1                 0.0000
     32 ****        -8.1229  -7.7733  -1.7359 H              1 S1                 0.0000
     33 ****       -10.4729  -8.2925  -0.3656 H              1 S1                 0.0000
     34 ****        -7.7825  -6.4604   2.2405 H              1 S1                 0.0000
     35 ****        -2.0108  -2.6115   1.4596 H              1 S1                 0.0000
     36 ****         0.1428  -3.8832  -0.2932 H              1 S1                 0.0000
     37 ****         0.3978  -3.2362   1.3242 H              1 S1                 0.0000
     38 ****        -0.0523  -2.1603   0.0186 H              1 S1                 0.0000
     39 ****        -1.6010  -5.5804   0.8543 H              1 S1                 0.0000
     40 ****        -2.8499  -4.9008   1.8953 H              1 S1                 0.0000
     41 ****        -1.1685  -4.7857   2.3636 H              1 S1                 0.0000
     42 ****        -3.2183  -2.2072  -4.1695 LP             1 S1                 0.0000
     43 ****        -3.2278  -3.4224  -2.9354 LP             1 S1                 0.0000
     44 ****        -4.1847  -1.7195   0.7372 LP             1 S1                 0.0000
     45 ****        -5.6339  -2.6678   0.7545 LP             1 S1                 0.0000
     46 ****       -10.1067  -7.4368   2.0312 LP             1 S1                 0.0000
@<TRIPOS>BOND
    1    1    2 1     
    2    1   20 1     
    3    1   21 1     
    4    1   22 1     
    5    2    3 2     
    6    2    4 am    
    7    4    5 1     
    8    4   23 1     
    9    5    6 1     
   10    5   17 1     
   11    5   24 1     
   12    6    7 2     
   13    6    8 am    
   14    8    9 1     
   15    8   25 1     
   16    9   10 1     
   17    9   11 1     
   18    9   26 1     
   19   10   27 1     
   20   10   28 1     
   21   10   29 1     
   22   11   12 1     
   23   11   30 1     
   24   11   31 1     
   25   12   16 1     
   26   12   13 1     
   27   13   14 2     
   28   13   32 1     
   29   14   15 1     
   30   14   33 1     
   31   15   16 2     
   32   16   34 1     
   33   17   18 1     
   34   17   19 1     
   35   17   35 1     
   36   18   36 1     
   37   18   37 1     
   38   18   38 1     
   39   19   39 1     
   40   19   40 1     
   41   19   41 1     
   42    3   42 1     
   43    3   43 1     
   44    7   44 1     
   45    7   45 1     
   46   15   46 1     
@<TRIPOS>SUBSTRUCTURE
      1 S1             1
@<TRIPOS>SET
LONE_PAIRS      STATIC     ATOMS    <user>   **** ""
5 42 43 44 45 46
DONOR_HYDROGENS      STATIC     ATOMS    <user>   **** ""
2 23 25
ATOM$BLUE        STATIC     ATOMS    COLORGROUP SYSTEM
5 42 43 44 45 46
ATOM$RED        STATIC     ATOMS    COLORGROUP SYSTEM
2 23 25
