AV-unprocessed.smi:193|AV-procd|sdf|1507|dock2
  -GOLD-   2262019343D 1   1.00000     0.00000
 Structure written by MMmdl.
 62 66  0  0  0  0  0  0  0  0  2 V2000
  144.8057  136.7767  152.3570 C   0  0  0  0  0  0  0  0  0  0  0  0
  146.1953  136.7539  153.0139 C   0  0  1  0  0  0  0  0  0  0  0  0
  146.3535  137.9909  153.9227 C   0  0  0  0  0  0  0  0  0  0  0  0
  147.7424  138.3734  154.1866 N   0  0  0  0  0  0  0  0  0  0  0  0
  147.9821  139.6304  154.6438 C   0  0  0  0  0  0  0  0  0  0  0  0
  147.0101  140.5732  154.5209 N   0  0  0  0  0  0  0  0  0  0  0  0
  147.2088  141.8140  154.9751 C   0  0  0  0  0  0  0  0  0  0  0  0
  148.2879  142.3196  155.5743 N   0  0  0  0  0  0  0  0  0  0  0  0
  149.2731  141.3842  155.6898 C   0  0  0  0  0  0  0  0  0  0  0  0
  149.2069  140.0305  155.2533 C   0  0  0  0  0  0  0  0  0  0  0  0
  150.4103  139.3893  155.5261 N   0  0  0  0  0  0  0  0  0  0  0  0
  151.1384  140.3058  156.1032 C   0  0  0  0  0  0  0  0  0  0  0  0
  150.5296  141.5311  156.2508 N   0  0  0  0  0  0  0  0  0  0  0  0
  151.1030  142.7206  156.8624 C   0  0  0  0  0  0  0  0  0  0  0  0
  151.2826  142.6099  158.3967 C   0  0  0  0  0  0  0  0  0  0  0  0
  150.0610  142.1371  158.9388 O   0  0  0  0  0  0  0  0  0  0  0  0
  152.3916  141.5943  158.7380 C   0  0  0  0  0  0  0  0  0  0  0  0
  152.7194  141.5760  160.2416 C   0  0  0  0  0  0  0  0  0  0  0  0
  153.0652  142.8839  160.6799 O   0  0  0  0  0  0  0  0  0  0  0  0
  151.9960  143.8115  160.5396 C   0  0  0  0  0  0  0  0  0  0  0  0
  151.6187  143.9660  159.0556 C   0  0  0  0  0  0  0  0  0  0  0  0
  148.8153  137.3876  154.3152 C   0  0  0  0  0  0  0  0  0  0  0  0
  148.3907  136.1162  155.0621 C   0  0  0  0  0  0  0  0  0  0  0  0
  147.7836  135.1283  154.1386 N   0  3  1  0  0  0  0  0  0  0  0  0
  147.9266  133.7406  154.6389 C   0  0  2  0  0  0  0  0  0  0  0  0
  149.1621  133.0307  154.1315 C   0  0  0  0  0  0  0  0  0  0  0  0
  147.8033  132.6556  153.5829 C   0  0  2  0  0  0  0  0  0  0  0  0
  147.4674  132.9321  152.1286 C   0  0  0  0  0  0  0  0  0  0  0  0
  146.3726  135.4354  153.7985 C   0  0  0  0  0  0  0  0  0  0  0  0
  144.0127  136.7370  153.1045 H   0  0  0  0  0  0  0  0  0  0  0  0
  144.6714  135.9297  151.6835 H   0  0  0  0  0  0  0  0  0  0  0  0
  144.6629  137.6832  151.7678 H   0  0  0  0  0  0  0  0  0  0  0  0
  146.9260  136.7984  152.2047 H   0  0  0  0  0  0  0  0  0  0  0  0
  145.8715  138.8409  153.4369 H   0  0  0  0  0  0  0  0  0  0  0  0
  145.8262  137.8396  154.8656 H   0  0  0  0  0  0  0  0  0  0  0  0
  146.3844  142.4992  154.8409 H   0  0  0  0  0  0  0  0  0  0  0  0
  152.1447  140.1115  156.4453 H   0  0  0  0  0  0  0  0  0  0  0  0
  152.0608  142.9238  156.3813 H   0  0  0  0  0  0  0  0  0  0  0  0
  150.4594  143.5680  156.6227 H   0  0  0  0  0  0  0  0  0  0  0  0
  150.0926  141.1934  158.9719 H   0  0  0  0  0  0  0  0  0  0  0  0
  152.1129  140.5944  158.4030 H   0  0  0  0  0  0  0  0  0  0  0  0
  153.2994  141.8562  158.1930 H   0  0  0  0  0  0  0  0  0  0  0  0
  151.8796  141.1943  160.8242 H   0  0  0  0  0  0  0  0  0  0  0  0
  153.5616  140.9100  160.4302 H   0  0  0  0  0  0  0  0  0  0  0  0
  151.1385  143.4879  161.1314 H   0  0  0  0  0  0  0  0  0  0  0  0
  152.3121  144.7731  160.9442 H   0  0  0  0  0  0  0  0  0  0  0  0
  152.4596  144.4204  158.5305 H   0  0  0  0  0  0  0  0  0  0  0  0
  150.7857  144.6637  158.9607 H   0  0  0  0  0  0  0  0  0  0  0  0
  149.2165  137.1481  153.3298 H   0  0  0  0  0  0  0  0  0  0  0  0
  149.6409  137.8216  154.8799 H   0  0  0  0  0  0  0  0  0  0  0  0
  149.2952  135.6790  155.4865 H   0  0  0  0  0  0  0  0  0  0  0  0
  147.7371  136.3328  155.9087 H   0  0  0  0  0  0  0  0  0  0  0  0
  147.5823  133.5651  155.6569 H   0  0  0  0  0  0  0  0  0  0  0  0
  149.8384  133.5781  153.4771 H   0  0  0  0  0  0  0  0  0  0  0  0
  149.6415  132.3176  154.7990 H   0  0  0  0  0  0  0  0  0  0  0  0
  147.3952  131.7117  153.9390 H   0  0  0  0  0  0  0  0  0  0  0  0
  147.9573  133.8382  151.7711 H   0  0  0  0  0  0  0  0  0  0  0  0
  146.3901  133.0435  152.0054 H   0  0  0  0  0  0  0  0  0  0  0  0
  147.7990  132.0993  151.5082 H   0  0  0  0  0  0  0  0  0  0  0  0
  145.7635  135.4400  154.7039 H   0  0  0  0  0  0  0  0  0  0  0  0
  145.9946  134.6148  153.1880 H   0  0  0  0  0  0  0  0  0  0  0  0
  148.3131  135.1692  153.2795 H   0  0  0  0  0  0  0  0  0  0  0  0
  1  2  1  0  0  0  0
  1 30  1  0  0  0  0
  1 31  1  0  0  0  0
  1 32  1  0  0  0  0
  2 29  1  0  0  0  0
  2  3  1  0  0  0  0
  2 33  1  0  0  0  0
  3  4  1  0  0  0  0
  3 34  1  0  0  0  0
  3 35  1  0  0  0  0
  4  5  1  0  0  0  0
  4 22  1  0  0  0  0
  5 10  1  0  0  0  0
  5  6  2  0  0  0  0
  6  7  1  0  0  0  0
  7  8  2  0  0  0  0
  7 36  1  0  0  0  0
  8  9  1  0  0  0  0
  9 13  1  0  0  0  0
  9 10  2  0  0  0  0
 10 11  1  0  0  0  0
 11 12  2  0  0  0  0
 12 13  1  0  0  0  0
 12 37  1  0  0  0  0
 13 14  1  0  0  0  0
 14 15  1  0  0  0  0
 14 38  1  0  0  0  0
 14 39  1  0  0  0  0
 15 21  1  0  0  0  0
 15 16  1  0  0  0  0
 15 17  1  0  0  0  0
 16 40  1  0  0  0  0
 17 18  1  0  0  0  0
 17 41  1  0  0  0  0
 17 42  1  0  0  0  0
 18 19  1  0  0  0  0
 18 43  1  0  0  0  0
 18 44  1  0  0  0  0
 19 20  1  0  0  0  0
 20 21  1  0  0  0  0
 20 45  1  0  0  0  0
 20 46  1  0  0  0  0
 21 47  1  0  0  0  0
 21 48  1  0  0  0  0
 22 23  1  0  0  0  0
 22 49  1  0  0  0  0
 22 50  1  0  0  0  0
 23 24  1  0  0  0  0
 23 51  1  0  0  0  0
 23 52  1  0  0  0  0
 24 25  1  0  0  0  0
 24 29  1  0  0  0  0
 24 62  1  0  0  0  0
 25 27  1  0  0  0  0
 25 26  1  0  0  0  0
 25 53  1  0  0  0  0
 26 27  1  0  0  0  0
 26 54  1  0  0  0  0
 26 55  1  0  0  0  0
 27 28  1  0  0  0  0
 27 56  1  0  0  0  0
 28 57  1  0  0  0  0
 28 58  1  0  0  0  0
 28 59  1  0  0  0  0
 29 60  1  0  0  0  0
 29 61  1  0  0  0  0
M  CHG  1  24   1
M  END
> <s_m_source_file>
AV-unprocessed.smi

> <i_m_source_file_index>
193

> <i_lp_mmshare_version>
43012

> <i_f3d_flags>
0

> <s_epik_input>
W0NIM11bQ0BASF0xW0NIMl1bQ0BIXTFOKFtDSDJdMilbQ0gyXVtDSDJdTihbQ0gyXVtDQEhdMltDSDNdKWMobltjSF1uMyljKGMzNCluW2NIXW40W0NIMl1DNShbT0hdKVtDSDJdW0NIMl1PW0NIMl1bQ0gyXTU=

> <s_epik_cmdline>
J2VwaWtfcHl0aG9uJywgJy1waCcsICc3LjAnLCAnLXRuJywgJzgnLCAnLW1hJywgJzIwMCcsICctbWV0YWxfYmluZGluZycsICctaW1hZScsICc8aW5maWxlLm1hZT4nLCAnLW9tYWUnLCAnPG91dGZpbGUubWFlPic=

> <r_lp_tautomer_probability>
1

> <r_epik_Ionization_Penalty>
0.0540825

> <r_epik_Ionization_Penalty_Charging>
0.0538476

> <r_epik_Ionization_Penalty_Neutral>
0.000234891

> <r_epik_State_Penalty>
0.0200719

> <r_epik_Charging_Adjusted_Penalty>
0.0739194

> <i_epik_Tot_Q>
1

> <i_epik_Tot_abs_Q>
1

> <r_epik_Metal_State_Penalty>
0.0199414

> <b_epik_Metal_Only>
0

> <s_lp_Force_Field>
OPLS_2005

> <r_lp_Energy>
56.3109

> <b_lp_Chiralities_Consistent>
1

> <s_lp_Variant>
AV-unprocessed.smi:193-12

> <Gold.Version>
5.8.1

> <Gold.Id.Protein>
6NUR|6NUR_protein|mol2

> <Gold.PLP.Fitness>
42.5753

> <Gold.PLP.PLP>
-36.9600

> <Gold.PLP.part.hbond>
-1.9175

> <Gold.PLP.part.metal>
0.0000

> <Gold.PLP.part.buried>
-0.9718

> <Gold.PLP.part.nonpolar>
-39.2860

> <Gold.PLP.part.repulsive>
4.2903

> <Gold.PLP.ligand.clash>
0.0000

> <Gold.PLP.ligand.torsion>
0.8778

> <Gold.PLP.Chemscore.Hbond>
2.0000

> <Gold.PLP.Chemscore.CHOScore>
0.0000

> <Gold.PLP.Chemscore.Metal>
0.0000

> <Gold.Chemscore.Hbonds>
donor molecule, donor type, donor heavy atom, donor atom, acceptor molecule, acceptor atom, score
      L1  H    24    62       P1  7948  1.95

> <Gold.PLP.Chemscore.Internal.Correction>
1.3708

> <Gold.Rescore>
     Score         DG    S(hbond)    S(metal)    S(lipo)     H(rot)  DE(clash)    DE(int)     intcor
     11.31     -15.75       0.95        0.00     102.81       1.93       2.14       2.30       ----

> <Gold.Chemscore.Fitness>
11.3142

> <Gold.Chemscore.DG>
-15.7530

> <Gold.Chemscore.ZeroCoef>
-5.4800

> <Gold.Chemscore.Hbond>
0.9530

> <Gold.Chemscore.Metal>
0.0000

> <Gold.Chemscore.Lipo>
102.8060

> <Gold.Chemscore.Internal_Hbond>
0.0000

> <Gold.Chemscore.DEClash>
2.1421

> <Gold.Chemscore.DEInternal>
2.2967

> <Gold.Chemscore.Rot>
1.9290

> <Gold.Chemscore.Internal.Correction>
   9.000000E+99

> <Gold.Chemscore.Hbonds>
donor molecule, donor type, donor heavy atom, donor atom, acceptor molecule, acceptor atom, score
      L1  H    24    62       P1  7948  0.89

> <Gold.Chemscore.Hbond.Weighted>
-3.1830

> <Gold.Chemscore.Metal.Weighted>
-0.0000

> <Gold.Chemscore.Lipo.Weighted>
-12.0283

> <Gold.Chemscore.Internal_Hbond.Weighted>
0.0000

> <Gold.Chemscore.DEClash.Weighted>
2.1421

> <Gold.Chemscore.DEInternal.Weighted>
2.2967

> <Gold.Chemscore.Rot.Weighted>
4.9383

> <Gold.Chemscore.Internal.Correction.Weighted>
   9.000000E+99

> <Gold.Protein.RotatedTorsions>
[ 6907 6896 6895 6894 ] final  140.35 input  -60.11 | X-H torsion
[ 7974 7965 7964 7962 ] final  141.46 input  175.53 | X-H torsion
[ 8008 7997 7996 7995 ] final -173.89 input   59.86 | X-H torsion
[ 10167 10162 10161 10158 ] final -117.17 input  -65.29 | X-H torsion
[ 10718 10713 10712 10709 ] final  -82.40 input   66.30 | X-H torsion
[ 10763 10752 10751 10750 ] final  105.51 input  -60.55 | X-H torsion
[ 11005 11000 10999 10996 ] final  -75.59 input  -57.11 | X-H torsion

> <Gold.Protein.ActiveResidues>
 VAL166  LYS551  ARG553  GLY616  TRP617  ASP618  TYR619  PRO620  LYS621  CYS622 
 ASP623  PHE694  ASN695  SER759  ASP760  ASP761  ALA762  ILE779  LEU786  VAL792 
 PHE793  MET794  SER795  GLU796  ALA797  LYS798  CYS799  TRP800  GLU811  SER814 

> <Gold.Protein.RotatedAtoms>
  152.2441  133.5160  159.5286 H   0  0  0  0  0  0  0  0  0  0  0  0  # atno 6907 bound_to 6896
  150.7073  134.1049  159.3988 H   0  0  0  0  0  0  0  0  0  0  0  0  # atno 6908 bound_to 6896
  151.8970  135.0394  160.0553 H   0  0  0  0  0  0  0  0  0  0  0  0  # atno 6909 bound_to 6896
  144.9095  139.5313  143.5715 H   0  0  0  0  0  0  0  0  0  0  0  0  # atno 7974 bound_to 7965
  155.9632  140.1148  157.0877 H   0  0  0  0  0  0  0  0  0  0  0  0  # atno 8008 bound_to 7997
  154.4137  140.1178  156.5274 H   0  0  0  0  0  0  0  0  0  0  0  0  # atno 8009 bound_to 7997
  155.6693  140.3473  155.4814 H   0  0  0  0  0  0  0  0  0  0  0  0  # atno 8010 bound_to 7997
  140.0712  143.4875  152.1978 H   0  0  0  0  0  0  0  0  0  0  0  0  # atno 10167 bound_to 10162
  156.0034  130.4633  150.4098 H   0  0  0  0  0  0  0  0  0  0  0  0  # atno 10718 bound_to 10713
  153.3804  135.3907  155.1852 H   0  0  0  0  0  0  0  0  0  0  0  0  # atno 10763 bound_to 10752
  154.8707  135.3724  154.4864 H   0  0  0  0  0  0  0  0  0  0  0  0  # atno 10764 bound_to 10752
  153.5341  135.7085  153.5730 H   0  0  0  0  0  0  0  0  0  0  0  0  # atno 10765 bound_to 10752
  141.1647  133.6952  156.7540 H   0  0  0  0  0  0  0  0  0  0  0  0  # atno 11005 bound_to 11000
  146.3151  139.7889  142.8990 LP  0  0  0  0  0  0  0  0  0  0  0  0  # atno 17320 bound_to 7965
  145.3479  141.0301  143.3355 LP  0  0  0  0  0  0  0  0  0  0  0  0  # atno 17321 bound_to 7965
  139.5834  144.7521  151.3580 LP  0  0  0  0  0  0  0  0  0  0  0  0  # atno 17342 bound_to 10162
  140.7124  143.7355  150.7592 LP  0  0  0  0  0  0  0  0  0  0  0  0  # atno 17343 bound_to 10162
  157.2162  131.0472  151.2572 LP  0  0  0  0  0  0  0  0  0  0  0  0  # atno 17370 bound_to 10713
  157.3843  130.7248  149.6652 LP  0  0  0  0  0  0  0  0  0  0  0  0  # atno 17371 bound_to 10713
  140.2583  134.8487  157.3734 LP  0  0  0  0  0  0  0  0  0  0  0  0  # atno 17394 bound_to 11000
  140.1636  134.4698  155.7878 LP  0  0  0  0  0  0  0  0  0  0  0  0  # atno 17395 bound_to 11000

$$$$
