AV-unprocessed.smi:1162|AV-procd|sdf|4919|dock9
  -GOLD-   22720 3503D 1   1.00000     0.00000
 Structure written by MMmdl.
 44 45  0  0  0  0  0  0  0  0  1 V2000
  144.4572  133.3710  150.6781 C   0  0  0  0  0  0  0  0  0  0  0  0
  144.0649  134.1279  151.8180 O   0  0  0  0  0  0  0  0  0  0  0  0
  144.7439  135.2972  152.0929 C   0  0  0  0  0  0  0  0  0  0  0  0
  145.3015  136.0212  151.0203 C   0  0  0  0  0  0  0  0  0  0  0  0
  145.9998  137.2133  151.2920 C   0  0  0  0  0  0  0  0  0  0  0  0
  146.1120  137.6491  152.6340 C   0  0  0  0  0  0  0  0  0  0  0  0
  146.8083  138.8183  153.0438 N   0  0  0  0  0  0  0  0  0  0  0  0
  146.8839  139.3664  154.2685 C   0  0  0  0  0  0  0  0  0  0  0  0
  146.3727  138.9073  155.2896 O   0  0  0  0  0  0  0  0  0  0  0  0
  147.6176  140.4887  154.2496 N   0  0  0  0  0  0  0  0  0  0  0  0
  147.9292  141.3106  155.4165 C   0  0  0  0  0  0  0  0  0  0  0  0
  149.4127  141.2669  155.8024 C   0  0  0  0  0  0  0  0  0  0  0  0
  150.2237  140.6302  155.1280 O   0  0  0  0  0  0  0  0  0  0  0  0
  149.7544  141.9724  156.8911 N   0  0  0  0  0  0  0  0  0  0  0  0
  151.1039  142.0864  157.4359 C   0  0  0  0  0  0  0  0  0  0  0  0
  151.4239  140.8875  158.3530 C   0  0  0  0  0  0  0  0  0  0  0  0
  152.8103  141.0297  159.0022 C   0  0  0  0  0  0  0  0  0  0  0  0
  152.9391  142.3589  159.7625 C   0  0  0  0  0  0  0  0  0  0  0  0
  152.6292  143.5531  158.8467 C   0  0  0  0  0  0  0  0  0  0  0  0
  151.2394  143.4146  158.2046 C   0  0  0  0  0  0  0  0  0  0  0  0
  145.5268  136.8469  153.6351 C   0  0  0  0  0  0  0  0  0  0  0  0
  144.8560  135.7038  153.3816 N   0  0  0  0  0  0  0  0  0  0  0  0
  143.8234  132.4881  150.5957 H   0  0  0  0  0  0  0  0  0  0  0  0
  145.4901  133.0299  150.7617 H   0  0  0  0  0  0  0  0  0  0  0  0
  144.3430  133.9463  149.7582 H   0  0  0  0  0  0  0  0  0  0  0  0
  145.2008  135.6651  150.0058 H   0  0  0  0  0  0  0  0  0  0  0  0
  146.4440  137.7544  150.4715 H   0  0  0  0  0  0  0  0  0  0  0  0
  147.3530  139.2695  152.3235 H   0  0  0  0  0  0  0  0  0  0  0  0
  148.0108  140.7852  153.3686 H   0  0  0  0  0  0  0  0  0  0  0  0
  147.6614  142.3425  155.1885 H   0  0  0  0  0  0  0  0  0  0  0  0
  147.3137  141.0078  156.2657 H   0  0  0  0  0  0  0  0  0  0  0  0
  149.0236  142.4674  157.3815 H   0  0  0  0  0  0  0  0  0  0  0  0
  151.8201  142.1002  156.6118 H   0  0  0  0  0  0  0  0  0  0  0  0
  150.6661  140.8070  159.1337 H   0  0  0  0  0  0  0  0  0  0  0  0
  151.3818  139.9568  157.7859 H   0  0  0  0  0  0  0  0  0  0  0  0
  152.9897  140.1951  159.6804 H   0  0  0  0  0  0  0  0  0  0  0  0
  153.5805  140.9734  158.2320 H   0  0  0  0  0  0  0  0  0  0  0  0
  152.2546  142.3627  160.6118 H   0  0  0  0  0  0  0  0  0  0  0  0
  153.9441  142.4564  160.1739 H   0  0  0  0  0  0  0  0  0  0  0  0
  152.6860  144.4820  159.4147 H   0  0  0  0  0  0  0  0  0  0  0  0
  153.3877  143.6220  158.0655 H   0  0  0  0  0  0  0  0  0  0  0  0
  151.0606  144.2555  157.5333 H   0  0  0  0  0  0  0  0  0  0  0  0
  150.4762  143.4720  158.9823 H   0  0  0  0  0  0  0  0  0  0  0  0
  145.5959  137.1315  154.6750 H   0  0  0  0  0  0  0  0  0  0  0  0
  1  2  1  0  0  0  0
  1 23  1  0  0  0  0
  1 24  1  0  0  0  0
  1 25  1  0  0  0  0
  2  3  1  0  0  0  0
  3 22  1  0  0  0  0
  3  4  2  0  0  0  0
  4  5  1  0  0  0  0
  4 26  1  0  0  0  0
  5  6  2  0  0  0  0
  5 27  1  0  0  0  0
  6  7  1  0  0  0  0
  6 21  1  0  0  0  0
  7  8  1  0  0  0  0
  7 28  1  0  0  0  0
  8  9  2  0  0  0  0
  8 10  1  0  0  0  0
 10 11  1  0  0  0  0
 10 29  1  0  0  0  0
 11 12  1  0  0  0  0
 11 30  1  0  0  0  0
 11 31  1  0  0  0  0
 12 13  2  0  0  0  0
 12 14  1  0  0  0  0
 14 15  1  0  0  0  0
 14 32  1  0  0  0  0
 15 20  1  0  0  0  0
 15 16  1  0  0  0  0
 15 33  1  0  0  0  0
 16 17  1  0  0  0  0
 16 34  1  0  0  0  0
 16 35  1  0  0  0  0
 17 18  1  0  0  0  0
 17 36  1  0  0  0  0
 17 37  1  0  0  0  0
 18 19  1  0  0  0  0
 18 38  1  0  0  0  0
 18 39  1  0  0  0  0
 19 20  1  0  0  0  0
 19 40  1  0  0  0  0
 19 41  1  0  0  0  0
 20 42  1  0  0  0  0
 20 43  1  0  0  0  0
 21 22  2  0  0  0  0
 21 44  1  0  0  0  0
M  END
> <s_m_source_file>
AV-unprocessed.smi

> <i_m_source_file_index>
1162

> <i_lp_mmshare_version>
43012

> <i_f3d_flags>
0

> <s_epik_input>
W0NIM11PYzFbY0hdW2NIXWMoW2NIXW4xKVtOSF1DKD1PKVtOSF1bQ0gyXUMoPU8pW05IXVtDSF0yW0NIMl1bQ0gyXVtDSDJdW0NIMl1bQ0gyXTI=

> <s_epik_cmdline>
J2VwaWtfcHl0aG9uJywgJy1waCcsICc3LjAnLCAnLXRuJywgJzgnLCAnLW1hJywgJzIwMCcsICctbWV0YWxfYmluZGluZycsICctaW1hZScsICc8aW5maWxlLm1hZT4nLCAnLW9tYWUnLCAnPG91dGZpbGUubWFlPic=

> <r_lp_tautomer_probability>
1

> <r_epik_Ionization_Penalty>
0.000141568

> <r_epik_Ionization_Penalty_Charging>
0

> <r_epik_Ionization_Penalty_Neutral>
0.000141568

> <r_epik_State_Penalty>
-0

> <r_epik_Charging_Adjusted_Penalty>
0

> <i_epik_Tot_Q>
0

> <i_epik_Tot_abs_Q>
0

> <r_epik_Metal_State_Penalty>
-0

> <b_epik_Metal_Only>
0

> <s_lp_Force_Field>
OPLS_2005

> <r_lp_Energy>
7.6567

> <b_lp_Chiralities_Consistent>
1

> <s_lp_Variant>
AV-unprocessed.smi:1162-1

> <Gold.Version>
5.8.1

> <Gold.Id.Protein>
6NUR|6NUR_protein|mol2

> <Gold.PLP.Fitness>
52.7228

> <Gold.PLP.PLP>
-42.3064

> <Gold.PLP.part.hbond>
-4.4651

> <Gold.PLP.part.metal>
0.0000

> <Gold.PLP.part.buried>
-1.0134

> <Gold.PLP.part.nonpolar>
-36.6105

> <Gold.PLP.part.repulsive>
0.8008

> <Gold.PLP.ligand.clash>
0.0000

> <Gold.PLP.ligand.torsion>
0.7771

> <Gold.PLP.Chemscore.Hbond>
3.9840

> <Gold.PLP.Chemscore.CHOScore>
0.0000

> <Gold.PLP.Chemscore.Metal>
0.0000

> <Gold.Chemscore.Hbonds>
donor molecule, donor type, donor heavy atom, donor atom, acceptor molecule, acceptor atom, score
      P1  H  7989  7998       L1    13  0.60

> <Gold.PLP.Chemscore.Internal.Correction>
0.0186

> <Gold.Rescore>
     Score         DG    S(hbond)    S(metal)    S(lipo)     H(rot)  DE(clash)    DE(int)     intcor
     21.47     -25.21       3.61        0.00     105.43       1.82       1.51       2.23       ----

> <Gold.Chemscore.Fitness>
21.4740

> <Gold.Chemscore.DG>
-25.2090

> <Gold.Chemscore.ZeroCoef>
-5.4800

> <Gold.Chemscore.Hbond>
3.6090

> <Gold.Chemscore.Metal>
0.0000

> <Gold.Chemscore.Lipo>
105.4264

> <Gold.Chemscore.Internal_Hbond>
0.0000

> <Gold.Chemscore.DEClash>
1.5062

> <Gold.Chemscore.DEInternal>
2.2288

> <Gold.Chemscore.Rot>
1.8204

> <Gold.Chemscore.Internal.Correction>
   9.000000E+99

> <Gold.Chemscore.Hbonds>
donor molecule, donor type, donor heavy atom, donor atom, acceptor molecule, acceptor atom, score
      P1  H  7989  7998       L1    13  0.59

> <Gold.Chemscore.Hbond.Weighted>
-12.0542

> <Gold.Chemscore.Metal.Weighted>
-0.0000

> <Gold.Chemscore.Lipo.Weighted>
-12.3349

> <Gold.Chemscore.Internal_Hbond.Weighted>
0.0000

> <Gold.Chemscore.DEClash.Weighted>
1.5062

> <Gold.Chemscore.DEInternal.Weighted>
2.2288

> <Gold.Chemscore.Rot.Weighted>
4.6601

> <Gold.Chemscore.Internal.Correction.Weighted>
   9.000000E+99

> <Gold.Protein.RotatedTorsions>
[ 6907 6896 6895 6894 ] final  -56.58 input  -60.11 | X-H torsion
[ 7974 7965 7964 7962 ] final -158.34 input  175.53 | X-H torsion
[ 8008 7997 7996 7995 ] final  -39.43 input   59.86 | X-H torsion
[ 10167 10162 10161 10158 ] final  -45.00 input  -65.29 | X-H torsion
[ 10718 10713 10712 10709 ] final -130.89 input   66.30 | X-H torsion
[ 10763 10752 10751 10750 ] final  -40.11 input  -60.55 | X-H torsion
[ 11005 11000 10999 10996 ] final  133.63 input  -57.11 | X-H torsion

> <Gold.Protein.ActiveResidues>
 VAL166  LYS551  ARG553  GLY616  TRP617  ASP618  TYR619  PRO620  LYS621  CYS622 
 ASP623  PHE694  ASN695  SER759  ASP760  ASP761  ALA762  ILE779  LEU786  VAL792 
 PHE793  MET794  SER795  GLU796  ALA797  LYS798  CYS799  TRP800  GLU811  SER814 

> <Gold.Protein.RotatedAtoms>
  150.8156  134.7336  159.6726 H   0  0  0  0  0  0  0  0  0  0  0  0  # atno 6907 bound_to 6896
  152.4275  134.5838  159.9965 H   0  0  0  0  0  0  0  0  0  0  0  0  # atno 6908 bound_to 6896
  151.6036  133.3316  159.3088 H   0  0  0  0  0  0  0  0  0  0  0  0  # atno 6909 bound_to 6896
  144.7510  140.3841  143.6048 H   0  0  0  0  0  0  0  0  0  0  0  0  # atno 7974 bound_to 7965
  154.4023  140.1552  156.2862 H   0  0  0  0  0  0  0  0  0  0  0  0  # atno 8008 bound_to 7997
  155.8825  140.3443  155.5876 H   0  0  0  0  0  0  0  0  0  0  0  0  # atno 8009 bound_to 7997
  155.7650  140.0822  157.2127 H   0  0  0  0  0  0  0  0  0  0  0  0  # atno 8010 bound_to 7997
  140.6875  143.2901  151.3576 H   0  0  0  0  0  0  0  0  0  0  0  0  # atno 10167 bound_to 10162
  156.2190  130.6966  151.0734 H   0  0  0  0  0  0  0  0  0  0  0  0  # atno 10718 bound_to 10713
  153.9406  135.6762  153.4744 H   0  0  0  0  0  0  0  0  0  0  0  0  # atno 10763 bound_to 10752
  153.0933  135.4863  154.8729 H   0  0  0  0  0  0  0  0  0  0  0  0  # atno 10764 bound_to 10752
  154.7379  135.3153  154.8737 H   0  0  0  0  0  0  0  0  0  0  0  0  # atno 10765 bound_to 10752
  139.9864  134.9531  156.9752 H   0  0  0  0  0  0  0  0  0  0  0  0  # atno 11005 bound_to 11000
  145.6946  139.1647  143.2627 LP  0  0  0  0  0  0  0  0  0  0  0  0  # atno 17320 bound_to 7965
  146.1459  140.6993  142.9345 LP  0  0  0  0  0  0  0  0  0  0  0  0  # atno 17321 bound_to 7965
  139.6246  144.0839  152.2423 LP  0  0  0  0  0  0  0  0  0  0  0  0  # atno 17342 bound_to 10162
  140.0294  144.6092  150.7500 LP  0  0  0  0  0  0  0  0  0  0  0  0  # atno 17343 bound_to 10162
  157.7078  131.0748  150.6608 LP  0  0  0  0  0  0  0  0  0  0  0  0  # atno 17370 bound_to 10713
  156.6670  130.4528  149.5669 LP  0  0  0  0  0  0  0  0  0  0  0  0  # atno 17371 bound_to 10713
  140.4995  134.1112  155.7248 LP  0  0  0  0  0  0  0  0  0  0  0  0  # atno 17394 bound_to 11000
  141.1528  133.8938  157.2055 LP  0  0  0  0  0  0  0  0  0  0  0  0  # atno 17395 bound_to 11000

$$$$
