AV-unprocessed.smi:2424|AV-procd|sdf|9573|dock5
  -GOLD-   2272013203D 1   1.00000     0.00000
 Structure written by MMmdl.
 49 50  0  0  0  0  0  0  0  0  2 V2000
  147.8128  140.5261  153.9936 C   0  0  0  0  0  0  0  0  0  0  0  0
  148.4937  139.1590  154.1742 C   0  0  0  0  0  0  0  0  0  0  0  0
  149.5335  139.0827  155.3237 C   0  0  0  0  0  0  0  0  0  0  0  0
  148.8065  139.2914  156.6722 C   0  0  0  0  0  0  0  0  0  0  0  0
  147.8331  138.1713  157.0725 C   0  0  0  0  0  0  0  0  0  0  0  0
  150.5095  137.8760  155.2986 C   0  0  1  0  0  0  0  0  0  0  0  0
  150.0140  136.7120  154.5683 N   0  0  0  0  0  0  0  0  0  0  0  0
  150.2267  135.4351  154.9124 C   0  0  0  0  0  0  0  0  0  0  0  0
  150.8851  135.1008  155.8966 O   0  0  0  0  0  0  0  0  0  0  0  0
  149.6255  134.6022  154.0447 N   0  0  0  0  0  0  0  0  0  0  0  0
  149.5988  133.2016  154.0499 C   0  0  0  0  0  0  0  0  0  0  0  0
  148.6900  132.5200  153.2661 C   0  0  0  0  0  0  0  0  0  0  0  0
  148.5126  131.1872  153.1381 N   0  5  0  0  0  0  0  0  0  0  0  0
  149.3183  130.3590  153.8628 C   0  0  0  0  0  0  0  0  0  0  0  0
  149.2154  129.1345  153.7966 O   0  0  0  0  0  0  0  0  0  0  0  0
  150.3390  130.9547  154.7484 C   0  0  0  0  0  0  0  0  0  0  0  0
  151.2338  130.0303  155.5564 C   0  0  0  0  0  0  0  0  0  0  0  0
  150.4569  132.3040  154.8234 C   0  0  0  0  0  0  0  0  0  0  0  0
  151.4963  138.7048  154.4721 C   0  0  2  0  0  0  0  0  0  0  0  0
  152.9955  138.4927  154.6431 C   0  0  0  0  0  0  0  0  0  0  0  0
  150.8135  139.9388  155.0837 C   0  0  2  0  0  0  0  0  0  0  0  0
  151.4832  140.3372  156.2746 O   0  0  0  0  0  0  0  0  0  0  0  0
  150.8938  141.4702  156.8897 C   0  0  0  0  0  0  0  0  0  0  0  0
  147.1982  140.5286  153.0935 H   0  0  0  0  0  0  0  0  0  0  0  0
  148.5409  141.3308  153.8940 H   0  0  0  0  0  0  0  0  0  0  0  0
  147.1552  140.7663  154.8281 H   0  0  0  0  0  0  0  0  0  0  0  0
  147.7258  138.3950  154.2924 H   0  0  0  0  0  0  0  0  0  0  0  0
  148.9716  138.9159  153.2255 H   0  0  0  0  0  0  0  0  0  0  0  0
  149.5407  139.3647  157.4747 H   0  0  0  0  0  0  0  0  0  0  0  0
  148.2821  140.2456  156.6918 H   0  0  0  0  0  0  0  0  0  0  0  0
  147.4323  138.3546  158.0695 H   0  0  0  0  0  0  0  0  0  0  0  0
  148.3290  137.2014  157.0954 H   0  0  0  0  0  0  0  0  0  0  0  0
  146.9838  138.1029  156.3940 H   0  0  0  0  0  0  0  0  0  0  0  0
  150.9146  137.6536  156.2890 H   0  0  0  0  0  0  0  0  0  0  0  0
  149.4617  136.8938  153.7433 H   0  0  0  0  0  0  0  0  0  0  0  0
  149.1209  135.0319  153.2832 H   0  0  0  0  0  0  0  0  0  0  0  0
  148.0026  133.1379  152.6488 H   0  0  0  0  0  0  0  0  0  0  0  0
  151.9422  130.5936  156.1642 H   0  0  0  0  0  0  0  0  0  0  0  0
  151.8030  129.3765  154.8950 H   0  0  0  0  0  0  0  0  0  0  0  0
  150.6360  129.4096  156.2247 H   0  0  0  0  0  0  0  0  0  0  0  0
  151.2129  132.7009  155.4808 H   0  0  0  0  0  0  0  0  0  0  0  0
  151.2342  138.6532  153.4136 H   0  0  0  0  0  0  0  0  0  0  0  0
  153.2801  138.4632  155.6950 H   0  0  0  0  0  0  0  0  0  0  0  0
  153.5631  139.2934  154.1694 H   0  0  0  0  0  0  0  0  0  0  0  0
  153.3114  137.5513  154.1935 H   0  0  0  0  0  0  0  0  0  0  0  0
  150.7075  140.7462  154.3573 H   0  0  0  0  0  0  0  0  0  0  0  0
  151.4217  141.6987  157.8153 H   0  0  0  0  0  0  0  0  0  0  0  0
  149.8457  141.2976  157.1336 H   0  0  0  0  0  0  0  0  0  0  0  0
  150.9597  142.3444  156.2411 H   0  0  0  0  0  0  0  0  0  0  0  0
  1  2  1  0  0  0  0
  1 24  1  0  0  0  0
  1 25  1  0  0  0  0
  1 26  1  0  0  0  0
  2  3  1  0  0  0  0
  2 27  1  0  0  0  0
  2 28  1  0  0  0  0
  3 21  1  0  0  0  0
  3  4  1  0  0  0  0
  3  6  1  0  0  0  0
  4  5  1  0  0  0  0
  4 29  1  0  0  0  0
  4 30  1  0  0  0  0
  5 31  1  0  0  0  0
  5 32  1  0  0  0  0
  5 33  1  0  0  0  0
  6  7  1  0  0  0  0
  6 19  1  0  0  0  0
  6 34  1  0  0  0  0
  7  8  1  0  0  0  0
  7 35  1  0  0  0  0
  8  9  2  0  0  0  0
  8 10  1  0  0  0  0
 10 11  1  0  0  0  0
 10 36  1  0  0  0  0
 11 18  1  0  0  0  0
 11 12  2  0  0  0  0
 12 13  1  0  0  0  0
 12 37  1  0  0  0  0
 13 14  1  0  0  0  0
 14 15  2  0  0  0  0
 14 16  1  0  0  0  0
 16 17  1  0  0  0  0
 16 18  2  0  0  0  0
 17 38  1  0  0  0  0
 17 39  1  0  0  0  0
 17 40  1  0  0  0  0
 18 41  1  0  0  0  0
 19 20  1  0  0  0  0
 19 21  1  0  0  0  0
 19 42  1  0  0  0  0
 20 43  1  0  0  0  0
 20 44  1  0  0  0  0
 20 45  1  0  0  0  0
 21 22  1  0  0  0  0
 21 46  1  0  0  0  0
 22 23  1  0  0  0  0
 23 47  1  0  0  0  0
 23 48  1  0  0  0  0
 23 49  1  0  0  0  0
M  CHG  1  13  -1
M  END
> <s_m_source_file>
AV-unprocessed.smi

> <i_m_source_file_index>
2424

> <i_lp_mmshare_version>
43012

> <i_f3d_flags>
0

> <s_epik_input>
W0NIM11PW0NAQEhdMVtDQEhdKFtDSDNdKVtDQEBIXShDMShbQ0gyXVtDSDNdKVtDSDJdW0NIM10pW05IXUMoPU8pW05IXWMyW2NIXVtuSF1jKD1PKWMoW0NIM10pW2NIXTI=

> <s_epik_cmdline>
J2VwaWtfcHl0aG9uJywgJy1waCcsICc3LjAnLCAnLXRuJywgJzgnLCAnLW1hJywgJzIwMCcsICctbWV0YWxfYmluZGluZycsICctaW1hZScsICc8aW5maWxlLm1hZT4nLCAnLW9tYWUnLCAnPG91dGZpbGUubWFlPic=

> <r_lp_tautomer_probability>
1

> <r_epik_Ionization_Penalty>
7.6122

> <r_epik_Ionization_Penalty_Charging>
1.53843

> <r_epik_Ionization_Penalty_Neutral>
6.07377

> <r_epik_State_Penalty>
6.07371

> <r_epik_Charging_Adjusted_Penalty>
7.61214

> <i_epik_Tot_Q>
-1

> <i_epik_Tot_abs_Q>
1

> <r_epik_Metal_State_Penalty>
2.02136

> <b_epik_Metal_Only>
1

> <s_lp_Force_Field>
OPLS_2005

> <r_lp_Energy>
41.9258

> <b_lp_Chiralities_Consistent>
1

> <s_lp_Variant>
AV-unprocessed.smi:2424-15

> <Gold.Version>
5.8.1

> <Gold.Id.Protein>
6NUR|6NUR_protein|mol2

> <Gold.PLP.Fitness>
41.9376

> <Gold.PLP.PLP>
-36.5080

> <Gold.PLP.part.hbond>
-2.0000

> <Gold.PLP.part.metal>
0.0000

> <Gold.PLP.part.buried>
-2.7382

> <Gold.PLP.part.nonpolar>
-32.4310

> <Gold.PLP.part.repulsive>
0.8523

> <Gold.PLP.ligand.clash>
0.0000

> <Gold.PLP.ligand.torsion>
0.5082

> <Gold.PLP.Chemscore.Hbond>
1.9120

> <Gold.PLP.Chemscore.CHOScore>
0.0000

> <Gold.PLP.Chemscore.Metal>
0.0000

> <Gold.Chemscore.Hbonds>
donor molecule, donor type, donor heavy atom, donor atom, acceptor molecule, acceptor atom, score
      L1  H     7    35       P1  7948  0.89
      L1  H    10    36       P1  7948  0.85
      P1  H 10752 10765       L1     9  0.02

> <Gold.PLP.Chemscore.Internal.Correction>
0.7101

> <Gold.Rescore>
     Score         DG    S(hbond)    S(metal)    S(lipo)     H(rot)  DE(clash)    DE(int)     intcor
     14.60     -15.39       1.38        0.00      78.68       1.52       0.13       0.66       ----

> <Gold.Chemscore.Fitness>
14.5961

> <Gold.Chemscore.DG>
-15.3931

> <Gold.Chemscore.ZeroCoef>
-5.4800

> <Gold.Chemscore.Hbond>
1.3773

> <Gold.Chemscore.Metal>
0.0000

> <Gold.Chemscore.Lipo>
78.6766

> <Gold.Chemscore.Internal_Hbond>
0.0000

> <Gold.Chemscore.DEClash>
0.1338

> <Gold.Chemscore.DEInternal>
0.6631

> <Gold.Chemscore.Rot>
1.5204

> <Gold.Chemscore.Internal.Correction>
   9.000000E+99

> <Gold.Chemscore.Hbonds>
donor molecule, donor type, donor heavy atom, donor atom, acceptor molecule, acceptor atom, score
      L1  H     7    35       P1  7948  0.74
      L1  H    10    36       P1  7948  0.14
      P1  H 10752 10765       L1     9  0.02

> <Gold.Chemscore.Hbond.Weighted>
-4.6002

> <Gold.Chemscore.Metal.Weighted>
-0.0000

> <Gold.Chemscore.Lipo.Weighted>
-9.2052

> <Gold.Chemscore.Internal_Hbond.Weighted>
0.0000

> <Gold.Chemscore.DEClash.Weighted>
0.1338

> <Gold.Chemscore.DEInternal.Weighted>
0.6631

> <Gold.Chemscore.Rot.Weighted>
3.8922

> <Gold.Chemscore.Internal.Correction.Weighted>
   9.000000E+99

> <Gold.Protein.RotatedTorsions>
[ 6907 6896 6895 6894 ] final -161.85 input  -60.11 | X-H torsion
[ 7974 7965 7964 7962 ] final   23.98 input  175.53 | X-H torsion
[ 8008 7997 7996 7995 ] final  -29.54 input   59.86 | X-H torsion
[ 10167 10162 10161 10158 ] final  -68.72 input  -65.29 | X-H torsion
[ 10718 10713 10712 10709 ] final -133.51 input   66.30 | X-H torsion
[ 10763 10752 10751 10750 ] final -150.20 input  -60.55 | X-H torsion
[ 11005 11000 10999 10996 ] final   81.41 input  -57.11 | X-H torsion

> <Gold.Protein.ActiveResidues>
 VAL166  LYS551  ARG553  GLY616  TRP617  ASP618  TYR619  PRO620  LYS621  CYS622 
 ASP623  PHE694  ASN695  SER759  ASP760  ASP761  ALA762  ILE779  LEU786  VAL792 
 PHE793  MET794  SER795  GLU796  ALA797  LYS798  CYS799  TRP800  GLU811  SER814 

> <Gold.Protein.RotatedAtoms>
  151.3711  133.3854  159.2699 H   0  0  0  0  0  0  0  0  0  0  0  0  # atno 6907 bound_to 6896
  150.9650  134.9033  159.7764 H   0  0  0  0  0  0  0  0  0  0  0  0  # atno 6908 bound_to 6896
  152.5164  134.3671  159.9357 H   0  0  0  0  0  0  0  0  0  0  0  0  # atno 6909 bound_to 6896
  146.1959  139.7668  142.8798 H   0  0  0  0  0  0  0  0  0  0  0  0  # atno 7974 bound_to 7965
  154.4286  140.1815  156.1264 H   0  0  0  0  0  0  0  0  0  0  0  0  # atno 8008 bound_to 7997
  156.0102  140.3351  155.6908 H   0  0  0  0  0  0  0  0  0  0  0  0  # atno 8009 bound_to 7997
  155.6121  140.0651  157.2694 H   0  0  0  0  0  0  0  0  0  0  0  0  # atno 8010 bound_to 7997
  140.5486  143.2312  151.6954 H   0  0  0  0  0  0  0  0  0  0  0  0  # atno 10167 bound_to 10162
  156.2457  130.7123  151.1002 H   0  0  0  0  0  0  0  0  0  0  0  0  # atno 10718 bound_to 10713
  154.8133  135.3290  154.7246 H   0  0  0  0  0  0  0  0  0  0  0  0  # atno 10763 bound_to 10752
  153.7891  135.6912  153.4879 H   0  0  0  0  0  0  0  0  0  0  0  0  # atno 10764 bound_to 10752
  153.1928  135.4544  155.0118 H   0  0  0  0  0  0  0  0  0  0  0  0  # atno 10765 bound_to 10752
  139.9099  134.7994  156.2038 H   0  0  0  0  0  0  0  0  0  0  0  0  # atno 11005 bound_to 11000
  145.3645  141.0332  143.3266 LP  0  0  0  0  0  0  0  0  0  0  0  0  # atno 17320 bound_to 7965
  144.8579  139.5221  143.6826 LP  0  0  0  0  0  0  0  0  0  0  0  0  # atno 17321 bound_to 7965
  139.5018  144.3855  152.0333 LP  0  0  0  0  0  0  0  0  0  0  0  0  # atno 17342 bound_to 10162
  140.2970  144.3690  150.6071 LP  0  0  0  0  0  0  0  0  0  0  0  0  # atno 17343 bound_to 10162
  157.7194  131.0691  150.6198 LP  0  0  0  0  0  0  0  0  0  0  0  0  # atno 17370 bound_to 10713
  156.6274  130.4422  149.5799 LP  0  0  0  0  0  0  0  0  0  0  0  0  # atno 17371 bound_to 10713
  141.0508  133.6889  156.1769 LP  0  0  0  0  0  0  0  0  0  0  0  0  # atno 17394 bound_to 11000
  140.6813  134.4764  157.5589 LP  0  0  0  0  0  0  0  0  0  0  0  0  # atno 17395 bound_to 11000

$$$$
