AV-unprocessed.smi:107|AV-procd|sdf|1017|dock1
  -GOLD-   2262018 13D 1   1.00000     0.00000
 Structure written by MMmdl.
 31 32  0  0  0  0  0  0  0  0  1 V2000
  152.5080  138.5183  154.4674 C   0  0  0  0  0  0  0  0  0  0  0  0
  151.5975  139.4415  155.2598 C   0  0  0  0  0  0  0  0  0  0  0  0
  150.4439  139.9407  154.7478 C   0  0  0  0  0  0  0  0  0  0  0  0
  149.5920  140.7867  155.4434 N   0  0  0  0  0  0  0  0  0  0  0  0
  148.3377  141.3165  154.7860 C   0  0  2  0  0  0  0  0  0  0  0  0
  147.0883  140.9557  155.5977 C   0  0  0  0  0  0  0  0  0  0  0  0
  146.4098  139.9225  154.7159 C   0  0  1  0  0  0  0  0  0  0  0  0
  145.0047  139.9826  154.8535 O   0  0  0  0  0  0  0  0  0  0  0  0
  146.8766  140.3189  153.3125 C   0  0  2  0  0  0  0  0  0  0  0  0
  146.8366  139.1613  152.3034 C   0  0  0  0  0  0  0  0  0  0  0  0
  145.5372  138.6129  152.2467 O   0  0  0  0  0  0  0  0  0  0  0  0
  148.2237  140.7260  153.5274 O   0  0  0  0  0  0  0  0  0  0  0  0
  149.9281  141.1763  156.7578 C   0  0  0  0  0  0  0  0  0  0  0  0
  149.2284  141.9223  157.4418 O   0  0  0  0  0  0  0  0  0  0  0  0
  151.1127  140.6638  157.2844 N   0  0  0  0  0  0  0  0  0  0  0  0
  151.9936  139.8043  156.6232 C   0  0  0  0  0  0  0  0  0  0  0  0
  153.0098  139.4165  157.1974 O   0  0  0  0  0  0  0  0  0  0  0  0
  151.3553  140.9379  158.2253 H   0  0  0  0  0  0  0  0  0  0  0  0
  152.1088  138.3112  153.4743 H   0  0  0  0  0  0  0  0  0  0  0  0
  152.6284  137.5654  154.9839 H   0  0  0  0  0  0  0  0  0  0  0  0
  153.4934  138.9691  154.3447 H   0  0  0  0  0  0  0  0  0  0  0  0
  150.1762  139.6670  153.7383 H   0  0  0  0  0  0  0  0  0  0  0  0
  148.4480  142.3929  154.6518 H   0  0  0  0  0  0  0  0  0  0  0  0
  147.3328  140.5859  156.5943 H   0  0  0  0  0  0  0  0  0  0  0  0
  146.4787  141.8551  155.6987 H   0  0  0  0  0  0  0  0  0  0  0  0
  146.7618  138.9225  154.9716 H   0  0  0  0  0  0  0  0  0  0  0  0
  144.6203  140.0644  153.9940 H   0  0  0  0  0  0  0  0  0  0  0  0
  146.2976  141.1752  152.9604 H   0  0  0  0  0  0  0  0  0  0  0  0
  147.1570  139.4869  151.3132 H   0  0  0  0  0  0  0  0  0  0  0  0
  147.5126  138.3655  152.6175 H   0  0  0  0  0  0  0  0  0  0  0  0
  144.9184  139.2788  152.5051 H   0  0  0  0  0  0  0  0  0  0  0  0
  1  2  1  0  0  0  0
  1 19  1  0  0  0  0
  1 20  1  0  0  0  0
  1 21  1  0  0  0  0
  2 16  1  0  0  0  0
  2  3  2  0  0  0  0
  3  4  1  0  0  0  0
  3 22  1  0  0  0  0
  4  5  1  0  0  0  0
  4 13  1  0  0  0  0
  5 12  1  0  0  0  0
  5  6  1  0  0  0  0
  5 23  1  0  0  0  0
  6  7  1  0  0  0  0
  6 24  1  0  0  0  0
  6 25  1  0  0  0  0
  7  8  1  0  0  0  0
  7  9  1  0  0  0  0
  7 26  1  0  0  0  0
  8 27  1  0  0  0  0
  9 10  1  0  0  0  0
  9 12  1  0  0  0  0
  9 28  1  0  0  0  0
 10 11  1  0  0  0  0
 10 29  1  0  0  0  0
 10 30  1  0  0  0  0
 11 31  1  0  0  0  0
 13 14  2  0  0  0  0
 13 15  1  0  0  0  0
 15 18  1  0  0  0  0
 15 16  1  0  0  0  0
 16 17  2  0  0  0  0
M  END
> <s_m_source_file>
AV-unprocessed.smi

> <i_m_source_file_index>
107

> <i_lp_mmshare_version>
43012

> <i_f3d_flags>
0

> <s_epik_input>
Tz1jMVtuSF1jKD1PKW4oW2NIXWMxW0NIM10pW0NAQEhdMltDSDJdW0NAQEhdKFtPSF0pW0NASF0oTzIpW0NIMl1bT0hd

> <s_epik_cmdline>
J2VwaWtfcHl0aG9uJywgJy1waCcsICc3LjAnLCAnLXRuJywgJzgnLCAnLW1hJywgJzIwMCcsICctbWV0YWxfYmluZGluZycsICctaW1hZScsICc8aW5maWxlLm1hZT4nLCAnLW9tYWUnLCAnPG91dGZpbGUubWFlPic=

> <r_lp_tautomer_probability>
0.999537

> <r_epik_Ionization_Penalty>
0.00121888

> <r_epik_Ionization_Penalty_Charging>
0.00121876

> <r_epik_Ionization_Penalty_Neutral>
1.19946e-07

> <r_epik_State_Penalty>
0.000805124

> <r_epik_Charging_Adjusted_Penalty>
0.00202389

> <i_epik_Tot_Q>
0

> <i_epik_Tot_abs_Q>
0

> <r_epik_Metal_State_Penalty>
0.662472

> <b_epik_Metal_Only>
0

> <s_epik_Chemistry_Notes>
This compound contains an acetal/aminal-like group ( X-CH(R)-Y where X, Y are N, S, or O) that may be acid/base labile, releasing an aldehyde.

> <s_lp_Force_Field>
OPLS_2005

> <r_lp_Energy>
24.9707

> <b_lp_Chiralities_Consistent>
1

> <s_lp_Variant>
AV-unprocessed.smi:107-5

> <Gold.Version>
5.8.1

> <Gold.Id.Protein>
6NUR|6NUR_protein|mol2

> <Gold.PLP.Fitness>
38.6971

> <Gold.PLP.PLP>
-26.8099

> <Gold.PLP.part.hbond>
-4.0000

> <Gold.PLP.part.metal>
0.0000

> <Gold.PLP.part.buried>
-0.9903

> <Gold.PLP.part.nonpolar>
-25.7989

> <Gold.PLP.part.repulsive>
4.0290

> <Gold.PLP.ligand.clash>
0.0000

> <Gold.PLP.ligand.torsion>
0.0459

> <Gold.PLP.Chemscore.Hbond>
3.0000

> <Gold.PLP.Chemscore.CHOScore>
0.9885

> <Gold.PLP.Chemscore.Metal>
0.0000

> <Gold.Chemscore.Hbonds>
donor molecule, donor type, donor heavy atom, donor atom, acceptor molecule, acceptor atom, score
      L1  H     8    27       P1 10175  1.00
      L1  H    11    31       P1 10175  1.00
      P1  H  7997  8009       L1    17  1.00
      L1  C     3    22       P1  7957  0.68

> <Gold.PLP.Chemscore.Internal.Correction>
0.0133

> <Gold.Rescore>
     Score         DG    S(hbond)    S(metal)    S(lipo)     H(rot)  DE(clash)    DE(int)     intcor
     10.43     -13.83       2.93        0.00      47.34       2.73       2.39       1.01       ----

> <Gold.Chemscore.Fitness>
10.4347

> <Gold.Chemscore.DG>
-13.8329

> <Gold.Chemscore.ZeroCoef>
-5.4800

> <Gold.Chemscore.Hbond>
2.9316

> <Gold.Chemscore.Metal>
0.0000

> <Gold.Chemscore.Lipo>
47.3363

> <Gold.Chemscore.Internal_Hbond>
0.0000

> <Gold.Chemscore.DEClash>
2.3872

> <Gold.Chemscore.DEInternal>
1.0111

> <Gold.Chemscore.Rot>
2.7253

> <Gold.Chemscore.Internal.Correction>
   9.000000E+99

> <Gold.Chemscore.Hbonds>
donor molecule, donor type, donor heavy atom, donor atom, acceptor molecule, acceptor atom, score
      L1  H     8    27       P1 10175  1.00
      L1  H    11    31       P1 10175  1.00
      P1  H  7997  8009       L1    17  0.74

> <Gold.Chemscore.Hbond.Weighted>
-9.7914

> <Gold.Chemscore.Metal.Weighted>
-0.0000

> <Gold.Chemscore.Lipo.Weighted>
-5.5383

> <Gold.Chemscore.Internal_Hbond.Weighted>
0.0000

> <Gold.Chemscore.DEClash.Weighted>
2.3872

> <Gold.Chemscore.DEInternal.Weighted>
1.0111

> <Gold.Chemscore.Rot.Weighted>
6.9769

> <Gold.Chemscore.Internal.Correction.Weighted>
   9.000000E+99

> <Gold.Protein.RotatedTorsions>
[ 6907 6896 6895 6894 ] final  -91.57 input  -60.11 | X-H torsion
[ 7974 7965 7964 7962 ] final  -42.57 input  175.53 | X-H torsion
[ 8008 7997 7996 7995 ] final -171.35 input   59.86 | X-H torsion
[ 10167 10162 10161 10158 ] final   29.95 input  -65.29 | X-H torsion
[ 10718 10713 10712 10709 ] final -143.70 input   66.30 | X-H torsion
[ 10763 10752 10751 10750 ] final  138.64 input  -60.55 | X-H torsion
[ 11005 11000 10999 10996 ] final -167.87 input  -57.11 | X-H torsion

> <Gold.Protein.ActiveResidues>
 VAL166  LYS551  ARG553  GLY616  TRP617  ASP618  TYR619  PRO620  LYS621  CYS622 
 ASP623  PHE694  ASN695  SER759  ASP760  ASP761  ALA762  ILE779  LEU786  VAL792 
 PHE793  MET794  SER795  GLU796  ALA797  LYS798  CYS799  TRP800  GLU811  SER814 

> <Gold.Protein.RotatedAtoms>
  150.6894  134.2256  159.4413 H   0  0  0  0  0  0  0  0  0  0  0  0  # atno 6907 bound_to 6896
  152.0210  134.9820  160.0580 H   0  0  0  0  0  0  0  0  0  0  0  0  # atno 6908 bound_to 6896
  152.1397  133.4422  159.4798 H   0  0  0  0  0  0  0  0  0  0  0  0  # atno 6909 bound_to 6896
  146.0103  140.6972  142.9227 H   0  0  0  0  0  0  0  0  0  0  0  0  # atno 7974 bound_to 7965
  155.9303  140.1090  157.1137 H   0  0  0  0  0  0  0  0  0  0  0  0  # atno 8008 bound_to 7997
  154.4069  140.1239  156.4860 H   0  0  0  0  0  0  0  0  0  0  0  0  # atno 8009 bound_to 7997
  155.7088  140.3471  155.4967 H   0  0  0  0  0  0  0  0  0  0  0  0  # atno 8010 bound_to 7997
  140.4721  144.0747  150.6240 H   0  0  0  0  0  0  0  0  0  0  0  0  # atno 10167 bound_to 10162
  156.3611  130.7739  151.1906 H   0  0  0  0  0  0  0  0  0  0  0  0  # atno 10718 bound_to 10713
  153.8929  135.3031  155.3447 H   0  0  0  0  0  0  0  0  0  0  0  0  # atno 10763 bound_to 10752
  154.7708  135.4887  153.9647 H   0  0  0  0  0  0  0  0  0  0  0  0  # atno 10764 bound_to 10752
  153.1288  135.6799  153.9312 H   0  0  0  0  0  0  0  0  0  0  0  0  # atno 10765 bound_to 10752
  140.5484  134.5452  157.5117 H   0  0  0  0  0  0  0  0  0  0  0  0  # atno 11005 bound_to 11000
  144.6950  140.3387  143.7203 LP  0  0  0  0  0  0  0  0  0  0  0  0  # atno 17320 bound_to 7965
  145.7352  139.1748  143.2407 LP  0  0  0  0  0  0  0  0  0  0  0  0  # atno 17321 bound_to 7965
  140.3964  143.2726  151.9999 LP  0  0  0  0  0  0  0  0  0  0  0  0  # atno 17342 bound_to 10162
  139.4820  144.6034  151.7565 LP  0  0  0  0  0  0  0  0  0  0  0  0  # atno 17343 bound_to 10162
  157.7473  131.0400  150.4575 LP  0  0  0  0  0  0  0  0  0  0  0  0  # atno 17370 bound_to 10713
  156.4786  130.4069  149.6475 LP  0  0  0  0  0  0  0  0  0  0  0  0  # atno 17371 bound_to 10713
  139.9467  134.7688  156.0544 LP  0  0  0  0  0  0  0  0  0  0  0  0  # atno 17394 bound_to 11000
  141.1186  133.6620  156.3157 LP  0  0  0  0  0  0  0  0  0  0  0  0  # atno 17395 bound_to 11000

$$$$
