AV-unprocessed.smi:2568|AV-procd|sdf|10091|dock10
  -GOLD-   2272014113D 1   1.00000     0.00000
 Structure written by MMmdl.
 24 25  0  0  0  0  0  0  0  0  1 V2000
  146.6674  142.2419  153.9479 C   0  0  0  0  0  0  0  0  0  0  0  0
  147.9017  141.6681  154.5569 C   0  0  0  0  0  0  0  0  0  0  0  0
  148.6448  142.3496  155.4303 N   0  0  0  0  0  0  0  0  0  0  0  0
  149.6886  141.5871  155.8192 N   0  0  0  0  0  0  0  0  0  0  0  0
  149.4990  140.4729  155.1126 C   0  0  0  0  0  0  0  0  0  0  0  0
  150.4232  139.3038  155.2618 C   0  0  1  0  0  0  0  0  0  0  0  0
  150.0918  138.1716  154.2697 C   0  0  0  0  0  0  0  0  0  0  0  0
  151.0764  137.0960  154.3809 N   0  0  0  0  0  0  0  0  0  0  0  0
  152.4360  137.6043  154.2042 C   0  0  0  0  0  0  0  0  0  0  0  0
  152.7112  138.7542  155.1903 C   0  0  0  0  0  0  0  0  0  0  0  0
  151.7427  139.7817  155.0099 O   0  0  0  0  0  0  0  0  0  0  0  0
  148.3852  140.4548  154.3159 N   0  0  0  0  0  0  0  0  0  0  0  0
  148.4842  143.2844  155.7775 H   0  0  0  0  0  0  0  0  0  0  0  0
  146.2505  141.5546  153.2110 H   0  0  0  0  0  0  0  0  0  0  0  0
  146.8971  143.1856  153.4528 H   0  0  0  0  0  0  0  0  0  0  0  0
  145.9186  142.4220  154.7194 H   0  0  0  0  0  0  0  0  0  0  0  0
  150.3612  138.9369  156.2886 H   0  0  0  0  0  0  0  0  0  0  0  0
  149.0910  137.7839  154.4611 H   0  0  0  0  0  0  0  0  0  0  0  0
  150.0875  138.5636  153.2518 H   0  0  0  0  0  0  0  0  0  0  0  0
  150.8850  136.3859  153.6813 H   0  0  0  0  0  0  0  0  0  0  0  0
  153.1579  136.8012  154.3537 H   0  0  0  0  0  0  0  0  0  0  0  0
  152.5695  137.9595  153.1816 H   0  0  0  0  0  0  0  0  0  0  0  0
  152.6951  138.3979  156.2216 H   0  0  0  0  0  0  0  0  0  0  0  0
  153.7030  139.1706  155.0130 H   0  0  0  0  0  0  0  0  0  0  0  0
  1 14  1  0  0  0  0
  1 15  1  0  0  0  0
  1 16  1  0  0  0  0
  1  2  1  0  0  0  0
  2 12  2  0  0  0  0
  2  3  1  0  0  0  0
  3  4  1  0  0  0  0
  3 13  1  0  0  0  0
  4  5  2  0  0  0  0
  5 12  1  0  0  0  0
  5  6  1  0  0  0  0
  6 11  1  0  0  0  0
  6  7  1  0  0  0  0
  6 17  1  0  0  0  0
  7  8  1  0  0  0  0
  7 18  1  0  0  0  0
  7 19  1  0  0  0  0
  8  9  1  0  0  0  0
  8 20  1  0  0  0  0
  9 10  1  0  0  0  0
  9 21  1  0  0  0  0
  9 22  1  0  0  0  0
 10 11  1  0  0  0  0
 10 23  1  0  0  0  0
 10 24  1  0  0  0  0
M  END
> <s_m_source_file>
AV-unprocessed.smi

> <i_m_source_file_index>
2568

> <i_lp_mmshare_version>
43012

> <i_f3d_flags>
0

> <s_epik_input>
W0NIM11jMW5bbkhdYyhuMSlbQ0BASF0yW0NIMl1bTkhdW0NIMl1bQ0gyXU8y

> <s_epik_cmdline>
J2VwaWtfcHl0aG9uJywgJy1waCcsICc3LjAnLCAnLXRuJywgJzgnLCAnLW1hJywgJzIwMCcsICctbWV0YWxfYmluZGluZycsICctaW1hZScsICc8aW5maWxlLm1hZT4nLCAnLW9tYWUnLCAnPG91dGZpbGUubWFlPic=

> <r_epik_Ionization_Penalty>
1.10101

> <r_epik_Ionization_Penalty_Charging>
0

> <r_epik_Ionization_Penalty_Neutral>
1.10101

> <r_epik_State_Penalty>
1.26524

> <r_epik_Charging_Adjusted_Penalty>
1.26524

> <i_epik_Tot_Q>
0

> <i_epik_Tot_abs_Q>
0

> <r_epik_Metal_State_Penalty>
1.56429

> <b_epik_Metal_Only>
0

> <s_lp_Force_Field>
OPLS_2005

> <r_lp_Energy>
12.1745

> <b_lp_Chiralities_Consistent>
1

> <s_lp_Variant>
AV-unprocessed.smi:2568-4

> <Gold.Version>
5.8.1

> <Gold.Id.Protein>
6NUR|6NUR_protein|mol2

> <Gold.PLP.Fitness>
29.7725

> <Gold.PLP.PLP>
-21.6367

> <Gold.PLP.part.hbond>
-2.9581

> <Gold.PLP.part.metal>
0.0000

> <Gold.PLP.part.buried>
-2.4621

> <Gold.PLP.part.nonpolar>
-16.9964

> <Gold.PLP.part.repulsive>
0.3967

> <Gold.PLP.ligand.clash>
0.0000

> <Gold.PLP.ligand.torsion>
0.0904

> <Gold.PLP.Chemscore.Hbond>
2.7680

> <Gold.PLP.Chemscore.CHOScore>
0.0000

> <Gold.PLP.Chemscore.Metal>
0.0000

> <Gold.Chemscore.Hbonds>
donor molecule, donor type, donor heavy atom, donor atom, acceptor molecule, acceptor atom, score
      L1  H     3    13       P1  8028  0.80
      L1  H     8    20       P1  7949  0.33
      P1  H  7989  7998       L1    11  1.00

> <Gold.PLP.Chemscore.Internal.Correction>
0.0126

> <Gold.Rescore>
     Score         DG    S(hbond)    S(metal)    S(lipo)     H(rot)  DE(clash)    DE(int)     intcor
     13.17     -15.17       2.23        0.00      40.93       1.00       1.68       0.32       ----

> <Gold.Chemscore.Fitness>
13.1656

> <Gold.Chemscore.DG>
-15.1663

> <Gold.Chemscore.ZeroCoef>
-5.4800

> <Gold.Chemscore.Hbond>
2.2327

> <Gold.Chemscore.Metal>
0.0000

> <Gold.Chemscore.Lipo>
40.9320

> <Gold.Chemscore.Internal_Hbond>
0.0000

> <Gold.Chemscore.DEClash>
1.6842

> <Gold.Chemscore.DEInternal>
0.3165

> <Gold.Chemscore.Rot>
1.0000

> <Gold.Chemscore.Internal.Correction>
   9.000000E+99

> <Gold.Chemscore.Hbonds>
donor molecule, donor type, donor heavy atom, donor atom, acceptor molecule, acceptor atom, score
      L1  H     3    13       P1  8028  0.75
      L1  H     8    20       P1  7949  0.06
      P1  H  7989  7998       L1    11  0.62

> <Gold.Chemscore.Hbond.Weighted>
-7.4572

> <Gold.Chemscore.Metal.Weighted>
-0.0000

> <Gold.Chemscore.Lipo.Weighted>
-4.7890

> <Gold.Chemscore.Internal_Hbond.Weighted>
0.0000

> <Gold.Chemscore.DEClash.Weighted>
1.6842

> <Gold.Chemscore.DEInternal.Weighted>
0.3165

> <Gold.Chemscore.Rot.Weighted>
2.5600

> <Gold.Chemscore.Internal.Correction.Weighted>
   9.000000E+99

> <Gold.Protein.RotatedTorsions>
[ 6907 6896 6895 6894 ] final   27.13 input  -60.11 | X-H torsion
[ 7974 7965 7964 7962 ] final  -72.18 input  175.53 | X-H torsion
[ 8008 7997 7996 7995 ] final  161.34 input   59.86 | X-H torsion
[ 10167 10162 10161 10158 ] final   43.73 input  -65.29 | X-H torsion
[ 10718 10713 10712 10709 ] final    6.18 input   66.30 | X-H torsion
[ 10763 10752 10751 10750 ] final  -82.11 input  -60.55 | X-H torsion
[ 11005 11000 10999 10996 ] final   51.64 input  -57.11 | X-H torsion

> <Gold.Protein.ActiveResidues>
 VAL166  LYS551  ARG553  GLY616  TRP617  ASP618  TYR619  PRO620  LYS621  CYS622 
 ASP623  PHE694  ASN695  SER759  ASP760  ASP761  ALA762  ILE779  LEU786  VAL792 
 PHE793  MET794  SER795  GLU796  ALA797  LYS798  CYS799  TRP800  GLU811  SER814 

> <Gold.Protein.RotatedAtoms>
  151.9977  134.9945  160.0563 H   0  0  0  0  0  0  0  0  0  0  0  0  # atno 6907 bound_to 6896
  152.1548  133.4540  159.4840 H   0  0  0  0  0  0  0  0  0  0  0  0  # atno 6908 bound_to 6896
  150.6880  134.2062  159.4384 H   0  0  0  0  0  0  0  0  0  0  0  0  # atno 6909 bound_to 6896
  145.6685  140.9229  143.0896 H   0  0  0  0  0  0  0  0  0  0  0  0  # atno 7974 bound_to 7965
  156.2110  140.1780  156.7695 H   0  0  0  0  0  0  0  0  0  0  0  0  # atno 8008 bound_to 7997
  154.5722  140.0680  156.9011 H   0  0  0  0  0  0  0  0  0  0  0  0  # atno 8009 bound_to 7997
  155.2652  140.3338  155.4272 H   0  0  0  0  0  0  0  0  0  0  0  0  # atno 8010 bound_to 7997
  140.3414  144.2465  150.6155 H   0  0  0  0  0  0  0  0  0  0  0  0  # atno 10167 bound_to 10162
  156.9183  130.5781  149.5647 H   0  0  0  0  0  0  0  0  0  0  0  0  # atno 10718 bound_to 10713
  154.5718  135.5603  153.7102 H   0  0  0  0  0  0  0  0  0  0  0  0  # atno 10763 bound_to 10752
  153.0051  135.6299  154.2104 H   0  0  0  0  0  0  0  0  0  0  0  0  # atno 10764 bound_to 10752
  154.2044  135.2876  155.2960 H   0  0  0  0  0  0  0  0  0  0  0  0  # atno 10765 bound_to 10752
  140.0915  134.5202  155.8847 H   0  0  0  0  0  0  0  0  0  0  0  0  # atno 11005 bound_to 11000
  144.7065  139.8541  143.7428 LP  0  0  0  0  0  0  0  0  0  0  0  0  # atno 17320 bound_to 7965
  146.1065  139.4066  143.0314 LP  0  0  0  0  0  0  0  0  0  0  0  0  # atno 17321 bound_to 7965
  140.5305  143.2244  151.8246 LP  0  0  0  0  0  0  0  0  0  0  0  0  # atno 17342 bound_to 10162
  139.4840  144.4726  151.9406 LP  0  0  0  0  0  0  0  0  0  0  0  0  # atno 17343 bound_to 10162
  156.0503  130.5573  150.8974 LP  0  0  0  0  0  0  0  0  0  0  0  0  # atno 17370 bound_to 10713
  157.5924  131.0944  150.9097 LP  0  0  0  0  0  0  0  0  0  0  0  0  # atno 17371 bound_to 10713
  141.2079  133.6669  156.6338 LP  0  0  0  0  0  0  0  0  0  0  0  0  # atno 17394 bound_to 11000
  140.3345  134.7901  157.4351 LP  0  0  0  0  0  0  0  0  0  0  0  0  # atno 17395 bound_to 11000

$$$$
