AV-unprocessed.smi:1075|AV-procd|sdf|4694|dock2
  -GOLD-   22720 3213D 1   1.00000     0.00000
 Structure written by MMmdl.
 50 51  0  0  0  0  0  0  0  0  1 V2000
  152.0608  144.6252  158.3499 C   0  0  0  0  0  0  0  0  0  0  0  0
  152.3340  143.2309  158.8374 C   0  0  0  0  0  0  0  0  0  0  0  0
  153.0682  143.0582  159.9228 N   0  0  0  0  0  0  0  0  0  0  0  0
  153.1155  141.7233  160.0971 N   0  0  0  0  0  0  0  0  0  0  0  0
  153.8539  141.1824  161.2219 C   0  0  0  0  0  0  0  0  0  0  0  0
  152.4042  141.0496  159.1225 C   0  0  0  0  0  0  0  0  0  0  0  0
  152.2964  139.5572  159.1124 C   0  0  0  0  0  0  0  0  0  0  0  0
  151.8864  141.9981  158.2765 C   0  0  0  0  0  0  0  0  0  0  0  0
  151.0228  141.8305  157.0414 C   0  0  1  0  0  0  0  0  0  0  0  0
  151.5993  140.7752  156.0781 C   0  0  0  0  0  0  0  0  0  0  0  0
  149.5678  141.5491  157.4541 C   0  0  0  0  0  0  0  0  0  0  0  0
  149.2929  141.2295  158.6109 O   0  0  0  0  0  0  0  0  0  0  0  0
  148.6506  141.6698  156.4768 N   0  0  0  0  0  0  0  0  0  0  0  0
  147.1951  141.4861  156.5456 C   0  0  1  0  0  0  0  0  0  0  0  0
  146.6157  142.3128  157.7140 C   0  0  0  0  0  0  0  0  0  0  0  0
  146.5982  142.0111  155.2179 C   0  0  0  0  0  0  0  0  0  0  0  0
  147.0210  141.1723  153.9968 C   0  0  0  0  0  0  0  0  0  0  0  0
  146.6557  139.6873  154.1743 C   0  0  1  0  0  0  0  0  0  0  0  0
  147.0995  138.8513  152.9658 C   0  0  0  0  0  0  0  0  0  0  0  0
  147.2473  139.1406  155.4866 C   0  0  0  0  0  0  0  0  0  0  0  0
  146.8178  139.9895  156.6974 C   0  0  0  0  0  0  0  0  0  0  0  0
  150.9899  144.8292  158.3375 H   0  0  0  0  0  0  0  0  0  0  0  0
  152.4373  144.7636  157.3363 H   0  0  0  0  0  0  0  0  0  0  0  0
  152.5330  145.3768  158.9838 H   0  0  0  0  0  0  0  0  0  0  0  0
  153.1565  140.7795  161.9566 H   0  0  0  0  0  0  0  0  0  0  0  0
  154.4582  141.9575  161.6952 H   0  0  0  0  0  0  0  0  0  0  0  0
  154.5134  140.3845  160.8804 H   0  0  0  0  0  0  0  0  0  0  0  0
  151.4218  139.2259  158.5537 H   0  0  0  0  0  0  0  0  0  0  0  0
  152.2029  139.1609  160.1235 H   0  0  0  0  0  0  0  0  0  0  0  0
  153.1784  139.1111  158.6529 H   0  0  0  0  0  0  0  0  0  0  0  0
  150.9907  142.7685  156.4862 H   0  0  0  0  0  0  0  0  0  0  0  0
  151.6449  139.7856  156.5320 H   0  0  0  0  0  0  0  0  0  0  0  0
  152.6108  141.0438  155.7723 H   0  0  0  0  0  0  0  0  0  0  0  0
  150.9980  140.6958  155.1715 H   0  0  0  0  0  0  0  0  0  0  0  0
  149.0051  141.9364  155.5697 H   0  0  0  0  0  0  0  0  0  0  0  0
  145.5259  142.2738  157.7218 H   0  0  0  0  0  0  0  0  0  0  0  0
  146.9050  143.3618  157.6391 H   0  0  0  0  0  0  0  0  0  0  0  0
  146.9528  141.9460  158.6833 H   0  0  0  0  0  0  0  0  0  0  0  0
  145.5091  142.0091  155.2811 H   0  0  0  0  0  0  0  0  0  0  0  0
  146.8870  143.0516  155.0613 H   0  0  0  0  0  0  0  0  0  0  0  0
  146.5382  141.5673  153.1025 H   0  0  0  0  0  0  0  0  0  0  0  0
  148.0944  141.2732  153.8306 H   0  0  0  0  0  0  0  0  0  0  0  0
  145.5691  139.6161  154.2417 H   0  0  0  0  0  0  0  0  0  0  0  0
  148.1826  138.8770  152.8417 H   0  0  0  0  0  0  0  0  0  0  0  0
  146.6500  139.2239  152.0452 H   0  0  0  0  0  0  0  0  0  0  0  0
  146.8020  137.8085  153.0792 H   0  0  0  0  0  0  0  0  0  0  0  0
  146.9254  138.1096  155.6354 H   0  0  0  0  0  0  0  0  0  0  0  0
  148.3358  139.1130  155.4216 H   0  0  0  0  0  0  0  0  0  0  0  0
  147.2442  139.5688  157.6081 H   0  0  0  0  0  0  0  0  0  0  0  0
  145.7368  139.9029  156.8161 H   0  0  0  0  0  0  0  0  0  0  0  0
  1  2  1  0  0  0  0
  1 22  1  0  0  0  0
  1 23  1  0  0  0  0
  1 24  1  0  0  0  0
  2  8  1  0  0  0  0
  2  3  2  0  0  0  0
  3  4  1  0  0  0  0
  4  5  1  0  0  0  0
  4  6  1  0  0  0  0
  5 25  1  0  0  0  0
  5 26  1  0  0  0  0
  5 27  1  0  0  0  0
  6  7  1  0  0  0  0
  6  8  2  0  0  0  0
  7 28  1  0  0  0  0
  7 29  1  0  0  0  0
  7 30  1  0  0  0  0
  8  9  1  0  0  0  0
  9 10  1  0  0  0  0
  9 11  1  0  0  0  0
  9 31  1  0  0  0  0
 10 32  1  0  0  0  0
 10 33  1  0  0  0  0
 10 34  1  0  0  0  0
 11 12  2  0  0  0  0
 11 13  1  0  0  0  0
 13 14  1  0  0  0  0
 13 35  1  0  0  0  0
 14 21  1  0  0  0  0
 14 15  1  0  0  0  0
 14 16  1  0  0  0  0
 15 36  1  0  0  0  0
 15 37  1  0  0  0  0
 15 38  1  0  0  0  0
 16 17  1  0  0  0  0
 16 39  1  0  0  0  0
 16 40  1  0  0  0  0
 17 18  1  0  0  0  0
 17 41  1  0  0  0  0
 17 42  1  0  0  0  0
 18 19  1  0  0  0  0
 18 20  1  0  0  0  0
 18 43  1  0  0  0  0
 19 44  1  0  0  0  0
 19 45  1  0  0  0  0
 19 46  1  0  0  0  0
 20 21  1  0  0  0  0
 20 47  1  0  0  0  0
 20 48  1  0  0  0  0
 21 49  1  0  0  0  0
 21 50  1  0  0  0  0
M  END
> <s_m_source_file>
AV-unprocessed.smi

> <i_m_source_file_index>
1075

> <i_lp_mmshare_version>
43012

> <i_f3d_flags>
0

> <s_epik_input>
W0NIM11jMW5uKFtDSDNdKWMoW0NIM10pYzFbQ0BIXShbQ0gzXSlDKD1PKVtOSF1bQ0BAXTIoW0NIM10pW0NIMl1bQ0gyXVtDQEBIXShbQ0gzXSlbQ0gyXVtDSDJdMg==

> <s_epik_cmdline>
J2VwaWtfcHl0aG9uJywgJy1waCcsICc3LjAnLCAnLXRuJywgJzgnLCAnLW1hJywgJzIwMCcsICctbWV0YWxfYmluZGluZycsICctaW1hZScsICc8aW5maWxlLm1hZT4nLCAnLW9tYWUnLCAnPG91dGZpbGUubWFlPic=

> <r_lp_tautomer_probability>
1

> <r_epik_Ionization_Penalty>
0.00502928

> <r_epik_Ionization_Penalty_Charging>
0

> <r_epik_Ionization_Penalty_Neutral>
0.00502928

> <r_epik_State_Penalty>
0.0036576

> <r_epik_Charging_Adjusted_Penalty>
0.0036576

> <i_epik_Tot_Q>
0

> <i_epik_Tot_abs_Q>
0

> <r_epik_Metal_State_Penalty>
-0

> <b_epik_Metal_Only>
0

> <s_lp_Force_Field>
OPLS_2005

> <r_lp_Energy>
4.5461

> <b_lp_Chiralities_Consistent>
1

> <s_lp_Variant>
AV-unprocessed.smi:1075-2

> <Gold.Version>
5.8.1

> <Gold.Id.Protein>
6NUR|6NUR_protein|mol2

> <Gold.PLP.Fitness>
40.0240

> <Gold.PLP.PLP>
-41.4491

> <Gold.PLP.part.hbond>
-1.2965

> <Gold.PLP.part.metal>
0.0000

> <Gold.PLP.part.buried>
-5.9286

> <Gold.PLP.part.nonpolar>
-33.8660

> <Gold.PLP.part.repulsive>
0.0729

> <Gold.PLP.ligand.clash>
0.0000

> <Gold.PLP.ligand.torsion>
0.7634

> <Gold.PLP.Chemscore.Hbond>
0.0000

> <Gold.PLP.Chemscore.CHOScore>
0.0000

> <Gold.PLP.Chemscore.Metal>
0.0000

> <Gold.PLP.Chemscore.Internal.Correction>
0.1017

> <Gold.Rescore>
     Score         DG    S(hbond)    S(metal)    S(lipo)     H(rot)  DE(clash)    DE(int)     intcor
     14.12     -14.70       0.00        0.00     105.66       1.23       0.05       0.52       ----

> <Gold.Chemscore.Fitness>
14.1238

> <Gold.Chemscore.DG>
-14.6978

> <Gold.Chemscore.ZeroCoef>
-5.4800

> <Gold.Chemscore.Hbond>
0.0031

> <Gold.Chemscore.Metal>
0.0000

> <Gold.Chemscore.Lipo>
105.6553

> <Gold.Chemscore.Internal_Hbond>
0.0000

> <Gold.Chemscore.DEClash>
0.0518

> <Gold.Chemscore.DEInternal>
0.5222

> <Gold.Chemscore.Rot>
1.2321

> <Gold.Chemscore.Internal.Correction>
   9.000000E+99

> <Gold.Chemscore.Hbond.Weighted>
-0.0102

> <Gold.Chemscore.Metal.Weighted>
-0.0000

> <Gold.Chemscore.Lipo.Weighted>
-12.3617

> <Gold.Chemscore.Internal_Hbond.Weighted>
0.0000

> <Gold.Chemscore.DEClash.Weighted>
0.0518

> <Gold.Chemscore.DEInternal.Weighted>
0.5222

> <Gold.Chemscore.Rot.Weighted>
3.1541

> <Gold.Chemscore.Internal.Correction.Weighted>
   9.000000E+99

> <Gold.Protein.RotatedTorsions>
[ 6907 6896 6895 6894 ] final  -15.64 input  -60.11 | X-H torsion
[ 7974 7965 7964 7962 ] final -163.13 input  175.53 | X-H torsion
[ 8008 7997 7996 7995 ] final  -62.72 input   59.86 | X-H torsion
[ 10167 10162 10161 10158 ] final  176.00 input  -65.29 | X-H torsion
[ 10718 10713 10712 10709 ] final    5.48 input   66.30 | X-H torsion
[ 10763 10752 10751 10750 ] final -167.39 input  -60.55 | X-H torsion
[ 11005 11000 10999 10996 ] final -135.80 input  -57.11 | X-H torsion

> <Gold.Protein.ActiveResidues>
 VAL166  LYS551  ARG553  GLY616  TRP617  ASP618  TYR619  PRO620  LYS621  CYS622 
 ASP623  PHE694  ASN695  SER759  ASP760  ASP761  ALA762  ILE779  LEU786  VAL792 
 PHE793  MET794  SER795  GLU796  ALA797  LYS798  CYS799  TRP800  GLU811  SER814 

> <Gold.Protein.RotatedAtoms>
  151.3208  135.0818  159.9304 H   0  0  0  0  0  0  0  0  0  0  0  0  # atno 6907 bound_to 6896
  152.5257  133.9641  159.7741 H   0  0  0  0  0  0  0  0  0  0  0  0  # atno 6908 bound_to 6896
  150.9962  133.6049  159.2731 H   0  0  0  0  0  0  0  0  0  0  0  0  # atno 6909 bound_to 6896
  144.7335  140.3152  143.6181 H   0  0  0  0  0  0  0  0  0  0  0  0  # atno 7974 bound_to 7965
  154.4515  140.0990  156.6631 H   0  0  0  0  0  0  0  0  0  0  0  0  # atno 8008 bound_to 7997
  155.5271  140.3480  155.4400 H   0  0  0  0  0  0  0  0  0  0  0  0  # atno 8009 bound_to 7997
  156.0690  140.1345  156.9840 H   0  0  0  0  0  0  0  0  0  0  0  0  # atno 8010 bound_to 7997
  139.5198  144.2966  152.0416 H   0  0  0  0  0  0  0  0  0  0  0  0  # atno 10167 bound_to 10162
  156.9081  130.5746  149.5647 H   0  0  0  0  0  0  0  0  0  0  0  0  # atno 10718 bound_to 10713
  154.6737  135.2943  154.9708 H   0  0  0  0  0  0  0  0  0  0  0  0  # atno 10763 bound_to 10752
  154.0726  135.6616  153.4830 H   0  0  0  0  0  0  0  0  0  0  0  0  # atno 10764 bound_to 10752
  153.0502  135.5178  154.7745 H   0  0  0  0  0  0  0  0  0  0  0  0  # atno 10765 bound_to 10752
  140.8865  134.1866  157.4557 H   0  0  0  0  0  0  0  0  0  0  0  0  # atno 11005 bound_to 11000
  145.7625  139.1829  143.2259 LP  0  0  0  0  0  0  0  0  0  0  0  0  # atno 17320 bound_to 7965
  146.0975  140.7583  142.9565 LP  0  0  0  0  0  0  0  0  0  0  0  0  # atno 17321 bound_to 7965
  140.2415  144.4264  150.6258 LP  0  0  0  0  0  0  0  0  0  0  0  0  # atno 17342 bound_to 10162
  140.6287  143.2184  151.6541 LP  0  0  0  0  0  0  0  0  0  0  0  0  # atno 17343 bound_to 10162
  156.0549  130.5612  150.9070 LP  0  0  0  0  0  0  0  0  0  0  0  0  # atno 17370 bound_to 10713
  157.5984  131.0942  150.9001 LP  0  0  0  0  0  0  0  0  0  0  0  0  # atno 17371 bound_to 10713
  139.8725  134.9840  156.5221 LP  0  0  0  0  0  0  0  0  0  0  0  0  # atno 17394 bound_to 11000
  140.8399  133.8213  155.9065 LP  0  0  0  0  0  0  0  0  0  0  0  0  # atno 17395 bound_to 11000

$$$$
