AV-unprocessed.smi:1492|AV-procd|sdf|6039|dock2
  -GOLD-   22720 6143D 1   1.00000     0.00000
 Structure written by MMmdl.
 53 54  0  0  0  0  0  0  0  0  2 V2000
  147.4446  132.6855  156.3345 C   0  0  0  0  0  0  0  0  0  0  0  0
  146.9395  132.9600  154.9065 C   0  0  0  0  0  0  0  0  0  0  0  0
  147.6591  134.1180  154.1480 C   0  0  2  0  0  0  0  0  0  0  0  0
  149.1612  133.7420  154.0506 C   0  0  0  0  0  0  0  0  0  0  0  0
  147.5066  135.4388  154.9650 C   0  0  0  0  0  0  0  0  0  0  0  0
  148.2195  136.5720  154.3783 N   0  0  0  0  0  0  0  0  0  0  0  0
  148.6793  137.6439  155.0416 C   0  0  0  0  0  0  0  0  0  0  0  0
  148.5424  137.8041  156.2539 O   0  0  0  0  0  0  0  0  0  0  0  0
  149.3891  138.7055  154.2006 C   0  0  0  0  0  0  0  0  0  0  0  0
  149.9680  139.8828  154.9832 C   0  0  0  0  0  0  0  0  0  0  0  0
  151.0845  139.7799  155.7620 C   0  0  0  0  0  0  0  0  0  0  0  0
  151.8565  138.4823  155.9267 C   0  0  0  0  0  0  0  0  0  0  0  0
  151.5918  140.8796  156.4681 N   0  0  0  0  0  0  0  0  0  0  0  0
  150.9801  142.0141  156.3748 C   0  0  0  0  0  0  0  0  0  0  0  0
  151.4270  143.2753  157.0837 C   0  0  0  0  0  0  0  0  0  0  0  0
  149.8359  142.1865  155.5975 N   0  0  0  0  0  0  0  0  0  0  0  0
  149.2825  141.1855  154.8774 C   0  0  0  0  0  0  0  0  0  0  0  0
  148.2857  141.3930  154.1867 O   0  0  0  0  0  0  0  0  0  0  0  0
  147.0773  134.2766  152.7651 N   0  3  0  0  0  0  0  0  0  0  0  0
  146.9444  133.0250  151.9665 C   0  0  0  0  0  0  0  0  0  0  0  0
  146.5500  133.3517  150.5175 C   0  0  0  0  0  0  0  0  0  0  0  0
  145.3268  134.0738  150.5110 O   0  0  0  0  0  0  0  0  0  0  0  0
  145.4445  135.3122  151.1973 C   0  0  0  0  0  0  0  0  0  0  0  0
  145.8139  135.0622  152.6697 C   0  0  0  0  0  0  0  0  0  0  0  0
  149.4027  143.0977  155.5599 H   0  0  0  0  0  0  0  0  0  0  0  0
  146.8851  131.8644  156.7832 H   0  0  0  0  0  0  0  0  0  0  0  0
  147.3190  133.5522  156.9827 H   0  0  0  0  0  0  0  0  0  0  0  0
  148.4974  132.4041  156.3480 H   0  0  0  0  0  0  0  0  0  0  0  0
  146.9900  132.0367  154.3301 H   0  0  0  0  0  0  0  0  0  0  0  0
  145.8724  133.1752  154.9746 H   0  0  0  0  0  0  0  0  0  0  0  0
  149.5517  133.3875  155.0051 H   0  0  0  0  0  0  0  0  0  0  0  0
  149.7790  134.5940  153.7661 H   0  0  0  0  0  0  0  0  0  0  0  0
  149.3356  132.9513  153.3206 H   0  0  0  0  0  0  0  0  0  0  0  0
  146.4558  135.6948  155.1033 H   0  0  0  0  0  0  0  0  0  0  0  0
  147.9163  135.3177  155.9671 H   0  0  0  0  0  0  0  0  0  0  0  0
  148.3774  136.5389  153.3808 H   0  0  0  0  0  0  0  0  0  0  0  0
  150.1692  138.2191  153.6132 H   0  0  0  0  0  0  0  0  0  0  0  0
  148.6863  139.0840  153.4580 H   0  0  0  0  0  0  0  0  0  0  0  0
  151.2412  137.7319  156.4235 H   0  0  0  0  0  0  0  0  0  0  0  0
  152.7541  138.6292  156.5284 H   0  0  0  0  0  0  0  0  0  0  0  0
  152.1663  138.0916  154.9574 H   0  0  0  0  0  0  0  0  0  0  0  0
  152.4354  143.5448  156.7690 H   0  0  0  0  0  0  0  0  0  0  0  0
  151.4356  143.1173  158.1625 H   0  0  0  0  0  0  0  0  0  0  0  0
  150.7660  144.1157  156.8671 H   0  0  0  0  0  0  0  0  0  0  0  0
  147.8761  132.4636  151.9413 H   0  0  0  0  0  0  0  0  0  0  0  0
  146.1869  132.3739  152.4033 H   0  0  0  0  0  0  0  0  0  0  0  0
  147.3330  133.9260  150.0195 H   0  0  0  0  0  0  0  0  0  0  0  0
  146.4191  132.4315  149.9479 H   0  0  0  0  0  0  0  0  0  0  0  0
  146.1910  135.9421  150.7105 H   0  0  0  0  0  0  0  0  0  0  0  0
  144.4934  135.8409  151.1339 H   0  0  0  0  0  0  0  0  0  0  0  0
  144.9998  134.5312  153.1637 H   0  0  0  0  0  0  0  0  0  0  0  0
  145.9048  136.0329  153.1534 H   0  0  0  0  0  0  0  0  0  0  0  0
  147.7627  134.8308  152.2722 H   0  0  0  0  0  0  0  0  0  0  0  0
  1  2  1  0  0  0  0
  1 26  1  0  0  0  0
  1 27  1  0  0  0  0
  1 28  1  0  0  0  0
  2  3  1  0  0  0  0
  2 29  1  0  0  0  0
  2 30  1  0  0  0  0
  3  4  1  0  0  0  0
  3  5  1  0  0  0  0
  3 19  1  0  0  0  0
  4 31  1  0  0  0  0
  4 32  1  0  0  0  0
  4 33  1  0  0  0  0
  5  6  1  0  0  0  0
  5 34  1  0  0  0  0
  5 35  1  0  0  0  0
  6  7  1  0  0  0  0
  6 36  1  0  0  0  0
  7  8  2  0  0  0  0
  7  9  1  0  0  0  0
  9 10  1  0  0  0  0
  9 37  1  0  0  0  0
  9 38  1  0  0  0  0
 10 17  1  0  0  0  0
 10 11  2  0  0  0  0
 11 12  1  0  0  0  0
 11 13  1  0  0  0  0
 12 39  1  0  0  0  0
 12 40  1  0  0  0  0
 12 41  1  0  0  0  0
 13 14  2  0  0  0  0
 14 15  1  0  0  0  0
 14 16  1  0  0  0  0
 15 42  1  0  0  0  0
 15 43  1  0  0  0  0
 15 44  1  0  0  0  0
 16 25  1  0  0  0  0
 16 17  1  0  0  0  0
 17 18  2  0  0  0  0
 19 24  1  0  0  0  0
 19 20  1  0  0  0  0
 19 53  1  0  0  0  0
 20 21  1  0  0  0  0
 20 45  1  0  0  0  0
 20 46  1  0  0  0  0
 21 22  1  0  0  0  0
 21 47  1  0  0  0  0
 21 48  1  0  0  0  0
 22 23  1  0  0  0  0
 23 24  1  0  0  0  0
 23 49  1  0  0  0  0
 23 50  1  0  0  0  0
 24 51  1  0  0  0  0
 24 52  1  0  0  0  0
M  CHG  1  19   1
M  END
> <s_m_source_file>
AV-unprocessed.smi

> <i_m_source_file_index>
1492

> <i_lp_mmshare_version>
43012

> <i_f3d_flags>
0

> <s_epik_input>
W0NIMl0xW0NIMl1PW0NIMl1bQ0gyXU4xW0NAQF0oW0NIM10pKFtDSDJdW0NIM10pW0NIMl1bTkhdQyg9TylbQ0gyXWMyYyhbQ0gzXSluYyhbQ0gzXSlbbkhdYzI9Tw==

> <s_epik_cmdline>
J2VwaWtfcHl0aG9uJywgJy1waCcsICc3LjAnLCAnLXRuJywgJzgnLCAnLW1hJywgJzIwMCcsICctbWV0YWxfYmluZGluZycsICctaW1hZScsICc8aW5maWxlLm1hZT4nLCAnLW9tYWUnLCAnPG91dGZpbGUubWFlPic=

> <r_lp_tautomer_probability>
0.839158

> <r_epik_Ionization_Penalty>
0.506959

> <r_epik_Ionization_Penalty_Charging>
0.506936

> <r_epik_Ionization_Penalty_Neutral>
2.27768e-05

> <r_epik_State_Penalty>
0.6046

> <r_epik_Charging_Adjusted_Penalty>
1.11154

> <i_epik_Tot_Q>
1

> <i_epik_Tot_abs_Q>
1

> <r_epik_Metal_State_Penalty>
0.783136

> <b_epik_Metal_Only>
0

> <s_lp_Force_Field>
OPLS_2005

> <r_lp_Energy>
29.7621

> <b_lp_Chiralities_Consistent>
1

> <s_lp_Variant>
AV-unprocessed.smi:1492-4

> <Gold.Version>
5.8.1

> <Gold.Id.Protein>
6NUR|6NUR_protein|mol2

> <Gold.PLP.Fitness>
45.2586

> <Gold.PLP.PLP>
-34.4677

> <Gold.PLP.part.hbond>
-3.0000

> <Gold.PLP.part.metal>
0.0000

> <Gold.PLP.part.buried>
-4.2918

> <Gold.PLP.part.nonpolar>
-27.1039

> <Gold.PLP.part.repulsive>
0.4939

> <Gold.PLP.ligand.clash>
0.0000

> <Gold.PLP.ligand.torsion>
0.7203

> <Gold.PLP.Chemscore.Hbond>
4.0000

> <Gold.PLP.Chemscore.CHOScore>
0.0000

> <Gold.PLP.Chemscore.Metal>
0.0000

> <Gold.Chemscore.Hbonds>
donor molecule, donor type, donor heavy atom, donor atom, acceptor molecule, acceptor atom, score
      L1  H     6    36       P1  7948  1.00
      L1  H    16    25       P1  8028  1.00
      L1  H    19    53       P1  7948  2.00

> <Gold.PLP.Chemscore.Internal.Correction>
0.2313

> <Gold.Rescore>
     Score         DG    S(hbond)    S(metal)    S(lipo)     H(rot)  DE(clash)    DE(int)     intcor
     18.11     -18.52       2.99        0.00      74.21       2.19       0.07       0.35       ----

> <Gold.Chemscore.Fitness>
18.1082

> <Gold.Chemscore.DG>
-18.5210

> <Gold.Chemscore.ZeroCoef>
-5.4800

> <Gold.Chemscore.Hbond>
2.9855

> <Gold.Chemscore.Metal>
0.0000

> <Gold.Chemscore.Lipo>
74.2080

> <Gold.Chemscore.Internal_Hbond>
0.0000

> <Gold.Chemscore.DEClash>
0.0675

> <Gold.Chemscore.DEInternal>
0.3453

> <Gold.Chemscore.Rot>
2.1926

> <Gold.Chemscore.Internal.Correction>
   9.000000E+99

> <Gold.Chemscore.Hbonds>
donor molecule, donor type, donor heavy atom, donor atom, acceptor molecule, acceptor atom, score
      L1  H     6    36       P1  7948  1.00
      L1  H    16    25       P1  8028  1.00
      L1  H    19    53       P1  7948  0.78

> <Gold.Chemscore.Hbond.Weighted>
-9.9716

> <Gold.Chemscore.Metal.Weighted>
-0.0000

> <Gold.Chemscore.Lipo.Weighted>
-8.6823

> <Gold.Chemscore.Internal_Hbond.Weighted>
0.0000

> <Gold.Chemscore.DEClash.Weighted>
0.0675

> <Gold.Chemscore.DEInternal.Weighted>
0.3453

> <Gold.Chemscore.Rot.Weighted>
5.6129

> <Gold.Chemscore.Internal.Correction.Weighted>
   9.000000E+99

> <Gold.Protein.RotatedTorsions>
[ 6907 6896 6895 6894 ] final  -39.52 input  -60.11 | X-H torsion
[ 7974 7965 7964 7962 ] final  104.27 input  175.53 | X-H torsion
[ 8008 7997 7996 7995 ] final -171.58 input   59.86 | X-H torsion
[ 10167 10162 10161 10158 ] final -113.78 input  -65.29 | X-H torsion
[ 10718 10713 10712 10709 ] final  150.87 input   66.30 | X-H torsion
[ 10763 10752 10751 10750 ] final  107.19 input  -60.55 | X-H torsion
[ 11005 11000 10999 10996 ] final -131.18 input  -57.11 | X-H torsion

> <Gold.Protein.ActiveResidues>
 VAL166  LYS551  ARG553  GLY616  TRP617  ASP618  TYR619  PRO620  LYS621  CYS622 
 ASP623  PHE694  ASN695  SER759  ASP760  ASP761  ALA762  ILE779  LEU786  VAL792 
 PHE793  MET794  SER795  GLU796  ALA797  LYS798  CYS799  TRP800  GLU811  SER814 

> <Gold.Protein.RotatedAtoms>
  150.9894  134.9232  159.7890 H   0  0  0  0  0  0  0  0  0  0  0  0  # atno 6907 bound_to 6896
  152.5246  134.3302  159.9190 H   0  0  0  0  0  0  0  0  0  0  0  0  # atno 6908 bound_to 6896
  151.3308  133.3960  159.2697 H   0  0  0  0  0  0  0  0  0  0  0  0  # atno 6909 bound_to 6896
  145.3349  139.2477  143.3641 H   0  0  0  0  0  0  0  0  0  0  0  0  # atno 7974 bound_to 7965
  155.9334  140.1095  157.1114 H   0  0  0  0  0  0  0  0  0  0  0  0  # atno 8008 bound_to 7997
  154.4075  140.1233  156.4897 H   0  0  0  0  0  0  0  0  0  0  0  0  # atno 8009 bound_to 7997
  155.7052  140.3471  155.4952 H   0  0  0  0  0  0  0  0  0  0  0  0  # atno 8010 bound_to 7997
  140.1081  143.4552  152.1769 H   0  0  0  0  0  0  0  0  0  0  0  0  # atno 10167 bound_to 10162
  157.2779  131.0830  151.1553 H   0  0  0  0  0  0  0  0  0  0  0  0  # atno 10718 bound_to 10713
  153.4033  135.3852  155.2002 H   0  0  0  0  0  0  0  0  0  0  0  0  # atno 10763 bound_to 10752
  154.8731  135.3776  154.4591 H   0  0  0  0  0  0  0  0  0  0  0  0  # atno 10764 bound_to 10752
  153.5091  135.7087  153.5852 H   0  0  0  0  0  0  0  0  0  0  0  0  # atno 10765 bound_to 10752
  140.9281  134.1356  157.4258 H   0  0  0  0  0  0  0  0  0  0  0  0  # atno 11005 bound_to 11000
  146.3031  140.3935  142.8697 LP  0  0  0  0  0  0  0  0  0  0  0  0  # atno 17320 bound_to 7965
  144.8835  140.7431  143.5971 LP  0  0  0  0  0  0  0  0  0  0  0  0  # atno 17321 bound_to 7965
  139.5634  144.7420  151.4091 LP  0  0  0  0  0  0  0  0  0  0  0  0  # atno 17342 bound_to 10162
  140.6941  143.7792  150.7299 LP  0  0  0  0  0  0  0  0  0  0  0  0  # atno 17343 bound_to 10162
  157.2998  130.6837  149.6158 LP  0  0  0  0  0  0  0  0  0  0  0  0  # atno 17370 bound_to 10713
  155.9664  130.4395  150.5262 LP  0  0  0  0  0  0  0  0  0  0  0  0  # atno 17371 bound_to 10713
  139.8790  134.9995  156.5960 LP  0  0  0  0  0  0  0  0  0  0  0  0  # atno 17394 bound_to 11000
  140.7899  133.8591  155.8637 LP  0  0  0  0  0  0  0  0  0  0  0  0  # atno 17395 bound_to 11000

$$$$
