AV-unprocessed.smi:3280|AV-procd|sdf|12555|dock7
  -GOLD-   2272018473D 1   1.00000     0.00000
 Structure written by MMmdl.
 38 39  0  0  0  0  0  0  0  0  1 V2000
  148.0952  136.5667  155.6477 C   0  0  0  0  0  0  0  0  0  0  0  0
  149.5368  136.5295  155.1198 C   0  0  0  0  0  0  0  0  0  0  0  0
  150.3984  135.4583  155.8049 C   0  0  0  0  0  0  0  0  0  0  0  0
  150.1826  137.8803  155.1742 C   0  0  0  0  0  0  0  0  0  0  0  0
  151.4041  138.0785  154.6920 N   0  0  0  0  0  0  0  0  0  0  0  0
  151.6261  139.4441  154.9187 O   0  0  0  0  0  0  0  0  0  0  0  0
  150.5088  139.9035  155.5310 C   0  0  0  0  0  0  0  0  0  0  0  0
  150.4168  141.3541  155.8684 C   0  0  0  0  0  0  0  0  0  0  0  0
  149.3781  141.6324  156.9623 C   0  0  0  0  0  0  0  0  0  0  0  0
  149.5966  142.9620  157.5154 N   0  0  0  0  0  0  0  0  0  0  0  0
  150.8980  143.0795  158.1639 C   0  0  1  0  0  0  0  0  0  0  0  0
  150.8968  144.3920  158.9722 C   0  0  0  0  0  0  0  0  0  0  0  0
  152.2464  144.6673  159.6544 C   0  0  0  0  0  0  0  0  0  0  0  0
  152.6258  143.5725  160.6608 C   0  0  0  0  0  0  0  0  0  0  0  0
  152.8112  141.9661  159.8414 S   0  0  0  0  0  0  0  0  0  0  0  0
  151.1726  141.8603  159.0703 C   0  0  0  0  0  0  0  0  0  0  0  0
  149.5675  138.9781  155.6978 N   0  0  0  0  0  0  0  0  0  0  0  0
  147.4918  137.2835  155.0899 H   0  0  0  0  0  0  0  0  0  0  0  0
  148.0646  136.8519  156.6998 H   0  0  0  0  0  0  0  0  0  0  0  0
  147.6182  135.5908  155.5545 H   0  0  0  0  0  0  0  0  0  0  0  0
  149.4715  136.2435  154.0686 H   0  0  0  0  0  0  0  0  0  0  0  0
  151.3916  135.4089  155.3577 H   0  0  0  0  0  0  0  0  0  0  0  0
  149.9451  134.4712  155.7114 H   0  0  0  0  0  0  0  0  0  0  0  0
  150.5212  135.6677  156.8679 H   0  0  0  0  0  0  0  0  0  0  0  0
  151.4018  141.7009  156.1840 H   0  0  0  0  0  0  0  0  0  0  0  0
  150.1659  141.9044  154.9603 H   0  0  0  0  0  0  0  0  0  0  0  0
  148.3756  141.5527  156.5433 H   0  0  0  0  0  0  0  0  0  0  0  0
  149.4643  140.8856  157.7527 H   0  0  0  0  0  0  0  0  0  0  0  0
  149.5429  143.6363  156.7652 H   0  0  0  0  0  0  0  0  0  0  0  0
  151.6705  143.1505  157.3966 H   0  0  0  0  0  0  0  0  0  0  0  0
  150.6624  145.2286  158.3124 H   0  0  0  0  0  0  0  0  0  0  0  0
  150.1079  144.3676  159.7257 H   0  0  0  0  0  0  0  0  0  0  0  0
  153.0295  144.7639  158.9013 H   0  0  0  0  0  0  0  0  0  0  0  0
  152.1990  145.6270  160.1700 H   0  0  0  0  0  0  0  0  0  0  0  0
  153.5645  143.8224  161.1554 H   0  0  0  0  0  0  0  0  0  0  0  0
  151.8661  143.4902  161.4389 H   0  0  0  0  0  0  0  0  0  0  0  0
  150.4181  141.7869  159.8547 H   0  0  0  0  0  0  0  0  0  0  0  0
  151.1387  140.9278  158.5083 H   0  0  0  0  0  0  0  0  0  0  0  0
  1  2  1  0  0  0  0
  1 18  1  0  0  0  0
  1 19  1  0  0  0  0
  1 20  1  0  0  0  0
  2  3  1  0  0  0  0
  2  4  1  0  0  0  0
  2 21  1  0  0  0  0
  3 22  1  0  0  0  0
  3 23  1  0  0  0  0
  3 24  1  0  0  0  0
  4 17  1  0  0  0  0
  4  5  2  0  0  0  0
  5  6  1  0  0  0  0
  6  7  1  0  0  0  0
  7  8  1  0  0  0  0
  7 17  2  0  0  0  0
  8  9  1  0  0  0  0
  8 25  1  0  0  0  0
  8 26  1  0  0  0  0
  9 10  1  0  0  0  0
  9 27  1  0  0  0  0
  9 28  1  0  0  0  0
 10 11  1  0  0  0  0
 10 29  1  0  0  0  0
 11 16  1  0  0  0  0
 11 12  1  0  0  0  0
 11 30  1  0  0  0  0
 12 13  1  0  0  0  0
 12 31  1  0  0  0  0
 12 32  1  0  0  0  0
 13 14  1  0  0  0  0
 13 33  1  0  0  0  0
 13 34  1  0  0  0  0
 14 15  1  0  0  0  0
 14 35  1  0  0  0  0
 14 36  1  0  0  0  0
 15 16  1  0  0  0  0
 16 37  1  0  0  0  0
 16 38  1  0  0  0  0
M  END
> <s_m_source_file>
AV-unprocessed.smi

> <i_m_source_file_index>
3280

> <i_lp_mmshare_version>
43012

> <i_f3d_flags>
0

> <s_epik_input>
W0NIM11bQ0hdKFtDSDNdKWMxbm9jKG4xKVtDSDJdW0NIMl1bTkhdW0NAQEhdMltDSDJdW0NIMl1bQ0gyXVNbQ0gyXTI=

> <s_epik_cmdline>
J2VwaWtfcHl0aG9uJywgJy1waCcsICc3LjAnLCAnLXRuJywgJzgnLCAnLW1hJywgJzIwMCcsICctbWV0YWxfYmluZGluZycsICctaW1hZScsICc8aW5maWxlLm1hZT4nLCAnLW9tYWUnLCAnPG91dGZpbGUubWFlPic=

> <r_lp_tautomer_probability>
1

> <r_epik_Ionization_Penalty>
2.40576

> <r_epik_Ionization_Penalty_Charging>
0

> <r_epik_Ionization_Penalty_Neutral>
2.40576

> <r_epik_State_Penalty>
2.56401

> <r_epik_Charging_Adjusted_Penalty>
2.56401

> <i_epik_Tot_Q>
0

> <i_epik_Tot_abs_Q>
0

> <r_epik_Metal_State_Penalty>
2.56401

> <b_epik_Metal_Only>
0

> <s_lp_Force_Field>
OPLS_2005

> <r_lp_Energy>
1.02241

> <b_lp_Chiralities_Consistent>
1

> <s_lp_Variant>
AV-unprocessed.smi:3280-4

> <Gold.Version>
5.8.1

> <Gold.Id.Protein>
6NUR|6NUR_protein|mol2

> <Gold.PLP.Fitness>
38.0296

> <Gold.PLP.PLP>
-32.9478

> <Gold.PLP.part.hbond>
-2.0000

> <Gold.PLP.part.metal>
0.0000

> <Gold.PLP.part.buried>
-5.5898

> <Gold.PLP.part.nonpolar>
-25.7980

> <Gold.PLP.part.repulsive>
0.2484

> <Gold.PLP.ligand.clash>
0.0000

> <Gold.PLP.ligand.torsion>
0.5001

> <Gold.PLP.Chemscore.Hbond>
2.0000

> <Gold.PLP.Chemscore.CHOScore>
0.0000

> <Gold.PLP.Chemscore.Metal>
0.0000

> <Gold.Chemscore.Hbonds>
donor molecule, donor type, donor heavy atom, donor atom, acceptor molecule, acceptor atom, score
      L1  H    10    29       P1  8028  1.00
      P1  H  7989  7998       L1     6  0.80

> <Gold.PLP.Chemscore.Internal.Correction>
0.0821

> <Gold.Rescore>
     Score         DG    S(hbond)    S(metal)    S(lipo)     H(rot)  DE(clash)    DE(int)     intcor
     17.14     -17.39       1.85        0.00      85.71       1.68       0.01       0.24       ----

> <Gold.Chemscore.Fitness>
17.1355

> <Gold.Chemscore.DG>
-17.3851

> <Gold.Chemscore.ZeroCoef>
-5.4800

> <Gold.Chemscore.Hbond>
1.8523

> <Gold.Chemscore.Metal>
0.0000

> <Gold.Chemscore.Lipo>
85.7052

> <Gold.Chemscore.Internal_Hbond>
0.0000

> <Gold.Chemscore.DEClash>
0.0135

> <Gold.Chemscore.DEInternal>
0.2361

> <Gold.Chemscore.Rot>
1.6833

> <Gold.Chemscore.Internal.Correction>
   9.000000E+99

> <Gold.Chemscore.Hbonds>
donor molecule, donor type, donor heavy atom, donor atom, acceptor molecule, acceptor atom, score
      L1  H    10    29       P1  8028  0.98
      P1  H  7989  7998       L1     6  0.11

> <Gold.Chemscore.Hbond.Weighted>
-6.1867

> <Gold.Chemscore.Metal.Weighted>
-0.0000

> <Gold.Chemscore.Lipo.Weighted>
-10.0275

> <Gold.Chemscore.Internal_Hbond.Weighted>
0.0000

> <Gold.Chemscore.DEClash.Weighted>
0.0135

> <Gold.Chemscore.DEInternal.Weighted>
0.2361

> <Gold.Chemscore.Rot.Weighted>
4.3092

> <Gold.Chemscore.Internal.Correction.Weighted>
   9.000000E+99

> <Gold.Protein.RotatedTorsions>
[ 6907 6896 6895 6894 ] final -135.67 input  -60.11 | X-H torsion
[ 7974 7965 7964 7962 ] final  173.68 input  175.53 | X-H torsion
[ 8008 7997 7996 7995 ] final   37.79 input   59.86 | X-H torsion
[ 10167 10162 10161 10158 ] final  109.09 input  -65.29 | X-H torsion
[ 10718 10713 10712 10709 ] final   26.69 input   66.30 | X-H torsion
[ 10763 10752 10751 10750 ] final   38.74 input  -60.55 | X-H torsion
[ 11005 11000 10999 10996 ] final  -74.96 input  -57.11 | X-H torsion

> <Gold.Protein.ActiveResidues>
 VAL166  LYS551  ARG553  GLY616  TRP617  ASP618  TYR619  PRO620  LYS621  CYS622 
 ASP623  PHE694  ASN695  SER759  ASP760  ASP761  ALA762  ILE779  LEU786  VAL792 
 PHE793  MET794  SER795  GLU796  ALA797  LYS798  CYS799  TRP800  GLU811  SER814 

> <Gold.Protein.RotatedAtoms>
  151.0007  133.6058  159.2695 H   0  0  0  0  0  0  0  0  0  0  0  0  # atno 6907 bound_to 6896
  151.3246  135.0826  159.9327 H   0  0  0  0  0  0  0  0  0  0  0  0  # atno 6908 bound_to 6896
  152.5273  133.9648  159.7788 H   0  0  0  0  0  0  0  0  0  0  0  0  # atno 6909 bound_to 6896
  144.7238  139.9684  143.6436 H   0  0  0  0  0  0  0  0  0  0  0  0  # atno 7974 bound_to 7965
  155.2096  140.3322  155.4331 H   0  0  0  0  0  0  0  0  0  0  0  0  # atno 8008 bound_to 7997
  156.2375  140.1879  156.7127 H   0  0  0  0  0  0  0  0  0  0  0  0  # atno 8009 bound_to 7997
  154.6087  140.0612  156.9450 H   0  0  0  0  0  0  0  0  0  0  0  0  # atno 8010 bound_to 7997
  139.6794  144.7119  151.1543 H   0  0  0  0  0  0  0  0  0  0  0  0  # atno 10167 bound_to 10162
  157.2102  130.6930  149.6225 H   0  0  0  0  0  0  0  0  0  0  0  0  # atno 10718 bound_to 10713
  152.9990  135.6241  154.2353 H   0  0  0  0  0  0  0  0  0  0  0  0  # atno 10763 bound_to 10752
  154.2095  135.2800  155.2965 H   0  0  0  0  0  0  0  0  0  0  0  0  # atno 10764 bound_to 10752
  154.5618  135.5703  153.7073 H   0  0  0  0  0  0  0  0  0  0  0  0  # atno 10765 bound_to 10752
  141.1640  133.6929  156.7443 H   0  0  0  0  0  0  0  0  0  0  0  0  # atno 11005 bound_to 11000
  146.0582  139.3577  143.0597 LP  0  0  0  0  0  0  0  0  0  0  0  0  # atno 17320 bound_to 7965
  145.8127  140.9718  143.0940 LP  0  0  0  0  0  0  0  0  0  0  0  0  # atno 17321 bound_to 7965
  140.7647  143.5722  150.8983 LP  0  0  0  0  0  0  0  0  0  0  0  0  # atno 17342 bound_to 10162
  139.9393  143.6401  152.3057 LP  0  0  0  0  0  0  0  0  0  0  0  0  # atno 17343 bound_to 10162
  155.9691  130.4554  150.5885 LP  0  0  0  0  0  0  0  0  0  0  0  0  # atno 17370 bound_to 10713
  157.3680  131.0761  151.1581 LP  0  0  0  0  0  0  0  0  0  0  0  0  # atno 17371 bound_to 10713
  140.2651  134.8436  157.3795 LP  0  0  0  0  0  0  0  0  0  0  0  0  # atno 17394 bound_to 11000
  140.1574  134.4772  155.7918 LP  0  0  0  0  0  0  0  0  0  0  0  0  # atno 17395 bound_to 11000

$$$$
