#       Name:                AV-unprocessed.smi:2731
#       Creating user name   scv26
#       Creation time:       Fri Mar 27 14:57:30 2020


#       File generated by GOLD software.
#

@<TRIPOS>MOLECULE
AV-unprocessed.smi:2731
    50    51     1
SMALL
NO_CHARGES


@<TRIPOS>ATOM
      1 ****        -0.1797   3.4208  -1.3254 C.3            1 S1                 0.0000
      2 ****        -0.6635   2.0213  -1.5736 C.2            1 S1                 0.0000
      3 ****        -1.8185   1.6405  -1.0544 N.2            1 S1                 0.0000
      4 ****        -1.9600   0.3550  -1.4334 N.pl3          1 S1                 0.0000
      5 ****        -3.1466  -0.3763  -1.0330 C.3            1 S1                 0.0000
      6 ****        -0.8890  -0.0790  -2.1905 C.2            1 S1                 0.0000
      7 ****        -0.8018  -1.4741  -2.7209 C.3            1 S1                 0.0000
      8 ****        -0.0269   0.9788  -2.3099 C.2            1 S1                 0.0000
      9 ****         1.3008   1.0368  -3.0284 C.3            1 S1                 0.0000
     10 ****         2.5112   1.0346  -2.0737 C.3            1 S1                 0.0000
     11 ****         2.4619  -0.0766  -1.1260 N.am           1 S1                 0.0000
     12 ****         2.0469   0.0094   0.1476 C.2            1 S1                 0.0000
     13 ****         1.7278   1.0721   0.6829 O.2            1 S1                 0.0000
     14 ****         1.9744  -1.3125   0.9225 C.3            1 S1                 0.0000
     15 ****         0.9711  -1.2772   1.9946 N.am           1 S1                 0.0000
     16 ****        -0.4193  -1.5614   1.6183 C.3            1 S1                 0.0000
     17 ****        -1.3645  -0.4899   2.1870 C.3            1 S1                 0.0000
     18 ****        -1.1763  -0.2875   3.7042 C.3            1 S1                 0.0000
     19 ****         0.1184  -0.9090   4.2752 C.3            1 S1                 0.0000
     20 ****         1.2744  -0.9291   3.2665 C.2            1 S1                 0.0000
     21 ****         2.4118  -0.6479   3.6438 O.2            1 S1                 0.0000
     22 ****         0.2624   3.5077  -0.3327 H              1 S1                 0.0000
     23 ****        -0.9959   4.1408  -1.3924 H              1 S1                 0.0000
     24 ****         0.5776   3.7146  -2.0518 H              1 S1                 0.0000
     25 ****        -2.8599  -1.2962  -0.5230 H              1 S1                 0.0000
     26 ****        -3.7360  -0.6266  -1.9155 H              1 S1                 0.0000
     27 ****        -3.7586   0.2225  -0.3564 H              1 S1                 0.0000
     28 ****         0.2138  -1.7161  -3.0330 H              1 S1                 0.0000
     29 ****        -1.4591  -1.6009  -3.5811 H              1 S1                 0.0000
     30 ****        -1.0907  -2.2019  -1.9627 H              1 S1                 0.0000
     31 ****         1.3999   0.1978  -3.7170 H              1 S1                 0.0000
     32 ****         1.3539   1.9249  -3.6584 H              1 S1                 0.0000
     33 ****         3.4335   0.9579  -2.6499 H              1 S1                 0.0000
     34 ****         2.5667   1.9876  -1.5451 H              1 S1                 0.0000
     35 ****         2.7149  -0.9875  -1.4803 H              1 S1                 0.0000
     36 ****         1.7306  -2.1234   0.2341 H              1 S1                 0.0000
     37 ****         2.9658  -1.5460   1.3139 H              1 S1                 0.0000
     38 ****        -0.5277  -1.6022   0.5340 H              1 S1                 0.0000
     39 ****        -0.6941  -2.5476   1.9950 H              1 S1                 0.0000
     40 ****        -1.1617   0.4529   1.6767 H              1 S1                 0.0000
     41 ****        -2.4024  -0.7363   1.9626 H              1 S1                 0.0000
     42 ****        -1.2030   0.7795   3.9288 H              1 S1                 0.0000
     43 ****        -2.0272  -0.7203   4.2313 H              1 S1                 0.0000
     44 ****         0.4186  -0.3865   5.1843 H              1 S1                 0.0000
     45 ****        -0.0732  -1.9430   4.5639 H              1 S1                 0.0000
     46 ****        -2.4485   2.1864  -0.5020 LP             1 S1                 0.0000
     47 ****         1.7715   1.9260   0.1644 LP             1 S1                 0.0000
     48 ****         1.4251   1.0808   1.6360 LP             1 S1                 0.0000
     49 ****         3.1732  -0.6696   2.9959 LP             1 S1                 0.0000
     50 ****         2.5744  -0.3977   4.5983 LP             1 S1                 0.0000
@<TRIPOS>BOND
    1    1    2 1     
    2    1   22 1     
    3    1   23 1     
    4    1   24 1     
    5    2    8 1     
    6    2    3 2     
    7    3    4 1     
    8    4    5 1     
    9    4    6 1     
   10    5   25 1     
   11    5   26 1     
   12    5   27 1     
   13    6    7 1     
   14    6    8 2     
   15    7   28 1     
   16    7   29 1     
   17    7   30 1     
   18    8    9 1     
   19    9   10 1     
   20    9   31 1     
   21    9   32 1     
   22   10   11 1     
   23   10   33 1     
   24   10   34 1     
   25   11   12 am    
   26   11   35 1     
   27   12   13 2     
   28   12   14 1     
   29   14   15 1     
   30   14   36 1     
   31   14   37 1     
   32   15   20 am    
   33   15   16 1     
   34   16   17 1     
   35   16   38 1     
   36   16   39 1     
   37   17   18 1     
   38   17   40 1     
   39   17   41 1     
   40   18   19 1     
   41   18   42 1     
   42   18   43 1     
   43   19   20 1     
   44   19   44 1     
   45   19   45 1     
   46   20   21 2     
   47    3   46 1     
   48   13   47 1     
   49   13   48 1     
   50   21   49 1     
   51   21   50 1     
@<TRIPOS>SUBSTRUCTURE
      1 S1             1
@<TRIPOS>SET
LONE_PAIRS      STATIC     ATOMS    <user>   **** ""
5 46 47 48 49 50
DONOR_HYDROGENS      STATIC     ATOMS    <user>   **** ""
1 35
ATOM$BLUE        STATIC     ATOMS    COLORGROUP SYSTEM
5 46 47 48 49 50
ATOM$RED        STATIC     ATOMS    COLORGROUP SYSTEM
1 35
