#       Name:                AV-unprocessed.smi:173
#       Creating user name   scv26
#       Creation time:       Thu Mar 26 19:19:22 2020


#       File generated by GOLD software.
#

@<TRIPOS>MOLECULE
AV-unprocessed.smi:173
    70    74     1
SMALL
NO_CHARGES


@<TRIPOS>ATOM
      1 ****        -3.8075  -0.7467  -0.9462 O.3            1 S1                 0.0000
      2 ****        -3.7709  -2.0541  -0.4003 C.3            1 S1                 0.0000
      3 ****        -3.1210  -1.9682   1.0038 C.3            1 S1                 0.0000
      4 ****        -1.7476  -1.4897   0.9882 N.pl3          1 S1                 0.0000
      5 ****        -0.6066  -2.2568   0.9057 C.2            1 S1                 0.0000
      6 ****         0.5148  -1.5888   0.8889 N.2            1 S1                 0.0000
      7 ****         0.1140  -0.2622   0.9786 C.ar           1 S1                 0.0000
      8 ****         0.8044   0.9768   0.9931 C.ar           1 S1                 0.0000
      9 ****         2.1512   1.0454   0.8947 N.3            1 S1                 0.0000
     10 ****         2.6507   1.8797  -0.2025 C.3            1 S1                 0.0000
     11 ****         2.2461   1.3451  -1.5899 C.3            1 S1                 0.0000
     12 ****         2.9764   2.0274  -2.7429 C.3            1 S1                 0.0000
     13 ****         2.0634   1.7753  -3.9317 C.3            1 S1                 0.0000
     14 ****         0.7103   1.4449  -3.2943 C.3            1 S1                 0.0000
     15 ****         0.8939   1.6464  -1.9000 O.3            1 S1                 0.0000
     16 ****         2.8064   1.0585   2.2057 C.3            1 S1                 0.0000
     17 ****         2.9310   2.4404   2.8577 C.3            1 S1                 0.0000
     18 ****         4.0238   2.2701   3.9220 C.3            1 S1                 0.0000
     19 ****         4.7985   0.9913   3.5580 C.3            1 S1                 0.0000
     20 ****         4.2381   0.5175   2.2137 C.3            1 S1                 0.0000
     21 ****         0.0709   2.1159   1.1001 N.ar           1 S1                 0.0000
     22 ****        -1.2614   2.0445   1.1763 C.ar           1 S1                 0.0000
     23 ****        -2.0422   0.9613   1.1612 N.ar           1 S1                 0.0000
     24 ****        -1.3035  -0.1810   1.0561 C.ar           1 S1                 0.0000
     25 ****        -5.2174  -2.5767  -0.2920 C.3            1 S1                 0.0000
     26 ****        -5.8431  -2.8438  -1.6727 C.3            1 S1                 0.0000
     27 ****        -5.0244  -3.7420  -2.4113 O.3            1 S1                 0.0000
     28 ****        -3.7341  -3.2089  -2.6833 C.3            1 S1                 0.0000
     29 ****        -2.9758  -2.9586  -1.3676 C.3            1 S1                 0.0000
     30 ****        -4.2385  -0.1744  -0.3298 H              1 S1                 0.0000
     31 ****        -3.7042  -1.3140   1.6536 H              1 S1                 0.0000
     32 ****        -3.1283  -2.9504   1.4787 H              1 S1                 0.0000
     33 ****        -0.6336  -3.3351   0.8441 H              1 S1                 0.0000
     34 ****         2.3149   2.9105  -0.0825 H              1 S1                 0.0000
     35 ****         3.7374   1.9132  -0.1541 H              1 S1                 0.0000
     36 ****         2.4024   0.2656  -1.6447 H              1 S1                 0.0000
     37 ****         3.0472   3.1002  -2.5579 H              1 S1                 0.0000
     38 ****         3.9858   1.6435  -2.8919 H              1 S1                 0.0000
     39 ****         2.0093   2.6486  -4.5825 H              1 S1                 0.0000
     40 ****         2.4175   0.9332  -4.5273 H              1 S1                 0.0000
     41 ****        -0.0952   2.0748  -3.6723 H              1 S1                 0.0000
     42 ****         0.4424   0.4031  -3.4761 H              1 S1                 0.0000
     43 ****         2.2292   0.4262   2.8840 H              1 S1                 0.0000
     44 ****         3.2587   3.1826   2.1292 H              1 S1                 0.0000
     45 ****         1.9882   2.7885   3.2807 H              1 S1                 0.0000
     46 ****         4.6785   3.1417   3.9485 H              1 S1                 0.0000
     47 ****         3.5802   2.1671   4.9129 H              1 S1                 0.0000
     48 ****         5.8745   1.1609   3.5099 H              1 S1                 0.0000
     49 ****         4.6229   0.2298   4.3188 H              1 S1                 0.0000
     50 ****         4.2747  -0.5669   2.1045 H              1 S1                 0.0000
     51 ****         4.8340   0.9507   1.4114 H              1 S1                 0.0000
     52 ****        -1.7757   2.9907   1.2562 H              1 S1                 0.0000
     53 ****        -5.2223  -3.5095   0.2734 H              1 S1                 0.0000
     54 ****        -5.8369  -1.8765   0.2700 H              1 S1                 0.0000
     55 ****        -6.8311  -3.2888  -1.5535 H              1 S1                 0.0000
     56 ****        -5.9809  -1.9159  -2.2296 H              1 S1                 0.0000
     57 ****        -3.1843  -3.9208  -3.2989 H              1 S1                 0.0000
     58 ****        -3.8220  -2.2911  -3.2670 H              1 S1                 0.0000
     59 ****        -1.9982  -2.5285  -1.5888 H              1 S1                 0.0000
     60 ****        -2.7873  -3.9195  -0.8874 H              1 S1                 0.0000
     61 ****        -4.3139  -0.7558  -1.8084 LP             1 S1                 0.0000
     62 ****        -2.8753  -0.4241  -1.1105 LP             1 S1                 0.0000
     63 ****         1.4458  -1.9486   0.8261 LP             1 S1                 0.0000
     64 ****         2.4940   0.1777   0.5346 LP             1 S1                 0.0000
     65 ****         0.6954   2.5979  -1.6652 LP             1 S1                 0.0000
     66 ****         0.2848   1.0422  -1.3863 LP             1 S1                 0.0000
     67 ****         0.5272   3.0055   1.1218 LP             1 S1                 0.0000
     68 ****        -3.0402   0.9844   1.2194 LP             1 S1                 0.0000
     69 ****        -5.4759  -3.9465  -3.2798 LP             1 S1                 0.0000
     70 ****        -4.9179  -4.5853  -1.8844 LP             1 S1                 0.0000
@<TRIPOS>BOND
    1    1    2 1     
    2    1   30 1     
    3    2   29 1     
    4    2    3 1     
    5    2   25 1     
    6    3    4 1     
    7    3   31 1     
    8    3   32 1     
    9    4   24 1     
   10    4    5 1     
   11    5    6 2     
   12    5   33 1     
   13    6    7 1     
   14    7   24 ar    
   15    7    8 ar    
   16    8    9 1     
   17    8   21 ar    
   18    9   10 1     
   19    9   16 1     
   20   10   11 1     
   21   10   34 1     
   22   10   35 1     
   23   11   15 1     
   24   11   12 1     
   25   11   36 1     
   26   12   13 1     
   27   12   37 1     
   28   12   38 1     
   29   13   14 1     
   30   13   39 1     
   31   13   40 1     
   32   14   15 1     
   33   14   41 1     
   34   14   42 1     
   35   16   20 1     
   36   16   17 1     
   37   16   43 1     
   38   17   18 1     
   39   17   44 1     
   40   17   45 1     
   41   18   19 1     
   42   18   46 1     
   43   18   47 1     
   44   19   20 1     
   45   19   48 1     
   46   19   49 1     
   47   20   50 1     
   48   20   51 1     
   49   21   22 ar    
   50   22   23 ar    
   51   22   52 1     
   52   23   24 ar    
   53   25   26 1     
   54   25   53 1     
   55   25   54 1     
   56   26   27 1     
   57   26   55 1     
   58   26   56 1     
   59   27   28 1     
   60   28   29 1     
   61   28   57 1     
   62   28   58 1     
   63   29   59 1     
   64   29   60 1     
   65    1   61 1     
   66    1   62 1     
   67    6   63 1     
   68    9   64 1     
   69   15   65 1     
   70   15   66 1     
   71   21   67 1     
   72   23   68 1     
   73   27   69 1     
   74   27   70 1     
@<TRIPOS>SUBSTRUCTURE
      1 S1             1
@<TRIPOS>SET
LONE_PAIRS      STATIC     ATOMS    <user>   **** ""
10 61 62 63 64 65 66 67 68 69 70
DONOR_HYDROGENS      STATIC     ATOMS    <user>   **** ""
1 30
ATOM$BLUE        STATIC     ATOMS    COLORGROUP SYSTEM
10 61 62 63 64 65 66 67 68 69 70
ATOM$RED        STATIC     ATOMS    COLORGROUP SYSTEM
1 30
