AV-unprocessed.smi:3272|AV-procd|sdf|12519|dock5
  -GOLD-   2272018433D 1   1.00000     0.00000
 Structure written by MMmdl.
 35 36  0  0  0  0  0  0  0  0  1 V2000
  143.7410  132.8250  148.3207 C   0  0  0  0  0  0  0  0  0  0  0  0
  143.7123  132.3628  149.7822 C   0  0  0  0  0  0  0  0  0  0  0  0
  144.1598  133.4060  150.6841 N   0  0  0  0  0  0  0  0  0  0  0  0
  145.2876  134.1957  150.5820 C   0  0  0  0  0  0  0  0  0  0  0  0
  145.2594  135.0221  151.6696 C   0  0  0  0  0  0  0  0  0  0  0  0
  146.1764  136.0323  152.0557 N   0  0  0  0  0  0  0  0  0  0  0  0
  145.8893  137.2428  152.5619 C   0  0  0  0  0  0  0  0  0  0  0  0
  144.7541  137.6660  152.7811 O   0  0  0  0  0  0  0  0  0  0  0  0
  147.0039  137.9500  152.7967 N   0  0  0  0  0  0  0  0  0  0  0  0
  147.0462  139.3112  153.3225 C   0  0  0  0  0  0  0  0  0  0  0  0
  148.1964  139.5004  154.3295 C   0  0  1  0  0  0  0  0  0  0  0  0
  149.3044  138.4673  154.2499 C   0  0  0  0  0  0  0  0  0  0  0  0
  150.4494  139.1736  154.9695 C   0  0  0  0  0  0  0  0  0  0  0  0
  150.2569  140.5663  154.7380 O   0  0  0  0  0  0  0  0  0  0  0  0
  148.9910  140.7895  154.1239 C   0  0  0  0  0  0  0  0  0  0  0  0
  144.0841  134.6782  152.3868 C   0  0  0  0  0  0  0  0  0  0  0  0
  143.4248  133.6999  151.7852 N   0  0  0  0  0  0  0  0  0  0  0  0
  143.4134  132.0263  147.6553 H   0  0  0  0  0  0  0  0  0  0  0  0
  144.7477  133.1172  148.0203 H   0  0  0  0  0  0  0  0  0  0  0  0
  143.0822  133.6797  148.1631 H   0  0  0  0  0  0  0  0  0  0  0  0
  142.7034  132.0604  150.0661 H   0  0  0  0  0  0  0  0  0  0  0  0
  144.3534  131.4903  149.9134 H   0  0  0  0  0  0  0  0  0  0  0  0
  145.9848  134.0971  149.7632 H   0  0  0  0  0  0  0  0  0  0  0  0
  147.1529  135.8141  151.9215 H   0  0  0  0  0  0  0  0  0  0  0  0
  147.8920  137.5182  152.5866 H   0  0  0  0  0  0  0  0  0  0  0  0
  147.1183  140.0398  152.5130 H   0  0  0  0  0  0  0  0  0  0  0  0
  146.0949  139.5036  153.8189 H   0  0  0  0  0  0  0  0  0  0  0  0
  147.7931  139.5014  155.3437 H   0  0  0  0  0  0  0  0  0  0  0  0
  149.0404  137.5149  154.7103 H   0  0  0  0  0  0  0  0  0  0  0  0
  149.5761  138.2802  153.2099 H   0  0  0  0  0  0  0  0  0  0  0  0
  150.3935  138.9912  156.0434 H   0  0  0  0  0  0  0  0  0  0  0  0
  151.4272  138.8415  154.6203 H   0  0  0  0  0  0  0  0  0  0  0  0
  149.1542  140.9777  153.0617 H   0  0  0  0  0  0  0  0  0  0  0  0
  148.4916  141.6607  154.5481 H   0  0  0  0  0  0  0  0  0  0  0  0
  143.6955  135.0955  153.3040 H   0  0  0  0  0  0  0  0  0  0  0  0
  1  2  1  0  0  0  0
  1 18  1  0  0  0  0
  1 19  1  0  0  0  0
  1 20  1  0  0  0  0
  2  3  1  0  0  0  0
  2 21  1  0  0  0  0
  2 22  1  0  0  0  0
  3 17  1  0  0  0  0
  3  4  1  0  0  0  0
  4  5  2  0  0  0  0
  4 23  1  0  0  0  0
  5  6  1  0  0  0  0
  5 16  1  0  0  0  0
  6  7  1  0  0  0  0
  6 24  1  0  0  0  0
  7  8  2  0  0  0  0
  7  9  1  0  0  0  0
  9 10  1  0  0  0  0
  9 25  1  0  0  0  0
 10 11  1  0  0  0  0
 10 26  1  0  0  0  0
 10 27  1  0  0  0  0
 11 15  1  0  0  0  0
 11 12  1  0  0  0  0
 11 28  1  0  0  0  0
 12 13  1  0  0  0  0
 12 29  1  0  0  0  0
 12 30  1  0  0  0  0
 13 14  1  0  0  0  0
 13 31  1  0  0  0  0
 13 32  1  0  0  0  0
 14 15  1  0  0  0  0
 15 33  1  0  0  0  0
 15 34  1  0  0  0  0
 16 17  2  0  0  0  0
 16 35  1  0  0  0  0
M  END
> <s_m_source_file>
AV-unprocessed.smi

> <i_m_source_file_index>
3272

> <i_lp_mmshare_version>
43012

> <i_f3d_flags>
0

> <s_epik_input>
W0NIM11bQ0gyXW4xW2NIXWMoW2NIXW4xKVtOSF1DKD1PKVtOSF1bQ0gyXVtDQEBIXTJbQ0gyXVtDSDJdT1tDSDJdMg==

> <s_epik_cmdline>
J2VwaWtfcHl0aG9uJywgJy1waCcsICc3LjAnLCAnLXRuJywgJzgnLCAnLW1hJywgJzIwMCcsICctbWV0YWxfYmluZGluZycsICctaW1hZScsICc8aW5maWxlLm1hZT4nLCAnLW9tYWUnLCAnPG91dGZpbGUubWFlPic=

> <r_lp_tautomer_probability>
1

> <r_epik_Ionization_Penalty>
0.000182896

> <r_epik_Ionization_Penalty_Charging>
0

> <r_epik_Ionization_Penalty_Neutral>
0.000182896

> <r_epik_State_Penalty>
-0

> <r_epik_Charging_Adjusted_Penalty>
0

> <i_epik_Tot_Q>
0

> <i_epik_Tot_abs_Q>
0

> <r_epik_Metal_State_Penalty>
-0

> <b_epik_Metal_Only>
0

> <s_lp_Force_Field>
OPLS_2005

> <r_lp_Energy>
22.1585

> <b_lp_Chiralities_Consistent>
1

> <s_lp_Variant>
AV-unprocessed.smi:3272-2

> <Gold.Version>
5.8.1

> <Gold.Id.Protein>
6NUR|6NUR_protein|mol2

> <Gold.PLP.Fitness>
40.8026

> <Gold.PLP.PLP>
-31.5915

> <Gold.PLP.part.hbond>
-3.0000

> <Gold.PLP.part.metal>
0.0000

> <Gold.PLP.part.buried>
-3.4815

> <Gold.PLP.part.nonpolar>
-26.6035

> <Gold.PLP.part.repulsive>
0.7739

> <Gold.PLP.ligand.clash>
0.0000

> <Gold.PLP.ligand.torsion>
1.1925

> <Gold.PLP.Chemscore.Hbond>
2.9280

> <Gold.PLP.Chemscore.CHOScore>
0.9351

> <Gold.PLP.Chemscore.Metal>
0.0000

> <Gold.Chemscore.Hbonds>
donor molecule, donor type, donor heavy atom, donor atom, acceptor molecule, acceptor atom, score
      L1  H     6    24       P1  7948  1.00
      L1  H     9    25       P1  7948  1.00
      P1  H  7989  7998       L1    14  0.93
      L1  C     4    23       P1  7921  1.00

> <Gold.PLP.Chemscore.Internal.Correction>
0.0068

> <Gold.Rescore>
     Score         DG    S(hbond)    S(metal)    S(lipo)     H(rot)  DE(clash)    DE(int)     intcor
     16.05     -17.09       1.97        0.00      73.73       1.41       0.07       0.97       ----

> <Gold.Chemscore.Fitness>
16.0475

> <Gold.Chemscore.DG>
-17.0921

> <Gold.Chemscore.ZeroCoef>
-5.4800

> <Gold.Chemscore.Hbond>
1.9718

> <Gold.Chemscore.Metal>
0.0000

> <Gold.Chemscore.Lipo>
73.7328

> <Gold.Chemscore.Internal_Hbond>
0.0000

> <Gold.Chemscore.DEClash>
0.0707

> <Gold.Chemscore.DEInternal>
0.9739

> <Gold.Chemscore.Rot>
1.4064

> <Gold.Chemscore.Internal.Correction>
   9.000000E+99

> <Gold.Chemscore.Hbonds>
donor molecule, donor type, donor heavy atom, donor atom, acceptor molecule, acceptor atom, score
      L1  H     6    24       P1  7948  0.98
      L1  H     9    25       P1  7948  0.98
      P1  H  7989  7998       L1    14  0.16

> <Gold.Chemscore.Hbond.Weighted>
-6.5858

> <Gold.Chemscore.Metal.Weighted>
-0.0000

> <Gold.Chemscore.Lipo.Weighted>
-8.6267

> <Gold.Chemscore.Internal_Hbond.Weighted>
0.0000

> <Gold.Chemscore.DEClash.Weighted>
0.0707

> <Gold.Chemscore.DEInternal.Weighted>
0.9739

> <Gold.Chemscore.Rot.Weighted>
3.6004

> <Gold.Chemscore.Internal.Correction.Weighted>
   9.000000E+99

> <Gold.Protein.RotatedTorsions>
[ 6907 6896 6895 6894 ] final  -85.59 input  -60.11 | X-H torsion
[ 7974 7965 7964 7962 ] final  -36.92 input  175.53 | X-H torsion
[ 8008 7997 7996 7995 ] final   19.88 input   59.86 | X-H torsion
[ 10167 10162 10161 10158 ] final   76.07 input  -65.29 | X-H torsion
[ 10718 10713 10712 10709 ] final  -27.11 input   66.30 | X-H torsion
[ 10763 10752 10751 10750 ] final   61.98 input  -60.55 | X-H torsion
[ 11005 11000 10999 10996 ] final   24.91 input  -57.11 | X-H torsion

> <Gold.Protein.ActiveResidues>
 VAL166  LYS551  ARG553  GLY616  TRP617  ASP618  TYR619  PRO620  LYS621  CYS622 
 ASP623  PHE694  ASN695  SER759  ASP760  ASP761  ALA762  ILE779  LEU786  VAL792 
 PHE793  MET794  SER795  GLU796  ALA797  LYS798  CYS799  TRP800  GLU811  SER814 

> <Gold.Protein.RotatedAtoms>
  150.6870  134.3182  159.4774 H   0  0  0  0  0  0  0  0  0  0  0  0  # atno 6907 bound_to 6896
  152.1060  134.9305  160.0577 H   0  0  0  0  0  0  0  0  0  0  0  0  # atno 6908 bound_to 6896
  152.0566  133.4008  159.4437 H   0  0  0  0  0  0  0  0  0  0  0  0  # atno 6909 bound_to 6896
  146.0620  140.6335  142.8992 H   0  0  0  0  0  0  0  0  0  0  0  0  # atno 7974 bound_to 7965
  154.9274  140.3035  155.5185 H   0  0  0  0  0  0  0  0  0  0  0  0  # atno 8008 bound_to 7997
  156.3006  140.2360  156.4267 H   0  0  0  0  0  0  0  0  0  0  0  0  # atno 8009 bound_to 7997
  154.8271  140.0420  157.1440 H   0  0  0  0  0  0  0  0  0  0  0  0  # atno 8010 bound_to 7997
  139.9962  144.5720  150.7776 H   0  0  0  0  0  0  0  0  0  0  0  0  # atno 10167 bound_to 10162
  156.4424  130.4467  149.7044 H   0  0  0  0  0  0  0  0  0  0  0  0  # atno 10718 bound_to 10713
  152.9968  135.5481  154.6120 H   0  0  0  0  0  0  0  0  0  0  0  0  # atno 10763 bound_to 10752
  154.5438  135.2821  155.1073 H   0  0  0  0  0  0  0  0  0  0  0  0  # atno 10764 bound_to 10752
  154.2340  135.6428  153.5237 H   0  0  0  0  0  0  0  0  0  0  0  0  # atno 10765 bound_to 10752
  140.3536  134.2202  155.7678 H   0  0  0  0  0  0  0  0  0  0  0  0  # atno 11005 bound_to 11000
  144.7180  140.4278  143.7029 LP  0  0  0  0  0  0  0  0  0  0  0  0  # atno 17320 bound_to 7965
  145.6543  139.1570  143.2844 LP  0  0  0  0  0  0  0  0  0  0  0  0  # atno 17321 bound_to 7965
  140.7436  143.2849  151.3493 LP  0  0  0  0  0  0  0  0  0  0  0  0  # atno 17342 bound_to 10162
  139.6304  144.0731  152.2471 LP  0  0  0  0  0  0  0  0  0  0  0  0  # atno 17343 bound_to 10162
  156.3903  130.7623  151.2624 LP  0  0  0  0  0  0  0  0  0  0  0  0  # atno 17370 bound_to 10713
  157.7506  131.0270  150.3985 LP  0  0  0  0  0  0  0  0  0  0  0  0  # atno 17371 bound_to 10713
  141.2005  133.7986  157.0486 LP  0  0  0  0  0  0  0  0  0  0  0  0  # atno 17394 bound_to 11000
  140.0683  134.9716  157.1424 LP  0  0  0  0  0  0  0  0  0  0  0  0  # atno 17395 bound_to 11000

$$$$
