AV-unprocessed.smi:3228|AV-procd|sdf|12319|dock3
  -GOLD-   2272018163D 1   1.00000     0.00000
 Structure written by MMmdl.
 31 32  0  0  0  0  0  0  0  0  1 V2000
  144.5086  136.6086  152.5765 O   0  0  0  0  0  0  0  0  0  0  0  0
  145.7198  136.4555  152.4150 C   0  0  0  0  0  0  0  0  0  0  0  0
  146.6434  137.2878  152.9166 N   0  0  0  0  0  0  0  0  0  0  0  0
  146.3560  138.4761  153.7134 C   0  0  0  0  0  0  0  0  0  0  0  0
  147.4239  139.5730  153.5288 C   0  0  2  0  0  0  0  0  0  0  0  0
  148.8234  139.1779  154.0263 C   0  0  0  0  0  0  0  0  0  0  0  0
  149.5172  140.4821  154.4519 C   0  0  0  0  0  0  0  0  0  0  0  0
  148.4664  141.5922  154.3295 C   0  0  0  0  0  0  0  0  0  0  0  0
  147.1220  140.8640  154.2961 C   0  0  1  0  0  0  0  0  0  0  0  0
  146.1267  141.6428  153.6652 O   0  0  0  0  0  0  0  0  0  0  0  0
  146.2921  135.4538  151.7243 N   0  0  0  0  0  0  0  0  0  0  0  0
  145.6579  134.3791  151.0474 C   0  0  0  0  0  0  0  0  0  0  0  0
  144.3479  134.3235  150.7789 N   0  0  0  0  0  0  0  0  0  0  0  0
  144.0003  133.1503  150.1041 C   0  0  0  0  0  0  0  0  0  0  0  0
  145.0657  132.3182  149.8655 C   0  0  0  0  0  0  0  0  0  0  0  0
  146.5570  132.9791  150.4816 S   0  0  0  0  0  0  0  0  0  0  0  0
  147.6159  137.0868  152.7351 H   0  0  0  0  0  0  0  0  0  0  0  0
  145.3681  138.8624  153.4574 H   0  0  0  0  0  0  0  0  0  0  0  0
  146.3054  138.1755  154.7602 H   0  0  0  0  0  0  0  0  0  0  0  0
  147.5056  139.8206  152.4687 H   0  0  0  0  0  0  0  0  0  0  0  0
  148.7451  138.5152  154.8892 H   0  0  0  0  0  0  0  0  0  0  0  0
  149.3871  138.6453  153.2597 H   0  0  0  0  0  0  0  0  0  0  0  0
  149.8672  140.3985  155.4814 H   0  0  0  0  0  0  0  0  0  0  0  0
  150.3862  140.6976  153.8292 H   0  0  0  0  0  0  0  0  0  0  0  0
  148.5281  142.3194  155.1397 H   0  0  0  0  0  0  0  0  0  0  0  0
  148.6236  142.1293  153.3926 H   0  0  0  0  0  0  0  0  0  0  0  0
  146.8073  140.6313  155.3144 H   0  0  0  0  0  0  0  0  0  0  0  0
  145.4980  141.0611  153.2657 H   0  0  0  0  0  0  0  0  0  0  0  0
  147.3004  135.4600  151.6775 H   0  0  0  0  0  0  0  0  0  0  0  0
  142.9682  132.9879  149.8304 H   0  0  0  0  0  0  0  0  0  0  0  0
  145.0634  131.3607  149.3664 H   0  0  0  0  0  0  0  0  0  0  0  0
  1  2  2  0  0  0  0
  2  3  1  0  0  0  0
  2 11  1  0  0  0  0
  3  4  1  0  0  0  0
  3 17  1  0  0  0  0
  4  5  1  0  0  0  0
  4 18  1  0  0  0  0
  4 19  1  0  0  0  0
  5  9  1  0  0  0  0
  5  6  1  0  0  0  0
  5 20  1  0  0  0  0
  6  7  1  0  0  0  0
  6 21  1  0  0  0  0
  6 22  1  0  0  0  0
  7  8  1  0  0  0  0
  7 23  1  0  0  0  0
  7 24  1  0  0  0  0
  8  9  1  0  0  0  0
  8 25  1  0  0  0  0
  8 26  1  0  0  0  0
  9 10  1  0  0  0  0
  9 27  1  0  0  0  0
 10 28  1  0  0  0  0
 11 12  1  0  0  0  0
 11 29  1  0  0  0  0
 12 16  1  0  0  0  0
 12 13  2  0  0  0  0
 13 14  1  0  0  0  0
 14 15  2  0  0  0  0
 14 30  1  0  0  0  0
 15 16  1  0  0  0  0
 15 31  1  0  0  0  0
M  END
> <s_m_source_file>
AV-unprocessed.smi

> <i_m_source_file_index>
3228

> <i_lp_mmshare_version>
43012

> <i_f3d_flags>
0

> <s_epik_input>
czFbY0hdW2NIXW5jMVtOSF1DKD1PKVtOSF1bQ0gyXVtDQEBIXTJbQ0gyXVtDSDJdW0NIMl1bQ0BIXTJbT0hd

> <s_epik_cmdline>
J2VwaWtfcHl0aG9uJywgJy1waCcsICc3LjAnLCAnLXRuJywgJzgnLCAnLW1hJywgJzIwMCcsICctbWV0YWxfYmluZGluZycsICctaW1hZScsICc8aW5maWxlLm1hZT4nLCAnLW9tYWUnLCAnPG91dGZpbGUubWFlPic=

> <r_lp_tautomer_probability>
0.999

> <r_epik_Ionization_Penalty>
0.000399498

> <r_epik_Ionization_Penalty_Charging>
0

> <r_epik_Ionization_Penalty_Neutral>
0.000399498

> <r_epik_State_Penalty>
0.000177984

> <r_epik_Charging_Adjusted_Penalty>
0.000177984

> <i_epik_Tot_Q>
0

> <i_epik_Tot_abs_Q>
0

> <r_epik_Metal_State_Penalty>
0.0060793

> <b_epik_Metal_Only>
0

> <s_lp_Force_Field>
OPLS_2005

> <r_lp_Energy>
20.7116

> <b_lp_Chiralities_Consistent>
1

> <s_lp_Variant>
AV-unprocessed.smi:3228-1

> <Gold.Version>
5.8.1

> <Gold.Id.Protein>
6NUR|6NUR_protein|mol2

> <Gold.PLP.Fitness>
39.7399

> <Gold.PLP.PLP>
-28.2042

> <Gold.PLP.part.hbond>
-3.0000

> <Gold.PLP.part.metal>
0.0000

> <Gold.PLP.part.buried>
-2.2341

> <Gold.PLP.part.nonpolar>
-23.3365

> <Gold.PLP.part.repulsive>
0.4350

> <Gold.PLP.ligand.clash>
0.0000

> <Gold.PLP.ligand.torsion>
0.2329

> <Gold.PLP.Chemscore.Hbond>
3.0000

> <Gold.PLP.Chemscore.CHOScore>
1.0000

> <Gold.PLP.Chemscore.Metal>
0.0000

> <Gold.Chemscore.Hbonds>
donor molecule, donor type, donor heavy atom, donor atom, acceptor molecule, acceptor atom, score
      L1  H     3    17       P1  7948  1.00
      L1  H    10    28       P1 10175  0.94
      L1  H    11    29       P1  7948  1.00
      L1  C    14    30       P1 10186  1.00

> <Gold.PLP.Chemscore.Internal.Correction>
0.0015

> <Gold.Rescore>
     Score         DG    S(hbond)    S(metal)    S(lipo)     H(rot)  DE(clash)    DE(int)     intcor
     15.34     -16.81       2.63        0.00      62.83       1.88       0.00       1.47       ----

> <Gold.Chemscore.Fitness>
15.3370

> <Gold.Chemscore.DG>
-16.8118

> <Gold.Chemscore.ZeroCoef>
-5.4800

> <Gold.Chemscore.Hbond>
2.6316

> <Gold.Chemscore.Metal>
0.0000

> <Gold.Chemscore.Lipo>
62.8315

> <Gold.Chemscore.Internal_Hbond>
0.0000

> <Gold.Chemscore.DEClash>
0.0029

> <Gold.Chemscore.DEInternal>
1.4718

> <Gold.Chemscore.Rot>
1.8786

> <Gold.Chemscore.Internal.Correction>
   9.000000E+99

> <Gold.Chemscore.Hbonds>
donor molecule, donor type, donor heavy atom, donor atom, acceptor molecule, acceptor atom, score
      L1  H     3    17       P1  7948  0.97
      L1  H    10    28       P1 10175  0.35
      L1  H    11    29       P1  7948  0.97

> <Gold.Chemscore.Hbond.Weighted>
-8.7896

> <Gold.Chemscore.Metal.Weighted>
-0.0000

> <Gold.Chemscore.Lipo.Weighted>
-7.3513

> <Gold.Chemscore.Internal_Hbond.Weighted>
0.0000

> <Gold.Chemscore.DEClash.Weighted>
0.0029

> <Gold.Chemscore.DEInternal.Weighted>
1.4718

> <Gold.Chemscore.Rot.Weighted>
4.8091

> <Gold.Chemscore.Internal.Correction.Weighted>
   9.000000E+99

> <Gold.Protein.RotatedTorsions>
[ 6907 6896 6895 6894 ] final  -68.00 input  -60.11 | X-H torsion
[ 7974 7965 7964 7962 ] final -109.11 input  175.53 | X-H torsion
[ 8008 7997 7996 7995 ] final   79.34 input   59.86 | X-H torsion
[ 10167 10162 10161 10158 ] final  177.00 input  -65.29 | X-H torsion
[ 10718 10713 10712 10709 ] final   12.32 input   66.30 | X-H torsion
[ 10763 10752 10751 10750 ] final  -60.17 input  -60.55 | X-H torsion
[ 11005 11000 10999 10996 ] final   42.85 input  -57.11 | X-H torsion

> <Gold.Protein.ActiveResidues>
 VAL166  LYS551  ARG553  GLY616  TRP617  ASP618  TYR619  PRO620  LYS621  CYS622 
 ASP623  PHE694  ASN695  SER759  ASP760  ASP761  ALA762  ILE779  LEU786  VAL792 
 PHE793  MET794  SER795  GLU796  ALA797  LYS798  CYS799  TRP800  GLU811  SER814 

> <Gold.Protein.RotatedAtoms>
  150.7379  134.5801  159.5933 H   0  0  0  0  0  0  0  0  0  0  0  0  # atno 6907 bound_to 6896
  152.3217  134.7369  160.0321 H   0  0  0  0  0  0  0  0  0  0  0  0  # atno 6908 bound_to 6896
  151.7882  133.3321  159.3528 H   0  0  0  0  0  0  0  0  0  0  0  0  # atno 6909 bound_to 6896
  145.1845  140.8986  143.3460 H   0  0  0  0  0  0  0  0  0  0  0  0  # atno 7974 bound_to 7965
  155.8684  140.3450  155.5804 H   0  0  0  0  0  0  0  0  0  0  0  0  # atno 8008 bound_to 7997
  155.7855  140.0864  157.2056 H   0  0  0  0  0  0  0  0  0  0  0  0  # atno 8009 bound_to 7997
  154.4016  140.1493  156.3089 H   0  0  0  0  0  0  0  0  0  0  0  0  # atno 8010 bound_to 7997
  139.5236  144.2849  152.0514 H   0  0  0  0  0  0  0  0  0  0  0  0  # atno 10167 bound_to 10162
  157.0085  130.6107  149.5705 H   0  0  0  0  0  0  0  0  0  0  0  0  # atno 10718 bound_to 10713
  154.2651  135.6301  153.5289 H   0  0  0  0  0  0  0  0  0  0  0  0  # atno 10763 bound_to 10752
  152.9889  135.5597  154.5661 H   0  0  0  0  0  0  0  0  0  0  0  0  # atno 10764 bound_to 10752
  154.5219  135.2883  155.1230 H   0  0  0  0  0  0  0  0  0  0  0  0  # atno 10765 bound_to 10752
  140.1700  134.4233  155.8263 H   0  0  0  0  0  0  0  0  0  0  0  0  # atno 11005 bound_to 11000
  145.0103  139.3516  143.6123 LP  0  0  0  0  0  0  0  0  0  0  0  0  # atno 17320 bound_to 7965
  146.3447  139.9362  142.8747 LP  0  0  0  0  0  0  0  0  0  0  0  0  # atno 17321 bound_to 7965
  140.2303  144.4375  150.6303 LP  0  0  0  0  0  0  0  0  0  0  0  0  # atno 17342 bound_to 10162
  140.6360  143.2195  151.6394 LP  0  0  0  0  0  0  0  0  0  0  0  0  # atno 17343 bound_to 10162
  156.0145  130.5238  150.8091 LP  0  0  0  0  0  0  0  0  0  0  0  0  # atno 17370 bound_to 10713
  157.5338  131.0938  150.9920 LP  0  0  0  0  0  0  0  0  0  0  0  0  # atno 17371 bound_to 10713
  141.2216  133.6952  156.7747 LP  0  0  0  0  0  0  0  0  0  0  0  0  # atno 17394 bound_to 11000
  140.2388  134.8629  157.3552 LP  0  0  0  0  0  0  0  0  0  0  0  0  # atno 17395 bound_to 11000

$$$$
