AV-unprocessed.smi:218|AV-procd|sdf|1668|dock8
  -GOLD-   2262020 73D 1   1.00000     0.00000
 Structure written by MMmdl.
 54 57  0  0  0  0  0  0  0  0  1 V2000
  152.7263  142.3552  159.8069 C   0  0  0  0  0  0  0  0  0  0  0  0
  151.9662  143.2571  158.8269 C   0  0  0  0  0  0  0  0  0  0  0  0
  151.6184  144.6103  159.4705 C   0  0  0  0  0  0  0  0  0  0  0  0
  150.7712  142.5631  158.4633 O   0  0  0  0  0  0  0  0  0  0  0  0
  150.8193  141.5325  157.5443 C   0  0  0  0  0  0  0  0  0  0  0  0
  149.9453  141.5823  156.4393 C   0  0  0  0  0  0  0  0  0  0  0  0
  149.9762  140.5336  155.4982 C   0  0  0  0  0  0  0  0  0  0  0  0
  149.0606  140.5565  154.2932 C   0  0  0  0  0  0  0  0  0  0  0  0
  147.6837  140.2201  154.6276 N   0  0  0  0  0  0  0  0  0  0  0  0
  147.3607  138.9535  154.9654 C   0  0  0  0  0  0  0  0  0  0  0  0
  147.8083  138.4038  156.1238 N   0  0  0  0  0  0  0  0  0  0  0  0
  147.4629  137.1543  156.4450 C   0  0  0  0  0  0  0  0  0  0  0  0
  146.7007  136.2988  155.7611 N   0  0  0  0  0  0  0  0  0  0  0  0
  146.2560  136.8381  154.5875 C   0  0  0  0  0  0  0  0  0  0  0  0
  146.5371  138.1561  154.1288 C   0  0  0  0  0  0  0  0  0  0  0  0
  145.9038  138.3775  152.9150 N   0  0  0  0  0  0  0  0  0  0  0  0
  145.2786  137.2567  152.6779 C   0  0  0  0  0  0  0  0  0  0  0  0
  145.4625  136.2572  153.6122 N   0  0  0  0  0  0  0  0  0  0  0  0
  144.8384  134.8837  153.6243 C   0  0  2  0  0  0  0  0  0  0  0  0
  145.7478  133.9525  153.1312 O   0  0  0  0  0  0  0  0  0  0  0  0
  145.6528  133.9166  151.7156 C   0  0  1  0  0  0  0  0  0  0  0  0
  146.2975  132.6229  151.1962 C   0  0  0  0  0  0  0  0  0  0  0  0
  147.6712  132.5900  151.5187 O   0  0  0  0  0  0  0  0  0  0  0  0
  144.1427  134.0355  151.4684 C   0  0  2  0  0  0  0  0  0  0  0  0
  143.9028  134.7589  150.2772 O   0  0  0  0  0  0  0  0  0  0  0  0
  143.6216  134.8165  152.6790 C   0  0  1  0  0  0  0  0  0  0  0  0
  142.5409  134.1391  153.2865 O   0  0  0  0  0  0  0  0  0  0  0  0
  150.8834  139.4739  155.6958 C   0  0  0  0  0  0  0  0  0  0  0  0
  151.7170  139.5109  156.8304 C   0  0  0  0  0  0  0  0  0  0  0  0
  151.6909  140.5110  157.7369 N   0  0  0  0  0  0  0  0  0  0  0  0
  144.6078  134.7113  154.6763 H   0  0  0  0  0  0  0  0  0  0  0  0
  146.1808  134.7870  151.3201 H   0  0  0  0  0  0  0  0  0  0  0  0
  143.6809  133.0487  151.4067 H   0  0  0  0  0  0  0  0  0  0  0  0
  143.2823  135.8144  152.4028 H   0  0  0  0  0  0  0  0  0  0  0  0
  153.6595  142.8202  160.1261 H   0  0  0  0  0  0  0  0  0  0  0  0
  152.9744  141.3996  159.3442 H   0  0  0  0  0  0  0  0  0  0  0  0
  152.1328  142.1497  160.6981 H   0  0  0  0  0  0  0  0  0  0  0  0
  152.6140  143.4098  157.9625 H   0  0  0  0  0  0  0  0  0  0  0  0
  152.5199  145.1353  159.7867 H   0  0  0  0  0  0  0  0  0  0  0  0
  150.9860  144.4761  160.3484 H   0  0  0  0  0  0  0  0  0  0  0  0
  151.0870  145.2625  158.7781 H   0  0  0  0  0  0  0  0  0  0  0  0
  149.2641  142.4120  156.3179 H   0  0  0  0  0  0  0  0  0  0  0  0
  149.0908  141.5459  153.8348 H   0  0  0  0  0  0  0  0  0  0  0  0
  149.4422  139.8490  153.5556 H   0  0  0  0  0  0  0  0  0  0  0  0
  147.0125  140.9724  154.5708 H   0  0  0  0  0  0  0  0  0  0  0  0
  147.8520  136.7869  157.3831 H   0  0  0  0  0  0  0  0  0  0  0  0
  144.6563  137.1336  151.8034 H   0  0  0  0  0  0  0  0  0  0  0  0
  145.8189  131.7583  151.6566 H   0  0  0  0  0  0  0  0  0  0  0  0
  146.1702  132.5255  150.1178 H   0  0  0  0  0  0  0  0  0  0  0  0
  148.1199  132.0692  150.8703 H   0  0  0  0  0  0  0  0  0  0  0  0
  143.1080  134.4337  149.8830 H   0  0  0  0  0  0  0  0  0  0  0  0
  142.8445  133.2918  153.5751 H   0  0  0  0  0  0  0  0  0  0  0  0
  150.9425  138.6524  154.9969 H   0  0  0  0  0  0  0  0  0  0  0  0
  152.4242  138.7160  157.0148 H   0  0  0  0  0  0  0  0  0  0  0  0
  1  2  1  0  0  0  0
  1 35  1  0  0  0  0
  1 36  1  0  0  0  0
  1 37  1  0  0  0  0
  2  3  1  0  0  0  0
  2  4  1  0  0  0  0
  2 38  1  0  0  0  0
  3 39  1  0  0  0  0
  3 40  1  0  0  0  0
  3 41  1  0  0  0  0
  4  5  1  0  0  0  0
  5 30  1  0  0  0  0
  5  6  2  0  0  0  0
  6  7  1  0  0  0  0
  6 42  1  0  0  0  0
  7  8  1  0  0  0  0
  7 28  2  0  0  0  0
  8  9  1  0  0  0  0
  8 43  1  0  0  0  0
  8 44  1  0  0  0  0
  9 10  1  0  0  0  0
  9 45  1  0  0  0  0
 10 15  1  0  0  0  0
 10 11  2  0  0  0  0
 11 12  1  0  0  0  0
 12 13  2  0  0  0  0
 12 46  1  0  0  0  0
 13 14  1  0  0  0  0
 14 18  1  0  0  0  0
 14 15  2  0  0  0  0
 15 16  1  0  0  0  0
 16 17  2  0  0  0  0
 17 18  1  0  0  0  0
 17 47  1  0  0  0  0
 18 19  1  0  0  0  0
 19 31  1  0  0  0  0
 19 26  1  0  0  0  0
 19 20  1  0  0  0  0
 20 21  1  0  0  0  0
 21 32  1  0  0  0  0
 21 22  1  0  0  0  0
 21 24  1  0  0  0  0
 22 23  1  0  0  0  0
 22 48  1  0  0  0  0
 22 49  1  0  0  0  0
 23 50  1  0  0  0  0
 24 33  1  0  0  0  0
 24 25  1  0  0  0  0
 24 26  1  0  0  0  0
 25 51  1  0  0  0  0
 26 34  1  0  0  0  0
 26 27  1  0  0  0  0
 27 52  1  0  0  0  0
 28 29  1  0  0  0  0
 28 53  1  0  0  0  0
 29 30  2  0  0  0  0
 29 54  1  0  0  0  0
M  END
> <s_m_source_file>
AV-unprocessed.smi

> <i_m_source_file_index>
218

> <i_lp_mmshare_version>
43012

> <i_f3d_flags>
0

> <s_epik_input>
W0NIM11bQ0hdKFtDSDNdKU9jMVtjSF1jKFtjSF1bY0hdbjEpW0NIMl1bTkhdYyhuW2NIXW4yKWMoYzIzKW5bY0hdbjNbQ0BASF00T1tDQEhdKFtDSDJdW09IXSlbQ0BASF0oW09IXSlbQ0BIXTRbT0hd

> <s_epik_cmdline>
J2VwaWtfcHl0aG9uJywgJy1waCcsICc3LjAnLCAnLXRuJywgJzgnLCAnLW1hJywgJzIwMCcsICctbWV0YWxfYmluZGluZycsICctaW1hZScsICc8aW5maWxlLm1hZT4nLCAnLW9tYWUnLCAnPG91dGZpbGUubWFlPic=

> <r_lp_tautomer_probability>
1

> <r_epik_Ionization_Penalty>
0.00457014

> <r_epik_Ionization_Penalty_Charging>
0

> <r_epik_Ionization_Penalty_Neutral>
0.00457014

> <r_epik_State_Penalty>
-0

> <r_epik_Charging_Adjusted_Penalty>
0

> <i_epik_Tot_Q>
0

> <i_epik_Tot_abs_Q>
0

> <r_epik_Metal_State_Penalty>
-0

> <b_epik_Metal_Only>
0

> <s_epik_Chemistry_Notes>
This compound contains an acetal/aminal-like group ( X-CH(R)-Y where X, Y are N, S, or O) that may be acid/base labile, releasing an aldehyde.

> <s_lp_Force_Field>
OPLS_2005

> <r_lp_Energy>
35.6768

> <b_lp_Chiralities_Consistent>
1

> <s_lp_Variant>
AV-unprocessed.smi:218-7

> <Gold.Version>
5.8.1

> <Gold.Id.Protein>
6NUR|6NUR_protein|mol2

> <Gold.PLP.Fitness>
51.0570

> <Gold.PLP.PLP>
-42.3205

> <Gold.PLP.part.hbond>
-2.9933

> <Gold.PLP.part.metal>
0.0000

> <Gold.PLP.part.buried>
-5.4456

> <Gold.PLP.part.nonpolar>
-35.6971

> <Gold.PLP.part.repulsive>
1.2213

> <Gold.PLP.ligand.clash>
0.0000

> <Gold.PLP.ligand.torsion>
1.6910

> <Gold.PLP.Chemscore.Hbond>
3.0000

> <Gold.PLP.Chemscore.CHOScore>
1.0000

> <Gold.PLP.Chemscore.Metal>
0.0000

> <Gold.Chemscore.Hbonds>
donor molecule, donor type, donor heavy atom, donor atom, acceptor molecule, acceptor atom, score
      L1  H    23    50       P1 10747  1.00
      L1  H    25    51       P1 10186  0.78
      L1  H    27    52       P1 10957  0.98
      L1  C    17    47       P1 10171  0.86

> <Gold.PLP.Chemscore.Internal.Correction>
0.1185

> <Gold.Rescore>
     Score         DG    S(hbond)    S(metal)    S(lipo)     H(rot)  DE(clash)    DE(int)     intcor
      9.67     -13.34       2.81        0.00      94.25       4.90       1.04       2.64       ----

> <Gold.Chemscore.Fitness>
9.6668

> <Gold.Chemscore.DG>
-13.3396

> <Gold.Chemscore.ZeroCoef>
-5.4800

> <Gold.Chemscore.Hbond>
2.8095

> <Gold.Chemscore.Metal>
0.0000

> <Gold.Chemscore.Lipo>
94.2516

> <Gold.Chemscore.Internal_Hbond>
0.0000

> <Gold.Chemscore.DEClash>
1.0356

> <Gold.Chemscore.DEInternal>
2.6372

> <Gold.Chemscore.Rot>
4.9029

> <Gold.Chemscore.Internal.Correction>
   9.000000E+99

> <Gold.Chemscore.Hbonds>
donor molecule, donor type, donor heavy atom, donor atom, acceptor molecule, acceptor atom, score
      L1  H    23    50       P1 10747  0.98
      L1  H    25    51       P1 10186  0.70
      L1  H    27    52       P1 10957  0.91

> <Gold.Chemscore.Hbond.Weighted>
-9.3837

> <Gold.Chemscore.Metal.Weighted>
-0.0000

> <Gold.Chemscore.Lipo.Weighted>
-11.0274

> <Gold.Chemscore.Internal_Hbond.Weighted>
0.0000

> <Gold.Chemscore.DEClash.Weighted>
1.0356

> <Gold.Chemscore.DEInternal.Weighted>
2.6372

> <Gold.Chemscore.Rot.Weighted>
12.5515

> <Gold.Chemscore.Internal.Correction.Weighted>
   9.000000E+99

> <Gold.Protein.RotatedTorsions>
[ 6907 6896 6895 6894 ] final   46.14 input  -60.11 | X-H torsion
[ 7974 7965 7964 7962 ] final   60.05 input  175.53 | X-H torsion
[ 8008 7997 7996 7995 ] final  137.73 input   59.86 | X-H torsion
[ 10167 10162 10161 10158 ] final  135.37 input  -65.29 | X-H torsion
[ 10718 10713 10712 10709 ] final   31.14 input   66.30 | X-H torsion
[ 10763 10752 10751 10750 ] final  112.79 input  -60.55 | X-H torsion
[ 11005 11000 10999 10996 ] final -122.79 input  -57.11 | X-H torsion

> <Gold.Protein.ActiveResidues>
 VAL166  LYS551  ARG553  GLY616  TRP617  ASP618  TYR619  PRO620  LYS621  CYS622 
 ASP623  PHE694  ASN695  SER759  ASP760  ASP761  ALA762  ILE779  LEU786  VAL792 
 PHE793  MET794  SER795  GLU796  ALA797  LYS798  CYS799  TRP800  GLU811  SER814 

> <Gold.Protein.RotatedAtoms>
  152.2529  134.8114  160.0442 H   0  0  0  0  0  0  0  0  0  0  0  0  # atno 6907 bound_to 6896
  151.8788  133.3486  159.3767 H   0  0  0  0  0  0  0  0  0  0  0  0  # atno 6908 bound_to 6896
  150.7090  134.4966  159.5585 H   0  0  0  0  0  0  0  0  0  0  0  0  # atno 6909 bound_to 6896
  145.9004  139.3577  143.0596 H   0  0  0  0  0  0  0  0  0  0  0  0  # atno 7974 bound_to 7965
  156.3001  140.2412  156.3957 H   0  0  0  0  0  0  0  0  0  0  0  0  # atno 8008 bound_to 7997
  154.8573  140.0421  157.1662 H   0  0  0  0  0  0  0  0  0  0  0  0  # atno 8009 bound_to 7997
  154.8934  140.2966  155.5361 H   0  0  0  0  0  0  0  0  0  0  0  0  # atno 8010 bound_to 7997
  139.5220  144.6520  151.5273 H   0  0  0  0  0  0  0  0  0  0  0  0  # atno 10167 bound_to 10162
  157.2686  130.7197  149.6492 H   0  0  0  0  0  0  0  0  0  0  0  0  # atno 10718 bound_to 10713
  153.4830  135.3675  155.2452 H   0  0  0  0  0  0  0  0  0  0  0  0  # atno 10763 bound_to 10752
  154.8754  135.3959  154.3678 H   0  0  0  0  0  0  0  0  0  0  0  0  # atno 10764 bound_to 10752
  153.4285  135.7082  153.6312 H   0  0  0  0  0  0  0  0  0  0  0  0  # atno 10765 bound_to 10752
  140.9968  134.0460  157.3587 H   0  0  0  0  0  0  0  0  0  0  0  0  # atno 11005 bound_to 11000
  145.8798  140.9369  143.0607 LP  0  0  0  0  0  0  0  0  0  0  0  0  # atno 17320 bound_to 7965
  144.6735  140.0765  143.7471 LP  0  0  0  0  0  0  0  0  0  0  0  0  # atno 17321 bound_to 7965
  140.6330  143.9040  150.6622 LP  0  0  0  0  0  0  0  0  0  0  0  0  # atno 17342 bound_to 10162
  140.2350  143.3707  152.1534 LP  0  0  0  0  0  0  0  0  0  0  0  0  # atno 17343 bound_to 10162
  155.9663  130.4374  150.5176 LP  0  0  0  0  0  0  0  0  0  0  0  0  # atno 17370 bound_to 10713
  157.3096  131.0661  151.2010 LP  0  0  0  0  0  0  0  0  0  0  0  0  # atno 17371 bound_to 10713
  139.9019  135.0167  156.7307 LP  0  0  0  0  0  0  0  0  0  0  0  0  # atno 17394 bound_to 11000
  140.6952  133.9354  155.7990 LP  0  0  0  0  0  0  0  0  0  0  0  0  # atno 17395 bound_to 11000

$$$$
