AV-unprocessed.smi:1677|AV-procd|sdf|6727|dock9
  -GOLD-   22720 7473D 1   1.00000     0.00000
 Structure written by MMmdl.
 36 37  0  0  0  0  0  0  0  0  1 V2000
  147.6805  141.3960  155.2346 C   0  0  0  0  0  0  0  0  0  0  0  0
  149.0634  140.8405  155.6127 C   0  0  1  0  0  0  0  0  0  0  0  0
  149.8812  140.3586  154.3950 C   0  0  0  0  0  0  0  0  0  0  0  0
  150.8187  139.3036  154.7303 N   0  0  0  0  0  0  0  0  0  0  0  0
  151.9739  139.4231  155.4915 C   0  0  0  0  0  0  0  0  0  0  0  0
  152.5431  138.1707  155.5415 C   0  0  0  0  0  0  0  0  0  0  0  0
  151.7613  137.2713  154.8202 N   0  0  0  0  0  0  0  0  0  0  0  0
  150.7603  138.0148  154.3668 C   0  0  0  0  0  0  0  0  0  0  0  0
  149.8053  141.8657  156.3403 N   0  0  0  0  0  0  0  0  0  0  0  0
  150.6534  141.6408  157.3563 C   0  0  0  0  0  0  0  0  0  0  0  0
  150.9115  140.5155  157.7846 O   0  0  0  0  0  0  0  0  0  0  0  0
  151.3135  142.8774  157.9804 C   0  0  1  0  0  0  0  0  0  0  0  0
  150.2547  143.8333  158.5754 C   0  0  0  0  0  0  0  0  0  0  0  0
  150.8844  144.9361  159.4081 C   0  0  0  0  0  0  0  0  0  0  0  0
  152.1495  144.8902  159.8598 C   0  0  0  0  0  0  0  0  0  0  0  0
  153.0903  143.7281  159.5942 C   0  0  0  0  0  0  0  0  0  0  0  0
  152.3502  142.4890  159.0541 C   0  0  0  0  0  0  0  0  0  0  0  0
  147.0567  140.6336  154.7676 H   0  0  0  0  0  0  0  0  0  0  0  0
  147.7648  142.2307  154.5380 H   0  0  0  0  0  0  0  0  0  0  0  0
  147.1472  141.7514  156.1170 H   0  0  0  0  0  0  0  0  0  0  0  0
  148.8996  139.9907  156.2784 H   0  0  0  0  0  0  0  0  0  0  0  0
  149.2155  139.9951  153.6107 H   0  0  0  0  0  0  0  0  0  0  0  0
  150.4471  141.1859  153.9644 H   0  0  0  0  0  0  0  0  0  0  0  0
  152.2849  140.3632  155.9233 H   0  0  0  0  0  0  0  0  0  0  0  0
  153.4481  137.8506  156.0367 H   0  0  0  0  0  0  0  0  0  0  0  0
  149.9625  137.6112  153.7606 H   0  0  0  0  0  0  0  0  0  0  0  0
  149.6573  142.8224  156.0533 H   0  0  0  0  0  0  0  0  0  0  0  0
  151.8456  143.4124  157.1912 H   0  0  0  0  0  0  0  0  0  0  0  0
  149.6781  144.2915  157.7710 H   0  0  0  0  0  0  0  0  0  0  0  0
  149.5463  143.2968  159.2082 H   0  0  0  0  0  0  0  0  0  0  0  0
  150.2596  145.7846  159.6457 H   0  0  0  0  0  0  0  0  0  0  0  0
  152.5438  145.7143  160.4361 H   0  0  0  0  0  0  0  0  0  0  0  0
  153.8424  144.0603  158.8780 H   0  0  0  0  0  0  0  0  0  0  0  0
  153.6175  143.4741  160.5141 H   0  0  0  0  0  0  0  0  0  0  0  0
  151.8463  141.9878  159.8825 H   0  0  0  0  0  0  0  0  0  0  0  0
  153.0722  141.7745  158.6565 H   0  0  0  0  0  0  0  0  0  0  0  0
  1  2  1  0  0  0  0
  1 18  1  0  0  0  0
  1 19  1  0  0  0  0
  1 20  1  0  0  0  0
  2  3  1  0  0  0  0
  2  9  1  0  0  0  0
  2 21  1  0  0  0  0
  3  4  1  0  0  0  0
  3 22  1  0  0  0  0
  3 23  1  0  0  0  0
  4  8  1  0  0  0  0
  4  5  1  0  0  0  0
  5  6  2  0  0  0  0
  5 24  1  0  0  0  0
  6  7  1  0  0  0  0
  6 25  1  0  0  0  0
  7  8  2  0  0  0  0
  8 26  1  0  0  0  0
  9 10  1  0  0  0  0
  9 27  1  0  0  0  0
 10 11  2  0  0  0  0
 10 12  1  0  0  0  0
 12 17  1  0  0  0  0
 12 13  1  0  0  0  0
 12 28  1  0  0  0  0
 13 14  1  0  0  0  0
 13 29  1  0  0  0  0
 13 30  1  0  0  0  0
 14 15  2  0  0  0  0
 14 31  1  0  0  0  0
 15 16  1  0  0  0  0
 15 32  1  0  0  0  0
 16 17  1  0  0  0  0
 16 33  1  0  0  0  0
 16 34  1  0  0  0  0
 17 35  1  0  0  0  0
 17 36  1  0  0  0  0
M  END
> <s_m_source_file>
AV-unprocessed.smi

> <i_m_source_file_index>
1677

> <i_lp_mmshare_version>
43012

> <i_f3d_flags>
0

> <s_epik_input>
W2NIXTFuW2NIXVtjSF1uMVtDSDJdW0NAQEhdKFtDSDNdKVtOSF1DKD1PKVtDQEBIXTJbQ0gyXVtDSF09W0NIXVtDSDJdW0NIMl0y

> <s_epik_cmdline>
J2VwaWtfcHl0aG9uJywgJy1waCcsICc3LjAnLCAnLXRuJywgJzgnLCAnLW1hJywgJzIwMCcsICctbWV0YWxfYmluZGluZycsICctaW1hZScsICc8aW5maWxlLm1hZT4nLCAnLW9tYWUnLCAnPG91dGZpbGUubWFlPic=

> <r_lp_tautomer_probability>
1

> <r_epik_Ionization_Penalty>
0.640435

> <r_epik_Ionization_Penalty_Charging>
0.640435

> <r_epik_Ionization_Penalty_Neutral>
2.11108e-08

> <r_epik_State_Penalty>
0.658069

> <r_epik_Charging_Adjusted_Penalty>
1.2985

> <i_epik_Tot_Q>
0

> <i_epik_Tot_abs_Q>
0

> <r_epik_Metal_State_Penalty>
0.311689

> <b_epik_Metal_Only>
0

> <s_lp_Force_Field>
OPLS_2005

> <r_lp_Energy>
10.2331

> <b_lp_Chiralities_Consistent>
1

> <s_lp_Variant>
AV-unprocessed.smi:1677-8

> <Gold.Version>
5.8.1

> <Gold.Id.Protein>
6NUR|6NUR_protein|mol2

> <Gold.PLP.Fitness>
45.1049

> <Gold.PLP.PLP>
-38.1287

> <Gold.PLP.part.hbond>
-1.8398

> <Gold.PLP.part.metal>
0.0000

> <Gold.PLP.part.buried>
-2.8084

> <Gold.PLP.part.nonpolar>
-34.4346

> <Gold.PLP.part.repulsive>
0.1850

> <Gold.PLP.ligand.clash>
0.0000

> <Gold.PLP.ligand.torsion>
0.7836

> <Gold.PLP.Chemscore.Hbond>
1.8363

> <Gold.PLP.Chemscore.CHOScore>
1.0000

> <Gold.PLP.Chemscore.Metal>
0.0000

> <Gold.Chemscore.Hbonds>
donor molecule, donor type, donor heavy atom, donor atom, acceptor molecule, acceptor atom, score
      L1  H     9    27       P1  8028  0.86
      P1  H 10752 10763       L1     7  0.96
      L1  C     8    26       P1  7948  1.00

> <Gold.PLP.Chemscore.Internal.Correction>
0.0348

> <Gold.Rescore>
     Score         DG    S(hbond)    S(metal)    S(lipo)     H(rot)  DE(clash)    DE(int)     intcor
     15.01     -17.86       1.66        0.00      96.60       1.75       0.70       2.15       ----

> <Gold.Chemscore.Fitness>
15.0101

> <Gold.Chemscore.DG>
-17.8552

> <Gold.Chemscore.ZeroCoef>
-5.4800

> <Gold.Chemscore.Hbond>
1.6606

> <Gold.Chemscore.Metal>
0.0000

> <Gold.Chemscore.Lipo>
96.6005

> <Gold.Chemscore.Internal_Hbond>
0.0000

> <Gold.Chemscore.DEClash>
0.6963

> <Gold.Chemscore.DEInternal>
2.1489

> <Gold.Chemscore.Rot>
1.7475

> <Gold.Chemscore.Internal.Correction>
   9.000000E+99

> <Gold.Chemscore.Hbonds>
donor molecule, donor type, donor heavy atom, donor atom, acceptor molecule, acceptor atom, score
      L1  H     9    27       P1  8028  0.84
      P1  H 10752 10763       L1     7  0.52

> <Gold.Chemscore.Hbond.Weighted>
-5.5465

> <Gold.Chemscore.Metal.Weighted>
-0.0000

> <Gold.Chemscore.Lipo.Weighted>
-11.3023

> <Gold.Chemscore.Internal_Hbond.Weighted>
0.0000

> <Gold.Chemscore.DEClash.Weighted>
0.6963

> <Gold.Chemscore.DEInternal.Weighted>
2.1489

> <Gold.Chemscore.Rot.Weighted>
4.4735

> <Gold.Chemscore.Internal.Correction.Weighted>
   9.000000E+99

> <Gold.Protein.RotatedTorsions>
[ 6907 6896 6895 6894 ] final   52.00 input  -60.11 | X-H torsion
[ 7974 7965 7964 7962 ] final  141.39 input  175.53 | X-H torsion
[ 8008 7997 7996 7995 ] final   49.14 input   59.86 | X-H torsion
[ 10167 10162 10161 10158 ] final -123.12 input  -65.29 | X-H torsion
[ 10718 10713 10712 10709 ] final  -41.35 input   66.30 | X-H torsion
[ 10763 10752 10751 10750 ] final   49.92 input  -60.55 | X-H torsion
[ 11005 11000 10999 10996 ] final  -14.55 input  -57.11 | X-H torsion

> <Gold.Protein.ActiveResidues>
 VAL166  LYS551  ARG553  GLY616  TRP617  ASP618  TYR619  PRO620  LYS621  CYS622 
 ASP623  PHE694  ASN695  SER759  ASP760  ASP761  ALA762  ILE779  LEU786  VAL792 
 PHE793  MET794  SER795  GLU796  ALA797  LYS798  CYS799  TRP800  GLU811  SER814 

> <Gold.Protein.RotatedAtoms>
  152.3187  134.7407  160.0318 H   0  0  0  0  0  0  0  0  0  0  0  0  # atno 6907 bound_to 6896
  151.7863  133.3349  159.3494 H   0  0  0  0  0  0  0  0  0  0  0  0  # atno 6908 bound_to 6896
  150.7358  134.5815  159.5985 H   0  0  0  0  0  0  0  0  0  0  0  0  # atno 6909 bound_to 6896
  144.9101  139.5305  143.5713 H   0  0  0  0  0  0  0  0  0  0  0  0  # atno 7974 bound_to 7965
  155.3972  140.3436  155.4255 H   0  0  0  0  0  0  0  0  0  0  0  0  # atno 8008 bound_to 7997
  156.1524  140.1575  156.8781 H   0  0  0  0  0  0  0  0  0  0  0  0  # atno 8009 bound_to 7997
  154.5064  140.0801  156.7884 H   0  0  0  0  0  0  0  0  0  0  0  0  # atno 8010 bound_to 7997
  140.0070  143.5481  152.2279 H   0  0  0  0  0  0  0  0  0  0  0  0  # atno 10167 bound_to 10162
  156.2713  130.4207  149.8434 H   0  0  0  0  0  0  0  0  0  0  0  0  # atno 10718 bound_to 10713
  152.9785  135.5896  154.4168 H   0  0  0  0  0  0  0  0  0  0  0  0  # atno 10763 bound_to 10752
  154.3797  135.2767  155.2220 H   0  0  0  0  0  0  0  0  0  0  0  0  # atno 10764 bound_to 10752
  154.4139  135.6075  153.6024 H   0  0  0  0  0  0  0  0  0  0  0  0  # atno 10765 bound_to 10752
  140.7876  133.8314  155.9349 H   0  0  0  0  0  0  0  0  0  0  0  0  # atno 11005 bound_to 11000
  146.3154  139.7900  142.8987 LP  0  0  0  0  0  0  0  0  0  0  0  0  # atno 17320 bound_to 7965
  145.3469  141.0299  143.3360 LP  0  0  0  0  0  0  0  0  0  0  0  0  # atno 17321 bound_to 7965
  139.6232  144.7632  151.2696 LP  0  0  0  0  0  0  0  0  0  0  0  0  # atno 17342 bound_to 10162
  140.7396  143.6611  150.8163 LP  0  0  0  0  0  0  0  0  0  0  0  0  # atno 17343 bound_to 10162
  156.5915  130.8508  151.3409 LP  0  0  0  0  0  0  0  0  0  0  0  0  # atno 17370 bound_to 10713
  157.7285  130.9657  150.1744 LP  0  0  0  0  0  0  0  0  0  0  0  0  # atno 17371 bound_to 10713
  140.9422  134.1887  157.4789 LP  0  0  0  0  0  0  0  0  0  0  0  0  # atno 17394 bound_to 11000
  139.8735  134.9876  156.5375 LP  0  0  0  0  0  0  0  0  0  0  0  0  # atno 17395 bound_to 11000

$$$$
