AV-unprocessed.smi:1652|AV-procd|sdf|6639|dock6
  -GOLD-   22720 7343D 1   1.00000     0.00000
 Structure written by MMmdl.
 38 40  0  0  0  0  0  0  0  0  1 V2000
  150.1605  136.8838  159.6772 O   0  0  0  0  0  0  0  0  0  0  0  0
  149.9081  137.7790  158.8702 C   0  0  0  0  0  0  0  0  0  0  0  0
  148.6411  137.8668  158.1279 C   0  0  0  0  0  0  0  0  0  0  0  0
  147.5896  136.7886  158.3766 C   0  0  0  0  0  0  0  0  0  0  0  0
  146.4999  136.9807  157.6320 F   0  0  0  0  0  0  0  0  0  0  0  0
  148.0748  135.5816  158.0835 F   0  0  0  0  0  0  0  0  0  0  0  0
  147.2144  136.7877  159.6562 F   0  0  0  0  0  0  0  0  0  0  0  0
  148.4356  138.8798  157.2511 C   0  0  0  0  0  0  0  0  0  0  0  0
  149.4599  139.8822  157.0382 C   0  0  0  0  0  0  0  0  0  0  0  0
  149.3031  141.0247  156.0758 C   0  0  0  0  0  0  0  0  0  0  0  0
  148.0139  141.2779  155.3278 C   0  0  0  0  0  0  0  0  0  0  0  0
  149.2394  140.8008  154.5829 C   0  0  0  0  0  0  0  0  0  0  0  0
  150.5681  139.8071  157.6949 N   0  0  0  0  0  0  0  0  0  0  0  0
  150.7941  138.7801  158.5913 N   0  0  0  0  0  0  0  0  0  0  0  0
  152.1139  138.8322  159.2333 C   0  0  0  0  0  0  0  0  0  0  0  0
  153.0371  139.8825  158.5780 C   0  0  2  0  0  0  0  0  0  0  0  0
  154.3845  139.5387  158.8351 O   0  0  0  0  0  0  0  0  0  0  0  0
  152.7174  141.2801  159.0878 C   0  0  0  0  0  0  0  0  0  0  0  0
  152.1338  142.2291  158.2208 C   0  0  0  0  0  0  0  0  0  0  0  0
  151.8254  143.5220  158.6868 C   0  0  0  0  0  0  0  0  0  0  0  0
  152.0969  143.8734  160.0232 C   0  0  0  0  0  0  0  0  0  0  0  0
  151.7997  145.1163  160.4707 F   0  0  0  0  0  0  0  0  0  0  0  0
  152.6756  142.9304  160.8939 C   0  0  0  0  0  0  0  0  0  0  0  0
  152.9831  141.6370  160.4288 C   0  0  0  0  0  0  0  0  0  0  0  0
  147.5121  138.9610  156.6980 H   0  0  0  0  0  0  0  0  0  0  0  0
  149.8502  141.8993  156.4235 H   0  0  0  0  0  0  0  0  0  0  0  0
  147.1982  140.5671  155.4471 H   0  0  0  0  0  0  0  0  0  0  0  0
  147.7119  142.3137  155.1875 H   0  0  0  0  0  0  0  0  0  0  0  0
  149.7513  141.5186  153.9451 H   0  0  0  0  0  0  0  0  0  0  0  0
  149.2359  139.7744  154.2198 H   0  0  0  0  0  0  0  0  0  0  0  0
  151.9515  139.1086  160.2770 H   0  0  0  0  0  0  0  0  0  0  0  0
  152.5998  137.8556  159.2788 H   0  0  0  0  0  0  0  0  0  0  0  0
  152.8971  139.8745  157.4961 H   0  0  0  0  0  0  0  0  0  0  0  0
  154.3988  138.7648  159.3770 H   0  0  0  0  0  0  0  0  0  0  0  0
  151.9174  141.9688  157.1950 H   0  0  0  0  0  0  0  0  0  0  0  0
  151.3790  144.2439  158.0189 H   0  0  0  0  0  0  0  0  0  0  0  0
  152.8821  143.1982  161.9198 H   0  0  0  0  0  0  0  0  0  0  0  0
  153.4216  140.9182  161.1057 H   0  0  0  0  0  0  0  0  0  0  0  0
  1  2  2  0  0  0  0
  2 14  1  0  0  0  0
  2  3  1  0  0  0  0
  3  4  1  0  0  0  0
  3  8  2  0  0  0  0
  4  5  1  0  0  0  0
  4  6  1  0  0  0  0
  4  7  1  0  0  0  0
  8  9  1  0  0  0  0
  8 25  1  0  0  0  0
  9 10  1  0  0  0  0
  9 13  2  0  0  0  0
 10 12  1  0  0  0  0
 10 11  1  0  0  0  0
 10 26  1  0  0  0  0
 11 12  1  0  0  0  0
 11 27  1  0  0  0  0
 11 28  1  0  0  0  0
 12 29  1  0  0  0  0
 12 30  1  0  0  0  0
 13 14  1  0  0  0  0
 14 15  1  0  0  0  0
 15 16  1  0  0  0  0
 15 31  1  0  0  0  0
 15 32  1  0  0  0  0
 16 17  1  0  0  0  0
 16 18  1  0  0  0  0
 16 33  1  0  0  0  0
 17 34  1  0  0  0  0
 18 24  1  0  0  0  0
 18 19  2  0  0  0  0
 19 20  1  0  0  0  0
 19 35  1  0  0  0  0
 20 21  2  0  0  0  0
 20 36  1  0  0  0  0
 21 22  1  0  0  0  0
 21 23  1  0  0  0  0
 23 24  2  0  0  0  0
 23 37  1  0  0  0  0
 24 38  1  0  0  0  0
M  END
> <s_m_source_file>
AV-unprocessed.smi

> <i_m_source_file_index>
1652

> <i_lp_mmshare_version>
43012

> <i_f3d_flags>
0

> <s_epik_input>
Tz1jMWMoQyhGKShGKUYpW2NIXWMoW0NIXTJbQ0gyXVtDSDJdMilubjFbQ0gyXVtDQEhdKFtPSF0pYzNbY0hdW2NIXWMoRilbY0hdW2NIXTM=

> <s_epik_cmdline>
J2VwaWtfcHl0aG9uJywgJy1waCcsICc3LjAnLCAnLXRuJywgJzgnLCAnLW1hJywgJzIwMCcsICctbWV0YWxfYmluZGluZycsICctaW1hZScsICc8aW5maWxlLm1hZT4nLCAnLW9tYWUnLCAnPG91dGZpbGUubWFlPic=

> <r_lp_tautomer_probability>
1

> <r_epik_Ionization_Penalty>
9.17026e-08

> <r_epik_Ionization_Penalty_Charging>
9.677e-10

> <r_epik_Ionization_Penalty_Neutral>
9.07349e-08

> <r_epik_State_Penalty>
-0

> <r_epik_Charging_Adjusted_Penalty>
9.677e-10

> <i_epik_Tot_Q>
0

> <i_epik_Tot_abs_Q>
0

> <r_epik_Metal_State_Penalty>
-0

> <b_epik_Metal_Only>
0

> <s_lp_Force_Field>
OPLS_2005

> <r_lp_Energy>
34.1346

> <b_lp_Chiralities_Consistent>
1

> <s_lp_Variant>
AV-unprocessed.smi:1652-1

> <Gold.Version>
5.8.1

> <Gold.Id.Protein>
6NUR|6NUR_protein|mol2

> <Gold.PLP.Fitness>
45.3037

> <Gold.PLP.PLP>
-40.1055

> <Gold.PLP.part.hbond>
-2.0773

> <Gold.PLP.part.metal>
0.0000

> <Gold.PLP.part.buried>
-5.2376

> <Gold.PLP.part.nonpolar>
-32.0678

> <Gold.PLP.part.repulsive>
0.0000

> <Gold.PLP.ligand.clash>
0.4250

> <Gold.PLP.ligand.torsion>
0.5099

> <Gold.PLP.Chemscore.Hbond>
2.0000

> <Gold.PLP.Chemscore.CHOScore>
0.0000

> <Gold.PLP.Chemscore.Metal>
0.0000

> <Gold.Chemscore.Hbonds>
donor molecule, donor type, donor heavy atom, donor atom, acceptor molecule, acceptor atom, score
      P1  H  6896  6909       L1     1  0.96
      P1  H  7997  8010       L1    17  1.00

> <Gold.PLP.Chemscore.Internal.Correction>
0.6429

> <Gold.Rescore>
     Score         DG    S(hbond)    S(metal)    S(lipo)     H(rot)  DE(clash)    DE(int)     intcor
     14.19     -17.39       1.88        0.00      96.37       2.20       0.33       2.88       ----

> <Gold.Chemscore.Fitness>
14.1858

> <Gold.Chemscore.DG>
-17.3921

> <Gold.Chemscore.ZeroCoef>
-5.4800

> <Gold.Chemscore.Hbond>
1.8773

> <Gold.Chemscore.Metal>
0.0000

> <Gold.Chemscore.Lipo>
96.3658

> <Gold.Chemscore.Internal_Hbond>
0.0000

> <Gold.Chemscore.DEClash>
0.3256

> <Gold.Chemscore.DEInternal>
2.8807

> <Gold.Chemscore.Rot>
2.2003

> <Gold.Chemscore.Internal.Correction>
   9.000000E+99

> <Gold.Chemscore.Hbonds>
donor molecule, donor type, donor heavy atom, donor atom, acceptor molecule, acceptor atom, score
      P1  H  6896  6909       L1     1  0.91
      P1  H  7997  8010       L1    17  0.30

> <Gold.Chemscore.Hbond.Weighted>
-6.2702

> <Gold.Chemscore.Metal.Weighted>
-0.0000

> <Gold.Chemscore.Lipo.Weighted>
-11.2748

> <Gold.Chemscore.Internal_Hbond.Weighted>
0.0000

> <Gold.Chemscore.DEClash.Weighted>
0.3256

> <Gold.Chemscore.DEInternal.Weighted>
2.8807

> <Gold.Chemscore.Rot.Weighted>
5.6328

> <Gold.Chemscore.Internal.Correction.Weighted>
   9.000000E+99

> <Gold.Protein.RotatedTorsions>
[ 6907 6896 6895 6894 ] final   88.52 input  -60.11 | X-H torsion
[ 7974 7965 7964 7962 ] final -174.73 input  175.53 | X-H torsion
[ 8008 7997 7996 7995 ] final   -2.09 input   59.86 | X-H torsion
[ 10167 10162 10161 10158 ] final  160.27 input  -65.29 | X-H torsion
[ 10718 10713 10712 10709 ] final  105.48 input   66.30 | X-H torsion
[ 10763 10752 10751 10750 ] final  -71.32 input  -60.55 | X-H torsion
[ 11005 11000 10999 10996 ] final   64.57 input  -57.11 | X-H torsion

> <Gold.Protein.ActiveResidues>
 VAL166  LYS551  ARG553  GLY616  TRP617  ASP618  TYR619  PRO620  LYS621  CYS622 
 ASP623  PHE694  ASN695  SER759  ASP760  ASP761  ALA762  ILE779  LEU786  VAL792 
 PHE793  MET794  SER795  GLU796  ALA797  LYS798  CYS799  TRP800  GLU811  SER814 

> <Gold.Protein.RotatedAtoms>
  152.5426  134.2109  159.8749 H   0  0  0  0  0  0  0  0  0  0  0  0  # atno 6907 bound_to 6896
  151.2092  133.4559  159.2605 H   0  0  0  0  0  0  0  0  0  0  0  0  # atno 6908 bound_to 6896
  151.0914  134.9931  159.8460 H   0  0  0  0  0  0  0  0  0  0  0  0  # atno 6909 bound_to 6896
  144.7130  140.1427  143.6390 H   0  0  0  0  0  0  0  0  0  0  0  0  # atno 7974 bound_to 7965
  154.6395  140.2543  155.7338 H   0  0  0  0  0  0  0  0  0  0  0  0  # atno 8008 bound_to 7997
  156.2521  140.2890  156.0703 H   0  0  0  0  0  0  0  0  0  0  0  0  # atno 8009 bound_to 7997
  155.1618  140.0384  157.2834 H   0  0  0  0  0  0  0  0  0  0  0  0  # atno 8010 bound_to 7997
  139.4838  144.4650  151.8653 H   0  0  0  0  0  0  0  0  0  0  0  0  # atno 10167 bound_to 10162
  157.6704  131.0828  150.5862 H   0  0  0  0  0  0  0  0  0  0  0  0  # atno 10718 bound_to 10713
  154.4302  135.5966  153.6064 H   0  0  0  0  0  0  0  0  0  0  0  0  # atno 10763 bound_to 10752
  152.9798  135.5973  154.3849 H   0  0  0  0  0  0  0  0  0  0  0  0  # atno 10764 bound_to 10752
  154.3686  135.2841  155.2258 H   0  0  0  0  0  0  0  0  0  0  0  0  # atno 10765 bound_to 10752
  139.9950  134.6531  156.0026 H   0  0  0  0  0  0  0  0  0  0  0  0  # atno 11005 bound_to 11000
  145.9187  139.2532  143.1394 LP  0  0  0  0  0  0  0  0  0  0  0  0  # atno 17320 bound_to 7965
  145.9642  140.8811  143.0195 LP  0  0  0  0  0  0  0  0  0  0  0  0  # atno 17321 bound_to 7965
  140.4115  144.2362  150.5889 LP  0  0  0  0  0  0  0  0  0  0  0  0  # atno 17342 bound_to 10162
  140.4961  143.2332  151.8747 LP  0  0  0  0  0  0  0  0  0  0  0  0  # atno 17343 bound_to 10162
  156.6163  130.4393  149.5839 LP  0  0  0  0  0  0  0  0  0  0  0  0  # atno 17370 bound_to 10713
  156.2391  130.6840  151.1538 LP  0  0  0  0  0  0  0  0  0  0  0  0  # atno 17371 bound_to 10713
  141.1597  133.6540  156.4278 LP  0  0  0  0  0  0  0  0  0  0  0  0  # atno 17394 bound_to 11000
  140.4835  134.6642  157.5181 LP  0  0  0  0  0  0  0  0  0  0  0  0  # atno 17395 bound_to 11000

$$$$
