AV-unprocessed.smi:907|AV-procd|sdf|4107|dock4
  -GOLD-   22720 2 03D 1   1.00000     0.00000
 Structure written by MMmdl.
 53 56  0  0  0  0  0  0  0  0  2 V2000
  149.8120  141.1592  153.9482 O   0  0  0  0  0  0  0  0  0  0  0  0
  149.0467  140.8350  154.8570 C   0  0  0  0  0  0  0  0  0  0  0  0
  149.4934  140.3647  156.0326 N   0  0  0  0  0  0  0  0  0  0  0  0
  150.8980  140.1966  156.3796 C   0  0  0  0  0  0  0  0  0  0  0  0
  151.1329  140.5370  157.8581 C   0  0  0  0  0  0  0  0  0  0  0  0
  151.6507  141.9502  158.0487 C   0  0  0  0  0  0  0  0  0  0  0  0
  152.6704  142.2233  158.9854 C   0  0  0  0  0  0  0  0  0  0  0  0
  153.1197  143.5512  159.1199 C   0  0  0  0  0  0  0  0  0  0  0  0
  152.5366  144.5492  158.3159 C   0  0  0  0  0  0  0  0  0  0  0  0
  151.5253  144.1732  157.4091 C   0  0  0  0  0  0  0  0  0  0  0  0
  151.0863  142.9032  157.2731 N   0  0  0  0  0  0  0  0  0  0  0  0
  147.6956  140.8894  154.7434 N   0  0  0  0  0  0  0  0  0  0  0  0
  146.7210  140.7334  155.8293 C   0  0  0  0  0  0  0  0  0  0  0  0
  146.1188  142.1095  156.1716 C   0  0  0  0  0  0  0  0  0  0  0  0
  145.5298  142.7842  154.9763 N   0  3  0  0  0  0  0  0  0  0  0  0
  144.9939  144.1549  155.2441 C   0  0  1  0  0  0  0  0  0  0  0  0
  144.3681  144.7908  153.9738 C   0  0  0  0  0  0  0  0  0  0  0  0
  142.9575  145.2000  154.4282 C   0  0  2  0  0  0  0  0  0  0  0  0
  143.0542  146.3744  155.4160 C   0  0  0  0  0  0  0  0  0  0  0  0
  143.6181  145.7005  156.6786 C   0  0  0  0  0  0  0  0  0  0  0  0
  143.7999  144.2340  156.2382 C   0  0  1  0  0  0  0  0  0  0  0  0
  142.5846  144.0381  155.3390 C   0  0  0  0  0  0  0  0  0  0  0  0
  146.4644  142.7770  153.8106 C   0  0  0  0  0  0  0  0  0  0  0  0
  147.0333  141.3752  153.5326 C   0  0  0  0  0  0  0  0  0  0  0  0
  148.8140  140.1005  156.7309 H   0  0  0  0  0  0  0  0  0  0  0  0
  151.1943  139.1657  156.1796 H   0  0  0  0  0  0  0  0  0  0  0  0
  151.5121  140.8391  155.7463 H   0  0  0  0  0  0  0  0  0  0  0  0
  150.2048  140.4226  158.4204 H   0  0  0  0  0  0  0  0  0  0  0  0
  151.8440  139.8342  158.2946 H   0  0  0  0  0  0  0  0  0  0  0  0
  153.1004  141.4354  159.5862 H   0  0  0  0  0  0  0  0  0  0  0  0
  153.8977  143.7992  159.8269 H   0  0  0  0  0  0  0  0  0  0  0  0
  152.8565  145.5779  158.3917 H   0  0  0  0  0  0  0  0  0  0  0  0
  151.0566  144.9120  156.7762 H   0  0  0  0  0  0  0  0  0  0  0  0
  145.9315  140.0553  155.5017 H   0  0  0  0  0  0  0  0  0  0  0  0
  147.1312  140.2788  156.7313 H   0  0  0  0  0  0  0  0  0  0  0  0
  145.3594  141.9433  156.9327 H   0  0  0  0  0  0  0  0  0  0  0  0
  146.8846  142.7518  156.6095 H   0  0  0  0  0  0  0  0  0  0  0  0
  145.8166  144.7683  155.6159 H   0  0  0  0  0  0  0  0  0  0  0  0
  144.9478  145.6377  153.6049 H   0  0  0  0  0  0  0  0  0  0  0  0
  144.2795  144.0717  153.1585 H   0  0  0  0  0  0  0  0  0  0  0  0
  142.2674  145.3783  153.6030 H   0  0  0  0  0  0  0  0  0  0  0  0
  143.6970  147.1742  155.0461 H   0  0  0  0  0  0  0  0  0  0  0  0
  142.0698  146.7998  155.6155 H   0  0  0  0  0  0  0  0  0  0  0  0
  144.5503  146.1561  157.0141 H   0  0  0  0  0  0  0  0  0  0  0  0
  142.9022  145.7715  157.4986 H   0  0  0  0  0  0  0  0  0  0  0  0
  143.8425  143.5735  157.1010 H   0  0  0  0  0  0  0  0  0  0  0  0
  141.6347  144.1828  155.8569 H   0  0  0  0  0  0  0  0  0  0  0  0
  142.5721  143.0725  154.8305 H   0  0  0  0  0  0  0  0  0  0  0  0
  145.9646  143.1364  152.9118 H   0  0  0  0  0  0  0  0  0  0  0  0
  147.2864  143.4680  154.0055 H   0  0  0  0  0  0  0  0  0  0  0  0
  147.7023  141.4079  152.6713 H   0  0  0  0  0  0  0  0  0  0  0  0
  146.2305  140.6904  153.2554 H   0  0  0  0  0  0  0  0  0  0  0  0
  144.7385  142.2174  154.7061 H   0  0  0  0  0  0  0  0  0  0  0  0
  1  2  2  0  0  0  0
  2  3  1  0  0  0  0
  2 12  1  0  0  0  0
  3  4  1  0  0  0  0
  3 25  1  0  0  0  0
  4  5  1  0  0  0  0
  4 26  1  0  0  0  0
  4 27  1  0  0  0  0
  5  6  1  0  0  0  0
  5 28  1  0  0  0  0
  5 29  1  0  0  0  0
  6 11  1  0  0  0  0
  6  7  2  0  0  0  0
  7  8  1  0  0  0  0
  7 30  1  0  0  0  0
  8  9  2  0  0  0  0
  8 31  1  0  0  0  0
  9 10  1  0  0  0  0
  9 32  1  0  0  0  0
 10 11  2  0  0  0  0
 10 33  1  0  0  0  0
 12 24  1  0  0  0  0
 12 13  1  0  0  0  0
 13 14  1  0  0  0  0
 13 34  1  0  0  0  0
 13 35  1  0  0  0  0
 14 15  1  0  0  0  0
 14 36  1  0  0  0  0
 14 37  1  0  0  0  0
 15 16  1  0  0  0  0
 15 23  1  0  0  0  0
 15 53  1  0  0  0  0
 16 21  1  0  0  0  0
 16 17  1  0  0  0  0
 16 38  1  0  0  0  0
 17 18  1  0  0  0  0
 17 39  1  0  0  0  0
 17 40  1  0  0  0  0
 18 22  1  0  0  0  0
 18 19  1  0  0  0  0
 18 41  1  0  0  0  0
 19 20  1  0  0  0  0
 19 42  1  0  0  0  0
 19 43  1  0  0  0  0
 20 21  1  0  0  0  0
 20 44  1  0  0  0  0
 20 45  1  0  0  0  0
 21 22  1  0  0  0  0
 21 46  1  0  0  0  0
 22 47  1  0  0  0  0
 22 48  1  0  0  0  0
 23 24  1  0  0  0  0
 23 49  1  0  0  0  0
 23 50  1  0  0  0  0
 24 51  1  0  0  0  0
 24 52  1  0  0  0  0
M  CHG  1  15   1
M  END
> <s_m_source_file>
AV-unprocessed.smi

> <i_m_source_file_index>
907

> <i_lp_mmshare_version>
43012

> <i_f3d_flags>
0

> <s_epik_input>
W0NIMl0xW0NIMl1bQ0BASF0oW0NIMl0yKVtDQEBIXShbQ0gyXVtDQEhdMTIpTihbQ0gyXVtDSDJdMylbQ0gyXVtDSDJdTjNDKD1PKVtOSF1bQ0gyXVtDSDJdYzRbY0hdW2NIXVtjSF1bY0hdbjQ=

> <s_epik_cmdline>
J2VwaWtfcHl0aG9uJywgJy1waCcsICc3LjAnLCAnLXRuJywgJzgnLCAnLW1hJywgJzIwMCcsICctbWV0YWxfYmluZGluZycsICctaW1hZScsICc8aW5maWxlLm1hZT4nLCAnLW9tYWUnLCAnPG91dGZpbGUubWFlPic=

> <r_epik_Ionization_Penalty>
0.0419258

> <r_epik_Ionization_Penalty_Charging>
0.00262064

> <r_epik_Ionization_Penalty_Neutral>
0.0393052

> <r_epik_State_Penalty>
0.0329887

> <r_epik_Charging_Adjusted_Penalty>
0.0356093

> <i_epik_Tot_Q>
1

> <i_epik_Tot_abs_Q>
1

> <r_epik_Metal_State_Penalty>
0.0309172

> <b_epik_Metal_Only>
0

> <s_lp_Force_Field>
OPLS_2005

> <r_lp_Energy>
96.5641

> <b_lp_Chiralities_Consistent>
1

> <s_lp_Variant>
AV-unprocessed.smi:907-2

> <Gold.Version>
5.8.1

> <Gold.Id.Protein>
6NUR|6NUR_protein|mol2

> <Gold.PLP.Fitness>
50.2892

> <Gold.PLP.PLP>
-45.3971

> <Gold.PLP.part.hbond>
-1.8485

> <Gold.PLP.part.metal>
0.0000

> <Gold.PLP.part.buried>
-6.3409

> <Gold.PLP.part.nonpolar>
-38.5139

> <Gold.PLP.part.repulsive>
1.1504

> <Gold.PLP.ligand.clash>
0.0000

> <Gold.PLP.ligand.torsion>
0.7749

> <Gold.PLP.Chemscore.Hbond>
1.1520

> <Gold.PLP.Chemscore.CHOScore>
0.9640

> <Gold.PLP.Chemscore.Metal>
0.0000

> <Gold.Chemscore.Hbonds>
donor molecule, donor type, donor heavy atom, donor atom, acceptor molecule, acceptor atom, score
      P1  H  7989  7998       L1     1  0.35
      P1  H  8011  8017       L1     1  0.78
      L1  C    10    33       P1  8028  0.96

> <Gold.PLP.Chemscore.Internal.Correction>
0.0940

> <Gold.Rescore>
     Score         DG    S(hbond)    S(metal)    S(lipo)     H(rot)  DE(clash)    DE(int)     intcor
     18.74     -19.86       1.11        0.00     121.16       1.37       0.46       0.66       ----

> <Gold.Chemscore.Fitness>
18.7351

> <Gold.Chemscore.DG>
-19.8580

> <Gold.Chemscore.ZeroCoef>
-5.4800

> <Gold.Chemscore.Hbond>
1.1129

> <Gold.Chemscore.Metal>
0.0000

> <Gold.Chemscore.Lipo>
121.1639

> <Gold.Chemscore.Internal_Hbond>
0.0000

> <Gold.Chemscore.DEClash>
0.4579

> <Gold.Chemscore.DEInternal>
0.6650

> <Gold.Chemscore.Rot>
1.3731

> <Gold.Chemscore.Internal.Correction>
   9.000000E+99

> <Gold.Chemscore.Hbonds>
donor molecule, donor type, donor heavy atom, donor atom, acceptor molecule, acceptor atom, score
      P1  H  7989  7998       L1     1  0.36
      P1  H  8011  8017       L1     1  0.73

> <Gold.Chemscore.Hbond.Weighted>
-3.7170

> <Gold.Chemscore.Metal.Weighted>
-0.0000

> <Gold.Chemscore.Lipo.Weighted>
-14.1762

> <Gold.Chemscore.Internal_Hbond.Weighted>
0.0000

> <Gold.Chemscore.DEClash.Weighted>
0.4579

> <Gold.Chemscore.DEInternal.Weighted>
0.6650

> <Gold.Chemscore.Rot.Weighted>
3.5152

> <Gold.Chemscore.Internal.Correction.Weighted>
   9.000000E+99

> <Gold.Protein.RotatedTorsions>
[ 6907 6896 6895 6894 ] final  100.15 input  -60.11 | X-H torsion
[ 7974 7965 7964 7962 ] final  -70.75 input  175.53 | X-H torsion
[ 8008 7997 7996 7995 ] final  -19.78 input   59.86 | X-H torsion
[ 10167 10162 10161 10158 ] final  -59.60 input  -65.29 | X-H torsion
[ 10718 10713 10712 10709 ] final  151.71 input   66.30 | X-H torsion
[ 10763 10752 10751 10750 ] final  -29.68 input  -60.55 | X-H torsion
[ 11005 11000 10999 10996 ] final -165.97 input  -57.11 | X-H torsion

> <Gold.Protein.ActiveResidues>
 VAL166  LYS551  ARG553  GLY616  TRP617  ASP618  TYR619  PRO620  LYS621  CYS622 
 ASP623  PHE694  ASN695  SER759  ASP760  ASP761  ALA762  ILE779  LEU786  VAL792 
 PHE793  MET794  SER795  GLU796  ALA797  LYS798  CYS799  TRP800  GLU811  SER814 

> <Gold.Protein.RotatedAtoms>
  152.5378  134.0321  159.8029 H   0  0  0  0  0  0  0  0  0  0  0  0  # atno 6907 bound_to 6896
  151.0490  133.5633  159.2651 H   0  0  0  0  0  0  0  0  0  0  0  0  # atno 6908 bound_to 6896
  151.2574  135.0650  159.9139 H   0  0  0  0  0  0  0  0  0  0  0  0  # atno 6909 bound_to 6896
  145.6869  140.9167  143.0802 H   0  0  0  0  0  0  0  0  0  0  0  0  # atno 7974 bound_to 7965
  154.4814  140.2079  155.9756 H   0  0  0  0  0  0  0  0  0  0  0  0  # atno 8008 bound_to 7997
  156.1170  140.3219  155.8123 H   0  0  0  0  0  0  0  0  0  0  0  0  # atno 8009 bound_to 7997
  155.4535  140.0519  157.2989 H   0  0  0  0  0  0  0  0  0  0  0  0  # atno 8010 bound_to 7997
  140.6125  143.2391  151.5676 H   0  0  0  0  0  0  0  0  0  0  0  0  # atno 10167 bound_to 10162
  157.2672  131.0810  151.1625 H   0  0  0  0  0  0  0  0  0  0  0  0  # atno 10718 bound_to 10713
  153.7686  135.6914  153.4911 H   0  0  0  0  0  0  0  0  0  0  0  0  # atno 10763 bound_to 10752
  153.1890  135.4478  155.0123 H   0  0  0  0  0  0  0  0  0  0  0  0  # atno 10764 bound_to 10752
  154.8126  135.3384  154.7197 H   0  0  0  0  0  0  0  0  0  0  0  0  # atno 10765 bound_to 10752
  140.5697  134.5250  157.5159 H   0  0  0  0  0  0  0  0  0  0  0  0  # atno 11005 bound_to 11000
  144.7008  139.8771  143.7444 LP  0  0  0  0  0  0  0  0  0  0  0  0  # atno 17320 bound_to 7965
  146.0915  139.3905  143.0402 LP  0  0  0  0  0  0  0  0  0  0  0  0  # atno 17321 bound_to 7965
  139.5372  144.2747  152.1276 LP  0  0  0  0  0  0  0  0  0  0  0  0  # atno 17342 bound_to 10162
  140.1950  144.4715  150.6460 LP  0  0  0  0  0  0  0  0  0  0  0  0  # atno 17343 bound_to 10162
  157.3111  130.6890  149.6216 LP  0  0  0  0  0  0  0  0  0  0  0  0  # atno 17370 bound_to 10713
  155.9663  130.4363  150.5129 LP  0  0  0  0  0  0  0  0  0  0  0  0  # atno 17371 bound_to 10713
  139.9367  134.7861  156.0783 LP  0  0  0  0  0  0  0  0  0  0  0  0  # atno 17394 bound_to 11000
  141.1063  133.6659  156.2873 LP  0  0  0  0  0  0  0  0  0  0  0  0  # atno 17395 bound_to 11000

$$$$
