AV-unprocessed.smi:917|AV-procd|sdf|4162|dock3
  -GOLD-   22720 2 63D 1   1.00000     0.00000
 Structure written by MMmdl.
 43 44  0  0  0  0  0  0  0  0  1 V2000
  152.3395  138.8208  154.3107 C   0  0  0  0  0  0  0  0  0  0  0  0
  151.3564  137.7518  154.6929 C   0  0  0  0  0  0  0  0  0  0  0  0
  151.7965  136.5872  155.1389 N   0  0  0  0  0  0  0  0  0  0  0  0
  150.6559  135.8243  155.4065 O   0  0  0  0  0  0  0  0  0  0  0  0
  149.5608  136.5675  155.1063 C   0  0  0  0  0  0  0  0  0  0  0  0
  148.2366  135.9200  155.3325 C   0  0  0  0  0  0  0  0  0  0  0  0
  149.9337  137.8001  154.6439 C   0  0  0  0  0  0  0  0  0  0  0  0
  149.0631  138.9453  154.1941 C   0  0  0  0  0  0  0  0  0  0  0  0
  149.5543  140.2436  154.8347 C   0  0  0  0  0  0  0  0  0  0  0  0
  149.6393  141.2695  154.1595 O   0  0  0  0  0  0  0  0  0  0  0  0
  149.8915  140.1807  156.1319 N   0  0  0  0  0  0  0  0  0  0  0  0
  150.4433  141.2841  156.9080 C   0  0  0  0  0  0  0  0  0  0  0  0
  151.8431  140.9416  157.4421 C   0  0  0  0  0  0  0  0  0  0  0  0
  151.9830  141.2229  158.9460 C   0  0  0  0  0  0  0  0  0  0  0  0
  152.3698  142.6795  159.2578 C   0  0  0  0  0  0  0  0  0  0  0  0
  151.9825  143.1243  160.6695 C   0  0  0  0  0  0  0  0  0  0  0  0
  152.0215  144.6539  160.6193 C   0  0  0  0  0  0  0  0  0  0  0  0
  151.7501  145.0383  159.1570 C   0  0  0  0  0  0  0  0  0  0  0  0
  151.6878  143.7241  158.3675 C   0  0  0  0  0  0  0  0  0  0  0  0
  152.0572  139.7818  154.7411 H   0  0  0  0  0  0  0  0  0  0  0  0
  152.3804  138.9415  153.2282 H   0  0  0  0  0  0  0  0  0  0  0  0
  153.3469  138.5873  154.6582 H   0  0  0  0  0  0  0  0  0  0  0  0
  147.4382  136.6610  155.3663 H   0  0  0  0  0  0  0  0  0  0  0  0
  148.2278  135.3755  156.2769 H   0  0  0  0  0  0  0  0  0  0  0  0
  148.0104  135.2152  154.5324 H   0  0  0  0  0  0  0  0  0  0  0  0
  149.0871  139.0632  153.1104 H   0  0  0  0  0  0  0  0  0  0  0  0
  148.0179  138.7737  154.4547 H   0  0  0  0  0  0  0  0  0  0  0  0
  149.7860  139.2963  156.6075 H   0  0  0  0  0  0  0  0  0  0  0  0
  150.4736  142.1934  156.3053 H   0  0  0  0  0  0  0  0  0  0  0  0
  149.7667  141.4853  157.7390 H   0  0  0  0  0  0  0  0  0  0  0  0
  152.0581  139.8901  157.2468 H   0  0  0  0  0  0  0  0  0  0  0  0
  152.5906  141.5161  156.8938 H   0  0  0  0  0  0  0  0  0  0  0  0
  151.0510  140.9707  159.4536 H   0  0  0  0  0  0  0  0  0  0  0  0
  152.7437  140.5607  159.3609 H   0  0  0  0  0  0  0  0  0  0  0  0
  153.4504  142.7910  159.1551 H   0  0  0  0  0  0  0  0  0  0  0  0
  150.9681  142.7943  160.8990 H   0  0  0  0  0  0  0  0  0  0  0  0
  152.6437  142.7160  161.4344 H   0  0  0  0  0  0  0  0  0  0  0  0
  151.2994  145.0995  161.3043 H   0  0  0  0  0  0  0  0  0  0  0  0
  153.0110  145.0075  160.9122 H   0  0  0  0  0  0  0  0  0  0  0  0
  150.8206  145.5994  159.0529 H   0  0  0  0  0  0  0  0  0  0  0  0
  152.5555  145.6720  158.7833 H   0  0  0  0  0  0  0  0  0  0  0  0
  152.1598  143.8092  157.3883 H   0  0  0  0  0  0  0  0  0  0  0  0
  150.6443  143.4498  158.2055 H   0  0  0  0  0  0  0  0  0  0  0  0
  1  2  1  0  0  0  0
  1 20  1  0  0  0  0
  1 21  1  0  0  0  0
  1 22  1  0  0  0  0
  2  7  1  0  0  0  0
  2  3  2  0  0  0  0
  3  4  1  0  0  0  0
  4  5  1  0  0  0  0
  5  6  1  0  0  0  0
  5  7  2  0  0  0  0
  6 23  1  0  0  0  0
  6 24  1  0  0  0  0
  6 25  1  0  0  0  0
  7  8  1  0  0  0  0
  8  9  1  0  0  0  0
  8 26  1  0  0  0  0
  8 27  1  0  0  0  0
  9 10  2  0  0  0  0
  9 11  1  0  0  0  0
 11 12  1  0  0  0  0
 11 28  1  0  0  0  0
 12 13  1  0  0  0  0
 12 29  1  0  0  0  0
 12 30  1  0  0  0  0
 13 14  1  0  0  0  0
 13 31  1  0  0  0  0
 13 32  1  0  0  0  0
 14 15  1  0  0  0  0
 14 33  1  0  0  0  0
 14 34  1  0  0  0  0
 15 19  1  0  0  0  0
 15 16  1  0  0  0  0
 15 35  1  0  0  0  0
 16 17  1  0  0  0  0
 16 36  1  0  0  0  0
 16 37  1  0  0  0  0
 17 18  1  0  0  0  0
 17 38  1  0  0  0  0
 17 39  1  0  0  0  0
 18 19  1  0  0  0  0
 18 40  1  0  0  0  0
 18 41  1  0  0  0  0
 19 42  1  0  0  0  0
 19 43  1  0  0  0  0
M  END
> <s_m_source_file>
AV-unprocessed.smi

> <i_m_source_file_index>
917

> <i_lp_mmshare_version>
43012

> <i_f3d_flags>
0

> <s_epik_input>
W0NIM11jMW5vYyhbQ0gzXSljMVtDSDJdQyg9TylbTkhdW0NIMl1bQ0gyXVtDSDJdW0NIXTJbQ0gyXVtDSDJdW0NIMl1bQ0gyXTI=

> <s_epik_cmdline>
J2VwaWtfcHl0aG9uJywgJy1waCcsICc3LjAnLCAnLXRuJywgJzgnLCAnLW1hJywgJzIwMCcsICctbWV0YWxfYmluZGluZycsICctaW1hZScsICc8aW5maWxlLm1hZT4nLCAnLW9tYWUnLCAnPG91dGZpbGUubWFlPic=

> <r_lp_tautomer_probability>
1

> <r_epik_Ionization_Penalty>
1.90047e-08

> <r_epik_Ionization_Penalty_Charging>
0

> <r_epik_Ionization_Penalty_Neutral>
1.90047e-08

> <r_epik_State_Penalty>
-0

> <r_epik_Charging_Adjusted_Penalty>
0

> <i_epik_Tot_Q>
0

> <i_epik_Tot_abs_Q>
0

> <r_epik_Metal_State_Penalty>
-0

> <b_epik_Metal_Only>
0

> <s_lp_Force_Field>
OPLS_2005

> <r_lp_Energy>
14.8475

> <b_lp_Chiralities_Consistent>
1

> <s_lp_Variant>
AV-unprocessed.smi:917-1

> <Gold.Version>
5.8.1

> <Gold.Id.Protein>
6NUR|6NUR_protein|mol2

> <Gold.PLP.Fitness>
44.1770

> <Gold.PLP.PLP>
-40.3604

> <Gold.PLP.part.hbond>
-3.0000

> <Gold.PLP.part.metal>
0.0000

> <Gold.PLP.part.buried>
-4.2780

> <Gold.PLP.part.nonpolar>
-32.4928

> <Gold.PLP.part.repulsive>
0.4208

> <Gold.PLP.ligand.clash>
0.0000

> <Gold.PLP.ligand.torsion>
1.0933

> <Gold.PLP.Chemscore.Hbond>
1.9802

> <Gold.PLP.Chemscore.CHOScore>
0.0000

> <Gold.PLP.Chemscore.Metal>
0.0000

> <Gold.Chemscore.Hbonds>
donor molecule, donor type, donor heavy atom, donor atom, acceptor molecule, acceptor atom, score
      P1  H  7989  7998       L1    10  0.24
      P1  H  8011  8017       L1    10  0.49
      P1  H 10752 10765       L1     3  1.00

> <Gold.PLP.Chemscore.Internal.Correction>
0.0626

> <Gold.Rescore>
     Score         DG    S(hbond)    S(metal)    S(lipo)     H(rot)  DE(clash)    DE(int)     intcor
     18.76     -20.37       1.80        0.00     111.97       1.65       0.47       1.13       ----

> <Gold.Chemscore.Fitness>
18.7599

> <Gold.Chemscore.DG>
-20.3666

> <Gold.Chemscore.ZeroCoef>
-5.4800

> <Gold.Chemscore.Hbond>
1.7992

> <Gold.Chemscore.Metal>
0.0000

> <Gold.Chemscore.Lipo>
111.9659

> <Gold.Chemscore.Internal_Hbond>
0.0000

> <Gold.Chemscore.DEClash>
0.4742

> <Gold.Chemscore.DEInternal>
1.1325

> <Gold.Chemscore.Rot>
1.6495

> <Gold.Chemscore.Internal.Correction>
   9.000000E+99

> <Gold.Chemscore.Hbonds>
donor molecule, donor type, donor heavy atom, donor atom, acceptor molecule, acceptor atom, score
      P1  H  7989  7998       L1    10  0.03
      P1  H  8011  8017       L1    10  0.49
      P1  H 10752 10765       L1     3  0.64

> <Gold.Chemscore.Hbond.Weighted>
-6.0094

> <Gold.Chemscore.Metal.Weighted>
-0.0000

> <Gold.Chemscore.Lipo.Weighted>
-13.1000

> <Gold.Chemscore.Internal_Hbond.Weighted>
0.0000

> <Gold.Chemscore.DEClash.Weighted>
0.4742

> <Gold.Chemscore.DEInternal.Weighted>
1.1325

> <Gold.Chemscore.Rot.Weighted>
4.2228

> <Gold.Chemscore.Internal.Correction.Weighted>
   9.000000E+99

> <Gold.Protein.RotatedTorsions>
[ 6907 6896 6895 6894 ] final   95.96 input  -60.11 | X-H torsion
[ 7974 7965 7964 7962 ] final   67.11 input  175.53 | X-H torsion
[ 8008 7997 7996 7995 ] final   35.28 input   59.86 | X-H torsion
[ 10167 10162 10161 10158 ] final   41.58 input  -65.29 | X-H torsion
[ 10718 10713 10712 10709 ] final -135.55 input   66.30 | X-H torsion
[ 10763 10752 10751 10750 ] final -173.23 input  -60.55 | X-H torsion
[ 11005 11000 10999 10996 ] final  -19.66 input  -57.11 | X-H torsion

> <Gold.Protein.ActiveResidues>
 VAL166  LYS551  ARG553  GLY616  TRP617  ASP618  TYR619  PRO620  LYS621  CYS622 
 ASP623  PHE694  ASN695  SER759  ASP760  ASP761  ALA762  ILE779  LEU786  VAL792 
 PHE793  MET794  SER795  GLU796  ALA797  LYS798  CYS799  TRP800  GLU811  SER814 

> <Gold.Protein.RotatedAtoms>
  152.5439  134.0960  159.8296 H   0  0  0  0  0  0  0  0  0  0  0  0  # atno 6907 bound_to 6896
  151.1043  133.5212  159.2616 H   0  0  0  0  0  0  0  0  0  0  0  0  # atno 6908 bound_to 6896
  151.1955  135.0430  159.8905 H   0  0  0  0  0  0  0  0  0  0  0  0  # atno 6909 bound_to 6896
  145.8185  139.3071  143.1057 H   0  0  0  0  0  0  0  0  0  0  0  0  # atno 7974 bound_to 7965
  155.1686  140.3289  155.4397 H   0  0  0  0  0  0  0  0  0  0  0  0  # atno 8008 bound_to 7997
  156.2518  140.1947  156.6740 H   0  0  0  0  0  0  0  0  0  0  0  0  # atno 8009 bound_to 7997
  154.6354  140.0577  156.9768 H   0  0  0  0  0  0  0  0  0  0  0  0  # atno 8010 bound_to 7997
  140.3629  144.2205  150.6137 H   0  0  0  0  0  0  0  0  0  0  0  0  # atno 10167 bound_to 10162
  156.2674  130.7245  151.1200 H   0  0  0  0  0  0  0  0  0  0  0  0  # atno 10718 bound_to 10713
  154.6103  135.2864  155.0439 H   0  0  0  0  0  0  0  0  0  0  0  0  # atno 10763 bound_to 10752
  154.1672  135.6478  153.5004 H   0  0  0  0  0  0  0  0  0  0  0  0  # atno 10764 bound_to 10752
  153.0192  135.5392  154.6854 H   0  0  0  0  0  0  0  0  0  0  0  0  # atno 10765 bound_to 10752
  140.8388  133.7942  155.9838 H   0  0  0  0  0  0  0  0  0  0  0  0  # atno 11005 bound_to 11000
  145.9700  140.8767  143.0167 LP  0  0  0  0  0  0  0  0  0  0  0  0  # atno 17320 bound_to 7965
  144.6750  140.1933  143.7394 LP  0  0  0  0  0  0  0  0  0  0  0  0  # atno 17321 bound_to 7965
  140.5109  143.2291  151.8537 LP  0  0  0  0  0  0  0  0  0  0  0  0  # atno 17342 bound_to 10162
  139.4812  144.4951  151.9135 LP  0  0  0  0  0  0  0  0  0  0  0  0  # atno 17343 bound_to 10162
  157.7272  131.0641  150.5876 LP  0  0  0  0  0  0  0  0  0  0  0  0  # atno 17370 bound_to 10713
  156.5969  130.4344  149.5913 LP  0  0  0  0  0  0  0  0  0  0  0  0  # atno 17371 bound_to 10713
  140.8918  134.2486  157.5090 LP  0  0  0  0  0  0  0  0  0  0  0  0  # atno 17394 bound_to 11000
  139.8703  134.9665  156.4564 LP  0  0  0  0  0  0  0  0  0  0  0  0  # atno 17395 bound_to 11000

$$$$
