AV-unprocessed.smi:3256|AV-procd|sdf|12465|dock10
  -GOLD-   2272018363D 1   1.00000     0.00000
 Structure written by MMmdl.
 36 37  0  0  0  0  0  0  0  0  1 V2000
  144.7110  137.2172  152.0185 O   0  0  0  0  0  0  0  0  0  0  0  0
  145.8564  136.7848  151.8976 C   0  0  0  0  0  0  0  0  0  0  0  0
  146.9517  137.4966  152.1997 N   0  0  0  0  0  0  0  0  0  0  0  0
  146.9602  138.8688  152.6964 C   0  0  0  0  0  0  0  0  0  0  0  0
  146.8104  138.9185  154.2295 C   0  0  0  0  0  0  0  0  0  0  0  0
  148.0327  139.2164  154.9762 N   0  0  0  0  0  0  0  0  0  0  0  0
  148.4993  140.5707  154.7014 C   0  0  0  0  0  0  0  0  0  0  0  0
  149.7810  140.9061  155.4834 C   0  0  0  0  0  0  0  0  0  0  0  0
  150.7915  139.9526  155.1729 O   0  0  0  0  0  0  0  0  0  0  0  0
  150.3943  138.6170  155.4657 C   0  0  0  0  0  0  0  0  0  0  0  0
  149.1129  138.2758  154.6856 C   0  0  0  0  0  0  0  0  0  0  0  0
  146.1888  135.5633  151.4451 N   0  0  0  0  0  0  0  0  0  0  0  0
  145.3500  134.4920  151.0299 C   0  0  0  0  0  0  0  0  0  0  0  0
  145.7741  133.3784  150.2636 C   0  0  0  0  0  0  0  0  0  0  0  0
  144.8293  132.3941  149.9140 C   0  0  0  0  0  0  0  0  0  0  0  0
  143.4964  132.5590  150.3367 C   0  0  0  0  0  0  0  0  0  0  0  0
  143.0765  133.6166  151.0616 N   0  0  0  0  0  0  0  0  0  0  0  0
  143.9878  134.5554  151.3938 C   0  0  0  0  0  0  0  0  0  0  0  0
  147.8517  137.0602  152.0641 H   0  0  0  0  0  0  0  0  0  0  0  0
  147.8394  139.4143  152.3530 H   0  0  0  0  0  0  0  0  0  0  0  0
  146.1072  139.3764  152.2455 H   0  0  0  0  0  0  0  0  0  0  0  0
  146.0434  139.6500  154.4879 H   0  0  0  0  0  0  0  0  0  0  0  0
  146.4183  137.9542  154.5558 H   0  0  0  0  0  0  0  0  0  0  0  0
  148.6875  140.6880  153.6331 H   0  0  0  0  0  0  0  0  0  0  0  0
  147.7218  141.2897  154.9621 H   0  0  0  0  0  0  0  0  0  0  0  0
  150.1367  141.9021  155.2195 H   0  0  0  0  0  0  0  0  0  0  0  0
  149.5894  140.9069  156.5577 H   0  0  0  0  0  0  0  0  0  0  0  0
  151.1996  137.9368  155.1882 H   0  0  0  0  0  0  0  0  0  0  0  0
  150.2339  138.5043  156.5390 H   0  0  0  0  0  0  0  0  0  0  0  0
  148.8129  137.2598  154.9394 H   0  0  0  0  0  0  0  0  0  0  0  0
  149.3298  138.2798  153.6163 H   0  0  0  0  0  0  0  0  0  0  0  0
  147.1787  135.3819  151.3671 H   0  0  0  0  0  0  0  0  0  0  0  0
  146.7910  133.2558  149.9279 H   0  0  0  0  0  0  0  0  0  0  0  0
  145.1202  131.5327  149.3311 H   0  0  0  0  0  0  0  0  0  0  0  0
  142.7471  131.8239  150.0832 H   0  0  0  0  0  0  0  0  0  0  0  0
  143.6143  135.3878  151.9725 H   0  0  0  0  0  0  0  0  0  0  0  0
  1  2  2  0  0  0  0
  2  3  1  0  0  0  0
  2 12  1  0  0  0  0
  3  4  1  0  0  0  0
  3 19  1  0  0  0  0
  4  5  1  0  0  0  0
  4 20  1  0  0  0  0
  4 21  1  0  0  0  0
  5  6  1  0  0  0  0
  5 22  1  0  0  0  0
  5 23  1  0  0  0  0
  6 11  1  0  0  0  0
  6  7  1  0  0  0  0
  7  8  1  0  0  0  0
  7 24  1  0  0  0  0
  7 25  1  0  0  0  0
  8  9  1  0  0  0  0
  8 26  1  0  0  0  0
  8 27  1  0  0  0  0
  9 10  1  0  0  0  0
 10 11  1  0  0  0  0
 10 28  1  0  0  0  0
 10 29  1  0  0  0  0
 11 30  1  0  0  0  0
 11 31  1  0  0  0  0
 12 13  1  0  0  0  0
 12 32  1  0  0  0  0
 13 18  1  0  0  0  0
 13 14  2  0  0  0  0
 14 15  1  0  0  0  0
 14 33  1  0  0  0  0
 15 16  2  0  0  0  0
 15 34  1  0  0  0  0
 16 17  1  0  0  0  0
 16 35  1  0  0  0  0
 17 18  2  0  0  0  0
 18 36  1  0  0  0  0
M  END
> <s_m_source_file>
AV-unprocessed.smi

> <i_m_source_file_index>
3256

> <i_lp_mmshare_version>
43012

> <i_f3d_flags>
0

> <s_epik_input>
W2NIXTFuW2NIXVtjSF1bY0hdYzFbTkhdQyg9TylbTkhdW0NIMl1bQ0gyXU4yW0NIMl1bQ0gyXU9bQ0gyXVtDSDJdMg==

> <s_epik_cmdline>
J2VwaWtfcHl0aG9uJywgJy1waCcsICc3LjAnLCAnLXRuJywgJzgnLCAnLW1hJywgJzIwMCcsICctbWV0YWxfYmluZGluZycsICctaW1hZScsICc8aW5maWxlLm1hZT4nLCAnLW9tYWUnLCAnPG91dGZpbGUubWFlPic=

> <r_epik_Ionization_Penalty>
0.270703

> <r_epik_Ionization_Penalty_Charging>
0

> <r_epik_Ionization_Penalty_Neutral>
0.270703

> <r_epik_State_Penalty>
0.268226

> <r_epik_Charging_Adjusted_Penalty>
0.268226

> <i_epik_Tot_Q>
0

> <i_epik_Tot_abs_Q>
0

> <r_epik_Metal_State_Penalty>
0.26483

> <b_epik_Metal_Only>
0

> <s_lp_Force_Field>
OPLS_2005

> <r_lp_Energy>
28.1533

> <b_lp_Chiralities_Consistent>
1

> <s_lp_Variant>
AV-unprocessed.smi:3256-1

> <Gold.Version>
5.8.1

> <Gold.Id.Protein>
6NUR|6NUR_protein|mol2

> <Gold.PLP.Fitness>
41.5124

> <Gold.PLP.PLP>
-31.2141

> <Gold.PLP.part.hbond>
-2.9437

> <Gold.PLP.part.metal>
0.0000

> <Gold.PLP.part.buried>
-6.2269

> <Gold.PLP.part.nonpolar>
-24.7361

> <Gold.PLP.part.repulsive>
2.4720

> <Gold.PLP.ligand.clash>
0.0000

> <Gold.PLP.ligand.torsion>
0.5666

> <Gold.PLP.Chemscore.Hbond>
2.8723

> <Gold.PLP.Chemscore.CHOScore>
0.9357

> <Gold.PLP.Chemscore.Metal>
0.0000

> <Gold.Chemscore.Hbonds>
donor molecule, donor type, donor heavy atom, donor atom, acceptor molecule, acceptor atom, score
      L1  H     3    19       P1  7948  0.62
      L1  H    12    32       P1  7948  0.83
      P1  H  7989  7998       L1     9  0.86
      L1  C    16    35       P1 10952  1.00

> <Gold.PLP.Chemscore.Internal.Correction>
0.0075

> <Gold.Rescore>
     Score         DG    S(hbond)    S(metal)    S(lipo)     H(rot)  DE(clash)    DE(int)     intcor
     17.73     -19.95       2.90        0.00      73.56       1.49       0.31       1.90       ----

> <Gold.Chemscore.Fitness>
17.7300

> <Gold.Chemscore.DG>
-19.9464

> <Gold.Chemscore.ZeroCoef>
-5.4800

> <Gold.Chemscore.Hbond>
2.9002

> <Gold.Chemscore.Metal>
0.0000

> <Gold.Chemscore.Lipo>
73.5607

> <Gold.Chemscore.Internal_Hbond>
0.0000

> <Gold.Chemscore.DEClash>
0.3144

> <Gold.Chemscore.DEInternal>
1.9019

> <Gold.Chemscore.Rot>
1.4949

> <Gold.Chemscore.Internal.Correction>
   9.000000E+99

> <Gold.Chemscore.Hbonds>
donor molecule, donor type, donor heavy atom, donor atom, acceptor molecule, acceptor atom, score
      L1  H     3    19       P1  7948  0.60
      L1  H    12    32       P1  7948  0.72
      P1  H  7989  7998       L1     9  0.21

> <Gold.Chemscore.Hbond.Weighted>
-9.6866

> <Gold.Chemscore.Metal.Weighted>
-0.0000

> <Gold.Chemscore.Lipo.Weighted>
-8.6066

> <Gold.Chemscore.Internal_Hbond.Weighted>
0.0000

> <Gold.Chemscore.DEClash.Weighted>
0.3144

> <Gold.Chemscore.DEInternal.Weighted>
1.9019

> <Gold.Chemscore.Rot.Weighted>
3.8269

> <Gold.Chemscore.Internal.Correction.Weighted>
   9.000000E+99

> <Gold.Protein.RotatedTorsions>
[ 6907 6896 6895 6894 ] final -114.59 input  -60.11 | X-H torsion
[ 7974 7965 7964 7962 ] final  -33.70 input  175.53 | X-H torsion
[ 8008 7997 7996 7995 ] final   89.72 input   59.86 | X-H torsion
[ 10167 10162 10161 10158 ] final  163.31 input  -65.29 | X-H torsion
[ 10718 10713 10712 10709 ] final  -96.40 input   66.30 | X-H torsion
[ 10763 10752 10751 10750 ] final    6.58 input  -60.55 | X-H torsion
[ 11005 11000 10999 10996 ] final -153.37 input  -57.11 | X-H torsion

> <Gold.Protein.ActiveResidues>
 VAL166  LYS551  ARG553  GLY616  TRP617  ASP618  TYR619  PRO620  LYS621  CYS622 
 ASP623  PHE694  ASN695  SER759  ASP760  ASP761  ALA762  ILE779  LEU786  VAL792 
 PHE793  MET794  SER795  GLU796  ALA797  LYS798  CYS799  TRP800  GLU811  SER814 

> <Gold.Protein.RotatedAtoms>
  150.7914  133.8779  159.3277 H   0  0  0  0  0  0  0  0  0  0  0  0  # atno 6907 bound_to 6896
  151.6616  135.0986  160.0190 H   0  0  0  0  0  0  0  0  0  0  0  0  # atno 6908 bound_to 6896
  152.3988  133.6748  159.6334 H   0  0  0  0  0  0  0  0  0  0  0  0  # atno 6909 bound_to 6896
  146.0889  140.5949  142.8873 H   0  0  0  0  0  0  0  0  0  0  0  0  # atno 7974 bound_to 7965
  156.0033  140.3357  155.6868 H   0  0  0  0  0  0  0  0  0  0  0  0  # atno 8008 bound_to 7997
  155.6259  140.0680  157.2681 H   0  0  0  0  0  0  0  0  0  0  0  0  # atno 8009 bound_to 7997
  154.4256  140.1768  156.1409 H   0  0  0  0  0  0  0  0  0  0  0  0  # atno 8010 bound_to 7997
  139.4872  144.4350  151.9023 H   0  0  0  0  0  0  0  0  0  0  0  0  # atno 10167 bound_to 10162
  156.0061  130.5150  150.6221 H   0  0  0  0  0  0  0  0  0  0  0  0  # atno 10718 bound_to 10713
  153.2461  135.6908  153.7730 H   0  0  0  0  0  0  0  0  0  0  0  0  # atno 10763 bound_to 10752
  153.6842  135.3323  155.3187 H   0  0  0  0  0  0  0  0  0  0  0  0  # atno 10764 bound_to 10752
  154.8375  135.4530  154.1400 H   0  0  0  0  0  0  0  0  0  0  0  0  # atno 10765 bound_to 10752
  140.7089  134.3855  157.5200 H   0  0  0  0  0  0  0  0  0  0  0  0  # atno 11005 bound_to 11000
  144.7346  140.4770  143.6913 LP  0  0  0  0  0  0  0  0  0  0  0  0  # atno 17320 bound_to 7965
  145.6077  139.1510  143.3093 LP  0  0  0  0  0  0  0  0  0  0  0  0  # atno 17321 bound_to 7965
  140.3799  144.2749  150.5910 LP  0  0  0  0  0  0  0  0  0  0  0  0  # atno 17342 bound_to 10162
  140.5243  143.2258  151.8340 LP  0  0  0  0  0  0  0  0  0  0  0  0  # atno 17343 bound_to 10162
  157.4034  131.0813  151.1287 LP  0  0  0  0  0  0  0  0  0  0  0  0  # atno 17370 bound_to 10713
  157.1941  130.6365  149.5715 LP  0  0  0  0  0  0  0  0  0  0  0  0  # atno 17371 bound_to 10713
  139.8877  134.8876  156.2515 LP  0  0  0  0  0  0  0  0  0  0  0  0  # atno 17394 bound_to 11000
  141.0101  133.7100  156.1098 LP  0  0  0  0  0  0  0  0  0  0  0  0  # atno 17395 bound_to 11000

$$$$
