#       Name:                AV-unprocessed.smi:1986
#       Creating user name   scv26
#       Creation time:       Fri Mar 27 10:24:35 2020


#       File generated by GOLD software.
#

@<TRIPOS>MOLECULE
AV-unprocessed.smi:1986
    56    57     1
SMALL
NO_CHARGES


@<TRIPOS>ATOM
      1 ****        -1.8932  -2.2506   1.3912 C.3            1 S1                 0.0000
      2 ****        -1.6177  -0.8006   0.9553 C.3            1 S1                 0.0000
      3 ****        -0.9880  -0.6343  -0.4663 C.3            1 S1                 0.0000
      4 ****        -0.8117   0.8904  -0.6959 C.3            1 S1                 0.0000
      5 ****         0.4320  -1.2973  -0.4621 C.3            1 S1                 0.0000
      6 ****         1.2781  -0.9244   0.6720 N.am           1 S1                 0.0000
      7 ****         2.2449   0.0060   0.6636 C.2            1 S1                 0.0000
      8 ****         2.5646   0.6408  -0.3425 O.2            1 S1                 0.0000
      9 ****         2.9583   0.2460   2.0022 C.3            1 S1                 0.0000
     10 ****         3.3077   1.6559   2.2290 N.am           1 S1                 0.0000
     11 ****         4.7387   1.9335   2.1408 N.pl3          1 S1                -1.0000
     12 ****         5.1761   3.2117   2.2929 C.2            1 S1                 0.0000
     13 ****         6.3609   3.5257   2.2059 O.2            1 S1                 0.0000
     14 ****         4.1913   4.2427   2.5763 C.2            1 S1                 0.0000
     15 ****         2.8802   3.9518   2.6877 C.2            1 S1                 0.0000
     16 ****         2.3657   2.5977   2.5238 C.2            1 S1                 0.0000
     17 ****         1.1704   2.3229   2.6365 O.2            1 S1                 0.0000
     18 ****        -1.8481  -1.2617  -1.5156 N.3            1 S1                 0.0000
     19 ****        -1.3055  -1.2089  -2.8801 C.3            1 S1                 0.0000
     20 ****        -2.1773  -1.9805  -3.8858 C.3            1 S1                 0.0000
     21 ****        -3.5064  -1.4768  -3.8584 O.3            1 S1                 0.0000
     22 ****        -4.0920  -1.5729  -2.5667 C.3            1 S1                 0.0000
     23 ****        -3.2401  -0.7913  -1.5527 C.3            1 S1                 0.0000
     24 ****        -2.3546  -2.2699   2.3784 H              1 S1                 0.0000
     25 ****        -0.9768  -2.8371   1.4509 H              1 S1                 0.0000
     26 ****        -2.5718  -2.7560   0.7043 H              1 S1                 0.0000
     27 ****        -2.5435  -0.2312   1.0302 H              1 S1                 0.0000
     28 ****        -0.9814  -0.3361   1.7090 H              1 S1                 0.0000
     29 ****        -0.2409   1.3545   0.1083 H              1 S1                 0.0000
     30 ****        -1.7644   1.4175  -0.7292 H              1 S1                 0.0000
     31 ****        -0.2802   1.1068  -1.6224 H              1 S1                 0.0000
     32 ****         0.3343  -2.3832  -0.4459 H              1 S1                 0.0000
     33 ****         0.9738  -1.0693  -1.3799 H              1 S1                 0.0000
     34 ****         1.0927  -1.3954   1.5455 H              1 S1                 0.0000
     35 ****         2.3313  -0.1036   2.8248 H              1 S1                 0.0000
     36 ****         3.8503  -0.3827   2.0242 H              1 S1                 0.0000
     37 ****         4.5187   5.2640   2.7034 H              1 S1                 0.0000
     38 ****         2.1843   4.7492   2.9011 H              1 S1                 0.0000
     39 ****        -1.2190  -0.1738  -3.2114 H              1 S1                 0.0000
     40 ****        -0.3084  -1.6409  -2.9251 H              1 S1                 0.0000
     41 ****        -1.7770  -1.8719  -4.8939 H              1 S1                 0.0000
     42 ****        -2.1790  -3.0472  -3.6557 H              1 S1                 0.0000
     43 ****        -5.1030  -1.1669  -2.6038 H              1 S1                 0.0000
     44 ****        -4.1781  -2.6203  -2.2734 H              1 S1                 0.0000
     45 ****        -3.7178  -0.8982  -0.5814 H              1 S1                 0.0000
     46 ****        -3.2765   0.2669  -1.8106 H              1 S1                 0.0000
     47 ****         2.0953   0.4732  -1.2095 LP             1 S1                 0.0000
     48 ****         3.2933   1.3237  -0.2922 LP             1 S1                 0.0000
     49 ****         5.3886   1.1928   1.9707 LP             1 S1                 0.0000
     50 ****         7.0506   2.8271   2.0156 LP             1 S1                 0.0000
     51 ****         6.6353   4.4798   2.3255 LP             1 S1                 0.0000
     52 ****         0.8599   1.3806   2.5109 LP             1 S1                 0.0000
     53 ****         0.5103   3.0420   2.8536 LP             1 S1                 0.0000
     54 ****        -1.8452  -2.2128  -1.2067 LP             1 S1                 0.0000
     55 ****        -4.0625  -2.0008  -4.5036 LP             1 S1                 0.0000
     56 ****        -3.4921  -0.5158  -4.1345 LP             1 S1                 0.0000
@<TRIPOS>BOND
    1    1    2 1     
    2    1   24 1     
    3    1   25 1     
    4    1   26 1     
    5    2    3 1     
    6    2   27 1     
    7    2   28 1     
    8    3    4 1     
    9    3    5 1     
   10    3   18 1     
   11    4   29 1     
   12    4   30 1     
   13    4   31 1     
   14    5    6 1     
   15    5   32 1     
   16    5   33 1     
   17    6    7 am    
   18    6   34 1     
   19    7    8 2     
   20    7    9 1     
   21    9   35 1     
   22    9   36 1     
   23    9   10 1     
   24   10   11 1     
   25   10   16 am    
   26   11   12 1     
   27   12   13 2     
   28   12   14 1     
   29   14   37 1     
   30   14   15 2     
   31   15   38 1     
   32   15   16 1     
   33   16   17 2     
   34   18   23 1     
   35   18   19 1     
   36   19   20 1     
   37   19   39 1     
   38   19   40 1     
   39   20   21 1     
   40   20   41 1     
   41   20   42 1     
   42   21   22 1     
   43   22   23 1     
   44   22   43 1     
   45   22   44 1     
   46   23   45 1     
   47   23   46 1     
   48    8   47 1     
   49    8   48 1     
   50   11   49 1     
   51   13   50 1     
   52   13   51 1     
   53   17   52 1     
   54   17   53 1     
   55   18   54 1     
   56   21   55 1     
   57   21   56 1     
@<TRIPOS>SUBSTRUCTURE
      1 S1             1
@<TRIPOS>SET
LONE_PAIRS      STATIC     ATOMS    <user>   **** ""
10 47 48 49 50 51 52 53 54 55 56
DONOR_HYDROGENS      STATIC     ATOMS    <user>   **** ""
1 34
ATOM$BLUE        STATIC     ATOMS    COLORGROUP SYSTEM
10 47 48 49 50 51 52 53 54 55 56
ATOM$RED        STATIC     ATOMS    COLORGROUP SYSTEM
1 34
