AV-unprocessed.smi:3245|AV-procd|sdf|12404|dock5
  -GOLD-   2272018283D 1   1.00000     0.00000
 Structure written by MMmdl.
 35 36  0  0  0  0  0  0  0  0  1 V2000
  151.5648  144.9666  158.5752 C   0  0  0  0  0  0  0  0  0  0  0  0
  151.3089  143.4727  158.3138 C   0  0  2  0  0  0  0  0  0  0  0  0
  152.4752  142.5720  158.7846 C   0  0  0  0  0  0  0  0  0  0  0  0
  152.6882  142.6294  160.2190 N   0  0  0  0  0  0  0  0  0  0  0  0
  153.4775  141.8139  161.0028 C   0  0  0  0  0  0  0  0  0  0  0  0
  153.3573  142.2498  162.2913 C   0  0  0  0  0  0  0  0  0  0  0  0
  152.4578  143.3481  162.1939 C   0  0  0  0  0  0  0  0  0  0  0  0
  152.0582  143.5721  160.9525 N   0  0  0  0  0  0  0  0  0  0  0  0
  151.1032  143.3076  156.8808 N   0  0  0  0  0  0  0  0  0  0  0  0
  150.8766  141.9153  156.5181 C   0  0  0  0  0  0  0  0  0  0  0  0
  149.3689  141.6062  156.5205 C   0  0  0  0  0  0  0  0  0  0  0  0
  148.8482  141.4119  155.1621 N   0  0  0  0  0  0  0  0  0  0  0  0
  147.6340  141.8041  154.7528 C   0  0  0  0  0  0  0  0  0  0  0  0
  146.7604  142.3596  155.4180 O   0  0  0  0  0  0  0  0  0  0  0  0
  147.4867  141.4567  153.2874 C   0  0  0  0  0  0  0  0  0  0  0  0
  148.7816  140.8535  153.0576 N   0  0  0  0  0  0  0  0  0  0  0  0
  149.5434  140.8449  154.1590 C   0  0  0  0  0  0  0  0  0  0  0  0
  150.6863  140.3945  154.2255 O   0  0  0  0  0  0  0  0  0  0  0  0
  151.6583  145.1746  159.6413 H   0  0  0  0  0  0  0  0  0  0  0  0
  150.7428  145.5782  158.2014 H   0  0  0  0  0  0  0  0  0  0  0  0
  152.4806  145.3051  158.0888 H   0  0  0  0  0  0  0  0  0  0  0  0
  150.3939  143.1959  158.8399 H   0  0  0  0  0  0  0  0  0  0  0  0
  152.3037  141.5297  158.5152 H   0  0  0  0  0  0  0  0  0  0  0  0
  153.4018  142.8686  158.2908 H   0  0  0  0  0  0  0  0  0  0  0  0
  154.0543  141.0031  160.5824 H   0  0  0  0  0  0  0  0  0  0  0  0
  153.8377  141.8449  163.1696 H   0  0  0  0  0  0  0  0  0  0  0  0
  152.0856  143.9849  162.9830 H   0  0  0  0  0  0  0  0  0  0  0  0
  150.3061  143.8540  156.5869 H   0  0  0  0  0  0  0  0  0  0  0  0
  151.3040  141.6845  155.5428 H   0  0  0  0  0  0  0  0  0  0  0  0
  151.3823  141.2789  157.2454 H   0  0  0  0  0  0  0  0  0  0  0  0
  149.1921  140.6966  157.0966 H   0  0  0  0  0  0  0  0  0  0  0  0
  148.8193  142.3911  157.0432 H   0  0  0  0  0  0  0  0  0  0  0  0
  146.6761  140.7471  153.1199 H   0  0  0  0  0  0  0  0  0  0  0  0
  147.3430  142.3474  152.6751 H   0  0  0  0  0  0  0  0  0  0  0  0
  149.0679  140.4891  152.1605 H   0  0  0  0  0  0  0  0  0  0  0  0
  1  2  1  0  0  0  0
  1 19  1  0  0  0  0
  1 20  1  0  0  0  0
  1 21  1  0  0  0  0
  2  3  1  0  0  0  0
  2  9  1  0  0  0  0
  2 22  1  0  0  0  0
  3  4  1  0  0  0  0
  3 23  1  0  0  0  0
  3 24  1  0  0  0  0
  4  8  1  0  0  0  0
  4  5  1  0  0  0  0
  5  6  2  0  0  0  0
  5 25  1  0  0  0  0
  6  7  1  0  0  0  0
  6 26  1  0  0  0  0
  7  8  2  0  0  0  0
  7 27  1  0  0  0  0
  9 10  1  0  0  0  0
  9 28  1  0  0  0  0
 10 11  1  0  0  0  0
 10 29  1  0  0  0  0
 10 30  1  0  0  0  0
 11 12  1  0  0  0  0
 11 31  1  0  0  0  0
 11 32  1  0  0  0  0
 12 17  1  0  0  0  0
 12 13  1  0  0  0  0
 13 14  2  0  0  0  0
 13 15  1  0  0  0  0
 15 16  1  0  0  0  0
 15 33  1  0  0  0  0
 15 34  1  0  0  0  0
 16 17  1  0  0  0  0
 16 35  1  0  0  0  0
 17 18  2  0  0  0  0
M  END
> <s_m_source_file>
AV-unprocessed.smi

> <i_m_source_file_index>
3245

> <i_lp_mmshare_version>
43012

> <i_f3d_flags>
0

> <s_epik_input>
bjFbY0hdW2NIXVtjSF1uMVtDSDJdW0NAQEhdKFtDSDNdKVtOSF1bQ0gyXVtDSDJdTjJDKD1PKVtDSDJdW05IXUMyPU8=

> <s_epik_cmdline>
J2VwaWtfcHl0aG9uJywgJy1waCcsICc3LjAnLCAnLXRuJywgJzgnLCAnLW1hJywgJzIwMCcsICctbWV0YWxfYmluZGluZycsICctaW1hZScsICc8aW5maWxlLm1hZT4nLCAnLW9tYWUnLCAnPG91dGZpbGUubWFlPic=

> <r_lp_tautomer_probability>
1

> <r_epik_Ionization_Penalty>
2.14948

> <r_epik_Ionization_Penalty_Charging>
0

> <r_epik_Ionization_Penalty_Neutral>
2.14948

> <r_epik_State_Penalty>
2.28912

> <r_epik_Charging_Adjusted_Penalty>
2.28912

> <i_epik_Tot_Q>
0

> <i_epik_Tot_abs_Q>
0

> <r_epik_Metal_State_Penalty>
2.36471

> <b_epik_Metal_Only>
0

> <s_lp_Force_Field>
OPLS_2005

> <r_lp_Energy>
24.3933

> <b_lp_Chiralities_Consistent>
1

> <s_lp_Variant>
AV-unprocessed.smi:3245-3

> <Gold.Version>
5.8.1

> <Gold.Id.Protein>
6NUR|6NUR_protein|mol2

> <Gold.PLP.Fitness>
52.8571

> <Gold.PLP.PLP>
-45.8104

> <Gold.PLP.part.hbond>
-3.0000

> <Gold.PLP.part.metal>
0.0000

> <Gold.PLP.part.buried>
-8.0790

> <Gold.PLP.part.nonpolar>
-36.4298

> <Gold.PLP.part.repulsive>
0.5244

> <Gold.PLP.ligand.clash>
0.0000

> <Gold.PLP.ligand.torsion>
1.0243

> <Gold.PLP.Chemscore.Hbond>
3.0000

> <Gold.PLP.Chemscore.CHOScore>
0.0000

> <Gold.PLP.Chemscore.Metal>
0.0000

> <Gold.Chemscore.Hbonds>
donor molecule, donor type, donor heavy atom, donor atom, acceptor molecule, acceptor atom, score
      L1  H     9    28       P1  8028  1.00
      L1  H    16    35       P1  7957  0.21
      P1  H  7989  7998       L1    18  0.37

> <Gold.PLP.Chemscore.Internal.Correction>
0.0952

> <Gold.Rescore>
     Score         DG    S(hbond)    S(metal)    S(lipo)     H(rot)  DE(clash)    DE(int)     intcor
     15.92     -18.42       2.87        0.00      86.75       2.66       0.01       2.49       ----

> <Gold.Chemscore.Fitness>
15.9218

> <Gold.Chemscore.DG>
-18.4198

> <Gold.Chemscore.ZeroCoef>
-5.4800

> <Gold.Chemscore.Hbond>
2.8748

> <Gold.Chemscore.Metal>
0.0000

> <Gold.Chemscore.Lipo>
86.7495

> <Gold.Chemscore.Internal_Hbond>
0.0000

> <Gold.Chemscore.DEClash>
0.0089

> <Gold.Chemscore.DEInternal>
2.4891

> <Gold.Chemscore.Rot>
2.6609

> <Gold.Chemscore.Internal.Correction>
   9.000000E+99

> <Gold.Chemscore.Hbonds>
donor molecule, donor type, donor heavy atom, donor atom, acceptor molecule, acceptor atom, score
      L1  H     9    28       P1  8028  1.00
      L1  H    16    35       P1  7957  0.21
      P1  H  7989  7998       L1    18  0.36

> <Gold.Chemscore.Hbond.Weighted>
-9.6019

> <Gold.Chemscore.Metal.Weighted>
-0.0000

> <Gold.Chemscore.Lipo.Weighted>
-10.1497

> <Gold.Chemscore.Internal_Hbond.Weighted>
0.0000

> <Gold.Chemscore.DEClash.Weighted>
0.0089

> <Gold.Chemscore.DEInternal.Weighted>
2.4891

> <Gold.Chemscore.Rot.Weighted>
6.8118

> <Gold.Chemscore.Internal.Correction.Weighted>
   9.000000E+99

> <Gold.Protein.RotatedTorsions>
[ 6907 6896 6895 6894 ] final  154.53 input  -60.11 | X-H torsion
[ 7974 7965 7964 7962 ] final   45.60 input  175.53 | X-H torsion
[ 8008 7997 7996 7995 ] final   76.09 input   59.86 | X-H torsion
[ 10167 10162 10161 10158 ] final  -41.29 input  -65.29 | X-H torsion
[ 10718 10713 10712 10709 ] final  -14.16 input   66.30 | X-H torsion
[ 10763 10752 10751 10750 ] final  -76.30 input  -60.55 | X-H torsion
[ 11005 11000 10999 10996 ] final -162.17 input  -57.11 | X-H torsion

> <Gold.Protein.ActiveResidues>
 VAL166  LYS551  ARG553  GLY616  TRP617  ASP618  TYR619  PRO620  LYS621  CYS622 
 ASP623  PHE694  ASN695  SER759  ASP760  ASP761  ALA762  ILE779  LEU786  VAL792 
 PHE793  MET794  SER795  GLU796  ALA797  LYS798  CYS799  TRP800  GLU811  SER814 

> <Gold.Protein.RotatedAtoms>
  152.0572  133.4045  159.4401 H   0  0  0  0  0  0  0  0  0  0  0  0  # atno 6907 bound_to 6896
  150.6867  134.3241  159.4808 H   0  0  0  0  0  0  0  0  0  0  0  0  # atno 6908 bound_to 6896
  152.1058  134.9309  160.0619 H   0  0  0  0  0  0  0  0  0  0  0  0  # atno 6909 bound_to 6896
  146.0465  139.4946  142.9745 H   0  0  0  0  0  0  0  0  0  0  0  0  # atno 7974 bound_to 7965
  155.8224  140.3469  155.5522 H   0  0  0  0  0  0  0  0  0  0  0  0  # atno 8008 bound_to 7997
  155.8328  140.0930  157.1802 H   0  0  0  0  0  0  0  0  0  0  0  0  # atno 8009 bound_to 7997
  154.4004  140.1409  156.3622 H   0  0  0  0  0  0  0  0  0  0  0  0  # atno 8010 bound_to 7997
  140.7007  143.3103  151.3046 H   0  0  0  0  0  0  0  0  0  0  0  0  # atno 10167 bound_to 10162
  156.6199  130.4872  149.6168 H   0  0  0  0  0  0  0  0  0  0  0  0  # atno 10718 bound_to 10713
  154.4980  135.5802  153.6509 H   0  0  0  0  0  0  0  0  0  0  0  0  # atno 10763 bound_to 10752
  152.9873  135.6129  154.3039 H   0  0  0  0  0  0  0  0  0  0  0  0  # atno 10764 bound_to 10752
  154.2944  135.2848  155.2619 H   0  0  0  0  0  0  0  0  0  0  0  0  # atno 10765 bound_to 10752
  140.6122  134.4837  157.5216 H   0  0  0  0  0  0  0  0  0  0  0  0  # atno 11005 bound_to 11000
  145.6797  141.0194  143.1613 LP  0  0  0  0  0  0  0  0  0  0  0  0  # atno 17320 bound_to 7965
  144.7100  139.8407  143.7417 LP  0  0  0  0  0  0  0  0  0  0  0  0  # atno 17321 bound_to 7965
  139.6523  144.0339  152.2635 LP  0  0  0  0  0  0  0  0  0  0  0  0  # atno 17342 bound_to 10162
  139.9880  144.6382  150.7840 LP  0  0  0  0  0  0  0  0  0  0  0  0  # atno 17343 bound_to 10162
  156.2320  130.6800  151.1473 LP  0  0  0  0  0  0  0  0  0  0  0  0  # atno 17370 bound_to 10713
  157.7230  131.0669  150.6053 LP  0  0  0  0  0  0  0  0  0  0  0  0  # atno 17371 bound_to 10713
  139.9187  134.8192  156.1280 LP  0  0  0  0  0  0  0  0  0  0  0  0  # atno 17394 bound_to 11000
  141.0800  133.6758  156.2316 LP  0  0  0  0  0  0  0  0  0  0  0  0  # atno 17395 bound_to 11000

$$$$
