AV-unprocessed.smi:2158|AV-procd|sdf|8788|dock3
  -GOLD-   2272011563D 1   1.00000     0.00000
 Structure written by MMmdl.
 31 31  0  0  0  0  0  0  0  0  1 V2000
  151.8354  145.5701  159.7609 C   0  0  0  0  0  0  0  0  0  0  0  0
  152.2966  144.6134  158.6517 C   0  0  0  0  0  0  0  0  0  0  0  0
  152.9287  143.3061  159.1708 C   0  0  1  0  0  0  0  0  0  0  0  0
  152.6036  143.0713  160.6525 C   0  0  0  0  0  0  0  0  0  0  0  0
  152.4657  142.1572  158.3936 N   0  0  0  0  0  0  0  0  0  0  0  0
  151.2052  141.6978  158.3399 C   0  0  0  0  0  0  0  0  0  0  0  0
  150.2755  142.1961  158.9764 O   0  0  0  0  0  0  0  0  0  0  0  0
  150.9766  140.4706  157.4455 C   0  0  0  0  0  0  0  0  0  0  0  0
  149.9539  140.6893  156.4120 N   0  0  0  0  0  0  0  0  0  0  0  0
  148.7182  141.2218  156.7515 C   0  0  0  0  0  0  0  0  0  0  0  0
  147.7348  141.4573  155.8509 C   0  0  0  0  0  0  0  0  0  0  0  0
  147.9381  141.1524  154.4386 C   0  0  0  0  0  0  0  0  0  0  0  0
  147.1084  141.3265  153.5489 O   0  0  0  0  0  0  0  0  0  0  0  0
  149.1953  140.6226  154.1363 N   0  0  0  0  0  0  0  0  0  0  0  0
  150.2137  140.3791  155.0592 C   0  0  0  0  0  0  0  0  0  0  0  0
  151.2889  139.9123  154.6848 O   0  0  0  0  0  0  0  0  0  0  0  0
  149.3846  140.4002  153.1698 H   0  0  0  0  0  0  0  0  0  0  0  0
  151.3372  146.4420  159.3369 H   0  0  0  0  0  0  0  0  0  0  0  0
  152.6751  145.9306  160.3553 H   0  0  0  0  0  0  0  0  0  0  0  0
  151.1324  145.0807  160.4355 H   0  0  0  0  0  0  0  0  0  0  0  0
  151.4349  144.3677  158.0303 H   0  0  0  0  0  0  0  0  0  0  0  0
  153.0005  145.1313  157.9992 H   0  0  0  0  0  0  0  0  0  0  0  0
  154.0133  143.3978  159.0914 H   0  0  0  0  0  0  0  0  0  0  0  0
  152.9646  143.8953  161.2688 H   0  0  0  0  0  0  0  0  0  0  0  0
  153.0747  142.1581  161.0178 H   0  0  0  0  0  0  0  0  0  0  0  0
  151.5292  142.9805  160.8153 H   0  0  0  0  0  0  0  0  0  0  0  0
  153.1629  141.6757  157.8441 H   0  0  0  0  0  0  0  0  0  0  0  0
  151.9199  140.1729  156.9829 H   0  0  0  0  0  0  0  0  0  0  0  0
  150.6930  139.6333  158.0848 H   0  0  0  0  0  0  0  0  0  0  0  0
  148.5246  141.4674  157.7861 H   0  0  0  0  0  0  0  0  0  0  0  0
  146.7930  141.8742  156.1770 H   0  0  0  0  0  0  0  0  0  0  0  0
  1  2  1  0  0  0  0
  1 18  1  0  0  0  0
  1 19  1  0  0  0  0
  1 20  1  0  0  0  0
  2  3  1  0  0  0  0
  2 21  1  0  0  0  0
  2 22  1  0  0  0  0
  3  4  1  0  0  0  0
  3  5  1  0  0  0  0
  3 23  1  0  0  0  0
  4 24  1  0  0  0  0
  4 25  1  0  0  0  0
  4 26  1  0  0  0  0
  5  6  1  0  0  0  0
  5 27  1  0  0  0  0
  6  7  2  0  0  0  0
  6  8  1  0  0  0  0
  8  9  1  0  0  0  0
  8 28  1  0  0  0  0
  8 29  1  0  0  0  0
  9 15  1  0  0  0  0
  9 10  1  0  0  0  0
 10 11  2  0  0  0  0
 10 30  1  0  0  0  0
 11 12  1  0  0  0  0
 11 31  1  0  0  0  0
 12 13  2  0  0  0  0
 12 14  1  0  0  0  0
 14 17  1  0  0  0  0
 14 15  1  0  0  0  0
 15 16  2  0  0  0  0
M  END
> <s_m_source_file>
AV-unprocessed.smi

> <i_m_source_file_index>
2158

> <i_lp_mmshare_version>
43012

> <i_f3d_flags>
0

> <s_epik_input>
W0NIM11bQ0gyXVtDQEhdKFtDSDNdKVtOSF1DKD1PKVtDSDJdbjFbY0hdW2NIXWMoPU8pW25IXWMxPU8=

> <s_epik_cmdline>
J2VwaWtfcHl0aG9uJywgJy1waCcsICc3LjAnLCAnLXRuJywgJzgnLCAnLW1hJywgJzIwMCcsICctbWV0YWxfYmluZGluZycsICctaW1hZScsICc8aW5maWxlLm1hZT4nLCAnLW9tYWUnLCAnPG91dGZpbGUubWFlPic=

> <r_lp_tautomer_probability>
0.999537

> <r_epik_Ionization_Penalty>
0.00326083

> <r_epik_Ionization_Penalty_Charging>
0.00326081

> <r_epik_Ionization_Penalty_Neutral>
1.93017e-08

> <r_epik_State_Penalty>
0.00230249

> <r_epik_Charging_Adjusted_Penalty>
0.0055633

> <i_epik_Tot_Q>
0

> <i_epik_Tot_abs_Q>
0

> <r_epik_Metal_State_Penalty>
0.364899

> <b_epik_Metal_Only>
0

> <s_lp_Force_Field>
OPLS_2005

> <r_lp_Energy>
2.92089

> <b_lp_Chiralities_Consistent>
1

> <s_lp_Variant>
AV-unprocessed.smi:2158-2

> <Gold.Version>
5.8.1

> <Gold.Id.Protein>
6NUR|6NUR_protein|mol2

> <Gold.PLP.Fitness>
37.9209

> <Gold.PLP.PLP>
-33.3528

> <Gold.PLP.part.hbond>
-2.8102

> <Gold.PLP.part.metal>
0.0000

> <Gold.PLP.part.buried>
-2.1802

> <Gold.PLP.part.nonpolar>
-27.8132

> <Gold.PLP.part.repulsive>
0.5557

> <Gold.PLP.ligand.clash>
0.0000

> <Gold.PLP.ligand.torsion>
0.7299

> <Gold.PLP.Chemscore.Hbond>
2.0000

> <Gold.PLP.Chemscore.CHOScore>
0.0000

> <Gold.PLP.Chemscore.Metal>
0.0000

> <Gold.Chemscore.Hbonds>
donor molecule, donor type, donor heavy atom, donor atom, acceptor molecule, acceptor atom, score
      L1  H    14    17       P1  7957  0.94
      P1  H  7989  7998       L1    16  1.00

> <Gold.PLP.Chemscore.Internal.Correction>
0.0279

> <Gold.Rescore>
     Score         DG    S(hbond)    S(metal)    S(lipo)     H(rot)  DE(clash)    DE(int)     intcor
     10.13     -13.16       1.72        0.00      60.06       1.99       0.02       3.01       ----

> <Gold.Chemscore.Fitness>
10.1319

> <Gold.Chemscore.DG>
-13.1619

> <Gold.Chemscore.ZeroCoef>
-5.4800

> <Gold.Chemscore.Hbond>
1.7217

> <Gold.Chemscore.Metal>
0.0000

> <Gold.Chemscore.Lipo>
60.0587

> <Gold.Chemscore.Internal_Hbond>
0.0000

> <Gold.Chemscore.DEClash>
0.0243

> <Gold.Chemscore.DEInternal>
3.0056

> <Gold.Chemscore.Rot>
1.9904

> <Gold.Chemscore.Internal.Correction>
   9.000000E+99

> <Gold.Chemscore.Hbonds>
donor molecule, donor type, donor heavy atom, donor atom, acceptor molecule, acceptor atom, score
      L1  H    14    17       P1  7957  0.90
      P1  H  7989  7998       L1    16  0.33

> <Gold.Chemscore.Hbond.Weighted>
-5.7505

> <Gold.Chemscore.Metal.Weighted>
-0.0000

> <Gold.Chemscore.Lipo.Weighted>
-7.0269

> <Gold.Chemscore.Internal_Hbond.Weighted>
0.0000

> <Gold.Chemscore.DEClash.Weighted>
0.0243

> <Gold.Chemscore.DEInternal.Weighted>
3.0056

> <Gold.Chemscore.Rot.Weighted>
5.0955

> <Gold.Chemscore.Internal.Correction.Weighted>
   9.000000E+99

> <Gold.Protein.RotatedTorsions>
[ 6907 6896 6895 6894 ] final   18.63 input  -60.11 | X-H torsion
[ 7974 7965 7964 7962 ] final  103.85 input  175.53 | X-H torsion
[ 8008 7997 7996 7995 ] final   72.74 input   59.86 | X-H torsion
[ 10167 10162 10161 10158 ] final  -61.66 input  -65.29 | X-H torsion
[ 10718 10713 10712 10709 ] final -103.27 input   66.30 | X-H torsion
[ 10763 10752 10751 10750 ] final  176.49 input  -60.55 | X-H torsion
[ 11005 11000 10999 10996 ] final   64.84 input  -57.11 | X-H torsion

> <Gold.Protein.ActiveResidues>
 VAL166  LYS551  ARG553  GLY616  TRP617  ASP618  TYR619  PRO620  LYS621  CYS622 
 ASP623  PHE694  ASN695  SER759  ASP760  ASP761  ALA762  ILE779  LEU786  VAL792 
 PHE793  MET794  SER795  GLU796  ALA797  LYS798  CYS799  TRP800  GLU811  SER814 

> <Gold.Protein.RotatedAtoms>
  151.8684  135.0498  160.0476 H   0  0  0  0  0  0  0  0  0  0  0  0  # atno 6907 bound_to 6896
  152.2608  133.5291  159.5389 H   0  0  0  0  0  0  0  0  0  0  0  0  # atno 6908 bound_to 6896
  150.7116  134.0748  159.3919 H   0  0  0  0  0  0  0  0  0  0  0  0  # atno 6909 bound_to 6896
  145.3405  139.2463  143.3612 H   0  0  0  0  0  0  0  0  0  0  0  0  # atno 7974 bound_to 7965
  155.7733  140.3484  155.5259 H   0  0  0  0  0  0  0  0  0  0  0  0  # atno 8008 bound_to 7997
  155.8800  140.1000  157.1512 H   0  0  0  0  0  0  0  0  0  0  0  0  # atno 8009 bound_to 7997
  154.4024  140.1324  156.4172 H   0  0  0  0  0  0  0  0  0  0  0  0  # atno 8010 bound_to 7997
  140.5991  143.2357  151.5969 H   0  0  0  0  0  0  0  0  0  0  0  0  # atno 10167 bound_to 10162
  156.0259  130.5459  150.7228 H   0  0  0  0  0  0  0  0  0  0  0  0  # atno 10718 bound_to 10713
  154.4818  135.2775  155.1565 H   0  0  0  0  0  0  0  0  0  0  0  0  # atno 10763 bound_to 10752
  154.3272  135.6197  153.5538 H   0  0  0  0  0  0  0  0  0  0  0  0  # atno 10764 bound_to 10752
  152.9876  135.5757  154.5220 H   0  0  0  0  0  0  0  0  0  0  0  0  # atno 10765 bound_to 10752
  139.9932  134.6558  156.0054 H   0  0  0  0  0  0  0  0  0  0  0  0  # atno 11005 bound_to 11000
  146.3009  140.4001  142.8704 LP  0  0  0  0  0  0  0  0  0  0  0  0  # atno 17320 bound_to 7965
  144.8794  140.7380  143.5996 LP  0  0  0  0  0  0  0  0  0  0  0  0  # atno 17321 bound_to 7965
  139.5278  144.3005  152.1077 LP  0  0  0  0  0  0  0  0  0  0  0  0  # atno 17342 bound_to 10162
  140.2183  144.4493  150.6354 LP  0  0  0  0  0  0  0  0  0  0  0  0  # atno 17343 bound_to 10162
  157.4840  131.0905  151.0504 LP  0  0  0  0  0  0  0  0  0  0  0  0  # atno 17370 bound_to 10713
  157.0929  130.5950  149.5443 LP  0  0  0  0  0  0  0  0  0  0  0  0  # atno 17371 bound_to 10713
  141.1583  133.6541  156.4235 LP  0  0  0  0  0  0  0  0  0  0  0  0  # atno 17394 bound_to 11000
  140.4867  134.6613  157.5194 LP  0  0  0  0  0  0  0  0  0  0  0  0  # atno 17395 bound_to 11000

$$$$
