AV-unprocessed.smi:2124|AV-procd|sdf|8652|dock2
  -GOLD-   2272011403D 1   1.00000     0.00000
 Structure written by MMmdl.
 47 49  0  0  0  0  0  0  0  0  1 V2000
  146.8849  139.3946  151.0935 C   0  0  0  0  0  0  0  0  0  0  0  0
  147.6511  140.2786  152.0544 C   0  0  0  0  0  0  0  0  0  0  0  0
  147.3025  141.4860  152.3556 N   0  0  0  0  0  0  0  0  0  0  0  0
  148.0926  142.2099  153.2592 C   0  0  0  0  0  0  0  0  0  0  0  0
  147.6152  143.6188  153.5651 C   0  0  0  0  0  0  0  0  0  0  0  0
  149.2153  141.6714  153.8192 C   0  0  0  0  0  0  0  0  0  0  0  0
  150.0988  142.4326  154.8070 C   0  0  0  0  0  0  0  0  0  0  0  0
  150.2892  141.7889  156.1830 C   0  0  0  0  0  0  0  0  0  0  0  0
  149.3208  141.5606  156.9084 O   0  0  0  0  0  0  0  0  0  0  0  0
  151.5546  141.4945  156.5194 N   0  0  0  0  0  0  0  0  0  0  0  0
  151.9881  140.8583  157.7627 C   0  0  2  0  0  0  0  0  0  0  0  0
  151.1995  139.5498  157.9361 C   0  0  0  0  0  0  0  0  0  0  0  0
  151.7938  141.8261  158.9571 C   0  0  1  0  0  0  0  0  0  0  0  0
  152.3127  141.2585  160.3016 C   0  0  0  0  0  0  0  0  0  0  0  0
  153.2683  142.3541  160.8058 C   0  0  2  0  0  0  0  0  0  0  0  0
  152.4576  143.5955  161.2193 C   0  0  0  0  0  0  0  0  0  0  0  0
  152.0026  144.1665  159.8636 C   0  0  0  0  0  0  0  0  0  0  0  0
  152.5849  143.1569  158.8559 C   0  0  1  0  0  0  0  0  0  0  0  0
  153.9195  142.8135  159.5083 C   0  0  0  0  0  0  0  0  0  0  0  0
  149.6011  140.2899  153.4727 C   0  0  0  0  0  0  0  0  0  0  0  0
  150.5823  139.7050  153.9288 O   0  0  0  0  0  0  0  0  0  0  0  0
  148.7825  139.6686  152.5940 N   0  0  0  0  0  0  0  0  0  0  0  0
  149.0038  138.7211  152.3251 H   0  0  0  0  0  0  0  0  0  0  0  0
  145.8676  139.2420  151.4545 H   0  0  0  0  0  0  0  0  0  0  0  0
  147.3572  138.4180  150.9791 H   0  0  0  0  0  0  0  0  0  0  0  0
  146.8331  139.8656  150.1117 H   0  0  0  0  0  0  0  0  0  0  0  0
  148.3319  144.3529  153.1963 H   0  0  0  0  0  0  0  0  0  0  0  0
  147.4930  143.7601  154.6390 H   0  0  0  0  0  0  0  0  0  0  0  0
  146.6538  143.8219  153.0919 H   0  0  0  0  0  0  0  0  0  0  0  0
  151.0820  142.6105  154.3690 H   0  0  0  0  0  0  0  0  0  0  0  0
  149.6791  143.4269  154.9596 H   0  0  0  0  0  0  0  0  0  0  0  0
  152.2796  141.7204  155.8540 H   0  0  0  0  0  0  0  0  0  0  0  0
  153.0452  140.5963  157.6971 H   0  0  0  0  0  0  0  0  0  0  0  0
  151.5215  138.9999  158.8201 H   0  0  0  0  0  0  0  0  0  0  0  0
  151.3405  138.8918  157.0778 H   0  0  0  0  0  0  0  0  0  0  0  0
  150.1303  139.7404  158.0358 H   0  0  0  0  0  0  0  0  0  0  0  0
  150.7283  142.0484  159.0389 H   0  0  0  0  0  0  0  0  0  0  0  0
  151.5048  141.0552  161.0056 H   0  0  0  0  0  0  0  0  0  0  0  0
  152.8654  140.3292  160.1584 H   0  0  0  0  0  0  0  0  0  0  0  0
  153.9624  142.0090  161.5727 H   0  0  0  0  0  0  0  0  0  0  0  0
  151.6184  143.3429  161.8686 H   0  0  0  0  0  0  0  0  0  0  0  0
  153.0862  144.3145  161.7465 H   0  0  0  0  0  0  0  0  0  0  0  0
  150.9182  144.2551  159.7890 H   0  0  0  0  0  0  0  0  0  0  0  0
  152.4282  145.1584  159.7060 H   0  0  0  0  0  0  0  0  0  0  0  0
  152.6637  143.5691  157.8501 H   0  0  0  0  0  0  0  0  0  0  0  0
  154.5745  143.6774  159.6346 H   0  0  0  0  0  0  0  0  0  0  0  0
  154.4670  142.0232  158.9923 H   0  0  0  0  0  0  0  0  0  0  0  0
  1  2  1  0  0  0  0
  1 24  1  0  0  0  0
  1 25  1  0  0  0  0
  1 26  1  0  0  0  0
  2 22  1  0  0  0  0
  2  3  2  0  0  0  0
  3  4  1  0  0  0  0
  4  5  1  0  0  0  0
  4  6  2  0  0  0  0
  5 27  1  0  0  0  0
  5 28  1  0  0  0  0
  5 29  1  0  0  0  0
  6  7  1  0  0  0  0
  6 20  1  0  0  0  0
  7  8  1  0  0  0  0
  7 30  1  0  0  0  0
  7 31  1  0  0  0  0
  8  9  2  0  0  0  0
  8 10  1  0  0  0  0
 10 11  1  0  0  0  0
 10 32  1  0  0  0  0
 11 12  1  0  0  0  0
 11 13  1  0  0  0  0
 11 33  1  0  0  0  0
 12 34  1  0  0  0  0
 12 35  1  0  0  0  0
 12 36  1  0  0  0  0
 13 18  1  0  0  0  0
 13 14  1  0  0  0  0
 13 37  1  0  0  0  0
 14 15  1  0  0  0  0
 14 38  1  0  0  0  0
 14 39  1  0  0  0  0
 15 19  1  0  0  0  0
 15 16  1  0  0  0  0
 15 40  1  0  0  0  0
 16 17  1  0  0  0  0
 16 41  1  0  0  0  0
 16 42  1  0  0  0  0
 17 18  1  0  0  0  0
 17 43  1  0  0  0  0
 17 44  1  0  0  0  0
 18 19  1  0  0  0  0
 18 45  1  0  0  0  0
 19 46  1  0  0  0  0
 19 47  1  0  0  0  0
 20 21  2  0  0  0  0
 20 22  1  0  0  0  0
 22 23  1  0  0  0  0
M  END
> <s_m_source_file>
AV-unprocessed.smi

> <i_m_source_file_index>
2124

> <i_lp_mmshare_version>
43012

> <i_f3d_flags>
0

> <s_epik_input>
W0NIM11jMW5jKFtDSDNdKWMoYyg9TylbbkhdMSlbQ0gyXUMoPU8pW05IXVtDQEhdKFtDSDNdKVtDQEhdKFtDSDJdW0NASF0yMylbQ0BIXShbQ0gyXTMpW0NIMl1bQ0gyXTI=

> <s_epik_cmdline>
J2VwaWtfcHl0aG9uJywgJy1waCcsICc3LjAnLCAnLXRuJywgJzgnLCAnLW1hJywgJzIwMCcsICctbWV0YWxfYmluZGluZycsICctaW1hZScsICc8aW5maWxlLm1hZT4nLCAnLW9tYWUnLCAnPG91dGZpbGUubWFlPic=

> <r_lp_tautomer_probability>
0.839158

> <r_epik_Ionization_Penalty>
0.000383628

> <r_epik_Ionization_Penalty_Charging>
0.00035045

> <r_epik_Ionization_Penalty_Neutral>
3.31781e-05

> <r_epik_State_Penalty>
0.09125

> <r_epik_Charging_Adjusted_Penalty>
0.0916005

> <i_epik_Tot_Q>
0

> <i_epik_Tot_abs_Q>
0

> <r_epik_Metal_State_Penalty>
0.255229

> <b_epik_Metal_Only>
0

> <s_lp_Force_Field>
OPLS_2005

> <r_lp_Energy>
52.5512

> <b_lp_Chiralities_Consistent>
1

> <s_lp_Variant>
AV-unprocessed.smi:2124-3

> <Gold.Version>
5.8.1

> <Gold.Id.Protein>
6NUR|6NUR_protein|mol2

> <Gold.PLP.Fitness>
51.6687

> <Gold.PLP.PLP>
-45.7706

> <Gold.PLP.part.hbond>
-2.5523

> <Gold.PLP.part.metal>
0.0000

> <Gold.PLP.part.buried>
3.0015

> <Gold.PLP.part.nonpolar>
-45.3212

> <Gold.PLP.part.repulsive>
1.5112

> <Gold.PLP.ligand.clash>
0.0000

> <Gold.PLP.ligand.torsion>
0.0719

> <Gold.PLP.Chemscore.Hbond>
2.0000

> <Gold.PLP.Chemscore.CHOScore>
0.0000

> <Gold.PLP.Chemscore.Metal>
0.0000

> <Gold.Chemscore.Hbonds>
donor molecule, donor type, donor heavy atom, donor atom, acceptor molecule, acceptor atom, score
      P1  H  7989  7998       L1    21  0.70

> <Gold.PLP.Chemscore.Internal.Correction>
0.0419

> <Gold.Rescore>
     Score         DG    S(hbond)    S(metal)    S(lipo)     H(rot)  DE(clash)    DE(int)     intcor
     17.26     -21.11       1.62        0.00     123.57       1.65       2.39       1.45       ----

> <Gold.Chemscore.Fitness>
17.2638

> <Gold.Chemscore.DG>
-21.1068

> <Gold.Chemscore.ZeroCoef>
-5.4800

> <Gold.Chemscore.Hbond>
1.6174

> <Gold.Chemscore.Metal>
0.0000

> <Gold.Chemscore.Lipo>
123.5664

> <Gold.Chemscore.Internal_Hbond>
0.0000

> <Gold.Chemscore.DEClash>
2.3929

> <Gold.Chemscore.DEInternal>
1.4501

> <Gold.Chemscore.Rot>
1.6534

> <Gold.Chemscore.Internal.Correction>
   9.000000E+99

> <Gold.Chemscore.Hbonds>
donor molecule, donor type, donor heavy atom, donor atom, acceptor molecule, acceptor atom, score
      L1  H    22    23       P1  7948  0.02
      P1  H  7989  7998       L1    21  0.07

> <Gold.Chemscore.Hbond.Weighted>
-5.4022

> <Gold.Chemscore.Metal.Weighted>
-0.0000

> <Gold.Chemscore.Lipo.Weighted>
-14.4573

> <Gold.Chemscore.Internal_Hbond.Weighted>
0.0000

> <Gold.Chemscore.DEClash.Weighted>
2.3929

> <Gold.Chemscore.DEInternal.Weighted>
1.4501

> <Gold.Chemscore.Rot.Weighted>
4.2326

> <Gold.Chemscore.Internal.Correction.Weighted>
   9.000000E+99

> <Gold.Protein.RotatedTorsions>
[ 6907 6896 6895 6894 ] final   45.50 input  -60.11 | X-H torsion
[ 7974 7965 7964 7962 ] final -103.86 input  175.53 | X-H torsion
[ 8008 7997 7996 7995 ] final -125.87 input   59.86 | X-H torsion
[ 10167 10162 10161 10158 ] final -115.16 input  -65.29 | X-H torsion
[ 10718 10713 10712 10709 ] final   98.51 input   66.30 | X-H torsion
[ 10763 10752 10751 10750 ] final  -27.58 input  -60.55 | X-H torsion
[ 11005 11000 10999 10996 ] final  100.06 input  -57.11 | X-H torsion

> <Gold.Protein.ActiveResidues>
 VAL166  LYS551  ARG553  GLY616  TRP617  ASP618  TYR619  PRO620  LYS621  CYS622 
 ASP623  PHE694  ASN695  SER759  ASP760  ASP761  ALA762  ILE779  LEU786  VAL792 
 PHE793  MET794  SER795  GLU796  ALA797  LYS798  CYS799  TRP800  GLU811  SER814 

> <Gold.Protein.RotatedAtoms>
  152.2452  134.8188  160.0454 H   0  0  0  0  0  0  0  0  0  0  0  0  # atno 6907 bound_to 6896
  151.8888  133.3506  159.3799 H   0  0  0  0  0  0  0  0  0  0  0  0  # atno 6908 bound_to 6896
  150.7066  134.4871  159.5542 H   0  0  0  0  0  0  0  0  0  0  0  0  # atno 6909 bound_to 6896
  145.2505  140.9236  143.3098 H   0  0  0  0  0  0  0  0  0  0  0  0  # atno 7974 bound_to 7965
  155.2204  140.0422  157.2947 H   0  0  0  0  0  0  0  0  0  0  0  0  # atno 8008 bound_to 7997
  154.5953  140.2437  155.7836 H   0  0  0  0  0  0  0  0  0  0  0  0  # atno 8009 bound_to 7997
  156.2286  140.2946  156.0139 H   0  0  0  0  0  0  0  0  0  0  0  0  # atno 8010 bound_to 7997
  140.0931  143.4681  152.1858 H   0  0  0  0  0  0  0  0  0  0  0  0  # atno 10167 bound_to 10162
  157.6894  131.0642  150.4807 H   0  0  0  0  0  0  0  0  0  0  0  0  # atno 10718 bound_to 10713
  153.7344  135.6936  153.4981 H   0  0  0  0  0  0  0  0  0  0  0  0  # atno 10763 bound_to 10752
  153.2113  135.4402  155.0382 H   0  0  0  0  0  0  0  0  0  0  0  0  # atno 10764 bound_to 10752
  154.8242  135.3437  154.6872 H   0  0  0  0  0  0  0  0  0  0  0  0  # atno 10765 bound_to 10752
  139.8771  134.9123  156.4699 H   0  0  0  0  0  0  0  0  0  0  0  0  # atno 11005 bound_to 11000
  144.9507  139.4086  143.6404 LP  0  0  0  0  0  0  0  0  0  0  0  0  # atno 17320 bound_to 7965
  146.3304  139.8513  142.8872 LP  0  0  0  0  0  0  0  0  0  0  0  0  # atno 17321 bound_to 7965
  139.5713  144.7464  151.3883 LP  0  0  0  0  0  0  0  0  0  0  0  0  # atno 17342 bound_to 10162
  140.7018  143.7613  150.7415 LP  0  0  0  0  0  0  0  0  0  0  0  0  # atno 17343 bound_to 10162
  156.5139  130.4146  149.6286 LP  0  0  0  0  0  0  0  0  0  0  0  0  # atno 17370 bound_to 10713
  156.3215  130.7283  151.2196 LP  0  0  0  0  0  0  0  0  0  0  0  0  # atno 17371 bound_to 10713
  140.8803  133.7922  155.9460 LP  0  0  0  0  0  0  0  0  0  0  0  0  # atno 17394 bound_to 11000
  140.8860  134.2553  157.5119 LP  0  0  0  0  0  0  0  0  0  0  0  0  # atno 17395 bound_to 11000

$$$$
