AV-unprocessed.smi:2678|AV-procd|sdf|10369|dock4
  -GOLD-   2272014393D 1   1.00000     0.00000
 Structure written by MMmdl.
 46 47  0  0  0  0  0  0  0  0  1 V2000
  147.4115  138.1996  157.2821 C   0  0  0  0  0  0  0  0  0  0  0  0
  147.9300  136.8687  157.8424 C   0  0  0  0  0  0  0  0  0  0  0  0
  148.5288  137.0399  159.2476 C   0  0  0  0  0  0  0  0  0  0  0  0
  148.9219  136.3107  156.9276 N   0  0  0  0  0  0  0  0  0  0  0  0
  149.6280  135.1876  157.1346 C   0  0  0  0  0  0  0  0  0  0  0  0
  149.5080  134.5024  158.1502 O   0  0  0  0  0  0  0  0  0  0  0  0
  150.6116  134.7856  156.0192 C   0  0  1  0  0  0  0  0  0  0  0  0
  151.6125  133.6951  156.4676 C   0  0  0  0  0  0  0  0  0  0  0  0
  151.0064  132.2803  156.5030 C   0  0  0  0  0  0  0  0  0  0  0  0
  150.3558  131.9189  155.1593 C   0  0  0  0  0  0  0  0  0  0  0  0
  149.2830  132.9484  154.7642 C   0  0  2  0  0  0  0  0  0  0  0  0
  148.7095  132.5845  153.4667 N   0  0  0  0  0  0  0  0  0  0  0  0
  147.4934  132.8915  152.9786 C   0  0  0  0  0  0  0  0  0  0  0  0
  146.6885  133.5413  153.6420 O   0  0  0  0  0  0  0  0  0  0  0  0
  147.2579  132.4072  151.7433 N   0  0  0  0  0  0  0  0  0  0  0  0
  146.0907  132.5278  150.9430 C   0  0  0  0  0  0  0  0  0  0  0  0
  145.9993  132.1097  149.5933 C   0  0  0  0  0  0  0  0  0  0  0  0
  144.7753  132.2689  148.9151 C   0  0  0  0  0  0  0  0  0  0  0  0
  143.6883  132.8325  149.6112 C   0  0  0  0  0  0  0  0  0  0  0  0
  143.7578  133.2231  150.9012 N   0  0  0  0  0  0  0  0  0  0  0  0
  144.9339  133.0662  151.5455 C   0  0  0  0  0  0  0  0  0  0  0  0
  149.8901  134.3711  154.7154 C   0  0  0  0  0  0  0  0  0  0  0  0
  146.6454  138.6247  157.9314 H   0  0  0  0  0  0  0  0  0  0  0  0
  146.9682  138.0651  156.2948 H   0  0  0  0  0  0  0  0  0  0  0  0
  148.2138  138.9327  157.1909 H   0  0  0  0  0  0  0  0  0  0  0  0
  147.0826  136.1834  157.9062 H   0  0  0  0  0  0  0  0  0  0  0  0
  147.7930  137.4526  159.9381 H   0  0  0  0  0  0  0  0  0  0  0  0
  149.3866  137.7130  159.2342 H   0  0  0  0  0  0  0  0  0  0  0  0
  148.8611  136.0855  159.6573 H   0  0  0  0  0  0  0  0  0  0  0  0
  149.0800  136.8155  156.0675 H   0  0  0  0  0  0  0  0  0  0  0  0
  151.1975  135.6767  155.7869 H   0  0  0  0  0  0  0  0  0  0  0  0
  152.4598  133.6956  155.7809 H   0  0  0  0  0  0  0  0  0  0  0  0
  152.0260  133.9410  157.4470 H   0  0  0  0  0  0  0  0  0  0  0  0
  151.7836  131.5542  156.7423 H   0  0  0  0  0  0  0  0  0  0  0  0
  150.2683  132.2046  157.3015 H   0  0  0  0  0  0  0  0  0  0  0  0
  151.1249  131.8675  154.3871 H   0  0  0  0  0  0  0  0  0  0  0  0
  149.9142  130.9236  155.2228 H   0  0  0  0  0  0  0  0  0  0  0  0
  148.4955  132.9034  155.5168 H   0  0  0  0  0  0  0  0  0  0  0  0
  149.2991  132.0189  152.8733 H   0  0  0  0  0  0  0  0  0  0  0  0
  147.9893  131.8300  151.3538 H   0  0  0  0  0  0  0  0  0  0  0  0
  146.8298  131.6611  149.0716 H   0  0  0  0  0  0  0  0  0  0  0  0
  144.6716  131.9617  147.8850 H   0  0  0  0  0  0  0  0  0  0  0  0
  142.7361  132.9678  149.1199 H   0  0  0  0  0  0  0  0  0  0  0  0
  144.9527  133.3870  152.5772 H   0  0  0  0  0  0  0  0  0  0  0  0
  149.1174  135.1032  154.4766 H   0  0  0  0  0  0  0  0  0  0  0  0
  150.6059  134.4227  153.8938 H   0  0  0  0  0  0  0  0  0  0  0  0
  1  2  1  0  0  0  0
  1 23  1  0  0  0  0
  1 24  1  0  0  0  0
  1 25  1  0  0  0  0
  2  3  1  0  0  0  0
  2  4  1  0  0  0  0
  2 26  1  0  0  0  0
  3 27  1  0  0  0  0
  3 28  1  0  0  0  0
  3 29  1  0  0  0  0
  4  5  1  0  0  0  0
  4 30  1  0  0  0  0
  5  6  2  0  0  0  0
  5  7  1  0  0  0  0
  7 22  1  0  0  0  0
  7  8  1  0  0  0  0
  7 31  1  0  0  0  0
  8  9  1  0  0  0  0
  8 32  1  0  0  0  0
  8 33  1  0  0  0  0
  9 10  1  0  0  0  0
  9 34  1  0  0  0  0
  9 35  1  0  0  0  0
 10 11  1  0  0  0  0
 10 36  1  0  0  0  0
 10 37  1  0  0  0  0
 11 12  1  0  0  0  0
 11 22  1  0  0  0  0
 11 38  1  0  0  0  0
 12 13  1  0  0  0  0
 12 39  1  0  0  0  0
 13 14  2  0  0  0  0
 13 15  1  0  0  0  0
 15 16  1  0  0  0  0
 15 40  1  0  0  0  0
 16 21  1  0  0  0  0
 16 17  2  0  0  0  0
 17 18  1  0  0  0  0
 17 41  1  0  0  0  0
 18 19  2  0  0  0  0
 18 42  1  0  0  0  0
 19 20  1  0  0  0  0
 19 43  1  0  0  0  0
 20 21  2  0  0  0  0
 21 44  1  0  0  0  0
 22 45  1  0  0  0  0
 22 46  1  0  0  0  0
M  END
> <s_m_source_file>
AV-unprocessed.smi

> <i_m_source_file_index>
2678

> <i_lp_mmshare_version>
43012

> <i_f3d_flags>
0

> <s_epik_input>
W0NIM11bQ0hdKFtDSDNdKVtOSF1DKD1PKVtDQEBIXTFbQ0gyXVtDSDJdW0NIMl1bQ0BIXShbQ0gyXTEpW05IXUMoPU8pW05IXWMyW2NIXVtjSF1bY0hdbltjSF0y

> <s_epik_cmdline>
J2VwaWtfcHl0aG9uJywgJy1waCcsICc3LjAnLCAnLXRuJywgJzgnLCAnLW1hJywgJzIwMCcsICctbWV0YWxfYmluZGluZycsICctaW1hZScsICc8aW5maWxlLm1hZT4nLCAnLW9tYWUnLCAnPG91dGZpbGUubWFlPic=

> <r_epik_Ionization_Penalty>
0.00482944

> <r_epik_Ionization_Penalty_Charging>
0

> <r_epik_Ionization_Penalty_Neutral>
0.00482944

> <r_epik_State_Penalty>
0.00347168

> <r_epik_Charging_Adjusted_Penalty>
0.00347168

> <i_epik_Tot_Q>
0

> <i_epik_Tot_abs_Q>
0

> <r_epik_Metal_State_Penalty>
-0

> <b_epik_Metal_Only>
0

> <s_lp_Force_Field>
OPLS_2005

> <r_lp_Energy>
20.538

> <b_lp_Chiralities_Consistent>
1

> <s_lp_Variant>
AV-unprocessed.smi:2678-4

> <Gold.Version>
5.8.1

> <Gold.Id.Protein>
6NUR|6NUR_protein|mol2

> <Gold.PLP.Fitness>
41.0151

> <Gold.PLP.PLP>
-33.1605

> <Gold.PLP.part.hbond>
-2.0000

> <Gold.PLP.part.metal>
0.0000

> <Gold.PLP.part.buried>
-4.4339

> <Gold.PLP.part.nonpolar>
-27.2627

> <Gold.PLP.part.repulsive>
0.3282

> <Gold.PLP.ligand.clash>
0.0000

> <Gold.PLP.ligand.torsion>
0.6009

> <Gold.PLP.Chemscore.Hbond>
2.0000

> <Gold.PLP.Chemscore.CHOScore>
0.9998

> <Gold.PLP.Chemscore.Metal>
0.0000

> <Gold.Chemscore.Hbonds>
donor molecule, donor type, donor heavy atom, donor atom, acceptor molecule, acceptor atom, score
      L1  H    15    40       P1 10747  1.00
      P1  H  6896  6908       L1     6  1.00
      L1  C    19    43       P1 10186  1.00

> <Gold.PLP.Chemscore.Internal.Correction>
0.0570

> <Gold.Rescore>
     Score         DG    S(hbond)    S(metal)    S(lipo)     H(rot)  DE(clash)    DE(int)     intcor
     16.47     -18.44       2.00        0.00      85.65       1.46       0.03       1.94       ----

> <Gold.Chemscore.Fitness>
16.4721

> <Gold.Chemscore.DG>
-18.4394

> <Gold.Chemscore.ZeroCoef>
-5.4800

> <Gold.Chemscore.Hbond>
1.9990

> <Gold.Chemscore.Metal>
0.0000

> <Gold.Chemscore.Lipo>
85.6513

> <Gold.Chemscore.Internal_Hbond>
0.0000

> <Gold.Chemscore.DEClash>
0.0294

> <Gold.Chemscore.DEInternal>
1.9379

> <Gold.Chemscore.Rot>
1.4603

> <Gold.Chemscore.Internal.Correction>
   9.000000E+99

> <Gold.Chemscore.Hbonds>
donor molecule, donor type, donor heavy atom, donor atom, acceptor molecule, acceptor atom, score
      L1  H    15    40       P1 10747  1.00
      P1  H  6896  6908       L1     6  1.00

> <Gold.Chemscore.Hbond.Weighted>
-6.6766

> <Gold.Chemscore.Metal.Weighted>
-0.0000

> <Gold.Chemscore.Lipo.Weighted>
-10.0212

> <Gold.Chemscore.Internal_Hbond.Weighted>
0.0000

> <Gold.Chemscore.DEClash.Weighted>
0.0294

> <Gold.Chemscore.DEInternal.Weighted>
1.9379

> <Gold.Chemscore.Rot.Weighted>
3.7383

> <Gold.Chemscore.Internal.Correction.Weighted>
   9.000000E+99

> <Gold.Protein.RotatedTorsions>
[ 6907 6896 6895 6894 ] final  141.28 input  -60.11 | X-H torsion
[ 7974 7965 7964 7962 ] final  -51.81 input  175.53 | X-H torsion
[ 8008 7997 7996 7995 ] final  178.83 input   59.86 | X-H torsion
[ 10167 10162 10161 10158 ] final  128.89 input  -65.29 | X-H torsion
[ 10718 10713 10712 10709 ] final   33.11 input   66.30 | X-H torsion
[ 10763 10752 10751 10750 ] final  -95.57 input  -60.55 | X-H torsion
[ 11005 11000 10999 10996 ] final  -79.50 input  -57.11 | X-H torsion

> <Gold.Protein.ActiveResidues>
 VAL166  LYS551  ARG553  GLY616  TRP617  ASP618  TYR619  PRO620  LYS621  CYS622 
 ASP623  PHE694  ASN695  SER759  ASP760  ASP761  ALA762  ILE779  LEU786  VAL792 
 PHE793  MET794  SER795  GLU796  ALA797  LYS798  CYS799  TRP800  GLU811  SER814 

> <Gold.Protein.RotatedAtoms>
  152.2329  133.5072  159.5225 H   0  0  0  0  0  0  0  0  0  0  0  0  # atno 6907 bound_to 6896
  150.7042  134.1192  159.4037 H   0  0  0  0  0  0  0  0  0  0  0  0  # atno 6908 bound_to 6896
  151.9113  135.0337  160.0565 H   0  0  0  0  0  0  0  0  0  0  0  0  # atno 6909 bound_to 6896
  145.9149  140.7883  142.9676 H   0  0  0  0  0  0  0  0  0  0  0  0  # atno 7974 bound_to 7965
  156.0503  140.1324  157.0058 H   0  0  0  0  0  0  0  0  0  0  0  0  # atno 8008 bound_to 7997
  154.4432  140.1012  156.6437 H   0  0  0  0  0  0  0  0  0  0  0  0  # atno 8009 bound_to 7997
  155.5534  140.3463  155.4476 H   0  0  0  0  0  0  0  0  0  0  0  0  # atno 8010 bound_to 7997
  139.5504  144.6808  151.4340 H   0  0  0  0  0  0  0  0  0  0  0  0  # atno 10167 bound_to 10162
  157.2938  130.7316  149.6626 H   0  0  0  0  0  0  0  0  0  0  0  0  # atno 10718 bound_to 10713
  154.7161  135.5115  153.8739 H   0  0  0  0  0  0  0  0  0  0  0  0  # atno 10763 bound_to 10752
  153.0821  135.6634  154.0032 H   0  0  0  0  0  0  0  0  0  0  0  0  # atno 10764 bound_to 10752
  153.9864  135.3024  155.3395 H   0  0  0  0  0  0  0  0  0  0  0  0  # atno 10765 bound_to 10752
  141.1667  133.7109  156.8132 H   0  0  0  0  0  0  0  0  0  0  0  0  # atno 11005 bound_to 11000
  144.6747  140.1884  143.7399 LP  0  0  0  0  0  0  0  0  0  0  0  0  # atno 17320 bound_to 7965
  145.8624  139.2229  143.1709 LP  0  0  0  0  0  0  0  0  0  0  0  0  # atno 17321 bound_to 7965
  140.6765  143.8177  150.7065 LP  0  0  0  0  0  0  0  0  0  0  0  0  # atno 17342 bound_to 10162
  140.1618  143.4269  152.2062 LP  0  0  0  0  0  0  0  0  0  0  0  0  # atno 17343 bound_to 10162
  155.9668  130.4301  150.4860 LP  0  0  0  0  0  0  0  0  0  0  0  0  # atno 17370 bound_to 10713
  157.2828  131.0610  151.2186 LP  0  0  0  0  0  0  0  0  0  0  0  0  # atno 17371 bound_to 10713
  140.2172  134.8784  157.3338 LP  0  0  0  0  0  0  0  0  0  0  0  0  # atno 17394 bound_to 11000
  140.2025  134.4237  155.7655 LP  0  0  0  0  0  0  0  0  0  0  0  0  # atno 17395 bound_to 11000

$$$$
