AV-unprocessed.smi:2696|AV-procd|sdf|10414|dock5
  -GOLD-   2272014453D 1   1.00000     0.00000
 Structure written by MMmdl.
 43 44  0  0  0  0  0  0  0  0  1 V2000
  152.8187  142.3552  159.9415 C   0  0  0  0  0  0  0  0  0  0  0  0
  152.1208  143.2804  158.9318 C   0  0  0  0  0  0  0  0  0  0  0  0
  151.3645  144.4190  159.6331 C   0  0  0  0  0  0  0  0  0  0  0  0
  151.2103  142.5004  157.9925 C   0  0  0  0  0  0  0  0  0  0  0  0
  151.6857  141.5811  157.1183 C   0  0  0  0  0  0  0  0  0  0  0  0
  150.7826  140.8682  156.2154 C   0  0  0  0  0  0  0  0  0  0  0  0
  151.1790  140.0082  155.4292 O   0  0  0  0  0  0  0  0  0  0  0  0
  149.4711  141.2364  156.3030 N   0  0  0  0  0  0  0  0  0  0  0  0
  148.4553  140.6543  155.3999 C   0  0  0  0  0  0  0  0  0  0  0  0
  147.8329  141.6597  154.3818 C   0  0  2  0  0  0  0  0  0  0  0  0
  147.3863  140.9124  153.1071 C   0  0  0  0  0  0  0  0  0  0  0  0
  148.8909  142.4724  153.9050 O   0  0  0  0  0  0  0  0  0  0  0  0
  146.6793  142.4828  154.9771 C   0  0  0  0  0  0  0  0  0  0  0  0
  146.1863  142.2174  156.2768 C   0  0  0  0  0  0  0  0  0  0  0  0
  145.1027  142.9507  156.7947 C   0  0  0  0  0  0  0  0  0  0  0  0
  144.4955  143.9548  156.0195 C   0  0  0  0  0  0  0  0  0  0  0  0
  144.9661  144.2301  154.7195 C   0  0  0  0  0  0  0  0  0  0  0  0
  144.2913  145.3127  153.8902 C   0  0  0  0  0  0  0  0  0  0  0  0
  144.8551  145.4425  152.6886 F   0  0  0  0  0  0  0  0  0  0  0  0
  143.0035  145.0146  153.7179 F   0  0  0  0  0  0  0  0  0  0  0  0
  144.3806  146.4778  154.5306 F   0  0  0  0  0  0  0  0  0  0  0  0
  146.0589  143.4958  154.2089 C   0  0  0  0  0  0  0  0  0  0  0  0
  149.0230  142.1716  157.2593 C   0  0  0  0  0  0  0  0  0  0  0  0
  149.8412  142.7777  158.0587 N   0  0  0  0  0  0  0  0  0  0  0  0
  153.3666  141.5621  159.4315 H   0  0  0  0  0  0  0  0  0  0  0  0
  152.1049  141.8855  160.6187 H   0  0  0  0  0  0  0  0  0  0  0  0
  153.5335  142.9098  160.5498 H   0  0  0  0  0  0  0  0  0  0  0  0
  152.9029  143.7389  158.3243 H   0  0  0  0  0  0  0  0  0  0  0  0
  150.9027  145.0876  158.9058 H   0  0  0  0  0  0  0  0  0  0  0  0
  152.0391  145.0166  160.2467 H   0  0  0  0  0  0  0  0  0  0  0  0
  150.5766  144.0377  160.2833 H   0  0  0  0  0  0  0  0  0  0  0  0
  152.7445  141.3724  157.0733 H   0  0  0  0  0  0  0  0  0  0  0  0
  148.8553  139.7777  154.8861 H   0  0  0  0  0  0  0  0  0  0  0  0
  147.6452  140.2444  156.0065 H   0  0  0  0  0  0  0  0  0  0  0  0
  146.6101  140.1751  153.3103 H   0  0  0  0  0  0  0  0  0  0  0  0
  148.2173  140.3728  152.6506 H   0  0  0  0  0  0  0  0  0  0  0  0
  146.9932  141.6031  152.3595 H   0  0  0  0  0  0  0  0  0  0  0  0
  148.9410  143.2488  154.4414 H   0  0  0  0  0  0  0  0  0  0  0  0
  146.6216  141.4408  156.8879 H   0  0  0  0  0  0  0  0  0  0  0  0
  144.7332  142.7378  157.7869 H   0  0  0  0  0  0  0  0  0  0  0  0
  143.6623  144.5115  156.4225 H   0  0  0  0  0  0  0  0  0  0  0  0
  146.4103  143.6962  153.2086 H   0  0  0  0  0  0  0  0  0  0  0  0
  147.9479  142.3575  157.2697 H   0  0  0  0  0  0  0  0  0  0  0  0
  1  2  1  0  0  0  0
  1 25  1  0  0  0  0
  1 26  1  0  0  0  0
  1 27  1  0  0  0  0
  2  3  1  0  0  0  0
  2  4  1  0  0  0  0
  2 28  1  0  0  0  0
  3 29  1  0  0  0  0
  3 30  1  0  0  0  0
  3 31  1  0  0  0  0
  4 24  1  0  0  0  0
  4  5  2  0  0  0  0
  5  6  1  0  0  0  0
  5 32  1  0  0  0  0
  6  7  2  0  0  0  0
  6  8  1  0  0  0  0
  8  9  1  0  0  0  0
  8 23  1  0  0  0  0
  9 10  1  0  0  0  0
  9 33  1  0  0  0  0
  9 34  1  0  0  0  0
 10 11  1  0  0  0  0
 10 12  1  0  0  0  0
 10 13  1  0  0  0  0
 11 35  1  0  0  0  0
 11 36  1  0  0  0  0
 11 37  1  0  0  0  0
 12 38  1  0  0  0  0
 13 22  1  0  0  0  0
 13 14  2  0  0  0  0
 14 15  1  0  0  0  0
 14 39  1  0  0  0  0
 15 16  2  0  0  0  0
 15 40  1  0  0  0  0
 16 17  1  0  0  0  0
 16 41  1  0  0  0  0
 17 18  1  0  0  0  0
 17 22  2  0  0  0  0
 18 19  1  0  0  0  0
 18 20  1  0  0  0  0
 18 21  1  0  0  0  0
 22 42  1  0  0  0  0
 23 24  2  0  0  0  0
 23 43  1  0  0  0  0
M  END
> <s_m_source_file>
AV-unprocessed.smi

> <i_m_source_file_index>
2696

> <i_lp_mmshare_version>
43012

> <i_f3d_flags>
0

> <s_epik_input>
W0NIM11bQ0hdKFtDSDNdKWMxW2NIXWMoPU8pbihbY0hdbjEpW0NIMl1bQ0BAXShbQ0gzXSkoW09IXSljMltjSF1bY0hdW2NIXWMoQyhGKShGKUYpW2NIXTI=

> <s_epik_cmdline>
J2VwaWtfcHl0aG9uJywgJy1waCcsICc3LjAnLCAnLXRuJywgJzgnLCAnLW1hJywgJzIwMCcsICctbWV0YWxfYmluZGluZycsICctaW1hZScsICc8aW5maWxlLm1hZT4nLCAnLW9tYWUnLCAnPG91dGZpbGUubWFlPic=

> <r_lp_tautomer_probability>
1

> <r_epik_Ionization_Penalty>
2.71388e-05

> <r_epik_Ionization_Penalty_Charging>
4.19927e-06

> <r_epik_Ionization_Penalty_Neutral>
2.29395e-05

> <r_epik_State_Penalty>
-0

> <r_epik_Charging_Adjusted_Penalty>
4.19927e-06

> <i_epik_Tot_Q>
0

> <i_epik_Tot_abs_Q>
0

> <r_epik_Metal_State_Penalty>
-0

> <b_epik_Metal_Only>
0

> <s_lp_Force_Field>
OPLS_2005

> <r_lp_Energy>
19.4026

> <b_lp_Chiralities_Consistent>
1

> <s_lp_Variant>
AV-unprocessed.smi:2696-2

> <Gold.Version>
5.8.1

> <Gold.Id.Protein>
6NUR|6NUR_protein|mol2

> <Gold.PLP.Fitness>
51.4855

> <Gold.PLP.PLP>
-46.1217

> <Gold.PLP.part.hbond>
-3.5864

> <Gold.PLP.part.metal>
0.0000

> <Gold.PLP.part.buried>
-7.5508

> <Gold.PLP.part.nonpolar>
-35.8984

> <Gold.PLP.part.repulsive>
0.1724

> <Gold.PLP.ligand.clash>
0.0849

> <Gold.PLP.ligand.torsion>
0.6116

> <Gold.PLP.Chemscore.Hbond>
2.0733

> <Gold.PLP.Chemscore.CHOScore>
0.0000

> <Gold.PLP.Chemscore.Metal>
0.0000

> <Gold.Chemscore.Hbonds>
donor molecule, donor type, donor heavy atom, donor atom, acceptor molecule, acceptor atom, score
      L1  H    12    38       P1  8028  1.00
      P1  H  7989  7998       L1     7  0.68
      P1  H  8011  8017       L1    12  0.14

> <Gold.PLP.Chemscore.Internal.Correction>
0.4518

> <Gold.Rescore>
     Score         DG    S(hbond)    S(metal)    S(lipo)     H(rot)  DE(clash)    DE(int)     intcor
     16.08     -17.34       2.03        0.00      92.10       2.23       0.34       0.92       ----

> <Gold.Chemscore.Fitness>
16.0808

> <Gold.Chemscore.DG>
-17.3381

> <Gold.Chemscore.ZeroCoef>
-5.4800

> <Gold.Chemscore.Hbond>
2.0342

> <Gold.Chemscore.Metal>
0.0000

> <Gold.Chemscore.Lipo>
92.0997

> <Gold.Chemscore.Internal_Hbond>
0.0000

> <Gold.Chemscore.DEClash>
0.3407

> <Gold.Chemscore.DEInternal>
0.9166

> <Gold.Chemscore.Rot>
2.2312

> <Gold.Chemscore.Internal.Correction>
   9.000000E+99

> <Gold.Chemscore.Hbonds>
donor molecule, donor type, donor heavy atom, donor atom, acceptor molecule, acceptor atom, score
      L1  H    12    38       P1  8028  1.00
      P1  H  7989  7998       L1     7  0.52
      P1  H  8011  8017       L1    12  0.16

> <Gold.Chemscore.Hbond.Weighted>
-6.7942

> <Gold.Chemscore.Metal.Weighted>
-0.0000

> <Gold.Chemscore.Lipo.Weighted>
-10.7757

> <Gold.Chemscore.Internal_Hbond.Weighted>
0.0000

> <Gold.Chemscore.DEClash.Weighted>
0.3407

> <Gold.Chemscore.DEInternal.Weighted>
0.9166

> <Gold.Chemscore.Rot.Weighted>
5.7118

> <Gold.Chemscore.Internal.Correction.Weighted>
   9.000000E+99

> <Gold.Protein.RotatedTorsions>
[ 6907 6896 6895 6894 ] final -110.52 input  -60.11 | X-H torsion
[ 7974 7965 7964 7962 ] final -132.24 input  175.53 | X-H torsion
[ 8008 7997 7996 7995 ] final   67.99 input   59.86 | X-H torsion
[ 10167 10162 10161 10158 ] final    0.42 input  -65.29 | X-H torsion
[ 10718 10713 10712 10709 ] final -115.59 input   66.30 | X-H torsion
[ 10763 10752 10751 10750 ] final  175.82 input  -60.55 | X-H torsion
[ 11005 11000 10999 10996 ] final   10.39 input  -57.11 | X-H torsion

> <Gold.Protein.ActiveResidues>
 VAL166  LYS551  ARG553  GLY616  TRP617  ASP618  TYR619  PRO620  LYS621  CYS622 
 ASP623  PHE694  ASN695  SER759  ASP760  ASP761  ALA762  ILE779  LEU786  VAL792 
 PHE793  MET794  SER795  GLU796  ALA797  LYS798  CYS799  TRP800  GLU811  SER814 

> <Gold.Protein.RotatedAtoms>
  150.7630  133.9370  159.3444 H   0  0  0  0  0  0  0  0  0  0  0  0  # atno 6907 bound_to 6896
  151.7274  135.0880  160.0304 H   0  0  0  0  0  0  0  0  0  0  0  0  # atno 6908 bound_to 6896
  152.3611  133.6261  159.6052 H   0  0  0  0  0  0  0  0  0  0  0  0  # atno 6909 bound_to 6896
  144.9303  140.7121  143.4910 H   0  0  0  0  0  0  0  0  0  0  0  0  # atno 7974 bound_to 7965
  155.7015  140.3495  155.4935 H   0  0  0  0  0  0  0  0  0  0  0  0  # atno 8008 bound_to 7997
  155.9436  140.1106  157.1057 H   0  0  0  0  0  0  0  0  0  0  0  0  # atno 8009 bound_to 7997
  154.4107  140.1208  156.4946 H   0  0  0  0  0  0  0  0  0  0  0  0  # atno 8010 bound_to 7997
  140.6729  143.6997  150.7962 H   0  0  0  0  0  0  0  0  0  0  0  0  # atno 10167 bound_to 10162
  156.0906  130.6089  150.8925 H   0  0  0  0  0  0  0  0  0  0  0  0  # atno 10718 bound_to 10713
  154.4728  135.2772  155.1630 H   0  0  0  0  0  0  0  0  0  0  0  0  # atno 10763 bound_to 10752
  154.3372  135.6178  153.5582 H   0  0  0  0  0  0  0  0  0  0  0  0  # atno 10764 bound_to 10752
  152.9866  135.5779  154.5112 H   0  0  0  0  0  0  0  0  0  0  0  0  # atno 10765 bound_to 10752
  140.5150  134.0614  155.7829 H   0  0  0  0  0  0  0  0  0  0  0  0  # atno 11005 bound_to 11000
  145.3152  139.1806  143.4617 LP  0  0  0  0  0  0  0  0  0  0  0  0  # atno 17320 bound_to 7965
  146.3244  140.3162  142.8630 LP  0  0  0  0  0  0  0  0  0  0  0  0  # atno 17321 bound_to 7965
  140.0685  143.5084  152.2592 LP  0  0  0  0  0  0  0  0  0  0  0  0  # atno 17342 bound_to 10162
  139.6007  144.7581  151.3179 LP  0  0  0  0  0  0  0  0  0  0  0  0  # atno 17343 bound_to 10162
  157.6053  131.0939  150.8889 LP  0  0  0  0  0  0  0  0  0  0  0  0  # atno 17370 bound_to 10713
  156.9039  130.5256  149.5282 LP  0  0  0  0  0  0  0  0  0  0  0  0  # atno 17371 bound_to 10713
  141.1365  133.9213  157.2422 LP  0  0  0  0  0  0  0  0  0  0  0  0  # atno 17394 bound_to 11000
  139.9637  135.0147  156.9330 LP  0  0  0  0  0  0  0  0  0  0  0  0  # atno 17395 bound_to 11000

$$$$
