AV-unprocessed.smi:1088|AV-procd|sdf|4730|dock8
  -GOLD-   22720 3263D 1   1.00000     0.00000
 Structure written by MMmdl.
 48 49  0  0  0  0  0  0  0  0  2 V2000
  145.1009  135.2312  151.1922 C   0  0  0  0  0  0  0  0  0  0  0  0
  145.3609  136.0102  152.3468 O   0  0  0  0  0  0  0  0  0  0  0  0
  145.6889  137.3530  152.0330 C   0  0  0  0  0  0  0  0  0  0  0  0
  146.2765  138.0268  153.2809 C   0  0  0  0  0  0  0  0  0  0  0  0
  146.6307  139.4459  153.0307 N   0  3  2  0  0  0  0  0  0  0  0  0
  147.3040  139.7253  151.7408 C   0  0  0  0  0  0  0  0  0  0  0  0
  148.2064  140.9457  151.9709 C   0  0  0  0  0  0  0  0  0  0  0  0
  147.8837  141.4150  153.3889 C   0  0  0  0  0  0  0  0  0  0  0  0
  147.3894  140.1467  154.0945 C   0  0  2  0  0  0  0  0  0  0  0  0
  148.5440  139.2978  154.6902 C   0  0  0  0  0  0  0  0  0  0  0  0
  149.7497  140.0867  154.9127 N   0  0  0  0  0  0  0  0  0  0  0  0
  149.9340  140.9626  155.9149 C   0  0  0  0  0  0  0  0  0  0  0  0
  149.0793  141.1775  156.7734 O   0  0  0  0  0  0  0  0  0  0  0  0
  151.2643  141.7327  155.9733 C   0  0  0  0  0  0  0  0  0  0  0  0
  151.6052  142.2747  157.2975 N   0  0  0  0  0  0  0  0  0  0  0  0
  150.8110  143.2591  157.8571 C   0  0  0  0  0  0  0  0  0  0  0  0
  151.0617  143.8257  159.0574 C   0  0  0  0  0  0  0  0  0  0  0  0
  152.2129  143.4167  159.8531 C   0  0  0  0  0  0  0  0  0  0  0  0
  152.4901  143.9232  160.9408 O   0  0  0  0  0  0  0  0  0  0  0  0
  152.9988  142.3965  159.2652 N   0  0  0  0  0  0  0  0  0  0  0  0
  154.1755  141.9323  159.9706 C   0  0  0  0  0  0  0  0  0  0  0  0
  152.7402  141.8193  158.0021 C   0  0  0  0  0  0  0  0  0  0  0  0
  153.4785  140.9600  157.5148 O   0  0  0  0  0  0  0  0  0  0  0  0
  144.8549  134.2111  151.4867 H   0  0  0  0  0  0  0  0  0  0  0  0
  145.9730  135.1915  150.5384 H   0  0  0  0  0  0  0  0  0  0  0  0
  144.2575  135.6310  150.6279 H   0  0  0  0  0  0  0  0  0  0  0  0
  146.4277  137.3692  151.2306 H   0  0  0  0  0  0  0  0  0  0  0  0
  144.8112  137.8918  151.6738 H   0  0  0  0  0  0  0  0  0  0  0  0
  145.5436  137.9757  154.0872 H   0  0  0  0  0  0  0  0  0  0  0  0
  147.1574  137.4777  153.6160 H   0  0  0  0  0  0  0  0  0  0  0  0
  147.9042  138.8731  151.4185 H   0  0  0  0  0  0  0  0  0  0  0  0
  146.5566  139.9181  150.9706 H   0  0  0  0  0  0  0  0  0  0  0  0
  149.2539  140.6476  151.9076 H   0  0  0  0  0  0  0  0  0  0  0  0
  148.0420  141.7310  151.2325 H   0  0  0  0  0  0  0  0  0  0  0  0
  148.7298  141.8988  153.8777 H   0  0  0  0  0  0  0  0  0  0  0  0
  147.0735  142.1445  153.3507 H   0  0  0  0  0  0  0  0  0  0  0  0
  146.6963  140.4111  154.8942 H   0  0  0  0  0  0  0  0  0  0  0  0
  148.2524  138.8437  155.6381 H   0  0  0  0  0  0  0  0  0  0  0  0
  148.8000  138.4754  154.0215 H   0  0  0  0  0  0  0  0  0  0  0  0
  150.5043  139.9629  154.2531 H   0  0  0  0  0  0  0  0  0  0  0  0
  152.0571  141.0597  155.6440 H   0  0  0  0  0  0  0  0  0  0  0  0
  151.2395  142.5317  155.2303 H   0  0  0  0  0  0  0  0  0  0  0  0
  149.9476  143.5996  157.3040 H   0  0  0  0  0  0  0  0  0  0  0  0
  150.4033  144.5952  159.4332 H   0  0  0  0  0  0  0  0  0  0  0  0
  154.2210  140.8452  159.8861 H   0  0  0  0  0  0  0  0  0  0  0  0
  154.1172  142.1898  161.0280 H   0  0  0  0  0  0  0  0  0  0  0  0
  155.0361  142.4071  159.4976 H   0  0  0  0  0  0  0  0  0  0  0  0
  145.7523  139.9428  152.9828 H   0  0  0  0  0  0  0  0  0  0  0  0
  1  2  1  0  0  0  0
  1 24  1  0  0  0  0
  1 25  1  0  0  0  0
  1 26  1  0  0  0  0
  2  3  1  0  0  0  0
  3  4  1  0  0  0  0
  3 27  1  0  0  0  0
  3 28  1  0  0  0  0
  4  5  1  0  0  0  0
  4 29  1  0  0  0  0
  4 30  1  0  0  0  0
  5  9  1  0  0  0  0
  5  6  1  0  0  0  0
  5 48  1  0  0  0  0
  6  7  1  0  0  0  0
  6 31  1  0  0  0  0
  6 32  1  0  0  0  0
  7  8  1  0  0  0  0
  7 33  1  0  0  0  0
  7 34  1  0  0  0  0
  8  9  1  0  0  0  0
  8 35  1  0  0  0  0
  8 36  1  0  0  0  0
  9 10  1  0  0  0  0
  9 37  1  0  0  0  0
 10 11  1  0  0  0  0
 10 38  1  0  0  0  0
 10 39  1  0  0  0  0
 11 12  1  0  0  0  0
 11 40  1  0  0  0  0
 12 13  2  0  0  0  0
 12 14  1  0  0  0  0
 14 15  1  0  0  0  0
 14 41  1  0  0  0  0
 14 42  1  0  0  0  0
 15 22  1  0  0  0  0
 15 16  1  0  0  0  0
 16 17  2  0  0  0  0
 16 43  1  0  0  0  0
 17 18  1  0  0  0  0
 17 44  1  0  0  0  0
 18 19  2  0  0  0  0
 18 20  1  0  0  0  0
 20 21  1  0  0  0  0
 20 22  1  0  0  0  0
 21 45  1  0  0  0  0
 21 46  1  0  0  0  0
 21 47  1  0  0  0  0
 22 23  2  0  0  0  0
M  CHG  1   5   1
M  END
> <s_m_source_file>
AV-unprocessed.smi

> <i_m_source_file_index>
1088

> <i_lp_mmshare_version>
43012

> <i_f3d_flags>
0

> <s_epik_input>
W0NIM11PW0NIMl1bQ0gyXU4xW0NIMl1bQ0gyXVtDSDJdW0NASF0xW0NIMl1bTkhdQyg9TylbQ0gyXW4yW2NIXVtjSF1jKD1PKW4oW0NIM10pYzI9Tw==

> <s_epik_cmdline>
J2VwaWtfcHl0aG9uJywgJy1waCcsICc3LjAnLCAnLXRuJywgJzgnLCAnLW1hJywgJzIwMCcsICctbWV0YWxfYmluZGluZycsICctaW1hZScsICc8aW5maWxlLm1hZT4nLCAnLW9tYWUnLCAnPG91dGZpbGUubWFlPic=

> <r_lp_tautomer_probability>
1

> <r_epik_Ionization_Penalty>
0.0127388

> <r_epik_Ionization_Penalty_Charging>
0.0127387

> <r_epik_Ionization_Penalty_Neutral>
8.26414e-08

> <r_epik_State_Penalty>
0.00987716

> <r_epik_Charging_Adjusted_Penalty>
0.0226159

> <i_epik_Tot_Q>
1

> <i_epik_Tot_abs_Q>
1

> <r_epik_Metal_State_Penalty>
0.00987836

> <b_epik_Metal_Only>
0

> <s_lp_Force_Field>
OPLS_2005

> <r_lp_Energy>
40.6263

> <b_lp_Chiralities_Consistent>
1

> <s_lp_Variant>
AV-unprocessed.smi:1088-3

> <Gold.Version>
5.8.1

> <Gold.Id.Protein>
6NUR|6NUR_protein|mol2

> <Gold.PLP.Fitness>
42.9013

> <Gold.PLP.PLP>
-32.9768

> <Gold.PLP.part.hbond>
-2.0000

> <Gold.PLP.part.metal>
0.0000

> <Gold.PLP.part.buried>
1.7324

> <Gold.PLP.part.nonpolar>
-32.8113

> <Gold.PLP.part.repulsive>
0.2472

> <Gold.PLP.ligand.clash>
0.0000

> <Gold.PLP.ligand.torsion>
1.1235

> <Gold.PLP.Chemscore.Hbond>
2.9920

> <Gold.PLP.Chemscore.CHOScore>
1.0000

> <Gold.PLP.Chemscore.Metal>
0.0000

> <Gold.Chemscore.Hbonds>
donor molecule, donor type, donor heavy atom, donor atom, acceptor molecule, acceptor atom, score
      L1  H     5    48       P1 10175  1.17
      P1  H  7997  8009       L1    23  0.30
      L1  C    16    43       P1  8028  1.00

> <Gold.PLP.Chemscore.Internal.Correction>
0.1955

> <Gold.Rescore>
     Score         DG    S(hbond)    S(metal)    S(lipo)     H(rot)  DE(clash)    DE(int)     intcor
      9.83     -14.29       1.90        0.00      77.12       2.57       2.07       2.38       ----

> <Gold.Chemscore.Fitness>
9.8329

> <Gold.Chemscore.DG>
-14.2872

> <Gold.Chemscore.ZeroCoef>
-5.4800

> <Gold.Chemscore.Hbond>
1.9044

> <Gold.Chemscore.Metal>
0.0000

> <Gold.Chemscore.Lipo>
77.1241

> <Gold.Chemscore.Internal_Hbond>
0.0000

> <Gold.Chemscore.DEClash>
2.0703

> <Gold.Chemscore.DEInternal>
2.3839

> <Gold.Chemscore.Rot>
2.5692

> <Gold.Chemscore.Internal.Correction>
   9.000000E+99

> <Gold.Chemscore.Hbonds>
donor molecule, donor type, donor heavy atom, donor atom, acceptor molecule, acceptor atom, score
      L1  H     5    48       P1 10175  0.58
      P1  H  7997  8009       L1    23  0.29

> <Gold.Chemscore.Hbond.Weighted>
-6.3608

> <Gold.Chemscore.Metal.Weighted>
-0.0000

> <Gold.Chemscore.Lipo.Weighted>
-9.0235

> <Gold.Chemscore.Internal_Hbond.Weighted>
0.0000

> <Gold.Chemscore.DEClash.Weighted>
2.0703

> <Gold.Chemscore.DEInternal.Weighted>
2.3839

> <Gold.Chemscore.Rot.Weighted>
6.5772

> <Gold.Chemscore.Internal.Correction.Weighted>
   9.000000E+99

> <Gold.Protein.RotatedTorsions>
[ 6907 6896 6895 6894 ] final -168.12 input  -60.11 | X-H torsion
[ 7974 7965 7964 7962 ] final   74.33 input  175.53 | X-H torsion
[ 8008 7997 7996 7995 ] final  160.58 input   59.86 | X-H torsion
[ 10167 10162 10161 10158 ] final  -25.75 input  -65.29 | X-H torsion
[ 10718 10713 10712 10709 ] final  114.74 input   66.30 | X-H torsion
[ 10763 10752 10751 10750 ] final -103.09 input  -60.55 | X-H torsion
[ 11005 11000 10999 10996 ] final -174.82 input  -57.11 | X-H torsion

> <Gold.Protein.ActiveResidues>
 VAL166  LYS551  ARG553  GLY616  TRP617  ASP618  TYR619  PRO620  LYS621  CYS622 
 ASP623  PHE694  ASN695  SER759  ASP760  ASP761  ALA762  ILE779  LEU786  VAL792 
 PHE793  MET794  SER795  GLU796  ALA797  LYS798  CYS799  TRP800  GLU811  SER814 

> <Gold.Protein.RotatedAtoms>
  151.4705  133.3570  159.2822 H   0  0  0  0  0  0  0  0  0  0  0  0  # atno 6907 bound_to 6896
  150.8964  134.8374  159.7340 H   0  0  0  0  0  0  0  0  0  0  0  0  # atno 6908 bound_to 6896
  152.4854  134.4621  159.9660 H   0  0  0  0  0  0  0  0  0  0  0  0  # atno 6909 bound_to 6896
  145.7296  139.2678  143.1549 H   0  0  0  0  0  0  0  0  0  0  0  0  # atno 7974 bound_to 7965
  156.2163  140.1800  156.7582 H   0  0  0  0  0  0  0  0  0  0  0  0  # atno 8008 bound_to 7997
  154.5796  140.0668  156.9114 H   0  0  0  0  0  0  0  0  0  0  0  0  # atno 8009 bound_to 7997
  155.2526  140.3330  155.4283 H   0  0  0  0  0  0  0  0  0  0  0  0  # atno 8010 bound_to 7997
  140.7285  143.4238  151.0910 H   0  0  0  0  0  0  0  0  0  0  0  0  # atno 10167 bound_to 10162
  157.6263  131.1003  150.7229 H   0  0  0  0  0  0  0  0  0  0  0  0  # atno 10718 bound_to 10713
  154.7782  135.4836  153.9788 H   0  0  0  0  0  0  0  0  0  0  0  0  # atno 10763 bound_to 10752
  153.1457  135.6781  153.8965 H   0  0  0  0  0  0  0  0  0  0  0  0  # atno 10764 bound_to 10752
  153.8626  135.3153  155.3417 H   0  0  0  0  0  0  0  0  0  0  0  0  # atno 10765 bound_to 10752
  140.4702  134.6173  157.4879 H   0  0  0  0  0  0  0  0  0  0  0  0  # atno 11005 bound_to 11000
  146.0550  140.8030  142.9763 LP  0  0  0  0  0  0  0  0  0  0  0  0  # atno 17320 bound_to 7965
  144.6896  140.3110  143.7248 LP  0  0  0  0  0  0  0  0  0  0  0  0  # atno 17321 bound_to 7965
  139.7886  143.8251  152.3148 LP  0  0  0  0  0  0  0  0  0  0  0  0  # atno 17342 bound_to 10162
  139.8227  144.7289  150.9552 LP  0  0  0  0  0  0  0  0  0  0  0  0  # atno 17343 bound_to 10162
  156.7577  130.4788  149.5443 LP  0  0  0  0  0  0  0  0  0  0  0  0  # atno 17370 bound_to 10713
  156.1438  130.6263  151.0503 LP  0  0  0  0  0  0  0  0  0  0  0  0  # atno 17371 bound_to 10713
  139.9890  134.7015  155.9723 LP  0  0  0  0  0  0  0  0  0  0  0  0  # atno 17394 bound_to 11000
  141.1581  133.6541  156.4226 LP  0  0  0  0  0  0  0  0  0  0  0  0  # atno 17395 bound_to 11000

$$$$
