AV-unprocessed.smi:3127|AV-procd|sdf|11914|dock7
  -GOLD-   2272017293D 1   1.00000     0.00000
 Structure written by MMmdl.
 34 35  0  0  0  0  0  0  0  0  2 V2000
  152.5153  145.0155  158.6175 C   0  0  0  0  0  0  0  0  0  0  0  0
  151.7321  144.0713  159.5548 C   0  0  0  0  0  0  0  0  0  0  0  0
  152.1795  144.3598  161.0014 C   0  0  0  0  0  0  0  0  0  0  0  0
  150.2307  144.3827  159.3983 C   0  0  0  0  0  0  0  0  0  0  0  0
  151.9959  142.6182  159.2133 C   0  0  0  0  0  0  0  0  0  0  0  0
  152.6626  141.6764  159.9635 C   0  0  0  0  0  0  0  0  0  0  0  0
  152.7348  140.1272  159.1701 S   0  0  0  0  0  0  0  0  0  0  0  0
  151.8271  140.8065  157.8277 C   0  0  0  0  0  0  0  0  0  0  0  0
  151.4805  140.0253  156.6012 C   0  0  2  0  0  0  0  0  0  0  0  0
  150.5599  138.8289  156.9080 C   0  0  0  0  0  0  0  0  0  0  0  0
  150.3262  138.0446  155.6798 N   0  3  0  0  0  0  0  0  0  0  0  0
  151.5969  137.6303  155.0524 C   0  0  0  0  0  0  0  0  0  0  0  0
  152.4926  138.8576  154.8080 C   0  0  0  0  0  0  0  0  0  0  0  0
  152.7004  139.5531  156.0330 O   0  0  0  0  0  0  0  0  0  0  0  0
  151.5383  142.0999  157.9944 N   0  0  0  0  0  0  0  0  0  0  0  0
  152.3293  146.0619  158.8623 H   0  0  0  0  0  0  0  0  0  0  0  0
  152.2303  144.8732  157.5741 H   0  0  0  0  0  0  0  0  0  0  0  0
  153.5912  144.8530  158.6937 H   0  0  0  0  0  0  0  0  0  0  0  0
  153.2403  144.1460  161.1377 H   0  0  0  0  0  0  0  0  0  0  0  0
  151.6276  143.7550  161.7219 H   0  0  0  0  0  0  0  0  0  0  0  0
  152.0181  145.4051  161.2665 H   0  0  0  0  0  0  0  0  0  0  0  0
  150.0165  145.4289  159.6195 H   0  0  0  0  0  0  0  0  0  0  0  0
  149.6217  143.7790  160.0721 H   0  0  0  0  0  0  0  0  0  0  0  0
  149.8899  144.1850  158.3812 H   0  0  0  0  0  0  0  0  0  0  0  0
  153.1209  141.7958  160.9342 H   0  0  0  0  0  0  0  0  0  0  0  0
  150.9942  140.7021  155.8962 H   0  0  0  0  0  0  0  0  0  0  0  0
  151.0126  138.1825  157.6615 H   0  0  0  0  0  0  0  0  0  0  0  0
  149.6040  139.1692  157.3072 H   0  0  0  0  0  0  0  0  0  0  0  0
  149.7788  137.2253  155.9032 H   0  0  0  0  0  0  0  0  0  0  0  0
  152.1041  136.9186  155.7052 H   0  0  0  0  0  0  0  0  0  0  0  0
  151.3869  137.1147  154.1152 H   0  0  0  0  0  0  0  0  0  0  0  0
  153.4585  138.5459  154.4103 H   0  0  0  0  0  0  0  0  0  0  0  0
  152.0454  139.5258  154.0701 H   0  0  0  0  0  0  0  0  0  0  0  0
  149.8121  138.6155  155.0240 H   0  0  0  0  0  0  0  0  0  0  0  0
  1  2  1  0  0  0  0
  1 16  1  0  0  0  0
  1 17  1  0  0  0  0
  1 18  1  0  0  0  0
  2  3  1  0  0  0  0
  2  4  1  0  0  0  0
  2  5  1  0  0  0  0
  3 19  1  0  0  0  0
  3 20  1  0  0  0  0
  3 21  1  0  0  0  0
  4 22  1  0  0  0  0
  4 23  1  0  0  0  0
  4 24  1  0  0  0  0
  5 15  1  0  0  0  0
  5  6  2  0  0  0  0
  6  7  1  0  0  0  0
  6 25  1  0  0  0  0
  7  8  1  0  0  0  0
  8  9  1  0  0  0  0
  8 15  2  0  0  0  0
  9 14  1  0  0  0  0
  9 10  1  0  0  0  0
  9 26  1  0  0  0  0
 10 11  1  0  0  0  0
 10 27  1  0  0  0  0
 10 28  1  0  0  0  0
 11 12  1  0  0  0  0
 11 29  1  0  0  0  0
 11 34  1  0  0  0  0
 12 13  1  0  0  0  0
 12 30  1  0  0  0  0
 12 31  1  0  0  0  0
 13 14  1  0  0  0  0
 13 32  1  0  0  0  0
 13 33  1  0  0  0  0
M  CHG  1  11   1
M  END
> <s_m_source_file>
AV-unprocessed.smi

> <i_m_source_file_index>
3127

> <i_lp_mmshare_version>
43012

> <i_f3d_flags>
0

> <s_epik_input>
W0NIM11DKFtDSDNdKShbQ0gzXSljMVtjSF1zYyhuMSlbQ0BASF0yW0NIMl1bTkhdW0NIMl1bQ0gyXU8y

> <s_epik_cmdline>
J2VwaWtfcHl0aG9uJywgJy1waCcsICc3LjAnLCAnLXRuJywgJzgnLCAnLW1hJywgJzIwMCcsICctbWV0YWxfYmluZGluZycsICctaW1hZScsICc8aW5maWxlLm1hZT4nLCAnLW9tYWUnLCAnPG91dGZpbGUubWFlPic=

> <r_epik_Ionization_Penalty>
0.125708

> <r_epik_Ionization_Penalty_Charging>
0.125708

> <r_epik_Ionization_Penalty_Neutral>
5.37588e-07

> <r_epik_State_Penalty>
0.0155352

> <r_epik_Charging_Adjusted_Penalty>
0.141243

> <i_epik_Tot_Q>
1

> <i_epik_Tot_abs_Q>
1

> <r_epik_Metal_State_Penalty>
0.0155796

> <b_epik_Metal_Only>
0

> <s_lp_Force_Field>
OPLS_2005

> <r_lp_Energy>
5.69116

> <b_lp_Chiralities_Consistent>
1

> <s_lp_Variant>
AV-unprocessed.smi:3127-1

> <Gold.Version>
5.8.1

> <Gold.Id.Protein>
6NUR|6NUR_protein|mol2

> <Gold.PLP.Fitness>
36.7811

> <Gold.PLP.PLP>
-34.0937

> <Gold.PLP.part.hbond>
-1.0000

> <Gold.PLP.part.metal>
0.0000

> <Gold.PLP.part.buried>
-5.2810

> <Gold.PLP.part.nonpolar>
-27.8977

> <Gold.PLP.part.repulsive>
0.0502

> <Gold.PLP.ligand.clash>
0.0000

> <Gold.PLP.ligand.torsion>
0.1624

> <Gold.PLP.Chemscore.Hbond>
1.0000

> <Gold.PLP.Chemscore.CHOScore>
0.0000

> <Gold.PLP.Chemscore.Metal>
0.0000

> <Gold.Chemscore.Hbonds>
donor molecule, donor type, donor heavy atom, donor atom, acceptor molecule, acceptor atom, score
      P1  H  7997  8010       L1    14  1.00

> <Gold.PLP.Chemscore.Internal.Correction>
0.0123

> <Gold.Rescore>
     Score         DG    S(hbond)    S(metal)    S(lipo)     H(rot)  DE(clash)    DE(int)     intcor
     17.89     -18.02       0.98        0.00     104.01       1.14       0.01       0.12       ----

> <Gold.Chemscore.Fitness>
17.8948

> <Gold.Chemscore.DG>
-18.0201

> <Gold.Chemscore.ZeroCoef>
-5.4800

> <Gold.Chemscore.Hbond>
0.9842

> <Gold.Chemscore.Metal>
0.0000

> <Gold.Chemscore.Lipo>
104.0137

> <Gold.Chemscore.Internal_Hbond>
0.0000

> <Gold.Chemscore.DEClash>
0.0064

> <Gold.Chemscore.DEInternal>
0.1189

> <Gold.Chemscore.Rot>
1.1393

> <Gold.Chemscore.Internal.Correction>
   9.000000E+99

> <Gold.Chemscore.Hbonds>
donor molecule, donor type, donor heavy atom, donor atom, acceptor molecule, acceptor atom, score
      P1  H  7997  8010       L1    14  0.88

> <Gold.Chemscore.Hbond.Weighted>
-3.2872

> <Gold.Chemscore.Metal.Weighted>
-0.0000

> <Gold.Chemscore.Lipo.Weighted>
-12.1696

> <Gold.Chemscore.Internal_Hbond.Weighted>
0.0000

> <Gold.Chemscore.DEClash.Weighted>
0.0064

> <Gold.Chemscore.DEInternal.Weighted>
0.1189

> <Gold.Chemscore.Rot.Weighted>
2.9167

> <Gold.Chemscore.Internal.Correction.Weighted>
   9.000000E+99

> <Gold.Protein.RotatedTorsions>
[ 6907 6896 6895 6894 ] final -175.08 input  -60.11 | X-H torsion
[ 7974 7965 7964 7962 ] final  163.50 input  175.53 | X-H torsion
[ 8008 7997 7996 7995 ] final   82.83 input   59.86 | X-H torsion
[ 10167 10162 10161 10158 ] final  124.49 input  -65.29 | X-H torsion
[ 10718 10713 10712 10709 ] final -130.26 input   66.30 | X-H torsion
[ 10763 10752 10751 10750 ] final   59.96 input  -60.55 | X-H torsion
[ 11005 11000 10999 10996 ] final  -82.33 input  -57.11 | X-H torsion

> <Gold.Protein.ActiveResidues>
 VAL166  LYS551  ARG553  GLY616  TRP617  ASP618  TYR619  PRO620  LYS621  CYS622 
 ASP623  PHE694  ASN695  SER759  ASP760  ASP761  ALA762  ILE779  LEU786  VAL792 
 PHE793  MET794  SER795  GLU796  ALA797  LYS798  CYS799  TRP800  GLU811  SER814 

> <Gold.Protein.RotatedAtoms>
  151.5827  133.3376  159.3011 H   0  0  0  0  0  0  0  0  0  0  0  0  # atno 6907 bound_to 6896
  150.8304  134.7558  159.6860 H   0  0  0  0  0  0  0  0  0  0  0  0  # atno 6908 bound_to 6896
  152.4388  134.5638  159.9953 H   0  0  0  0  0  0  0  0  0  0  0  0  # atno 6909 bound_to 6896
  144.7587  139.8191  143.6340 H   0  0  0  0  0  0  0  0  0  0  0  0  # atno 7974 bound_to 7965
  155.9159  140.3424  155.6135 H   0  0  0  0  0  0  0  0  0  0  0  0  # atno 8008 bound_to 7997
  155.7332  140.0798  157.2298 H   0  0  0  0  0  0  0  0  0  0  0  0  # atno 8009 bound_to 7997
  154.4062  140.1584  156.2519 H   0  0  0  0  0  0  0  0  0  0  0  0  # atno 8010 bound_to 7997
  139.5739  144.6953  151.3706 H   0  0  0  0  0  0  0  0  0  0  0  0  # atno 10167 bound_to 10162
  156.2127  130.6929  151.0668 H   0  0  0  0  0  0  0  0  0  0  0  0  # atno 10718 bound_to 10713
  152.9908  135.5553  154.5797 H   0  0  0  0  0  0  0  0  0  0  0  0  # atno 10763 bound_to 10752
  154.5181  135.2806  155.1288 H   0  0  0  0  0  0  0  0  0  0  0  0  # atno 10764 bound_to 10752
  154.2653  135.6373  153.5342 H   0  0  0  0  0  0  0  0  0  0  0  0  # atno 10765 bound_to 10752
  141.1663  133.7239  156.8556 H   0  0  0  0  0  0  0  0  0  0  0  0  # atno 11005 bound_to 11000
  146.1626  139.4746  142.9978 LP  0  0  0  0  0  0  0  0  0  0  0  0  # atno 17320 bound_to 7965
  145.6692  141.0221  143.1667 LP  0  0  0  0  0  0  0  0  0  0  0  0  # atno 17321 bound_to 7965
  140.7022  143.7603  150.7422 LP  0  0  0  0  0  0  0  0  0  0  0  0  # atno 17342 bound_to 10162
  140.1117  143.4693  152.2366 LP  0  0  0  0  0  0  0  0  0  0  0  0  # atno 17343 bound_to 10162
  157.7047  131.0761  150.6706 LP  0  0  0  0  0  0  0  0  0  0  0  0  # atno 17370 bound_to 10713
  156.6766  130.4555  149.5640 LP  0  0  0  0  0  0  0  0  0  0  0  0  # atno 17371 bound_to 10713
  140.1885  134.8983  157.3032 LP  0  0  0  0  0  0  0  0  0  0  0  0  # atno 17394 bound_to 11000
  140.2317  134.3902  155.7519 LP  0  0  0  0  0  0  0  0  0  0  0  0  # atno 17395 bound_to 11000

$$$$
