AV-unprocessed.smi:2986|AV-procd|sdf|11382|dock5
  -GOLD-   2272016303D 1   1.00000     0.00000
 Structure written by MMmdl.
 43 45  0  0  0  0  0  0  0  0  2 V2000
  151.6972  137.9880  153.9724 C   0  0  0  0  0  0  0  0  0  0  0  0
  151.2575  138.7154  155.1059 O   0  0  0  0  0  0  0  0  0  0  0  0
  152.3304  139.1426  155.9263 C   0  0  0  0  0  0  0  0  0  0  0  0
  151.7563  139.6791  157.2424 C   0  0  0  0  0  0  0  0  0  0  0  0
  151.3785  141.0946  157.1424 N   0  0  0  0  0  0  0  0  0  0  0  0
  150.5724  141.7352  156.2517 C   0  0  0  0  0  0  0  0  0  0  0  0
  149.7097  140.9984  154.9030 S   0  0  0  0  0  0  0  0  0  0  0  0
  148.0239  141.6609  155.0320 C   0  0  0  0  0  0  0  0  0  0  0  0
  147.3860  141.3891  156.3942 C   0  0  0  0  0  0  0  0  0  0  0  0
  146.9295  140.2721  156.6330 O   0  0  0  0  0  0  0  0  0  0  0  0
  147.3613  142.4299  157.2459 N   0  0  0  0  0  0  0  0  0  0  0  0
  146.7822  142.5004  158.5379 C   0  0  0  0  0  0  0  0  0  0  0  0
  146.9045  143.5798  159.4602 C   0  0  0  0  0  0  0  0  0  0  0  0
  146.1678  143.1533  160.5289 C   0  0  0  0  0  0  0  0  0  0  0  0
  145.8488  143.7646  161.8499 C   0  0  0  0  0  0  0  0  0  0  0  0
  145.6437  141.9226  160.2825 O   0  0  0  0  0  0  0  0  0  0  0  0
  146.0406  141.5130  159.0043 N   0  0  0  0  0  0  0  0  0  0  0  0
  150.5191  143.0478  156.6072 N   0  3  0  0  0  0  0  0  0  0  0  0
  151.3147  143.2550  157.7354 C   0  0  0  0  0  0  0  0  0  0  0  0
  151.5816  144.4113  158.4623 C   0  0  0  0  0  0  0  0  0  0  0  0
  152.4454  144.2774  159.5692 C   0  0  0  0  0  0  0  0  0  0  0  0
  153.0065  143.0312  159.9172 C   0  0  0  0  0  0  0  0  0  0  0  0
  152.7270  141.8649  159.1747 C   0  0  0  0  0  0  0  0  0  0  0  0
  151.8721  142.0056  158.0822 C   0  0  0  0  0  0  0  0  0  0  0  0
  150.8365  137.6751  153.3815 H   0  0  0  0  0  0  0  0  0  0  0  0
  152.2466  137.0926  154.2663 H   0  0  0  0  0  0  0  0  0  0  0  0
  152.3385  138.5994  153.3361 H   0  0  0  0  0  0  0  0  0  0  0  0
  153.0067  138.3082  156.1187 H   0  0  0  0  0  0  0  0  0  0  0  0
  152.9019  139.9227  155.4207 H   0  0  0  0  0  0  0  0  0  0  0  0
  150.8684  139.1127  157.5237 H   0  0  0  0  0  0  0  0  0  0  0  0
  152.4679  139.5614  158.0603 H   0  0  0  0  0  0  0  0  0  0  0  0
  148.0564  142.7361  154.8510 H   0  0  0  0  0  0  0  0  0  0  0  0
  147.4069  141.2238  154.2467 H   0  0  0  0  0  0  0  0  0  0  0  0
  147.7676  143.2907  156.9086 H   0  0  0  0  0  0  0  0  0  0  0  0
  147.4339  144.5163  159.3702 H   0  0  0  0  0  0  0  0  0  0  0  0
  146.2862  144.7595  161.9349 H   0  0  0  0  0  0  0  0  0  0  0  0
  146.2388  143.1522  162.6629 H   0  0  0  0  0  0  0  0  0  0  0  0
  144.7707  143.8573  161.9821 H   0  0  0  0  0  0  0  0  0  0  0  0
  151.1532  145.3670  158.1981 H   0  0  0  0  0  0  0  0  0  0  0  0
  152.6828  145.1481  160.1633 H   0  0  0  0  0  0  0  0  0  0  0  0
  153.6650  142.9680  160.7714 H   0  0  0  0  0  0  0  0  0  0  0  0
  153.1621  140.9151  159.4487 H   0  0  0  0  0  0  0  0  0  0  0  0
  149.9781  143.7464  156.1143 H   0  0  0  0  0  0  0  0  0  0  0  0
  1  2  1  0  0  0  0
  1 25  1  0  0  0  0
  1 26  1  0  0  0  0
  1 27  1  0  0  0  0
  2  3  1  0  0  0  0
  3  4  1  0  0  0  0
  3 28  1  0  0  0  0
  3 29  1  0  0  0  0
  4  5  1  0  0  0  0
  4 30  1  0  0  0  0
  4 31  1  0  0  0  0
  5 24  1  0  0  0  0
  5  6  1  0  0  0  0
  6  7  1  0  0  0  0
  6 18  2  0  0  0  0
  7  8  1  0  0  0  0
  8  9  1  0  0  0  0
  8 32  1  0  0  0  0
  8 33  1  0  0  0  0
  9 10  2  0  0  0  0
  9 11  1  0  0  0  0
 11 12  1  0  0  0  0
 11 34  1  0  0  0  0
 12 17  2  0  0  0  0
 12 13  1  0  0  0  0
 13 14  2  0  0  0  0
 13 35  1  0  0  0  0
 14 15  1  0  0  0  0
 14 16  1  0  0  0  0
 15 36  1  0  0  0  0
 15 37  1  0  0  0  0
 15 38  1  0  0  0  0
 16 17  1  0  0  0  0
 18 19  1  0  0  0  0
 18 43  1  0  0  0  0
 19 24  2  0  0  0  0
 19 20  1  0  0  0  0
 20 21  2  0  0  0  0
 20 39  1  0  0  0  0
 21 22  1  0  0  0  0
 21 40  1  0  0  0  0
 22 23  2  0  0  0  0
 22 41  1  0  0  0  0
 23 24  1  0  0  0  0
 23 42  1  0  0  0  0
M  CHG  1  18   1
M  END
> <s_m_source_file>
AV-unprocessed.smi

> <i_m_source_file_index>
2986

> <i_lp_mmshare_version>
43012

> <i_f3d_flags>
0

> <s_epik_input>
W2NIXTFbY0hdW2NIXVtjSF1jKGMxMiluKFtDSDJdW0NIMl1PW0NIM10pYyhuMilTW0NIMl1DKD1PKVtOSF1jM1tjSF1jKFtDSDNdKW9uMw==

> <s_epik_cmdline>
J2VwaWtfcHl0aG9uJywgJy1waCcsICc3LjAnLCAnLXRuJywgJzgnLCAnLW1hJywgJzIwMCcsICctbWV0YWxfYmluZGluZycsICctaW1hZScsICc8aW5maWxlLm1hZT4nLCAnLW9tYWUnLCAnPG91dGZpbGUubWFlPic=

> <r_epik_Ionization_Penalty>
1.88527

> <r_epik_Ionization_Penalty_Charging>
1.88465

> <r_epik_Ionization_Penalty_Neutral>
0.000624705

> <r_epik_State_Penalty>
2.00469

> <r_epik_Charging_Adjusted_Penalty>
3.88934

> <i_epik_Tot_Q>
1

> <i_epik_Tot_abs_Q>
1

> <r_epik_Metal_State_Penalty>
2.24687

> <b_epik_Metal_Only>
0

> <s_lp_Force_Field>
OPLS_2005

> <r_lp_Energy>
12.3116

> <b_lp_Chiralities_Consistent>
1

> <s_lp_Variant>
AV-unprocessed.smi:2986-2

> <Gold.Version>
5.8.1

> <Gold.Id.Protein>
6NUR|6NUR_protein|mol2

> <Gold.PLP.Fitness>
55.0797

> <Gold.PLP.PLP>
-49.3900

> <Gold.PLP.part.hbond>
-3.8136

> <Gold.PLP.part.metal>
0.0000

> <Gold.PLP.part.buried>
-5.6760

> <Gold.PLP.part.nonpolar>
-40.4775

> <Gold.PLP.part.repulsive>
0.1483

> <Gold.PLP.ligand.clash>
0.0000

> <Gold.PLP.ligand.torsion>
0.6424

> <Gold.PLP.Chemscore.Hbond>
2.2901

> <Gold.PLP.Chemscore.CHOScore>
0.0000

> <Gold.PLP.Chemscore.Metal>
0.0000

> <Gold.Chemscore.Hbonds>
donor molecule, donor type, donor heavy atom, donor atom, acceptor molecule, acceptor atom, score
      L1  H    11    34       P1  8028  0.29
      L1  H    18    43       P1  8028  1.98
      P1  H  6934  6946       L1    16  0.05

> <Gold.PLP.Chemscore.Internal.Correction>
0.1042

> <Gold.Rescore>
     Score         DG    S(hbond)    S(metal)    S(lipo)     H(rot)  DE(clash)    DE(int)     intcor
     14.41     -16.32       0.99        0.00     115.71       2.35       0.05       1.85       ----

> <Gold.Chemscore.Fitness>
14.4128

> <Gold.Chemscore.DG>
-16.3207

> <Gold.Chemscore.ZeroCoef>
-5.4800

> <Gold.Chemscore.Hbond>
0.9899

> <Gold.Chemscore.Metal>
0.0000

> <Gold.Chemscore.Lipo>
115.7141

> <Gold.Chemscore.Internal_Hbond>
0.0000

> <Gold.Chemscore.DEClash>
0.0542

> <Gold.Chemscore.DEInternal>
1.8536

> <Gold.Chemscore.Rot>
2.3453

> <Gold.Chemscore.Internal.Correction>
   9.000000E+99

> <Gold.Chemscore.Hbonds>
donor molecule, donor type, donor heavy atom, donor atom, acceptor molecule, acceptor atom, score
      L1  H    11    34       P1  8028  0.01
      L1  H    18    43       P1  8028  0.92

> <Gold.Chemscore.Hbond.Weighted>
-3.3062

> <Gold.Chemscore.Metal.Weighted>
-0.0000

> <Gold.Chemscore.Lipo.Weighted>
-13.5386

> <Gold.Chemscore.Internal_Hbond.Weighted>
0.0000

> <Gold.Chemscore.DEClash.Weighted>
0.0542

> <Gold.Chemscore.DEInternal.Weighted>
1.8536

> <Gold.Chemscore.Rot.Weighted>
6.0040

> <Gold.Chemscore.Internal.Correction.Weighted>
   9.000000E+99

> <Gold.Protein.RotatedTorsions>
[ 6907 6896 6895 6894 ] final  142.48 input  -60.11 | X-H torsion
[ 7974 7965 7964 7962 ] final -148.08 input  175.53 | X-H torsion
[ 8008 7997 7996 7995 ] final   -8.27 input   59.86 | X-H torsion
[ 10167 10162 10161 10158 ] final  -91.64 input  -65.29 | X-H torsion
[ 10718 10713 10712 10709 ] final  112.51 input   66.30 | X-H torsion
[ 10763 10752 10751 10750 ] final -159.04 input  -60.55 | X-H torsion
[ 11005 11000 10999 10996 ] final  106.23 input  -57.11 | X-H torsion

> <Gold.Protein.ActiveResidues>
 VAL166  LYS551  ARG553  GLY616  TRP617  ASP618  TYR619  PRO620  LYS621  CYS622 
 ASP623  PHE694  ASN695  SER759  ASP760  ASP761  ALA762  ILE779  LEU786  VAL792 
 PHE793  MET794  SER795  GLU796  ALA797  LYS798  CYS799  TRP800  GLU811  SER814 

> <Gold.Protein.RotatedAtoms>
  152.2181  133.4963  159.5147 H   0  0  0  0  0  0  0  0  0  0  0  0  # atno 6907 bound_to 6896
  150.7006  134.1378  159.4102 H   0  0  0  0  0  0  0  0  0  0  0  0  # atno 6908 bound_to 6896
  151.9298  135.0261  160.0579 H   0  0  0  0  0  0  0  0  0  0  0  0  # atno 6909 bound_to 6896
  144.8052  140.5243  143.5680 H   0  0  0  0  0  0  0  0  0  0  0  0  # atno 7974 bound_to 7965
  154.5758  140.2385  155.8125 H   0  0  0  0  0  0  0  0  0  0  0  0  # atno 8008 bound_to 7997
  156.2142  140.3017  155.9758 H   0  0  0  0  0  0  0  0  0  0  0  0  # atno 8009 bound_to 7997
  155.2630  140.0415  157.2990 H   0  0  0  0  0  0  0  0  0  0  0  0  # atno 8010 bound_to 7997
  140.3429  143.2932  151.9815 H   0  0  0  0  0  0  0  0  0  0  0  0  # atno 10167 bound_to 10162
  157.6389  131.0969  150.6905 H   0  0  0  0  0  0  0  0  0  0  0  0  # atno 10718 bound_to 10713
  154.7507  135.3092  154.8562 H   0  0  0  0  0  0  0  0  0  0  0  0  # atno 10763 bound_to 10752
  153.9350  135.6781  153.4749 H   0  0  0  0  0  0  0  0  0  0  0  0  # atno 10764 bound_to 10752
  153.1103  135.4869  154.8952 H   0  0  0  0  0  0  0  0  0  0  0  0  # atno 10765 bound_to 10752
  139.8811  134.9362  156.5634 H   0  0  0  0  0  0  0  0  0  0  0  0  # atno 11005 bound_to 11000
  145.5455  139.1476  143.3423 LP  0  0  0  0  0  0  0  0  0  0  0  0  # atno 17320 bound_to 7965
  146.2342  140.5594  142.8962 LP  0  0  0  0  0  0  0  0  0  0  0  0  # atno 17321 bound_to 7965
  139.4838  144.6142  151.7378 LP  0  0  0  0  0  0  0  0  0  0  0  0  # atno 17342 bound_to 10162
  140.5292  144.0757  150.6048 LP  0  0  0  0  0  0  0  0  0  0  0  0  # atno 17343 bound_to 10162
  156.7232  130.4687  149.5517 LP  0  0  0  0  0  0  0  0  0  0  0  0  # atno 17370 bound_to 10713
  156.1651  130.6400  151.0768 LP  0  0  0  0  0  0  0  0  0  0  0  0  # atno 17371 bound_to 10713
  140.8152  133.8397  155.8845 LP  0  0  0  0  0  0  0  0  0  0  0  0  # atno 17394 bound_to 11000
  140.9469  134.1828  157.4756 LP  0  0  0  0  0  0  0  0  0  0  0  0  # atno 17395 bound_to 11000

$$$$
