AV-unprocessed.smi:2252|AV-procd|sdf|9110|dock1
  -GOLD-   2272012313D 1   1.00000     0.00000
 Structure written by MMmdl.
 45 47  0  0  0  0  0  0  0  0  4 V2000
  153.3081  141.9192  159.2215 C   0  0  0  0  0  0  0  0  0  0  0  0
  152.4709  143.0647  158.8622 N   0  0  0  0  0  0  0  0  0  0  0  0
  152.5029  144.3065  159.4434 C   0  0  0  0  0  0  0  0  0  0  0  0
  151.5726  145.0709  158.7901 C   0  0  0  0  0  0  0  0  0  0  0  0
  151.0119  144.2653  157.8375 N   0  3  0  0  0  0  0  0  0  0  0  0
  151.5489  143.0374  157.8830 C   0  0  0  0  0  0  0  0  0  0  0  0
  151.1828  141.8831  156.9859 C   0  0  0  0  0  0  0  0  0  0  0  0
  150.1926  142.2217  155.8495 C   0  0  0  0  0  0  0  0  0  0  0  0
  150.0452  141.1046  154.9161 N   0  5  0  0  0  0  0  0  0  0  0  0
  149.9540  139.7986  155.3007 C   0  0  0  0  0  0  0  0  0  0  0  0
  149.8124  139.3098  156.4256 O   0  0  0  0  0  0  0  0  0  0  0  0
  150.0642  138.8361  154.1002 C   0  0  1  0  0  0  0  0  0  0  0  0
  151.3596  137.9981  154.2043 C   0  0  0  0  0  0  0  0  0  0  0  0
  152.0765  137.8409  155.5285 C   0  0  0  0  0  0  0  0  0  0  0  0
  152.7039  138.6577  154.4302 C   0  0  0  0  0  0  0  0  0  0  0  0
  148.8539  137.9765  153.9471 N   0  3  0  0  0  0  0  0  0  0  0  0
  148.5778  137.0575  155.0715 C   0  0  0  0  0  0  0  0  0  0  0  0
  147.1402  136.5992  154.8515 C   0  0  0  0  0  0  0  0  0  0  0  0
  146.4515  137.8161  154.2333 C   0  0  0  0  0  0  0  0  0  0  0  0
  147.5857  138.6969  153.6889 C   0  0  0  0  0  0  0  0  0  0  0  0
  153.8341  142.1280  160.1533 H   0  0  0  0  0  0  0  0  0  0  0  0
  154.0321  141.7413  158.4260 H   0  0  0  0  0  0  0  0  0  0  0  0
  152.6819  141.0381  159.3520 H   0  0  0  0  0  0  0  0  0  0  0  0
  153.1714  144.5495  160.2566 H   0  0  0  0  0  0  0  0  0  0  0  0
  151.2765  146.1008  158.9261 H   0  0  0  0  0  0  0  0  0  0  0  0
  152.1207  141.5268  156.5592 H   0  0  0  0  0  0  0  0  0  0  0  0
  150.8018  141.0719  157.6062 H   0  0  0  0  0  0  0  0  0  0  0  0
  149.2318  142.4856  156.2918 H   0  0  0  0  0  0  0  0  0  0  0  0
  150.5325  143.1274  155.3461 H   0  0  0  0  0  0  0  0  0  0  0  0
  150.1335  139.4518  153.2012 H   0  0  0  0  0  0  0  0  0  0  0  0
  151.3632  137.1151  153.5671 H   0  0  0  0  0  0  0  0  0  0  0  0
  151.6766  138.3762  156.3876 H   0  0  0  0  0  0  0  0  0  0  0  0
  152.5235  136.8738  155.7486 H   0  0  0  0  0  0  0  0  0  0  0  0
  153.5629  138.2332  153.9147 H   0  0  0  0  0  0  0  0  0  0  0  0
  152.7294  139.7371  154.5667 H   0  0  0  0  0  0  0  0  0  0  0  0
  149.2728  136.2177  155.1015 H   0  0  0  0  0  0  0  0  0  0  0  0
  148.6565  137.5977  156.0164 H   0  0  0  0  0  0  0  0  0  0  0  0
  147.1256  135.7704  154.1422 H   0  0  0  0  0  0  0  0  0  0  0  0
  146.6602  136.2606  155.7700 H   0  0  0  0  0  0  0  0  0  0  0  0
  145.7525  137.5209  153.4501 H   0  0  0  0  0  0  0  0  0  0  0  0
  145.8869  138.3612  154.9907 H   0  0  0  0  0  0  0  0  0  0  0  0
  147.5790  139.6506  154.2179 H   0  0  0  0  0  0  0  0  0  0  0  0
  147.4704  138.9024  152.6243 H   0  0  0  0  0  0  0  0  0  0  0  0
  149.0219  137.3877  153.1433 H   0  0  0  0  0  0  0  0  0  0  0  0
  150.2847  144.5484  157.1929 H   0  0  0  0  0  0  0  0  0  0  0  0
  1  2  1  0  0  0  0
  1 21  1  0  0  0  0
  1 22  1  0  0  0  0
  1 23  1  0  0  0  0
  2  6  1  0  0  0  0
  2  3  1  0  0  0  0
  3  4  2  0  0  0  0
  3 24  1  0  0  0  0
  4  5  1  0  0  0  0
  4 25  1  0  0  0  0
  5  6  2  0  0  0  0
  5 45  1  0  0  0  0
  6  7  1  0  0  0  0
  7  8  1  0  0  0  0
  7 26  1  0  0  0  0
  7 27  1  0  0  0  0
  8  9  1  0  0  0  0
  8 28  1  0  0  0  0
  8 29  1  0  0  0  0
  9 10  1  0  0  0  0
 10 11  2  0  0  0  0
 10 12  1  0  0  0  0
 12 13  1  0  0  0  0
 12 16  1  0  0  0  0
 12 30  1  0  0  0  0
 13 15  1  0  0  0  0
 13 14  1  0  0  0  0
 13 31  1  0  0  0  0
 14 15  1  0  0  0  0
 14 32  1  0  0  0  0
 14 33  1  0  0  0  0
 15 34  1  0  0  0  0
 15 35  1  0  0  0  0
 16 20  1  0  0  0  0
 16 17  1  0  0  0  0
 16 44  1  0  0  0  0
 17 18  1  0  0  0  0
 17 36  1  0  0  0  0
 17 37  1  0  0  0  0
 18 19  1  0  0  0  0
 18 38  1  0  0  0  0
 18 39  1  0  0  0  0
 19 20  1  0  0  0  0
 19 40  1  0  0  0  0
 19 41  1  0  0  0  0
 20 42  1  0  0  0  0
 20 43  1  0  0  0  0
M  CHG  1   5   1
M  CHG  1   9  -1
M  CHG  1  16   1
M  END
> <s_m_source_file>
AV-unprocessed.smi

> <i_m_source_file_index>
2252

> <i_lp_mmshare_version>
43012

> <i_f3d_flags>
0

> <s_epik_input>
W0NIM11uMVtjSF1bY0hdbmMxW0NIMl1bQ0gyXVtOSF1DKD1PKVtDQEhdKFtDSF0yW0NIMl1bQ0gyXTIpTjNbQ0gyXVtDSDJdW0NIMl1bQ0gyXTM=

> <s_epik_cmdline>
J2VwaWtfcHl0aG9uJywgJy1waCcsICc3LjAnLCAnLXRuJywgJzgnLCAnLW1hJywgJzIwMCcsICctbWV0YWxfYmluZGluZycsICctaW1hZScsICc8aW5maWxlLm1hZT4nLCAnLW9tYWUnLCAnPG91dGZpbGUubWFlPic=

> <r_lp_tautomer_probability>
1

> <r_epik_Ionization_Penalty>
5.88052

> <r_epik_Ionization_Penalty_Charging>
5.85424

> <r_epik_Ionization_Penalty_Neutral>
0.026272

> <r_epik_State_Penalty>
5.94961

> <r_epik_Charging_Adjusted_Penalty>
11.8039

> <i_epik_Tot_Q>
1

> <i_epik_Tot_abs_Q>
3

> <r_epik_Metal_State_Penalty>
2.20001

> <b_epik_Metal_Only>
1

> <s_lp_Force_Field>
OPLS_2005

> <r_lp_Energy>
30.4817

> <b_lp_Chiralities_Consistent>
1

> <s_lp_Variant>
AV-unprocessed.smi:2252-8

> <Gold.Version>
5.8.1

> <Gold.Id.Protein>
6NUR|6NUR_protein|mol2

> <Gold.PLP.Fitness>
52.7267

> <Gold.PLP.PLP>
-39.2160

> <Gold.PLP.part.hbond>
-3.0000

> <Gold.PLP.part.metal>
0.0000

> <Gold.PLP.part.buried>
-2.7823

> <Gold.PLP.part.nonpolar>
-34.1627

> <Gold.PLP.part.repulsive>
0.1628

> <Gold.PLP.ligand.clash>
0.0000

> <Gold.PLP.ligand.torsion>
0.8909

> <Gold.PLP.Chemscore.Hbond>
4.6503

> <Gold.PLP.Chemscore.CHOScore>
0.0000

> <Gold.PLP.Chemscore.Metal>
0.0000

> <Gold.Chemscore.Hbonds>
donor molecule, donor type, donor heavy atom, donor atom, acceptor molecule, acceptor atom, score
      L1  H     5    45       P1  8028  1.92
      L1  H    16    44       P1  7948  2.00
      P1  H  7989  7998       L1     9  0.46

> <Gold.PLP.Chemscore.Internal.Correction>
1.3417

> <Gold.Rescore>
     Score         DG    S(hbond)    S(metal)    S(lipo)     H(rot)  DE(clash)    DE(int)     intcor
     13.34     -18.91       2.22        0.00      94.70       1.98       0.73       4.84       ----

> <Gold.Chemscore.Fitness>
13.3449

> <Gold.Chemscore.DG>
-18.9120

> <Gold.Chemscore.ZeroCoef>
-5.4800

> <Gold.Chemscore.Hbond>
2.2226

> <Gold.Chemscore.Metal>
0.0000

> <Gold.Chemscore.Lipo>
94.6976

> <Gold.Chemscore.Internal_Hbond>
0.0000

> <Gold.Chemscore.DEClash>
0.7321

> <Gold.Chemscore.DEInternal>
4.8351

> <Gold.Chemscore.Rot>
1.9809

> <Gold.Chemscore.Internal.Correction>
   9.000000E+99

> <Gold.Chemscore.Hbonds>
donor molecule, donor type, donor heavy atom, donor atom, acceptor molecule, acceptor atom, score
      L1  H     5    45       P1  8028  0.50
      L1  H    16    44       P1  7948  1.00
      P1  H  7989  7998       L1     9  0.09

> <Gold.Chemscore.Hbond.Weighted>
-7.4235

> <Gold.Chemscore.Metal.Weighted>
-0.0000

> <Gold.Chemscore.Lipo.Weighted>
-11.0796

> <Gold.Chemscore.Internal_Hbond.Weighted>
0.0000

> <Gold.Chemscore.DEClash.Weighted>
0.7321

> <Gold.Chemscore.DEInternal.Weighted>
4.8351

> <Gold.Chemscore.Rot.Weighted>
5.0711

> <Gold.Chemscore.Internal.Correction.Weighted>
   9.000000E+99

> <Gold.Protein.RotatedTorsions>
[ 6907 6896 6895 6894 ] final -157.79 input  -60.11 | X-H torsion
[ 7974 7965 7964 7962 ] final  -20.98 input  175.53 | X-H torsion
[ 8008 7997 7996 7995 ] final  177.02 input   59.86 | X-H torsion
[ 10167 10162 10161 10158 ] final  120.00 input  -65.29 | X-H torsion
[ 10718 10713 10712 10709 ] final  -34.70 input   66.30 | X-H torsion
[ 10763 10752 10751 10750 ] final    3.96 input  -60.55 | X-H torsion
[ 11005 11000 10999 10996 ] final -130.19 input  -57.11 | X-H torsion

> <Gold.Protein.ActiveResidues>
 VAL166  LYS551  ARG553  GLY616  TRP617  ASP618  TYR619  PRO620  LYS621  CYS622 
 ASP623  PHE694  ASN695  SER759  ASP760  ASP761  ALA762  ILE779  LEU786  VAL792 
 PHE793  MET794  SER795  GLU796  ALA797  LYS798  CYS799  TRP800  GLU811  SER814 

> <Gold.Protein.RotatedAtoms>
  151.3082  133.4092  159.2644 H   0  0  0  0  0  0  0  0  0  0  0  0  # atno 6907 bound_to 6896
  151.0136  134.9416  159.8031 H   0  0  0  0  0  0  0  0  0  0  0  0  # atno 6908 bound_to 6896
  152.5307  134.3047  159.9144 H   0  0  0  0  0  0  0  0  0  0  0  0  # atno 6909 bound_to 6896
  146.1758  140.4277  142.8514 H   0  0  0  0  0  0  0  0  0  0  0  0  # atno 7974 bound_to 7965
  156.0702  140.1369  156.9837 H   0  0  0  0  0  0  0  0  0  0  0  0  # atno 8008 bound_to 7997
  154.4528  140.0973  156.6720 H   0  0  0  0  0  0  0  0  0  0  0  0  # atno 8009 bound_to 7997
  155.5239  140.3457  155.4414 H   0  0  0  0  0  0  0  0  0  0  0  0  # atno 8010 bound_to 7997
  139.6010  144.7056  151.3063 H   0  0  0  0  0  0  0  0  0  0  0  0  # atno 10167 bound_to 10162
  156.3474  130.4303  149.7734 H   0  0  0  0  0  0  0  0  0  0  0  0  # atno 10718 bound_to 10713
  153.2770  135.6937  153.7423 H   0  0  0  0  0  0  0  0  0  0  0  0  # atno 10763 bound_to 10752
  153.6425  135.3391  155.3076 H   0  0  0  0  0  0  0  0  0  0  0  0  # atno 10764 bound_to 10752
  154.8483  135.4435  154.1811 H   0  0  0  0  0  0  0  0  0  0  0  0  # atno 10765 bound_to 10752
  140.9367  134.1248  157.4187 H   0  0  0  0  0  0  0  0  0  0  0  0  # atno 11005 bound_to 11000
  144.8235  140.6589  143.6338 LP  0  0  0  0  0  0  0  0  0  0  0  0  # atno 17320 bound_to 7965
  145.4214  139.1563  143.4072 LP  0  0  0  0  0  0  0  0  0  0  0  0  # atno 17321 bound_to 7965
  140.7249  143.7031  150.7829 LP  0  0  0  0  0  0  0  0  0  0  0  0  # atno 17342 bound_to 10162
  140.0608  143.5157  152.2629 LP  0  0  0  0  0  0  0  0  0  0  0  0  # atno 17343 bound_to 10162
  156.4947  130.8101  151.3109 LP  0  0  0  0  0  0  0  0  0  0  0  0  # atno 17370 bound_to 10713
  157.7456  130.9964  150.2778 LP  0  0  0  0  0  0  0  0  0  0  0  0  # atno 17371 bound_to 10713
  139.8809  135.0023  156.6119 LP  0  0  0  0  0  0  0  0  0  0  0  0  # atno 17394 bound_to 11000
  140.7790  133.8676  155.8552 LP  0  0  0  0  0  0  0  0  0  0  0  0  # atno 17395 bound_to 11000

$$$$
