AV-unprocessed.smi:1412|AV-procd|sdf|5747|dock9
  -GOLD-   22720 5383D 1   1.00000     0.00000
 Structure written by MMmdl.
 41 42  0  0  0  0  0  0  0  0  3 V2000
  147.0672  134.9738  153.9941 C   0  0  0  0  0  0  0  0  0  0  0  0
  147.7558  135.3814  155.3087 C   0  0  0  0  0  0  0  0  0  0  0  0
  149.3145  135.4154  155.2908 C   0  0  2  0  0  0  0  0  0  0  0  0
  149.8446  134.2418  154.4237 C   0  0  0  0  0  0  0  0  0  0  0  0
  149.8773  135.2071  156.7292 C   0  0  0  0  0  0  0  0  0  0  0  0
  149.2471  136.0988  157.7050 N   0  0  0  0  0  0  0  0  0  0  0  0
  148.6345  135.7387  158.8419 C   0  0  0  0  0  0  0  0  0  0  0  0
  148.6615  134.5645  159.2156 O   0  0  0  0  0  0  0  0  0  0  0  0
  147.9999  136.7583  159.4599 N   0  5  0  0  0  0  0  0  0  0  0  0
  147.4474  136.5652  160.6687 C   0  0  0  0  0  0  0  0  0  0  0  0
  146.4930  137.3740  161.1570 N   0  0  0  0  0  0  0  0  0  0  0  0
  146.0521  136.9975  162.4182 N   0  0  0  0  0  0  0  0  0  0  0  0
  146.6965  135.9157  162.8553 C   0  0  0  0  0  0  0  0  0  0  0  0
  147.8985  135.2574  161.7651 S   0  0  0  0  0  0  0  0  0  0  0  0
  149.8159  136.7366  154.7589 N   0  3  0  0  0  0  0  0  0  0  0  0
  149.0747  137.9628  155.1652 C   0  0  0  0  0  0  0  0  0  0  0  0
  149.5772  139.1758  154.3604 C   0  0  0  0  0  0  0  0  0  0  0  0
  150.9798  139.3344  154.5289 O   0  0  0  0  0  0  0  0  0  0  0  0
  151.6984  138.1954  154.0741 C   0  0  0  0  0  0  0  0  0  0  0  0
  151.2777  136.9772  154.9091 C   0  0  0  0  0  0  0  0  0  0  0  0
  145.9857  134.9424  154.1283 H   0  0  0  0  0  0  0  0  0  0  0  0
  147.3784  133.9845  153.6605 H   0  0  0  0  0  0  0  0  0  0  0  0
  147.2674  135.6830  153.1914 H   0  0  0  0  0  0  0  0  0  0  0  0
  147.3740  136.3610  155.5973 H   0  0  0  0  0  0  0  0  0  0  0  0
  147.4085  134.6880  156.0747 H   0  0  0  0  0  0  0  0  0  0  0  0
  149.6751  133.2771  154.9025 H   0  0  0  0  0  0  0  0  0  0  0  0
  150.9191  134.3174  154.2524 H   0  0  0  0  0  0  0  0  0  0  0  0
  149.3526  134.1973  153.4516 H   0  0  0  0  0  0  0  0  0  0  0  0
  149.7919  134.1661  157.0418 H   0  0  0  0  0  0  0  0  0  0  0  0
  150.9459  135.4197  156.7541 H   0  0  0  0  0  0  0  0  0  0  0  0
  149.2145  137.0784  157.4618 H   0  0  0  0  0  0  0  0  0  0  0  0
  146.4632  135.5032  163.8255 H   0  0  0  0  0  0  0  0  0  0  0  0
  148.0063  137.8769  154.9752 H   0  0  0  0  0  0  0  0  0  0  0  0
  149.2010  138.1374  156.2343 H   0  0  0  0  0  0  0  0  0  0  0  0
  149.3414  139.0606  153.3010 H   0  0  0  0  0  0  0  0  0  0  0  0
  149.0771  140.0834  154.6990 H   0  0  0  0  0  0  0  0  0  0  0  0
  151.5173  138.0260  153.0112 H   0  0  0  0  0  0  0  0  0  0  0  0
  152.7659  138.3819  154.1917 H   0  0  0  0  0  0  0  0  0  0  0  0
  151.5243  137.1629  155.9553 H   0  0  0  0  0  0  0  0  0  0  0  0
  151.8590  136.1119  154.5976 H   0  0  0  0  0  0  0  0  0  0  0  0
  149.6612  136.6661  153.7622 H   0  0  0  0  0  0  0  0  0  0  0  0
  1  2  1  0  0  0  0
  1 21  1  0  0  0  0
  1 22  1  0  0  0  0
  1 23  1  0  0  0  0
  2  3  1  0  0  0  0
  2 24  1  0  0  0  0
  2 25  1  0  0  0  0
  3  4  1  0  0  0  0
  3  5  1  0  0  0  0
  3 15  1  0  0  0  0
  4 26  1  0  0  0  0
  4 27  1  0  0  0  0
  4 28  1  0  0  0  0
  5  6  1  0  0  0  0
  5 29  1  0  0  0  0
  5 30  1  0  0  0  0
  6  7  1  0  0  0  0
  6 31  1  0  0  0  0
  7  8  2  0  0  0  0
  7  9  1  0  0  0  0
  9 10  1  0  0  0  0
 10 14  1  0  0  0  0
 10 11  2  0  0  0  0
 11 12  1  0  0  0  0
 12 13  2  0  0  0  0
 13 14  1  0  0  0  0
 13 32  1  0  0  0  0
 15 20  1  0  0  0  0
 15 16  1  0  0  0  0
 15 41  1  0  0  0  0
 16 17  1  0  0  0  0
 16 33  1  0  0  0  0
 16 34  1  0  0  0  0
 17 18  1  0  0  0  0
 17 35  1  0  0  0  0
 17 36  1  0  0  0  0
 18 19  1  0  0  0  0
 19 20  1  0  0  0  0
 19 37  1  0  0  0  0
 19 38  1  0  0  0  0
 20 39  1  0  0  0  0
 20 40  1  0  0  0  0
M  CHG  1   9  -1
M  CHG  1  15   1
M  END
> <s_m_source_file>
AV-unprocessed.smi

> <i_m_source_file_index>
1412

> <i_lp_mmshare_version>
43012

> <i_f3d_flags>
0

> <s_epik_input>
W0NIMl0xW0NIMl1PW0NIMl1bQ0gyXU4xW0NAQF0oW0NIM10pKFtDSDJdW0NIM10pW0NIMl1bTkhdQyg9TylbTkhdYzJubltjSF1zMg==

> <s_epik_cmdline>
J2VwaWtfcHl0aG9uJywgJy1waCcsICc3LjAnLCAnLXRuJywgJzgnLCAnLW1hJywgJzIwMCcsICctbWV0YWxfYmluZGluZycsICctaW1hZScsICc8aW5maWxlLm1hZT4nLCAnLW9tYWUnLCAnPG91dGZpbGUubWFlPic=

> <r_lp_tautomer_probability>
1

> <r_epik_Ionization_Penalty>
4.35651

> <r_epik_Ionization_Penalty_Charging>
4.3235

> <r_epik_Ionization_Penalty_Neutral>
0.0330098

> <r_epik_State_Penalty>
4.4846

> <r_epik_Charging_Adjusted_Penalty>
8.8081

> <i_epik_Tot_Q>
0

> <i_epik_Tot_abs_Q>
2

> <r_epik_Metal_State_Penalty>
1.11611

> <b_epik_Metal_Only>
1

> <s_lp_Force_Field>
OPLS_2005

> <r_lp_Energy>
23.2358

> <b_lp_Chiralities_Consistent>
1

> <s_lp_Variant>
AV-unprocessed.smi:1412-8

> <Gold.Version>
5.8.1

> <Gold.Id.Protein>
6NUR|6NUR_protein|mol2

> <Gold.PLP.Fitness>
37.7708

> <Gold.PLP.PLP>
-24.5219

> <Gold.PLP.part.hbond>
-4.0000

> <Gold.PLP.part.metal>
0.0000

> <Gold.PLP.part.buried>
-3.5504

> <Gold.PLP.part.nonpolar>
-17.4792

> <Gold.PLP.part.repulsive>
0.2167

> <Gold.PLP.ligand.clash>
0.0019

> <Gold.PLP.ligand.torsion>
0.9811

> <Gold.PLP.Chemscore.Hbond>
4.9913

> <Gold.PLP.Chemscore.CHOScore>
0.0000

> <Gold.PLP.Chemscore.Metal>
0.0000

> <Gold.Chemscore.Hbonds>
donor molecule, donor type, donor heavy atom, donor atom, acceptor molecule, acceptor atom, score
      L1  H    15    41       P1  7948  1.95
      P1  H  6896  6908       L1     8  1.00
      P1  H  6934  6947       L1    11  1.00
      P1  H  7989  7998       L1    18  1.00

> <Gold.PLP.Chemscore.Internal.Correction>
0.2393

> <Gold.Rescore>
     Score         DG    S(hbond)    S(metal)    S(lipo)     H(rot)  DE(clash)    DE(int)     intcor
     12.97     -17.55       2.86        0.00      62.55       1.88       2.29       2.29       ----

> <Gold.Chemscore.Fitness>
12.9737

> <Gold.Chemscore.DG>
-17.5497

> <Gold.Chemscore.ZeroCoef>
-5.4800

> <Gold.Chemscore.Hbond>
2.8619

> <Gold.Chemscore.Metal>
0.0000

> <Gold.Chemscore.Lipo>
62.5489

> <Gold.Chemscore.Internal_Hbond>
0.0000

> <Gold.Chemscore.DEClash>
2.2868

> <Gold.Chemscore.DEInternal>
2.2893

> <Gold.Chemscore.Rot>
1.8779

> <Gold.Chemscore.Internal.Correction>
   9.000000E+99

> <Gold.Chemscore.Hbonds>
donor molecule, donor type, donor heavy atom, donor atom, acceptor molecule, acceptor atom, score
      L1  H    15    41       P1  7948  0.60
      P1  H  6896  6908       L1     8  0.33
      P1  H  6934  6947       L1    11  0.43
      P1  H  7989  7998       L1    18  0.43

> <Gold.Chemscore.Hbond.Weighted>
-9.5589

> <Gold.Chemscore.Metal.Weighted>
-0.0000

> <Gold.Chemscore.Lipo.Weighted>
-7.3182

> <Gold.Chemscore.Internal_Hbond.Weighted>
0.0000

> <Gold.Chemscore.DEClash.Weighted>
2.2868

> <Gold.Chemscore.DEInternal.Weighted>
2.2893

> <Gold.Chemscore.Rot.Weighted>
4.8074

> <Gold.Chemscore.Internal.Correction.Weighted>
   9.000000E+99

> <Gold.Protein.RotatedTorsions>
[ 6907 6896 6895 6894 ] final  148.95 input  -60.11 | X-H torsion
[ 7974 7965 7964 7962 ] final   34.88 input  175.53 | X-H torsion
[ 8008 7997 7996 7995 ] final  -12.36 input   59.86 | X-H torsion
[ 10167 10162 10161 10158 ] final   21.71 input  -65.29 | X-H torsion
[ 10718 10713 10712 10709 ] final  -94.37 input   66.30 | X-H torsion
[ 10763 10752 10751 10750 ] final   37.49 input  -60.55 | X-H torsion
[ 11005 11000 10999 10996 ] final  161.74 input  -57.11 | X-H torsion

> <Gold.Protein.ActiveResidues>
 VAL166  LYS551  ARG553  GLY616  TRP617  ASP618  TYR619  PRO620  LYS621  CYS622 
 ASP623  PHE694  ASN695  SER759  ASP760  ASP761  ALA762  ILE779  LEU786  VAL792 
 PHE793  MET794  SER795  GLU796  ALA797  LYS798  CYS799  TRP800  GLU811  SER814 

> <Gold.Protein.RotatedAtoms>
  152.1346  133.4428  159.4737 H   0  0  0  0  0  0  0  0  0  0  0  0  # atno 6907 bound_to 6896
  150.6881  134.2379  159.4469 H   0  0  0  0  0  0  0  0  0  0  0  0  # atno 6908 bound_to 6896
  152.0265  134.9792  160.0622 H   0  0  0  0  0  0  0  0  0  0  0  0  # atno 6909 bound_to 6896
  146.1322  139.6212  142.9219 H   0  0  0  0  0  0  0  0  0  0  0  0  # atno 7974 bound_to 7965
  154.5384  140.2278  155.8682 H   0  0  0  0  0  0  0  0  0  0  0  0  # atno 8008 bound_to 7997
  156.1834  140.3094  155.9155 H   0  0  0  0  0  0  0  0  0  0  0  0  # atno 8009 bound_to 7997
  155.3307  140.0445  157.3033 H   0  0  0  0  0  0  0  0  0  0  0  0  # atno 8010 bound_to 7997
  140.5405  143.9685  150.6516 H   0  0  0  0  0  0  0  0  0  0  0  0  # atno 10167 bound_to 10162
  156.0026  130.5065  150.5916 H   0  0  0  0  0  0  0  0  0  0  0  0  # atno 10718 bound_to 10713
  153.0035  135.6276  154.2153 H   0  0  0  0  0  0  0  0  0  0  0  0  # atno 10763 bound_to 10752
  154.1897  135.2809  155.3028 H   0  0  0  0  0  0  0  0  0  0  0  0  # atno 10764 bound_to 10752
  154.5769  135.5659  153.7208 H   0  0  0  0  0  0  0  0  0  0  0  0  # atno 10765 bound_to 10752
  140.2187  134.8212  157.3198 H   0  0  0  0  0  0  0  0  0  0  0  0  # atno 11005 bound_to 11000
  145.5236  141.0431  143.2422 LP  0  0  0  0  0  0  0  0  0  0  0  0  # atno 17320 bound_to 7965
  144.7702  139.6752  143.7198 LP  0  0  0  0  0  0  0  0  0  0  0  0  # atno 17321 bound_to 7965
  140.3084  143.3214  152.0903 LP  0  0  0  0  0  0  0  0  0  0  0  0  # atno 17342 bound_to 10162
  139.4987  144.6652  151.6373 LP  0  0  0  0  0  0  0  0  0  0  0  0  # atno 17343 bound_to 10162
  157.3780  131.0776  151.1501 LP  0  0  0  0  0  0  0  0  0  0  0  0  # atno 17370 bound_to 10713
  157.2233  130.6491  149.5820 LP  0  0  0  0  0  0  0  0  0  0  0  0  # atno 17371 bound_to 10713
  140.1872  134.4416  155.7737 LP  0  0  0  0  0  0  0  0  0  0  0  0  # atno 17394 bound_to 11000
  141.2224  133.7010  156.7967 LP  0  0  0  0  0  0  0  0  0  0  0  0  # atno 17395 bound_to 11000

$$$$
