AV-unprocessed.smi:1643|AV-procd|sdf|6578|dock1
  -GOLD-   22720 7263D 1   1.00000     0.00000
 Structure written by MMmdl.
 55 57  0  0  0  0  0  0  0  0  3 V2000
  149.0346  132.2546  157.3364 C   0  0  0  0  0  0  0  0  0  0  0  0
  148.8755  133.7743  157.4347 C   0  0  0  0  0  0  0  0  0  0  0  0
  149.0675  134.3059  158.5282 O   0  0  0  0  0  0  0  0  0  0  0  0
  148.5430  134.4809  156.3260 N   0  0  0  0  0  0  0  0  0  0  0  0
  148.2224  133.8078  155.0585 C   0  0  0  0  0  0  0  0  0  0  0  0
  149.4071  133.8269  154.0656 C   0  0  0  0  0  0  0  0  0  0  0  0
  150.5613  134.7951  154.4121 C   0  0  0  0  0  0  0  0  0  0  0  0
  150.2009  136.2437  154.4108 N   0  3  2  0  0  0  0  0  0  0  0  0
  151.2534  137.0983  155.0256 C   0  0  0  0  0  0  0  0  0  0  0  0
  150.8460  138.5814  155.1498 C   0  0  2  0  0  0  0  0  0  0  0  0
  150.8656  139.1358  153.8502 O   0  0  0  0  0  0  0  0  0  0  0  0
  151.7889  139.3825  156.0732 C   0  0  0  0  0  0  0  0  0  0  0  0
  151.2403  140.6886  156.4675 N   0  0  0  0  0  0  0  0  0  0  0  0
  150.3717  141.5020  155.8062 C   0  0  0  0  0  0  0  0  0  0  0  0
  150.1568  142.5967  156.5872 N   0  3  0  0  0  0  0  0  0  0  0  0
  150.8982  142.4821  157.7648 C   0  0  0  0  0  0  0  0  0  0  0  0
  151.0086  143.3353  158.8563 C   0  0  0  0  0  0  0  0  0  0  0  0
  151.8601  142.9295  159.9084 C   0  0  0  0  0  0  0  0  0  0  0  0
  152.0083  143.8420  161.1141 C   0  0  0  0  0  0  0  0  0  0  0  0
  152.5648  141.6996  159.8441 C   0  0  0  0  0  0  0  0  0  0  0  0
  153.4801  141.2746  160.9799 C   0  0  0  0  0  0  0  0  0  0  0  0
  152.4364  140.8443  158.7264 C   0  0  0  0  0  0  0  0  0  0  0  0
  151.5953  141.2599  157.6964 C   0  0  0  0  0  0  0  0  0  0  0  0
  148.8378  136.5799  154.9157 C   0  0  0  0  0  0  0  0  0  0  0  0
  148.4704  135.9535  156.2863 C   0  0  0  0  0  0  0  0  0  0  0  0
  149.6733  131.9797  156.4964 H   0  0  0  0  0  0  0  0  0  0  0  0
  148.0638  131.7728  157.2174 H   0  0  0  0  0  0  0  0  0  0  0  0
  149.4940  131.8587  158.2430 H   0  0  0  0  0  0  0  0  0  0  0  0
  147.8933  132.7787  155.2132 H   0  0  0  0  0  0  0  0  0  0  0  0
  147.3505  134.2888  154.6145 H   0  0  0  0  0  0  0  0  0  0  0  0
  149.8253  132.8206  154.0222 H   0  0  0  0  0  0  0  0  0  0  0  0
  149.0372  134.0312  153.0602 H   0  0  0  0  0  0  0  0  0  0  0  0
  150.9949  134.5200  155.3748 H   0  0  0  0  0  0  0  0  0  0  0  0
  151.3547  134.6428  153.6810 H   0  0  0  0  0  0  0  0  0  0  0  0
  151.4916  136.7305  156.0246 H   0  0  0  0  0  0  0  0  0  0  0  0
  152.1714  137.0035  154.4431 H   0  0  0  0  0  0  0  0  0  0  0  0
  149.8204  138.6668  155.5080 H   0  0  0  0  0  0  0  0  0  0  0  0
  150.4541  138.5272  153.2555 H   0  0  0  0  0  0  0  0  0  0  0  0
  151.9687  138.8262  156.9938 H   0  0  0  0  0  0  0  0  0  0  0  0
  152.7662  139.5289  155.6125 H   0  0  0  0  0  0  0  0  0  0  0  0
  149.9286  141.3134  154.8388 H   0  0  0  0  0  0  0  0  0  0  0  0
  150.4686  144.2701  158.8984 H   0  0  0  0  0  0  0  0  0  0  0  0
  151.6647  143.3403  162.0190 H   0  0  0  0  0  0  0  0  0  0  0  0
  151.4242  144.7554  160.9971 H   0  0  0  0  0  0  0  0  0  0  0  0
  153.0509  144.1295  161.2516 H   0  0  0  0  0  0  0  0  0  0  0  0
  153.9168  140.2928  160.7947 H   0  0  0  0  0  0  0  0  0  0  0  0
  152.9283  141.2204  161.9186 H   0  0  0  0  0  0  0  0  0  0  0  0
  154.2977  141.9861  161.0983 H   0  0  0  0  0  0  0  0  0  0  0  0
  152.9786  139.9114  158.6782 H   0  0  0  0  0  0  0  0  0  0  0  0
  148.7306  137.6632  154.9819 H   0  0  0  0  0  0  0  0  0  0  0  0
  148.1125  136.2990  154.1531 H   0  0  0  0  0  0  0  0  0  0  0  0
  147.4574  136.2509  156.5602 H   0  0  0  0  0  0  0  0  0  0  0  0
  149.1300  136.4016  157.0291 H   0  0  0  0  0  0  0  0  0  0  0  0
  150.1729  136.5160  153.4386 H   0  0  0  0  0  0  0  0  0  0  0  0
  149.5466  143.3638  156.3342 H   0  0  0  0  0  0  0  0  0  0  0  0
  1  2  1  0  0  0  0
  1 26  1  0  0  0  0
  1 27  1  0  0  0  0
  1 28  1  0  0  0  0
  2  3  2  0  0  0  0
  2  4  1  0  0  0  0
  4 25  1  0  0  0  0
  4  5  1  0  0  0  0
  5  6  1  0  0  0  0
  5 29  1  0  0  0  0
  5 30  1  0  0  0  0
  6  7  1  0  0  0  0
  6 31  1  0  0  0  0
  6 32  1  0  0  0  0
  7  8  1  0  0  0  0
  7 33  1  0  0  0  0
  7 34  1  0  0  0  0
  8  9  1  0  0  0  0
  8 24  1  0  0  0  0
  8 54  1  0  0  0  0
  9 10  1  0  0  0  0
  9 35  1  0  0  0  0
  9 36  1  0  0  0  0
 10 11  1  0  0  0  0
 10 12  1  0  0  0  0
 10 37  1  0  0  0  0
 11 38  1  0  0  0  0
 12 13  1  0  0  0  0
 12 39  1  0  0  0  0
 12 40  1  0  0  0  0
 13 23  1  0  0  0  0
 13 14  1  0  0  0  0
 14 15  2  0  0  0  0
 14 41  1  0  0  0  0
 15 16  1  0  0  0  0
 15 55  1  0  0  0  0
 16 23  2  0  0  0  0
 16 17  1  0  0  0  0
 17 18  2  0  0  0  0
 17 42  1  0  0  0  0
 18 19  1  0  0  0  0
 18 20  1  0  0  0  0
 19 43  1  0  0  0  0
 19 44  1  0  0  0  0
 19 45  1  0  0  0  0
 20 21  1  0  0  0  0
 20 22  2  0  0  0  0
 21 46  1  0  0  0  0
 21 47  1  0  0  0  0
 21 48  1  0  0  0  0
 22 23  1  0  0  0  0
 22 49  1  0  0  0  0
 24 25  1  0  0  0  0
 24 50  1  0  0  0  0
 24 51  1  0  0  0  0
 25 52  1  0  0  0  0
 25 53  1  0  0  0  0
M  CHG  1   8   1
M  CHG  1  15   1
M  END
> <s_m_source_file>
AV-unprocessed.smi

> <i_m_source_file_index>
1643

> <i_lp_mmshare_version>
43012

> <i_f3d_flags>
0

> <s_epik_input>
W0NIM11DKD1PKU4xW0NIMl1bQ0gyXVtDSDJdTihbQ0gyXVtDSDJdMSlbQ0gyXVtDQEhdKFtPSF0pW0NIMl1uKFtjSF1uMiljKGMyMylbY0hdYyhbQ0gzXSljKFtjSF0zKVtDSDNd

> <s_epik_cmdline>
J2VwaWtfcHl0aG9uJywgJy1waCcsICc3LjAnLCAnLXRuJywgJzgnLCAnLW1hJywgJzIwMCcsICctbWV0YWxfYmluZGluZycsICctaW1hZScsICc8aW5maWxlLm1hZT4nLCAnLW9tYWUnLCAnPG91dGZpbGUubWFlPic=

> <r_epik_Ionization_Penalty>
1.2865

> <r_epik_Ionization_Penalty_Charging>
1.2865

> <r_epik_Ionization_Penalty_Neutral>
2.89706e-06

> <r_epik_State_Penalty>
1.3566

> <r_epik_Charging_Adjusted_Penalty>
2.6431

> <i_epik_Tot_Q>
2

> <i_epik_Tot_abs_Q>
2

> <r_epik_Metal_State_Penalty>
5.37339

> <b_epik_Metal_Only>
0

> <s_lp_Force_Field>
OPLS_2005

> <r_lp_Energy>
60.0404

> <b_lp_Chiralities_Consistent>
1

> <s_lp_Variant>
AV-unprocessed.smi:1643-7

> <Gold.Version>
5.8.1

> <Gold.Id.Protein>
6NUR|6NUR_protein|mol2

> <Gold.PLP.Fitness>
61.1568

> <Gold.PLP.PLP>
-44.3619

> <Gold.PLP.part.hbond>
-4.8246

> <Gold.PLP.part.metal>
0.0000

> <Gold.PLP.part.buried>
-5.6104

> <Gold.PLP.part.nonpolar>
-35.7841

> <Gold.PLP.part.repulsive>
0.1075

> <Gold.PLP.ligand.clash>
0.0000

> <Gold.PLP.ligand.torsion>
0.6554

> <Gold.PLP.Chemscore.Hbond>
5.9840

> <Gold.PLP.Chemscore.CHOScore>
0.0000

> <Gold.PLP.Chemscore.Metal>
0.0000

> <Gold.Chemscore.Hbonds>
donor molecule, donor type, donor heavy atom, donor atom, acceptor molecule, acceptor atom, score
      L1  H     8    54       P1  7948  0.84
      L1  H    15    55       P1  8028  2.00
      P1  H  6896  6909       L1     3  1.00
      P1  H  7989  7998       L1    11  1.00

> <Gold.PLP.Chemscore.Internal.Correction>
0.1538

> <Gold.Rescore>
     Score         DG    S(hbond)    S(metal)    S(lipo)     H(rot)  DE(clash)    DE(int)     intcor
     24.43     -25.09       3.57        0.00     113.17       2.17       0.02       0.64       ----

> <Gold.Chemscore.Fitness>
24.4349

> <Gold.Chemscore.DG>
-25.0920

> <Gold.Chemscore.ZeroCoef>
-5.4800

> <Gold.Chemscore.Hbond>
3.5743

> <Gold.Chemscore.Metal>
0.0000

> <Gold.Chemscore.Lipo>
113.1658

> <Gold.Chemscore.Internal_Hbond>
0.0000

> <Gold.Chemscore.DEClash>
0.0186

> <Gold.Chemscore.DEInternal>
0.6385

> <Gold.Chemscore.Rot>
2.1744

> <Gold.Chemscore.Internal.Correction>
   9.000000E+99

> <Gold.Chemscore.Hbonds>
donor molecule, donor type, donor heavy atom, donor atom, acceptor molecule, acceptor atom, score
      L1  H     8    54       P1  7948  0.02
      L1  H    15    55       P1  8028  1.00
      P1  H  6896  6909       L1     3  1.00
      P1  H  7989  7998       L1    11  0.95

> <Gold.Chemscore.Hbond.Weighted>
-11.9382

> <Gold.Chemscore.Metal.Weighted>
-0.0000

> <Gold.Chemscore.Lipo.Weighted>
-13.2404

> <Gold.Chemscore.Internal_Hbond.Weighted>
0.0000

> <Gold.Chemscore.DEClash.Weighted>
0.0186

> <Gold.Chemscore.DEInternal.Weighted>
0.6385

> <Gold.Chemscore.Rot.Weighted>
5.5666

> <Gold.Chemscore.Internal.Correction.Weighted>
   9.000000E+99

> <Gold.Protein.RotatedTorsions>
[ 6907 6896 6895 6894 ] final   29.09 input  -60.11 | X-H torsion
[ 7974 7965 7964 7962 ] final -104.62 input  175.53 | X-H torsion
[ 8008 7997 7996 7995 ] final  116.58 input   59.86 | X-H torsion
[ 10167 10162 10161 10158 ] final  -41.97 input  -65.29 | X-H torsion
[ 10718 10713 10712 10709 ] final -141.79 input   66.30 | X-H torsion
[ 10763 10752 10751 10750 ] final -174.48 input  -60.55 | X-H torsion
[ 11005 11000 10999 10996 ] final  -73.96 input  -57.11 | X-H torsion

> <Gold.Protein.ActiveResidues>
 VAL166  LYS551  ARG553  GLY616  TRP617  ASP618  TYR619  PRO620  LYS621  CYS622 
 ASP623  PHE694  ASN695  SER759  ASP760  ASP761  ALA762  ILE779  LEU786  VAL792 
 PHE793  MET794  SER795  GLU796  ALA797  LYS798  CYS799  TRP800  GLU811  SER814 

> <Gold.Protein.RotatedAtoms>
  152.0265  134.9793  160.0571 H   0  0  0  0  0  0  0  0  0  0  0  0  # atno 6907 bound_to 6896
  152.1286  133.4390  159.4718 H   0  0  0  0  0  0  0  0  0  0  0  0  # atno 6908 bound_to 6896
  150.6854  134.2366  159.4499 H   0  0  0  0  0  0  0  0  0  0  0  0  # atno 6909 bound_to 6896
  145.2409  140.9204  143.3150 H   0  0  0  0  0  0  0  0  0  0  0  0  # atno 7974 bound_to 7965
  156.2447  140.2914  156.0545 H   0  0  0  0  0  0  0  0  0  0  0  0  # atno 8008 bound_to 7997
  155.1844  140.0405  157.2905 H   0  0  0  0  0  0  0  0  0  0  0  0  # atno 8009 bound_to 7997
  154.6238  140.2482  155.7524 H   0  0  0  0  0  0  0  0  0  0  0  0  # atno 8010 bound_to 7997
  140.6985  143.3064  151.3142 H   0  0  0  0  0  0  0  0  0  0  0  0  # atno 10167 bound_to 10162
  156.3382  130.7623  151.1754 H   0  0  0  0  0  0  0  0  0  0  0  0  # atno 10718 bound_to 10713
  154.5957  135.2849  155.0588 H   0  0  0  0  0  0  0  0  0  0  0  0  # atno 10763 bound_to 10752
  154.1872  135.6447  153.5054 H   0  0  0  0  0  0  0  0  0  0  0  0  # atno 10764 bound_to 10752
  153.0138  135.5437  154.6659 H   0  0  0  0  0  0  0  0  0  0  0  0  # atno 10765 bound_to 10752
  141.1629  133.6895  156.7292 H   0  0  0  0  0  0  0  0  0  0  0  0  # atno 11005 bound_to 11000
  144.9590  139.4000  143.6365 LP  0  0  0  0  0  0  0  0  0  0  0  0  # atno 17320 bound_to 7965
  146.3329  139.8634  142.8852 LP  0  0  0  0  0  0  0  0  0  0  0  0  # atno 17321 bound_to 7965
  139.6471  144.0431  152.2599 LP  0  0  0  0  0  0  0  0  0  0  0  0  # atno 17342 bound_to 10162
  139.9955  144.6331  150.7776 LP  0  0  0  0  0  0  0  0  0  0  0  0  # atno 17343 bound_to 10162
  157.7442  131.0462  150.4882 LP  0  0  0  0  0  0  0  0  0  0  0  0  # atno 17370 bound_to 10713
  156.5058  130.4128  149.6328 LP  0  0  0  0  0  0  0  0  0  0  0  0  # atno 17371 bound_to 10713
  140.2758  134.8356  157.3888 LP  0  0  0  0  0  0  0  0  0  0  0  0  # atno 17394 bound_to 11000
  140.1479  134.4887  155.7982 LP  0  0  0  0  0  0  0  0  0  0  0  0  # atno 17395 bound_to 11000

$$$$
