AV-unprocessed.smi:3019|AV-procd|sdf|11492|dock2
  -GOLD-   2272016433D 1   1.00000     0.00000
 Structure written by MMmdl.
 30 31  0  0  0  0  0  0  0  0  1 V2000
  152.0924  139.7690  159.2824 C   0  0  0  0  0  0  0  0  0  0  0  0
  152.4338  141.0910  158.5791 C   0  0  0  0  0  0  0  0  0  0  0  0
  152.6066  142.2626  159.5566 C   0  0  0  0  0  0  0  0  0  0  0  0
  151.4482  141.4128  157.4981 C   0  0  0  0  0  0  0  0  0  0  0  0
  150.8598  142.6067  157.4326 N   0  0  0  0  0  0  0  0  0  0  0  0
  150.0742  142.4739  156.3434 N   0  0  0  0  0  0  0  0  0  0  0  0
  150.2253  141.2496  155.8339 C   0  0  0  0  0  0  0  0  0  0  0  0
  149.4925  140.8022  154.6088 C   0  0  1  0  0  0  0  0  0  0  0  0
  149.6521  139.2913  154.3497 C   0  0  0  0  0  0  0  0  0  0  0  0
  148.8470  138.8871  153.1981 N   0  0  0  0  0  0  0  0  0  0  0  0
  147.4470  139.2720  153.3717 C   0  0  0  0  0  0  0  0  0  0  0  0
  147.3378  140.7798  153.6612 C   0  0  0  0  0  0  0  0  0  0  0  0
  148.1140  141.1027  154.8099 O   0  0  0  0  0  0  0  0  0  0  0  0
  151.0946  140.5184  156.5251 N   0  0  0  0  0  0  0  0  0  0  0  0
  149.4765  143.2124  156.0006 H   0  0  0  0  0  0  0  0  0  0  0  0
  152.0449  138.9465  158.5678 H   0  0  0  0  0  0  0  0  0  0  0  0
  151.1282  139.8262  159.7886 H   0  0  0  0  0  0  0  0  0  0  0  0
  152.8449  139.5155  160.0294 H   0  0  0  0  0  0  0  0  0  0  0  0
  153.4035  140.9437  158.1004 H   0  0  0  0  0  0  0  0  0  0  0  0
  152.9147  143.1677  159.0325 H   0  0  0  0  0  0  0  0  0  0  0  0
  153.3663  142.0400  160.3063 H   0  0  0  0  0  0  0  0  0  0  0  0
  151.6766  142.4822  160.0817 H   0  0  0  0  0  0  0  0  0  0  0  0
  149.8665  141.3716  153.7553 H   0  0  0  0  0  0  0  0  0  0  0  0
  150.7007  139.0479  154.1778 H   0  0  0  0  0  0  0  0  0  0  0  0
  149.3403  138.7306  155.2320 H   0  0  0  0  0  0  0  0  0  0  0  0
  148.9095  137.8812  153.0762 H   0  0  0  0  0  0  0  0  0  0  0  0
  146.8752  139.0196  152.4786 H   0  0  0  0  0  0  0  0  0  0  0  0
  147.0068  138.7095  154.1960 H   0  0  0  0  0  0  0  0  0  0  0  0
  147.6695  141.3680  152.8041 H   0  0  0  0  0  0  0  0  0  0  0  0
  146.2989  141.0505  153.8498 H   0  0  0  0  0  0  0  0  0  0  0  0
  1  2  1  0  0  0  0
  1 16  1  0  0  0  0
  1 17  1  0  0  0  0
  1 18  1  0  0  0  0
  2  3  1  0  0  0  0
  2  4  1  0  0  0  0
  2 19  1  0  0  0  0
  3 20  1  0  0  0  0
  3 21  1  0  0  0  0
  3 22  1  0  0  0  0
  4 14  1  0  0  0  0
  4  5  2  0  0  0  0
  5  6  1  0  0  0  0
  6 15  1  0  0  0  0
  6  7  1  0  0  0  0
  7  8  1  0  0  0  0
  7 14  2  0  0  0  0
  8 13  1  0  0  0  0
  8  9  1  0  0  0  0
  8 23  1  0  0  0  0
  9 10  1  0  0  0  0
  9 24  1  0  0  0  0
  9 25  1  0  0  0  0
 10 11  1  0  0  0  0
 10 26  1  0  0  0  0
 11 12  1  0  0  0  0
 11 27  1  0  0  0  0
 11 28  1  0  0  0  0
 12 13  1  0  0  0  0
 12 29  1  0  0  0  0
 12 30  1  0  0  0  0
M  END
> <s_m_source_file>
AV-unprocessed.smi

> <i_m_source_file_index>
3019

> <i_lp_mmshare_version>
43012

> <i_f3d_flags>
0

> <s_epik_input>
W0NIM11bQ0hdKFtDSDNdKWMxbltuSF1jKG4xKVtDQEBIXTJbQ0gyXVtOSF1bQ0gyXVtDSDJdTzI=

> <s_epik_cmdline>
J2VwaWtfcHl0aG9uJywgJy1waCcsICc3LjAnLCAnLXRuJywgJzgnLCAnLW1hJywgJzIwMCcsICctbWV0YWxfYmluZGluZycsICctaW1hZScsICc8aW5maWxlLm1hZT4nLCAnLW9tYWUnLCAnPG91dGZpbGUubWFlPic=

> <r_epik_Ionization_Penalty>
0.981987

> <r_epik_Ionization_Penalty_Charging>
0

> <r_epik_Ionization_Penalty_Neutral>
0.981987

> <r_epik_State_Penalty>
2.09479

> <r_epik_Charging_Adjusted_Penalty>
2.09479

> <i_epik_Tot_Q>
0

> <i_epik_Tot_abs_Q>
0

> <r_epik_Metal_State_Penalty>
2.40362

> <b_epik_Metal_Only>
0

> <s_lp_Force_Field>
OPLS_2005

> <r_lp_Energy>
8.95245

> <b_lp_Chiralities_Consistent>
1

> <s_lp_Variant>
AV-unprocessed.smi:3019-8

> <Gold.Version>
5.8.1

> <Gold.Id.Protein>
6NUR|6NUR_protein|mol2

> <Gold.PLP.Fitness>
31.9976

> <Gold.PLP.PLP>
-26.4704

> <Gold.PLP.part.hbond>
-2.6938

> <Gold.PLP.part.metal>
0.0000

> <Gold.PLP.part.buried>
-3.7856

> <Gold.PLP.part.nonpolar>
-20.2771

> <Gold.PLP.part.repulsive>
0.3224

> <Gold.PLP.ligand.clash>
0.0000

> <Gold.PLP.ligand.torsion>
0.2660

> <Gold.PLP.Chemscore.Hbond>
2.0000

> <Gold.PLP.Chemscore.CHOScore>
0.0000

> <Gold.PLP.Chemscore.Metal>
0.0000

> <Gold.Chemscore.Hbonds>
donor molecule, donor type, donor heavy atom, donor atom, acceptor molecule, acceptor atom, score
      L1  H     6    15       P1  8028  1.00
      L1  H    10    26       P1  7948  0.99

> <Gold.PLP.Chemscore.Internal.Correction>
0.0592

> <Gold.Rescore>
     Score         DG    S(hbond)    S(metal)    S(lipo)     H(rot)  DE(clash)    DE(int)     intcor
     14.88     -14.97       1.98        0.00      52.18       1.26       0.04       0.05       ----

> <Gold.Chemscore.Fitness>
14.8845

> <Gold.Chemscore.DG>
-14.9660

> <Gold.Chemscore.ZeroCoef>
-5.4800

> <Gold.Chemscore.Hbond>
1.9780

> <Gold.Chemscore.Metal>
0.0000

> <Gold.Chemscore.Lipo>
52.1757

> <Gold.Chemscore.Internal_Hbond>
0.0000

> <Gold.Chemscore.DEClash>
0.0363

> <Gold.Chemscore.DEInternal>
0.0451

> <Gold.Chemscore.Rot>
1.2598

> <Gold.Chemscore.Internal.Correction>
   9.000000E+99

> <Gold.Chemscore.Hbonds>
donor molecule, donor type, donor heavy atom, donor atom, acceptor molecule, acceptor atom, score
      L1  H     6    15       P1  8028  0.99
      L1  H    10    26       P1  7948  0.88

> <Gold.Chemscore.Hbond.Weighted>
-6.6065

> <Gold.Chemscore.Metal.Weighted>
-0.0000

> <Gold.Chemscore.Lipo.Weighted>
-6.1046

> <Gold.Chemscore.Internal_Hbond.Weighted>
0.0000

> <Gold.Chemscore.DEClash.Weighted>
0.0363

> <Gold.Chemscore.DEInternal.Weighted>
0.0451

> <Gold.Chemscore.Rot.Weighted>
3.2251

> <Gold.Chemscore.Internal.Correction.Weighted>
   9.000000E+99

> <Gold.Protein.RotatedTorsions>
[ 6907 6896 6895 6894 ] final   14.85 input  -60.11 | X-H torsion
[ 7974 7965 7964 7962 ] final  179.70 input  175.53 | X-H torsion
[ 8008 7997 7996 7995 ] final -105.97 input   59.86 | X-H torsion
[ 10167 10162 10161 10158 ] final -132.64 input  -65.29 | X-H torsion
[ 10718 10713 10712 10709 ] final   87.82 input   66.30 | X-H torsion
[ 10763 10752 10751 10750 ] final   38.85 input  -60.55 | X-H torsion
[ 11005 11000 10999 10996 ] final -138.13 input  -57.11 | X-H torsion

> <Gold.Protein.ActiveResidues>
 VAL166  LYS551  ARG553  GLY616  TRP617  ASP618  TYR619  PRO620  LYS621  CYS622 
 ASP623  PHE694  ASN695  SER759  ASP760  ASP761  ALA762  ILE779  LEU786  VAL792 
 PHE793  MET794  SER795  GLU796  ALA797  LYS798  CYS799  TRP800  GLU811  SER814 

> <Gold.Protein.RotatedAtoms>
  151.8088  135.0687  160.0409 H   0  0  0  0  0  0  0  0  0  0  0  0  # atno 6907 bound_to 6896
  152.3036  133.5675  159.5642 H   0  0  0  0  0  0  0  0  0  0  0  0  # atno 6908 bound_to 6896
  150.7285  134.0172  159.3731 H   0  0  0  0  0  0  0  0  0  0  0  0  # atno 6909 bound_to 6896
  144.7143  140.0588  143.6433 H   0  0  0  0  0  0  0  0  0  0  0  0  # atno 7974 bound_to 7965
  154.9077  140.0411  157.1929 H   0  0  0  0  0  0  0  0  0  0  0  0  # atno 8008 bound_to 7997
  154.8380  140.2909  155.5657 H   0  0  0  0  0  0  0  0  0  0  0  0  # atno 8009 bound_to 7997
  156.2990  140.2488  156.3317 H   0  0  0  0  0  0  0  0  0  0  0  0  # atno 8010 bound_to 7997
  139.9065  143.6545  152.2584 H   0  0  0  0  0  0  0  0  0  0  0  0  # atno 10167 bound_to 10162
  157.6944  131.0270  150.3181 H   0  0  0  0  0  0  0  0  0  0  0  0  # atno 10718 bound_to 10713
  152.9987  135.6237  154.2371 H   0  0  0  0  0  0  0  0  0  0  0  0  # atno 10763 bound_to 10752
  154.2112  135.2800  155.2959 H   0  0  0  0  0  0  0  0  0  0  0  0  # atno 10764 bound_to 10752
  154.5605  135.5706  153.7062 H   0  0  0  0  0  0  0  0  0  0  0  0  # atno 10765 bound_to 10752
  140.8646  134.2127  157.4687 H   0  0  0  0  0  0  0  0  0  0  0  0  # atno 11005 bound_to 11000
  145.9882  139.2994  143.1001 LP  0  0  0  0  0  0  0  0  0  0  0  0  # atno 17320 bound_to 7965
  145.8933  140.9290  143.0541 LP  0  0  0  0  0  0  0  0  0  0  0  0  # atno 17321 bound_to 7965
  139.6979  144.7639  151.1323 LP  0  0  0  0  0  0  0  0  0  0  0  0  # atno 17342 bound_to 10162
  140.7695  143.5498  150.9218 LP  0  0  0  0  0  0  0  0  0  0  0  0  # atno 17343 bound_to 10162
  156.3672  130.3857  149.7204 LP  0  0  0  0  0  0  0  0  0  0  0  0  # atno 17370 bound_to 10713
  156.4630  130.7961  151.2981 LP  0  0  0  0  0  0  0  0  0  0  0  0  # atno 17371 bound_to 10713
  139.8708  134.9745  156.4850 LP  0  0  0  0  0  0  0  0  0  0  0  0  # atno 17394 bound_to 11000
  140.8644  133.8035  155.9298 LP  0  0  0  0  0  0  0  0  0  0  0  0  # atno 17395 bound_to 11000

$$$$
