AV-unprocessed.smi:3303|AV-procd|sdf|12675|dock4
  -GOLD-   2272019 13D 1   1.00000     0.00000
 Structure written by MMmdl.
 44 45  0  0  0  0  0  0  0  0  2 V2000
  144.6012  136.4887  151.9251 C   0  0  0  0  0  0  0  0  0  0  0  0
  145.3720  135.2743  151.3804 C   0  0  2  0  0  0  0  0  0  0  0  0
  144.4675  134.4621  150.4305 C   0  0  0  0  0  0  0  0  0  0  0  0
  145.1803  133.2994  149.9016 N   0  0  0  0  0  0  0  0  0  0  0  0
  144.3933  132.6491  148.8612 C   0  0  0  0  0  0  0  0  0  0  0  0
  145.6186  132.3672  150.9509 C   0  0  2  0  0  0  0  0  0  0  0  0
  144.4702  131.6491  151.6962 C   0  0  0  0  0  0  0  0  0  0  0  0
  146.5670  133.1174  151.9079 C   0  0  0  0  0  0  0  0  0  0  0  0
  145.9228  134.3789  152.5115 C   0  0  1  0  0  0  0  0  0  0  0  0
  146.9268  135.1104  153.3162 N   0  3  0  0  0  0  0  0  0  0  0  0
  147.4664  134.3595  154.4670 C   0  0  0  0  0  0  0  0  0  0  0  0
  148.9919  134.2250  154.3690 C   0  0  0  0  0  0  0  0  0  0  0  0
  149.4429  132.7771  154.3983 C   0  0  0  0  0  0  0  0  0  0  0  0
  150.4096  132.3418  155.3297 C   0  0  0  0  0  0  0  0  0  0  0  0
  150.7871  130.9849  155.3195 C   0  0  0  0  0  0  0  0  0  0  0  0
  150.1868  130.1212  154.3833 C   0  0  0  0  0  0  0  0  0  0  0  0
  149.2297  130.6538  153.4967 C   0  0  0  0  0  0  0  0  0  0  0  0
  148.8588  131.9529  153.4996 N   0  0  0  0  0  0  0  0  0  0  0  0
  143.7526  136.1771  152.5350 H   0  0  0  0  0  0  0  0  0  0  0  0
  144.2154  137.1029  151.1110 H   0  0  0  0  0  0  0  0  0  0  0  0
  145.2364  137.1274  152.5391 H   0  0  0  0  0  0  0  0  0  0  0  0
  146.2149  135.6481  150.7962 H   0  0  0  0  0  0  0  0  0  0  0  0
  143.5508  134.1542  150.9339 H   0  0  0  0  0  0  0  0  0  0  0  0
  144.1646  135.0990  149.5982 H   0  0  0  0  0  0  0  0  0  0  0  0
  144.9217  131.7828  148.4623 H   0  0  0  0  0  0  0  0  0  0  0  0
  144.2189  133.3385  148.0344 H   0  0  0  0  0  0  0  0  0  0  0  0
  143.4216  132.3222  149.2320 H   0  0  0  0  0  0  0  0  0  0  0  0
  146.2089  131.5932  150.4585 H   0  0  0  0  0  0  0  0  0  0  0  0
  144.8714  130.9819  152.4594 H   0  0  0  0  0  0  0  0  0  0  0  0
  143.8758  131.0299  151.0251 H   0  0  0  0  0  0  0  0  0  0  0  0
  143.7938  132.3397  152.1984 H   0  0  0  0  0  0  0  0  0  0  0  0
  146.8978  132.4483  152.7035 H   0  0  0  0  0  0  0  0  0  0  0  0
  147.4670  133.3991  151.3585 H   0  0  0  0  0  0  0  0  0  0  0  0
  145.0929  134.0758  153.1518 H   0  0  0  0  0  0  0  0  0  0  0  0
  147.6926  135.3736  152.7125 H   0  0  0  0  0  0  0  0  0  0  0  0
  147.2007  134.8771  155.3898 H   0  0  0  0  0  0  0  0  0  0  0  0
  147.0002  133.3737  154.5012 H   0  0  0  0  0  0  0  0  0  0  0  0
  149.3510  134.6886  153.4487 H   0  0  0  0  0  0  0  0  0  0  0  0
  149.4677  134.7642  155.1895 H   0  0  0  0  0  0  0  0  0  0  0  0
  150.8526  133.0281  156.0367 H   0  0  0  0  0  0  0  0  0  0  0  0
  151.5229  130.6133  156.0175 H   0  0  0  0  0  0  0  0  0  0  0  0
  150.4533  129.0752  154.3461 H   0  0  0  0  0  0  0  0  0  0  0  0
  148.7482  130.0194  152.7670 H   0  0  0  0  0  0  0  0  0  0  0  0
  146.4920  135.9522  153.6660 H   0  0  0  0  0  0  0  0  0  0  0  0
  1  2  1  0  0  0  0
  1 19  1  0  0  0  0
  1 20  1  0  0  0  0
  1 21  1  0  0  0  0
  2  9  1  0  0  0  0
  2  3  1  0  0  0  0
  2 22  1  0  0  0  0
  3  4  1  0  0  0  0
  3 23  1  0  0  0  0
  3 24  1  0  0  0  0
  4  5  1  0  0  0  0
  4  6  1  0  0  0  0
  5 25  1  0  0  0  0
  5 26  1  0  0  0  0
  5 27  1  0  0  0  0
  6  7  1  0  0  0  0
  6  8  1  0  0  0  0
  6 28  1  0  0  0  0
  7 29  1  0  0  0  0
  7 30  1  0  0  0  0
  7 31  1  0  0  0  0
  8  9  1  0  0  0  0
  8 32  1  0  0  0  0
  8 33  1  0  0  0  0
  9 10  1  0  0  0  0
  9 34  1  0  0  0  0
 10 11  1  0  0  0  0
 10 35  1  0  0  0  0
 10 44  1  0  0  0  0
 11 12  1  0  0  0  0
 11 36  1  0  0  0  0
 11 37  1  0  0  0  0
 12 13  1  0  0  0  0
 12 38  1  0  0  0  0
 12 39  1  0  0  0  0
 13 18  1  0  0  0  0
 13 14  2  0  0  0  0
 14 15  1  0  0  0  0
 14 40  1  0  0  0  0
 15 16  2  0  0  0  0
 15 41  1  0  0  0  0
 16 17  1  0  0  0  0
 16 42  1  0  0  0  0
 17 18  2  0  0  0  0
 17 43  1  0  0  0  0
M  CHG  1  10   1
M  END
> <s_m_source_file>
AV-unprocessed.smi

> <i_m_source_file_index>
3303

> <i_lp_mmshare_version>
43012

> <i_f3d_flags>
0

> <s_epik_input>
W0NIM11bQ0BASF0xW0NIMl1OKFtDSDNdKVtDQEBIXShbQ0gzXSlbQ0gyXVtDQEhdMVtOSF1bQ0gyXVtDSDJdYzJbY0hdW2NIXVtjSF1bY0hdbjI=

> <s_epik_cmdline>
J2VwaWtfcHl0aG9uJywgJy1waCcsICc3LjAnLCAnLXRuJywgJzgnLCAnLW1hJywgJzIwMCcsICctbWV0YWxfYmluZGluZycsICctaW1hZScsICc8aW5maWxlLm1hZT4nLCAnLW9tYWUnLCAnPG91dGZpbGUubWFlPic=

> <r_epik_Ionization_Penalty>
1.37325

> <r_epik_Ionization_Penalty_Charging>
0.000251572

> <r_epik_Ionization_Penalty_Neutral>
1.373

> <r_epik_State_Penalty>
1.46343

> <r_epik_Charging_Adjusted_Penalty>
1.46368

> <i_epik_Tot_Q>
1

> <i_epik_Tot_abs_Q>
1

> <r_epik_Metal_State_Penalty>
1.46331

> <b_epik_Metal_Only>
0

> <s_lp_Force_Field>
OPLS_2005

> <r_lp_Energy>
23.1884

> <b_lp_Chiralities_Consistent>
1

> <s_lp_Variant>
AV-unprocessed.smi:3303-19

> <Gold.Version>
5.8.1

> <Gold.Id.Protein>
6NUR|6NUR_protein|mol2

> <Gold.PLP.Fitness>
37.2700

> <Gold.PLP.PLP>
-31.2905

> <Gold.PLP.part.hbond>
-1.0000

> <Gold.PLP.part.metal>
0.0000

> <Gold.PLP.part.buried>
-1.3429

> <Gold.PLP.part.nonpolar>
-28.4946

> <Gold.PLP.part.repulsive>
1.8157

> <Gold.PLP.ligand.clash>
0.0000

> <Gold.PLP.ligand.torsion>
0.7941

> <Gold.PLP.Chemscore.Hbond>
2.0000

> <Gold.PLP.Chemscore.CHOScore>
0.5203

> <Gold.PLP.Chemscore.Metal>
0.0000

> <Gold.Chemscore.Hbonds>
donor molecule, donor type, donor heavy atom, donor atom, acceptor molecule, acceptor atom, score
      L1  H    10    35       P1  7948  2.00
      L1  C    17    43       P1 10747  0.57

> <Gold.PLP.Chemscore.Internal.Correction>
0.0067

> <Gold.Rescore>
     Score         DG    S(hbond)    S(metal)    S(lipo)     H(rot)  DE(clash)    DE(int)     intcor
     15.21     -16.13       1.00        0.00      91.59       1.33       0.17       0.75       ----

> <Gold.Chemscore.Fitness>
15.2101

> <Gold.Chemscore.DG>
-16.1301

> <Gold.Chemscore.ZeroCoef>
-5.4800

> <Gold.Chemscore.Hbond>
0.9994

> <Gold.Chemscore.Metal>
0.0000

> <Gold.Chemscore.Lipo>
91.5941

> <Gold.Chemscore.Internal_Hbond>
0.0000

> <Gold.Chemscore.DEClash>
0.1659

> <Gold.Chemscore.DEInternal>
0.7541

> <Gold.Chemscore.Rot>
1.3298

> <Gold.Chemscore.Internal.Correction>
   9.000000E+99

> <Gold.Chemscore.Hbonds>
donor molecule, donor type, donor heavy atom, donor atom, acceptor molecule, acceptor atom, score
      L1  H    10    35       P1  7948  1.00

> <Gold.Chemscore.Hbond.Weighted>
-3.3379

> <Gold.Chemscore.Metal.Weighted>
-0.0000

> <Gold.Chemscore.Lipo.Weighted>
-10.7165

> <Gold.Chemscore.Internal_Hbond.Weighted>
0.0000

> <Gold.Chemscore.DEClash.Weighted>
0.1659

> <Gold.Chemscore.DEInternal.Weighted>
0.7541

> <Gold.Chemscore.Rot.Weighted>
3.4043

> <Gold.Chemscore.Internal.Correction.Weighted>
   9.000000E+99

> <Gold.Protein.RotatedTorsions>
[ 6907 6896 6895 6894 ] final  154.08 input  -60.11 | X-H torsion
[ 7974 7965 7964 7962 ] final  111.00 input  175.53 | X-H torsion
[ 8008 7997 7996 7995 ] final  -98.45 input   59.86 | X-H torsion
[ 10167 10162 10161 10158 ] final  -27.54 input  -65.29 | X-H torsion
[ 10718 10713 10712 10709 ] final   94.36 input   66.30 | X-H torsion
[ 10763 10752 10751 10750 ] final  166.78 input  -60.55 | X-H torsion
[ 11005 11000 10999 10996 ] final   -7.92 input  -57.11 | X-H torsion

> <Gold.Protein.ActiveResidues>
 VAL166  LYS551  ARG553  GLY616  TRP617  ASP618  TYR619  PRO620  LYS621  CYS622 
 ASP623  PHE694  ASN695  SER759  ASP760  ASP761  ALA762  ILE779  LEU786  VAL792 
 PHE793  MET794  SER795  GLU796  ALA797  LYS798  CYS799  TRP800  GLU811  SER814 

> <Gold.Protein.RotatedAtoms>
  152.0636  133.4073  159.4428 H   0  0  0  0  0  0  0  0  0  0  0  0  # atno 6907 bound_to 6896
  150.6865  134.3172  159.4780 H   0  0  0  0  0  0  0  0  0  0  0  0  # atno 6908 bound_to 6896
  152.0995  134.9351  160.0620 H   0  0  0  0  0  0  0  0  0  0  0  0  # atno 6909 bound_to 6896
  145.2478  139.2752  143.4084 H   0  0  0  0  0  0  0  0  0  0  0  0  # atno 7974 bound_to 7965
  154.8014  140.0455  157.1275 H   0  0  0  0  0  0  0  0  0  0  0  0  # atno 8008 bound_to 7997
  154.9474  140.3060  155.5071 H   0  0  0  0  0  0  0  0  0  0  0  0  # atno 8009 bound_to 7997
  156.2962  140.2294  156.4549 H   0  0  0  0  0  0  0  0  0  0  0  0  # atno 8010 bound_to 7997
  140.7276  143.4084  151.1146 H   0  0  0  0  0  0  0  0  0  0  0  0  # atno 10167 bound_to 10162
  157.6948  131.0510  150.4175 H   0  0  0  0  0  0  0  0  0  0  0  0  # atno 10718 bound_to 10713
  154.3442  135.2753  155.2407 H   0  0  0  0  0  0  0  0  0  0  0  0  # atno 10763 bound_to 10752
  154.4664  135.5894  153.6295 H   0  0  0  0  0  0  0  0  0  0  0  0  # atno 10764 bound_to 10752
  152.9855  135.6077  154.3646 H   0  0  0  0  0  0  0  0  0  0  0  0  # atno 10765 bound_to 10752
  140.7179  133.8853  155.8799 H   0  0  0  0  0  0  0  0  0  0  0  0  # atno 11005 bound_to 11000
  146.3311  140.2859  142.8612 LP  0  0  0  0  0  0  0  0  0  0  0  0  # atno 17320 bound_to 7965
  144.9531  140.8198  143.5560 LP  0  0  0  0  0  0  0  0  0  0  0  0  # atno 17321 bound_to 7965
  139.7714  143.8488  152.3121 LP  0  0  0  0  0  0  0  0  0  0  0  0  # atno 17342 bound_to 10162
  139.8408  144.7211  150.9333 LP  0  0  0  0  0  0  0  0  0  0  0  0  # atno 17343 bound_to 10162
  156.4553  130.4020  149.6610 LP  0  0  0  0  0  0  0  0  0  0  0  0  # atno 17370 bound_to 10713
  156.3744  130.7547  151.2534 LP  0  0  0  0  0  0  0  0  0  0  0  0  # atno 17371 bound_to 10713
  141.0028  134.1126  157.4300 LP  0  0  0  0  0  0  0  0  0  0  0  0  # atno 17394 bound_to 11000
  139.8855  135.0073  156.6440 LP  0  0  0  0  0  0  0  0  0  0  0  0  # atno 17395 bound_to 11000

$$$$
