AV-unprocessed.smi:867|AV-procd|sdf|3997|dock6
  -GOLD-   22720 1473D 1   1.00000     0.00000
 Structure written by MMmdl.
 53 56  0  0  0  0  0  0  0  0  2 V2000
  152.5230  139.5285  156.0816 O   0  0  0  0  0  0  0  0  0  0  0  0
  151.3259  139.4878  155.7953 C   0  0  0  0  0  0  0  0  0  0  0  0
  150.3998  140.1946  156.4665 N   0  0  0  0  0  0  0  0  0  0  0  0
  150.6572  141.0794  157.6003 C   0  0  0  0  0  0  0  0  0  0  0  0
  151.2212  142.4432  157.1577 C   0  0  0  0  0  0  0  0  0  0  0  0
  151.4986  143.3903  158.3120 C   0  0  0  0  0  0  0  0  0  0  0  0
  151.7971  142.8993  159.6000 C   0  0  0  0  0  0  0  0  0  0  0  0
  152.0719  143.8192  160.6299 C   0  0  0  0  0  0  0  0  0  0  0  0
  152.0309  145.1951  160.3282 C   0  0  0  0  0  0  0  0  0  0  0  0
  151.7425  145.6767  159.1003 N   0  0  0  0  0  0  0  0  0  0  0  0
  151.4826  144.7879  158.1176 C   0  0  0  0  0  0  0  0  0  0  0  0
  150.8218  138.6628  154.8450 N   0  0  0  0  0  0  0  0  0  0  0  0
  151.3592  137.3470  154.4761 C   0  0  0  0  0  0  0  0  0  0  0  0
  150.4566  136.2503  155.0722 C   0  0  0  0  0  0  0  0  0  0  0  0
  149.0343  136.4127  154.6523 N   0  3  0  0  0  0  0  0  0  0  0  0
  148.1299  135.3730  155.2221 C   0  0  1  0  0  0  0  0  0  0  0  0
  146.7893  135.2075  154.4647 C   0  0  0  0  0  0  0  0  0  0  0  0
  146.6977  133.6857  154.2433 C   0  0  1  0  0  0  0  0  0  0  0  0
  147.6619  133.2915  153.1117 C   0  0  0  0  0  0  0  0  0  0  0  0
  149.0406  133.4725  153.7706 C   0  0  0  0  0  0  0  0  0  0  0  0
  148.6847  133.9262  155.2038 C   0  0  2  0  0  0  0  0  0  0  0  0
  147.4128  133.1273  155.4678 C   0  0  0  0  0  0  0  0  0  0  0  0
  148.5339  137.7973  154.8886 C   0  0  0  0  0  0  0  0  0  0  0  0
  149.4808  138.8507  154.2882 C   0  0  0  0  0  0  0  0  0  0  0  0
  149.4347  140.0848  156.1914 H   0  0  0  0  0  0  0  0  0  0  0  0
  149.7522  141.2216  158.1932 H   0  0  0  0  0  0  0  0  0  0  0  0
  151.3737  140.5865  158.2578 H   0  0  0  0  0  0  0  0  0  0  0  0
  152.1470  142.2924  156.6012 H   0  0  0  0  0  0  0  0  0  0  0  0
  150.5268  142.9198  156.4646 H   0  0  0  0  0  0  0  0  0  0  0  0
  151.8250  141.8374  159.7954 H   0  0  0  0  0  0  0  0  0  0  0  0
  152.3086  143.4792  161.6270 H   0  0  0  0  0  0  0  0  0  0  0  0
  152.2357  145.9284  161.0942 H   0  0  0  0  0  0  0  0  0  0  0  0
  151.2636  145.2041  157.1453 H   0  0  0  0  0  0  0  0  0  0  0  0
  151.3786  137.2635  153.3884 H   0  0  0  0  0  0  0  0  0  0  0  0
  152.3876  137.1851  154.7986 H   0  0  0  0  0  0  0  0  0  0  0  0
  150.8389  135.2804  154.7560 H   0  0  0  0  0  0  0  0  0  0  0  0
  150.5155  136.2747  156.1617 H   0  0  0  0  0  0  0  0  0  0  0  0
  147.9192  135.6447  156.2586 H   0  0  0  0  0  0  0  0  0  0  0  0
  145.9597  135.5673  155.0744 H   0  0  0  0  0  0  0  0  0  0  0  0
  146.7570  135.7391  153.5130 H   0  0  0  0  0  0  0  0  0  0  0  0
  145.6800  133.3235  154.0954 H   0  0  0  0  0  0  0  0  0  0  0  0
  147.5110  132.2515  152.8189 H   0  0  0  0  0  0  0  0  0  0  0  0
  147.5388  133.9098  152.2217 H   0  0  0  0  0  0  0  0  0  0  0  0
  149.5774  132.5232  153.7903 H   0  0  0  0  0  0  0  0  0  0  0  0
  149.6638  134.1907  153.2378 H   0  0  0  0  0  0  0  0  0  0  0  0
  149.4771  133.7470  155.9312 H   0  0  0  0  0  0  0  0  0  0  0  0
  146.9240  133.3833  156.4096 H   0  0  0  0  0  0  0  0  0  0  0  0
  147.5625  132.0468  155.4256 H   0  0  0  0  0  0  0  0  0  0  0  0
  147.5432  137.9284  154.4549 H   0  0  0  0  0  0  0  0  0  0  0  0
  148.4302  137.9659  155.9619 H   0  0  0  0  0  0  0  0  0  0  0  0
  149.0902  139.8537  154.4673 H   0  0  0  0  0  0  0  0  0  0  0  0
  149.5231  138.7420  153.2033 H   0  0  0  0  0  0  0  0  0  0  0  0
  149.0252  136.2777  153.6513 H   0  0  0  0  0  0  0  0  0  0  0  0
  1  2  2  0  0  0  0
  2  3  1  0  0  0  0
  2 12  1  0  0  0  0
  3  4  1  0  0  0  0
  3 25  1  0  0  0  0
  4  5  1  0  0  0  0
  4 26  1  0  0  0  0
  4 27  1  0  0  0  0
  5  6  1  0  0  0  0
  5 28  1  0  0  0  0
  5 29  1  0  0  0  0
  6 11  1  0  0  0  0
  6  7  2  0  0  0  0
  7  8  1  0  0  0  0
  7 30  1  0  0  0  0
  8  9  2  0  0  0  0
  8 31  1  0  0  0  0
  9 10  1  0  0  0  0
  9 32  1  0  0  0  0
 10 11  2  0  0  0  0
 11 33  1  0  0  0  0
 12 24  1  0  0  0  0
 12 13  1  0  0  0  0
 13 14  1  0  0  0  0
 13 34  1  0  0  0  0
 13 35  1  0  0  0  0
 14 15  1  0  0  0  0
 14 36  1  0  0  0  0
 14 37  1  0  0  0  0
 15 16  1  0  0  0  0
 15 23  1  0  0  0  0
 15 53  1  0  0  0  0
 16 21  1  0  0  0  0
 16 17  1  0  0  0  0
 16 38  1  0  0  0  0
 17 18  1  0  0  0  0
 17 39  1  0  0  0  0
 17 40  1  0  0  0  0
 18 22  1  0  0  0  0
 18 19  1  0  0  0  0
 18 41  1  0  0  0  0
 19 20  1  0  0  0  0
 19 42  1  0  0  0  0
 19 43  1  0  0  0  0
 20 21  1  0  0  0  0
 20 44  1  0  0  0  0
 20 45  1  0  0  0  0
 21 22  1  0  0  0  0
 21 46  1  0  0  0  0
 22 47  1  0  0  0  0
 22 48  1  0  0  0  0
 23 24  1  0  0  0  0
 23 49  1  0  0  0  0
 23 50  1  0  0  0  0
 24 51  1  0  0  0  0
 24 52  1  0  0  0  0
M  CHG  1  15   1
M  END
> <s_m_source_file>
AV-unprocessed.smi

> <i_m_source_file_index>
867

> <i_lp_mmshare_version>
43012

> <i_f3d_flags>
0

> <s_epik_input>
W0NIMl0xW0NIMl1bQ0BASF0oW0NIMl0yKVtDQEBIXShbQ0gyXVtDQEhdMTIpTihbQ0gyXVtDSDJdMylbQ0gyXVtDSDJdTjNDKD1PKVtOSF1bQ0gyXVtDSDJdYzRbY0hdW2NIXVtjSF1uW2NIXTQ=

> <s_epik_cmdline>
J2VwaWtfcHl0aG9uJywgJy1waCcsICc3LjAnLCAnLXRuJywgJzgnLCAnLW1hJywgJzIwMCcsICctbWV0YWxfYmluZGluZycsICctaW1hZScsICc8aW5maWxlLm1hZT4nLCAnLW9tYWUnLCAnPG91dGZpbGUubWFlPic=

> <r_epik_Ionization_Penalty>
0.0161279

> <r_epik_Ionization_Penalty_Charging>
0.00262064

> <r_epik_Ionization_Penalty_Neutral>
0.0135072

> <r_epik_State_Penalty>
0.0104914

> <r_epik_Charging_Adjusted_Penalty>
0.013112

> <i_epik_Tot_Q>
1

> <i_epik_Tot_abs_Q>
1

> <r_epik_Metal_State_Penalty>
0.0102536

> <b_epik_Metal_Only>
0

> <s_lp_Force_Field>
OPLS_2005

> <r_lp_Energy>
96.5484

> <b_lp_Chiralities_Consistent>
1

> <s_lp_Variant>
AV-unprocessed.smi:867-4

> <Gold.Version>
5.8.1

> <Gold.Id.Protein>
6NUR|6NUR_protein|mol2

> <Gold.PLP.Fitness>
55.0209

> <Gold.PLP.PLP>
-45.9831

> <Gold.PLP.part.hbond>
-3.0000

> <Gold.PLP.part.metal>
0.0000

> <Gold.PLP.part.buried>
-6.1003

> <Gold.PLP.part.nonpolar>
-39.3245

> <Gold.PLP.part.repulsive>
0.2131

> <Gold.PLP.ligand.clash>
1.1040

> <Gold.PLP.ligand.torsion>
0.9853

> <Gold.PLP.Chemscore.Hbond>
3.0000

> <Gold.PLP.Chemscore.CHOScore>
1.0000

> <Gold.PLP.Chemscore.Metal>
0.0000

> <Gold.Chemscore.Hbonds>
donor molecule, donor type, donor heavy atom, donor atom, acceptor molecule, acceptor atom, score
      L1  H    15    53       P1  7948  2.00
      P1  H  7997  8009       L1     1  1.00
      L1  C    11    33       P1  8028  0.31

> <Gold.PLP.Chemscore.Internal.Correction>
0.1125

> <Gold.Rescore>
     Score         DG    S(hbond)    S(metal)    S(lipo)     H(rot)  DE(clash)    DE(int)     intcor
     21.51     -22.78       1.97        0.00     121.70       1.37       0.22       1.04       ----

> <Gold.Chemscore.Fitness>
21.5092

> <Gold.Chemscore.DG>
-22.7762

> <Gold.Chemscore.ZeroCoef>
-5.4800

> <Gold.Chemscore.Hbond>
1.9679

> <Gold.Chemscore.Metal>
0.0000

> <Gold.Chemscore.Lipo>
121.6986

> <Gold.Chemscore.Internal_Hbond>
0.0000

> <Gold.Chemscore.DEClash>
0.2238

> <Gold.Chemscore.DEInternal>
1.0433

> <Gold.Chemscore.Rot>
1.3731

> <Gold.Chemscore.Internal.Correction>
   9.000000E+99

> <Gold.Chemscore.Hbonds>
donor molecule, donor type, donor heavy atom, donor atom, acceptor molecule, acceptor atom, score
      L1  H    15    53       P1  7948  0.98
      P1  H  7997  8009       L1     1  0.99

> <Gold.Chemscore.Hbond.Weighted>
-6.5727

> <Gold.Chemscore.Metal.Weighted>
-0.0000

> <Gold.Chemscore.Lipo.Weighted>
-14.2387

> <Gold.Chemscore.Internal_Hbond.Weighted>
0.0000

> <Gold.Chemscore.DEClash.Weighted>
0.2238

> <Gold.Chemscore.DEInternal.Weighted>
1.0433

> <Gold.Chemscore.Rot.Weighted>
3.5152

> <Gold.Chemscore.Internal.Correction.Weighted>
   9.000000E+99

> <Gold.Protein.RotatedTorsions>
[ 6907 6896 6895 6894 ] final  -43.27 input  -60.11 | X-H torsion
[ 7974 7965 7964 7962 ] final  152.86 input  175.53 | X-H torsion
[ 8008 7997 7996 7995 ] final -169.34 input   59.86 | X-H torsion
[ 10167 10162 10161 10158 ] final   54.71 input  -65.29 | X-H torsion
[ 10718 10713 10712 10709 ] final   74.17 input   66.30 | X-H torsion
[ 10763 10752 10751 10750 ] final   10.42 input  -60.55 | X-H torsion
[ 11005 11000 10999 10996 ] final  -84.91 input  -57.11 | X-H torsion

> <Gold.Protein.ActiveResidues>
 VAL166  LYS551  ARG553  GLY616  TRP617  ASP618  TYR619  PRO620  LYS621  CYS622 
 ASP623  PHE694  ASN695  SER759  ASP760  ASP761  ALA762  ILE779  LEU786  VAL792 
 PHE793  MET794  SER795  GLU796  ALA797  LYS798  CYS799  TRP800  GLU811  SER814 

> <Gold.Protein.RotatedAtoms>
  150.9458  134.8863  159.7640 H   0  0  0  0  0  0  0  0  0  0  0  0  # atno 6907 bound_to 6896
  152.5099  134.3877  159.9383 H   0  0  0  0  0  0  0  0  0  0  0  0  # atno 6908 bound_to 6896
  151.3895  133.3753  159.2754 H   0  0  0  0  0  0  0  0  0  0  0  0  # atno 6909 bound_to 6896
  144.8194  139.6724  143.6107 H   0  0  0  0  0  0  0  0  0  0  0  0  # atno 7974 bound_to 7965
  155.9037  140.1045  157.1331 H   0  0  0  0  0  0  0  0  0  0  0  0  # atno 8008 bound_to 7997
  154.4029  140.1287  156.4533 H   0  0  0  0  0  0  0  0  0  0  0  0  # atno 8009 bound_to 7997
  155.7393  140.3467  155.5099 H   0  0  0  0  0  0  0  0  0  0  0  0  # atno 8010 bound_to 7997
  140.2272  144.3725  150.6428 H   0  0  0  0  0  0  0  0  0  0  0  0  # atno 10167 bound_to 10162
  157.6580  130.9664  150.1173 H   0  0  0  0  0  0  0  0  0  0  0  0  # atno 10718 bound_to 10713
  153.2034  135.6859  153.8203 H   0  0  0  0  0  0  0  0  0  0  0  0  # atno 10763 bound_to 10752
  153.7461  135.3231  155.3314 H   0  0  0  0  0  0  0  0  0  0  0  0  # atno 10764 bound_to 10752
  154.8184  135.4670  154.0810 H   0  0  0  0  0  0  0  0  0  0  0  0  # atno 10765 bound_to 10752
  141.1646  133.7371  156.8938 H   0  0  0  0  0  0  0  0  0  0  0  0  # atno 11005 bound_to 11000
  146.2498  139.6176  142.9434 LP  0  0  0  0  0  0  0  0  0  0  0  0  # atno 17320 bound_to 7965
  145.5141  141.0434  143.2472 LP  0  0  0  0  0  0  0  0  0  0  0  0  # atno 17321 bound_to 7965
  140.6211  143.2176  151.6691 LP  0  0  0  0  0  0  0  0  0  0  0  0  # atno 17342 bound_to 10162
  139.5123  144.3482  152.0677 LP  0  0  0  0  0  0  0  0  0  0  0  0  # atno 17343 bound_to 10162
  156.2053  130.3663  149.8737 LP  0  0  0  0  0  0  0  0  0  0  0  0  # atno 17370 bound_to 10713
  156.6629  130.8789  151.3550 LP  0  0  0  0  0  0  0  0  0  0  0  0  # atno 17371 bound_to 10713
  140.1630  134.9152  157.2738 LP  0  0  0  0  0  0  0  0  0  0  0  0  # atno 17394 bound_to 11000
  140.2589  134.3594  155.7414 LP  0  0  0  0  0  0  0  0  0  0  0  0  # atno 17395 bound_to 11000

$$$$
