#       Name:                AV-unprocessed.smi:196
#       Creating user name   scv26
#       Creation time:       Thu Mar 26 19:38:30 2020


#       File generated by GOLD software.
#

@<TRIPOS>MOLECULE
AV-unprocessed.smi:196
    57    60     1
SMALL
NO_CHARGES


@<TRIPOS>ATOM
      1 ****        -1.3619  -3.5263   4.3470 C.3            1 S1                 0.0000
      2 ****        -2.3355  -2.9247   3.3217 C.3            1 S1                 0.0000
      3 ****        -3.0293  -3.9956   2.6887 O.3            1 S1                 0.0000
      4 ****        -3.4256  -3.5717   1.3973 C.3            1 S1                 0.0000
      5 ****        -2.1952  -2.8196   0.9137 C.3            1 S1                 0.0000
      6 ****        -1.7161  -2.0869   2.1664 C.3            1 S1                 0.0000
      7 ****        -2.3307  -0.8097   2.1840 O.3            1 S1                 0.0000
      8 ****        -0.1783  -1.8842   2.2109 C.3            1 S1                 0.0000
      9 ****         0.3427  -1.1492   1.0680 N.pl3          1 S1                 0.0000
     10 ****         0.7852  -1.6805  -0.1233 C.2            1 S1                 0.0000
     11 ****         1.2066  -0.8102  -1.0000 N.2            1 S1                 0.0000
     12 ****         1.0502   0.4127  -0.3608 C.ar           1 S1                 0.0000
     13 ****         1.3052   1.7591  -0.7300 C.ar           1 S1                 0.0000
     14 ****         1.8024   2.0893  -1.9447 N.3            1 S1                 0.0000
     15 ****         3.0841   2.7910  -1.9183 C.3            1 S1                 0.0000
     16 ****         2.8182   4.1619  -2.5306 C.3            1 S1                 0.0000
     17 ****         3.9047   4.6976  -3.0861 F              1 S1                 0.0000
     18 ****         1.7293   3.8558  -3.5479 C.3            1 S1                 0.0000
     19 ****         0.8667   2.8062  -2.8267 C.3            1 S1                 0.0000
     20 ****         0.1178   1.9029  -3.8232 C.2            1 S1                 0.0000
     21 ****         0.4037   0.5975  -3.8538 N.am           1 S1                 0.0000
     22 ****        -0.7316   2.3911  -4.5652 O.2            1 S1                 0.0000
     23 ****         1.0333   2.7315   0.1804 N.ar           1 S1                 0.0000
     24 ****         0.5356   2.4044   1.3769 C.ar           1 S1                 0.0000
     25 ****         0.2404   1.1937   1.8558 N.ar           1 S1                 0.0000
     26 ****         0.5166   0.2181   0.9434 C.ar           1 S1                 0.0000
     27 ****         2.4498   4.8562  -1.7741 H              1 S1                 0.0000
     28 ****         0.1154   3.3307  -2.2326 H              1 S1                 0.0000
     29 ****        -0.8090  -2.7487   4.8743 H              1 S1                 0.0000
     30 ****        -0.6441  -4.1976   3.8752 H              1 S1                 0.0000
     31 ****        -1.9036  -4.1047   5.0956 H              1 S1                 0.0000
     32 ****        -3.0784  -2.3335   3.8609 H              1 S1                 0.0000
     33 ****        -3.6840  -4.4157   0.7575 H              1 S1                 0.0000
     34 ****        -4.2906  -2.9107   1.4708 H              1 S1                 0.0000
     35 ****        -1.4484  -3.5484   0.5966 H              1 S1                 0.0000
     36 ****        -2.3986  -2.1638   0.0660 H              1 S1                 0.0000
     37 ****        -1.9898  -0.3017   1.4636 H              1 S1                 0.0000
     38 ****         0.1113  -1.3530   3.1185 H              1 S1                 0.0000
     39 ****         0.3320  -2.8472   2.2403 H              1 S1                 0.0000
     40 ****         0.7820  -2.7419  -0.3253 H              1 S1                 0.0000
     41 ****         3.5281   2.8721  -0.9244 H              1 S1                 0.0000
     42 ****         3.7828   2.2272  -2.5377 H              1 S1                 0.0000
     43 ****         1.1634   4.7433  -3.8330 H              1 S1                 0.0000
     44 ****         2.1779   3.4388  -4.4518 H              1 S1                 0.0000
     45 ****        -0.0775  -0.0078  -4.5037 H              1 S1                 0.0000
     46 ****         1.1015   0.2216  -3.2286 H              1 S1                 0.0000
     47 ****         0.3455   3.2309   2.0457 H              1 S1                 0.0000
     48 ****        -3.8365  -4.2394   3.2264 LP             1 S1                 0.0000
     49 ****        -2.4268  -4.7901   2.6130 LP             1 S1                 0.0000
     50 ****        -2.1262  -0.3491   3.0477 LP             1 S1                 0.0000
     51 ****        -3.3208  -0.9107   2.0864 LP             1 S1                 0.0000
     52 ****         1.5602  -0.9838  -1.9192 LP             1 S1                 0.0000
     53 ****         1.9599   1.1846  -2.3406 LP             1 S1                 0.0000
     54 ****        -0.9327   3.3696  -4.5194 LP             1 S1                 0.0000
     55 ****        -1.2217   1.8098  -5.2148 LP             1 S1                 0.0000
     56 ****         1.2055   3.6905  -0.0450 LP             1 S1                 0.0000
     57 ****        -0.1352   1.0238   2.7669 LP             1 S1                 0.0000
@<TRIPOS>BOND
    1    1    2 1     
    2    1   29 1     
    3    1   30 1     
    4    1   31 1     
    5    2    6 1     
    6    2    3 1     
    7    2   32 1     
    8    3    4 1     
    9    4    5 1     
   10    4   33 1     
   11    4   34 1     
   12    5    6 1     
   13    5   35 1     
   14    5   36 1     
   15    6    7 1     
   16    6    8 1     
   17    7   37 1     
   18    8    9 1     
   19    8   38 1     
   20    8   39 1     
   21    9   26 1     
   22    9   10 1     
   23   10   11 2     
   24   10   40 1     
   25   11   12 1     
   26   12   26 ar    
   27   12   13 ar    
   28   13   14 1     
   29   13   23 ar    
   30   14   19 1     
   31   14   15 1     
   32   15   16 1     
   33   15   41 1     
   34   15   42 1     
   35   16   27 1     
   36   16   17 1     
   37   16   18 1     
   38   18   19 1     
   39   18   43 1     
   40   18   44 1     
   41   19   28 1     
   42   19   20 1     
   43   20   21 am    
   44   20   22 2     
   45   21   45 1     
   46   21   46 1     
   47   23   24 ar    
   48   24   25 ar    
   49   24   47 1     
   50   25   26 ar    
   51    3   48 1     
   52    3   49 1     
   53    7   50 1     
   54    7   51 1     
   55   11   52 1     
   56   14   53 1     
   57   22   54 1     
   58   22   55 1     
   59   23   56 1     
   60   25   57 1     
@<TRIPOS>SUBSTRUCTURE
      1 S1             1
@<TRIPOS>SET
LONE_PAIRS      STATIC     ATOMS    <user>   **** ""
10 48 49 50 51 52 53 54 55 56 57
DONOR_HYDROGENS      STATIC     ATOMS    <user>   **** ""
3 37 45 46
ATOM$BLUE        STATIC     ATOMS    COLORGROUP SYSTEM
10 48 49 50 51 52 53 54 55 56 57
ATOM$RED        STATIC     ATOMS    COLORGROUP SYSTEM
3 37 45 46
