AV-unprocessed.smi:1124|AV-procd|sdf|4833|dock8
  -GOLD-   22720 3393D 1   1.00000     0.00000
 Structure written by MMmdl.
 52 53  0  0  0  0  0  0  0  0  2 V2000
  145.4730  131.5610  150.1473 C   0  0  0  0  0  0  0  0  0  0  0  0
  146.3102  131.1493  151.2962 N   0  3  0  0  0  0  0  0  0  0  0  0
  146.2394  129.6914  151.5384 C   0  0  0  0  0  0  0  0  0  0  0  0
  146.0583  131.9550  152.5212 C   0  0  0  0  0  0  0  0  0  0  0  0
  146.8212  133.3085  152.5275 C   0  0  0  0  0  0  0  0  0  0  0  0
  148.3434  133.0541  152.4930 C   0  0  0  0  0  0  0  0  0  0  0  0
  146.4223  134.1643  151.3049 C   0  0  0  0  0  0  0  0  0  0  0  0
  146.5121  134.0902  153.8339 C   0  0  0  0  0  0  0  0  0  0  0  0
  146.9586  135.4820  153.8098 N   0  0  0  0  0  0  0  0  0  0  0  0
  146.7672  136.3830  154.7870 C   0  0  0  0  0  0  0  0  0  0  0  0
  146.1802  136.1291  155.8392 O   0  0  0  0  0  0  0  0  0  0  0  0
  147.3468  137.7475  154.5197 C   0  0  0  0  0  0  0  0  0  0  0  0
  146.8634  138.5023  153.4253 C   0  0  0  0  0  0  0  0  0  0  0  0
  147.3630  139.7963  153.1975 C   0  0  0  0  0  0  0  0  0  0  0  0
  148.3309  140.2997  154.0827 C   0  0  0  0  0  0  0  0  0  0  0  0
  148.8026  139.5994  155.1332 N   0  0  0  0  0  0  0  0  0  0  0  0
  148.3308  138.3482  155.3609 C   0  0  0  0  0  0  0  0  0  0  0  0
  148.8945  137.6525  156.4496 N   0  0  0  0  0  0  0  0  0  0  0  0
  149.7037  138.4190  157.3918 C   0  0  0  0  0  0  0  0  0  0  0  0
  150.0230  137.5577  158.6256 C   0  0  0  0  0  0  0  0  0  0  0  0
  150.6612  136.3519  158.2138 O   0  0  0  0  0  0  0  0  0  0  0  0
  149.8341  135.5743  157.3523 C   0  0  0  0  0  0  0  0  0  0  0  0
  149.5047  136.3799  156.0841 C   0  0  0  0  0  0  0  0  0  0  0  0
  144.4176  131.3660  150.3421 H   0  0  0  0  0  0  0  0  0  0  0  0
  145.7606  131.0162  149.2474 H   0  0  0  0  0  0  0  0  0  0  0  0
  145.5919  132.6253  149.9424 H   0  0  0  0  0  0  0  0  0  0  0  0
  145.2329  129.3919  151.8332 H   0  0  0  0  0  0  0  0  0  0  0  0
  146.9306  129.3990  152.3296 H   0  0  0  0  0  0  0  0  0  0  0  0
  146.5119  129.1376  150.6393 H   0  0  0  0  0  0  0  0  0  0  0  0
  144.9857  132.1245  152.6232 H   0  0  0  0  0  0  0  0  0  0  0  0
  146.3405  131.3832  153.4070 H   0  0  0  0  0  0  0  0  0  0  0  0
  148.9027  133.9886  152.5520 H   0  0  0  0  0  0  0  0  0  0  0  0
  148.6543  132.5551  151.5747 H   0  0  0  0  0  0  0  0  0  0  0  0
  148.6608  132.4303  153.3296 H   0  0  0  0  0  0  0  0  0  0  0  0
  146.8927  135.1475  151.3412 H   0  0  0  0  0  0  0  0  0  0  0  0
  145.3437  134.3180  151.2527 H   0  0  0  0  0  0  0  0  0  0  0  0
  146.7287  133.6972  150.3688 H   0  0  0  0  0  0  0  0  0  0  0  0
  145.4468  134.0360  154.0661 H   0  0  0  0  0  0  0  0  0  0  0  0
  147.0170  133.6136  154.6749 H   0  0  0  0  0  0  0  0  0  0  0  0
  147.4677  135.7798  152.9899 H   0  0  0  0  0  0  0  0  0  0  0  0
  146.1061  138.1038  152.7655 H   0  0  0  0  0  0  0  0  0  0  0  0
  147.0081  140.3913  152.3689 H   0  0  0  0  0  0  0  0  0  0  0  0
  148.7377  141.2906  153.9445 H   0  0  0  0  0  0  0  0  0  0  0  0
  150.6322  138.7327  156.9124 H   0  0  0  0  0  0  0  0  0  0  0  0
  149.1696  139.3213  157.6922 H   0  0  0  0  0  0  0  0  0  0  0  0
  150.6856  138.0989  159.3012 H   0  0  0  0  0  0  0  0  0  0  0  0
  149.1147  137.3277  159.1853 H   0  0  0  0  0  0  0  0  0  0  0  0
  150.3588  134.6559  157.0889 H   0  0  0  0  0  0  0  0  0  0  0  0
  148.9210  135.2817  157.8737 H   0  0  0  0  0  0  0  0  0  0  0  0
  148.8415  135.8025  155.4397 H   0  0  0  0  0  0  0  0  0  0  0  0
  150.4153  136.5709  155.5148 H   0  0  0  0  0  0  0  0  0  0  0  0
  147.2659  131.3410  151.0317 H   0  0  0  0  0  0  0  0  0  0  0  0
  1  2  1  0  0  0  0
  1 24  1  0  0  0  0
  1 25  1  0  0  0  0
  1 26  1  0  0  0  0
  2  3  1  0  0  0  0
  2  4  1  0  0  0  0
  2 52  1  0  0  0  0
  3 27  1  0  0  0  0
  3 28  1  0  0  0  0
  3 29  1  0  0  0  0
  4  5  1  0  0  0  0
  4 30  1  0  0  0  0
  4 31  1  0  0  0  0
  5  6  1  0  0  0  0
  5  7  1  0  0  0  0
  5  8  1  0  0  0  0
  6 32  1  0  0  0  0
  6 33  1  0  0  0  0
  6 34  1  0  0  0  0
  7 35  1  0  0  0  0
  7 36  1  0  0  0  0
  7 37  1  0  0  0  0
  8  9  1  0  0  0  0
  8 38  1  0  0  0  0
  8 39  1  0  0  0  0
  9 10  1  0  0  0  0
  9 40  1  0  0  0  0
 10 11  2  0  0  0  0
 10 12  1  0  0  0  0
 12 17  1  0  0  0  0
 12 13  2  0  0  0  0
 13 14  1  0  0  0  0
 13 41  1  0  0  0  0
 14 15  2  0  0  0  0
 14 42  1  0  0  0  0
 15 16  1  0  0  0  0
 15 43  1  0  0  0  0
 16 17  2  0  0  0  0
 17 18  1  0  0  0  0
 18 23  1  0  0  0  0
 18 19  1  0  0  0  0
 19 20  1  0  0  0  0
 19 44  1  0  0  0  0
 19 45  1  0  0  0  0
 20 21  1  0  0  0  0
 20 46  1  0  0  0  0
 20 47  1  0  0  0  0
 21 22  1  0  0  0  0
 22 23  1  0  0  0  0
 22 48  1  0  0  0  0
 22 49  1  0  0  0  0
 23 50  1  0  0  0  0
 23 51  1  0  0  0  0
M  CHG  1   2   1
M  END
> <s_m_source_file>
AV-unprocessed.smi

> <i_m_source_file_index>
1124

> <i_lp_mmshare_version>
43012

> <i_f3d_flags>
0

> <s_epik_input>
W0NIM11OKFtDSDNdKVtDSDJdQyhbQ0gzXSkoW0NIM10pW0NIMl1bTkhdQyg9TyljMVtjSF1bY0hdW2NIXW5jMU4yW0NIMl1bQ0gyXU9bQ0gyXVtDSDJdMg==

> <s_epik_cmdline>
J2VwaWtfcHl0aG9uJywgJy1waCcsICc3LjAnLCAnLXRuJywgJzgnLCAnLW1hJywgJzIwMCcsICctbWV0YWxfYmluZGluZycsICctaW1hZScsICc8aW5maWxlLm1hZT4nLCAnLW9tYWUnLCAnPG91dGZpbGUubWFlPic=

> <r_lp_tautomer_probability>
1

> <r_epik_Ionization_Penalty>
0.000493047

> <r_epik_Ionization_Penalty_Charging>
0.000482013

> <r_epik_Ionization_Penalty_Neutral>
1.10333e-05

> <r_epik_State_Penalty>
0.000299147

> <r_epik_Charging_Adjusted_Penalty>
0.000781161

> <i_epik_Tot_Q>
1

> <i_epik_Tot_abs_Q>
1

> <r_epik_Metal_State_Penalty>
-0

> <b_epik_Metal_Only>
0

> <s_lp_Force_Field>
OPLS_2005

> <r_lp_Energy>
38.5131

> <b_lp_Chiralities_Consistent>
1

> <s_lp_Variant>
AV-unprocessed.smi:1124-1

> <Gold.Version>
5.8.1

> <Gold.Id.Protein>
6NUR|6NUR_protein|mol2

> <Gold.PLP.Fitness>
33.3398

> <Gold.PLP.PLP>
-26.9970

> <Gold.PLP.part.hbond>
-3.0000

> <Gold.PLP.part.metal>
0.0000

> <Gold.PLP.part.buried>
-2.0712

> <Gold.PLP.part.nonpolar>
-21.7993

> <Gold.PLP.part.repulsive>
0.0805

> <Gold.PLP.ligand.clash>
0.0000

> <Gold.PLP.ligand.torsion>
1.7101

> <Gold.PLP.Chemscore.Hbond>
3.0000

> <Gold.PLP.Chemscore.CHOScore>
0.0000

> <Gold.PLP.Chemscore.Metal>
0.0000

> <Gold.Chemscore.Hbonds>
donor molecule, donor type, donor heavy atom, donor atom, acceptor molecule, acceptor atom, score
      L1  H     2    52       P1 10747  1.00
      L1  H     9    40       P1  7948  1.00
      P1  H  6896  6908       L1    21  0.61

> <Gold.PLP.Chemscore.Internal.Correction>
0.7630

> <Gold.Rescore>
     Score         DG    S(hbond)    S(metal)    S(lipo)     H(rot)  DE(clash)    DE(int)     intcor
     17.03     -19.06       2.65        0.00      78.49       1.73       0.08       1.95       ----

> <Gold.Chemscore.Fitness>
17.0313

> <Gold.Chemscore.DG>
-19.0640

> <Gold.Chemscore.ZeroCoef>
-5.4800

> <Gold.Chemscore.Hbond>
2.6473

> <Gold.Chemscore.Metal>
0.0000

> <Gold.Chemscore.Lipo>
78.4857

> <Gold.Chemscore.Internal_Hbond>
0.0000

> <Gold.Chemscore.DEClash>
0.0825

> <Gold.Chemscore.DEInternal>
1.9502

> <Gold.Chemscore.Rot>
1.7347

> <Gold.Chemscore.Internal.Correction>
   9.000000E+99

> <Gold.Chemscore.Hbonds>
donor molecule, donor type, donor heavy atom, donor atom, acceptor molecule, acceptor atom, score
      L1  H     2    52       P1 10747  0.96
      L1  H     9    40       P1  7948  0.99
      P1  H  6896  6908       L1    21  0.11

> <Gold.Chemscore.Hbond.Weighted>
-8.8420

> <Gold.Chemscore.Metal.Weighted>
-0.0000

> <Gold.Chemscore.Lipo.Weighted>
-9.1828

> <Gold.Chemscore.Internal_Hbond.Weighted>
0.0000

> <Gold.Chemscore.DEClash.Weighted>
0.0825

> <Gold.Chemscore.DEInternal.Weighted>
1.9502

> <Gold.Chemscore.Rot.Weighted>
4.4408

> <Gold.Chemscore.Internal.Correction.Weighted>
   9.000000E+99

> <Gold.Protein.RotatedTorsions>
[ 6907 6896 6895 6894 ] final -163.12 input  -60.11 | X-H torsion
[ 7974 7965 7964 7962 ] final    5.53 input  175.53 | X-H torsion
[ 8008 7997 7996 7995 ] final  -16.73 input   59.86 | X-H torsion
[ 10167 10162 10161 10158 ] final  145.12 input  -65.29 | X-H torsion
[ 10718 10713 10712 10709 ] final   77.49 input   66.30 | X-H torsion
[ 10763 10752 10751 10750 ] final   94.46 input  -60.55 | X-H torsion
[ 11005 11000 10999 10996 ] final -139.46 input  -57.11 | X-H torsion

> <Gold.Protein.ActiveResidues>
 VAL166  LYS551  ARG553  GLY616  TRP617  ASP618  TYR619  PRO620  LYS621  CYS622 
 ASP623  PHE694  ASN695  SER759  ASP760  ASP761  ALA762  ILE779  LEU786  VAL792 
 PHE793  MET794  SER795  GLU796  ALA797  LYS798  CYS799  TRP800  GLU811  SER814 

> <Gold.Protein.RotatedAtoms>
  151.3910  133.3789  159.2720 H   0  0  0  0  0  0  0  0  0  0  0  0  # atno 6907 bound_to 6896
  150.9505  134.8907  159.7679 H   0  0  0  0  0  0  0  0  0  0  0  0  # atno 6908 bound_to 6896
  152.5110  134.3865  159.9421 H   0  0  0  0  0  0  0  0  0  0  0  0  # atno 6909 bound_to 6896
  146.2440  140.0370  142.8385 H   0  0  0  0  0  0  0  0  0  0  0  0  # atno 7974 bound_to 7965
  154.5031  140.2161  155.9306 H   0  0  0  0  0  0  0  0  0  0  0  0  # atno 8008 bound_to 7997
  156.1459  140.3171  155.8536 H   0  0  0  0  0  0  0  0  0  0  0  0  # atno 8009 bound_to 7997
  155.4032  140.0485  157.3026 H   0  0  0  0  0  0  0  0  0  0  0  0  # atno 8010 bound_to 7997
  139.4932  144.5924  151.6653 H   0  0  0  0  0  0  0  0  0  0  0  0  # atno 10167 bound_to 10162
  157.6712  130.9824  150.1648 H   0  0  0  0  0  0  0  0  0  0  0  0  # atno 10718 bound_to 10713
  153.2419  135.4289  155.0707 H   0  0  0  0  0  0  0  0  0  0  0  0  # atno 10763 bound_to 10752
  154.8344  135.3405  154.6636 H   0  0  0  0  0  0  0  0  0  0  0  0  # atno 10764 bound_to 10752
  153.7060  135.7025  153.5107 H   0  0  0  0  0  0  0  0  0  0  0  0  # atno 10765 bound_to 10752
  140.8517  134.2278  157.4757 H   0  0  0  0  0  0  0  0  0  0  0  0  # atno 11005 bound_to 11000
  145.1104  140.9401  143.4660 LP  0  0  0  0  0  0  0  0  0  0  0  0  # atno 17320 bound_to 7965
  145.0582  139.3126  143.5894 LP  0  0  0  0  0  0  0  0  0  0  0  0  # atno 17321 bound_to 7965
  140.5554  144.0356  150.6145 LP  0  0  0  0  0  0  0  0  0  0  0  0  # atno 17342 bound_to 10162
  140.3424  143.3011  152.0574 LP  0  0  0  0  0  0  0  0  0  0  0  0  # atno 17343 bound_to 10162
  156.2416  130.3691  149.8331 LP  0  0  0  0  0  0  0  0  0  0  0  0  # atno 17370 bound_to 10713
  156.6129  130.8594  151.3458 LP  0  0  0  0  0  0  0  0  0  0  0  0  # atno 17371 bound_to 10713
  139.8704  134.9686  156.4638 LP  0  0  0  0  0  0  0  0  0  0  0  0  # atno 17394 bound_to 11000
  140.8783  133.7937  155.9438 LP  0  0  0  0  0  0  0  0  0  0  0  0  # atno 17395 bound_to 11000

$$$$
