#       Name:                AV-unprocessed.smi:1064
#       Creating user name   scv26
#       Creation time:       Fri Mar 27 03:17:36 2020


#       File generated by GOLD software.
#

@<TRIPOS>MOLECULE
AV-unprocessed.smi:1064
    38    39     1
SMALL
NO_CHARGES


@<TRIPOS>ATOM
      1 ****        -0.1574   0.6756   1.6839 O.2            1 S1                 0.0000
      2 ****        -1.0651   0.6708   0.8506 C.2            1 S1                 0.0000
      3 ****        -1.2440  -0.3515  -0.0033 N.am           1 S1                 0.0000
      4 ****        -0.3983  -1.5365  -0.0814 C.3            1 S1                 0.0000
      5 ****         0.8799  -1.2615  -0.8897 C.3            1 S1                 0.0000
      6 ****         1.7845  -2.4522  -0.9521 C.2            1 S1                 0.0000
      7 ****         1.6521  -3.4280  -1.8454 N.2            1 S1                 0.0000
      8 ****         2.6559  -4.3365  -1.5300 C.2            1 S1                 0.0000
      9 ****         3.3606  -3.8776  -0.4439 C.2            1 S1                 0.0000
     10 ****         2.7940  -2.6602  -0.0831 N.pl3          1 S1                 0.0000
     11 ****         3.2005  -1.8169   1.0298 C.3            1 S1                 0.0000
     12 ****         2.3023  -1.8951   2.0110 F              1 S1                 0.0000
     13 ****         4.3966  -2.1883   1.4876 F              1 S1                 0.0000
     14 ****        -1.9768   1.6702   0.7400 N.am           1 S1                 0.0000
     15 ****        -2.9047   1.8681  -0.3858 C.3            1 S1                 0.0000
     16 ****        -2.2848   2.8654  -1.3788 C.3            1 S1                 0.0000
     17 ****        -2.0448   4.4939  -0.6020 S.3            1 S1                 0.0000
     18 ****        -1.1900   3.9855   0.9227 C.3            1 S1                 0.0000
     19 ****        -1.9423   2.8414   1.6239 C.3            1 S1                 0.0000
     20 ****        -2.0188  -0.2996  -0.6486 H              1 S1                 0.0000
     21 ****        -0.1520  -1.8843   0.9230 H              1 S1                 0.0000
     22 ****        -0.9716  -2.3352  -0.5528 H              1 S1                 0.0000
     23 ****         0.6148  -0.9776  -1.9091 H              1 S1                 0.0000
     24 ****         1.4212  -0.4121  -0.4750 H              1 S1                 0.0000
     25 ****         2.7883  -5.2449  -2.0989 H              1 S1                 0.0000
     26 ****         4.1958  -4.3086   0.0883 H              1 S1                 0.0000
     27 ****         3.2823  -0.7771   0.7144 H              1 S1                 0.0000
     28 ****        -3.1586   0.9412  -0.9001 H              1 S1                 0.0000
     29 ****        -3.8566   2.2536  -0.0182 H              1 S1                 0.0000
     30 ****        -1.3244   2.4964  -1.7404 H              1 S1                 0.0000
     31 ****        -2.9294   2.9865  -2.2496 H              1 S1                 0.0000
     32 ****        -0.1732   3.6778   0.6756 H              1 S1                 0.0000
     33 ****        -1.1106   4.8489   1.5833 H              1 S1                 0.0000
     34 ****        -2.9570   3.1550   1.8732 H              1 S1                 0.0000
     35 ****        -1.4680   2.6135   2.5795 H              1 S1                 0.0000
     36 ****         0.4743  -0.0976   1.7396 LP             1 S1                 0.0000
     37 ****        -0.0525   1.4527   2.3046 LP             1 S1                 0.0000
     38 ****         0.9788  -3.4939  -2.5818 LP             1 S1                 0.0000
@<TRIPOS>BOND
    1    1    2 2     
    2    2    3 am    
    3    2   14 am    
    4    3    4 1     
    5    3   20 1     
    6    4    5 1     
    7    4   21 1     
    8    4   22 1     
    9    5    6 1     
   10    5   23 1     
   11    5   24 1     
   12    6   10 1     
   13    6    7 2     
   14    7    8 1     
   15    8    9 2     
   16    8   25 1     
   17    9   10 1     
   18    9   26 1     
   19   10   11 1     
   20   11   12 1     
   21   11   13 1     
   22   11   27 1     
   23   14   19 1     
   24   14   15 1     
   25   15   16 1     
   26   15   28 1     
   27   15   29 1     
   28   16   17 1     
   29   16   30 1     
   30   16   31 1     
   31   17   18 1     
   32   18   19 1     
   33   18   32 1     
   34   18   33 1     
   35   19   34 1     
   36   19   35 1     
   37    1   36 1     
   38    1   37 1     
   39    7   38 1     
@<TRIPOS>SUBSTRUCTURE
      1 S1             1
@<TRIPOS>SET
LONE_PAIRS      STATIC     ATOMS    <user>   **** ""
3 36 37 38
DONOR_HYDROGENS      STATIC     ATOMS    <user>   **** ""
1 20
ATOM$BLUE        STATIC     ATOMS    COLORGROUP SYSTEM
3 36 37 38
ATOM$RED        STATIC     ATOMS    COLORGROUP SYSTEM
1 20
