AV-unprocessed.smi:1934|AV-procd|sdf|7826|dock8
  -GOLD-   22720 9573D 1   1.00000     0.00000
 Structure written by MMmdl.
 46 47  0  0  0  0  0  0  0  0  2 V2000
  151.1506  142.2738  157.2619 C   0  0  0  0  0  0  0  0  0  0  0  0
  150.7972  141.2538  156.2199 C   0  0  0  0  0  0  0  0  0  0  0  0
  149.6807  141.2567  155.3344 C   0  0  0  0  0  0  0  0  0  0  0  0
  149.8592  140.1031  154.6209 C   0  0  0  0  0  0  0  0  0  0  0  0
  149.0894  139.5858  153.6267 N   0  0  0  0  0  0  0  0  0  0  0  0
  147.8309  139.1181  153.6982 C   0  0  0  0  0  0  0  0  0  0  0  0
  147.1347  139.0881  154.7132 O   0  0  0  0  0  0  0  0  0  0  0  0
  147.4119  138.6659  152.5075 N   0  0  0  0  0  0  0  0  0  0  0  0
  146.0996  138.0827  152.2529 C   0  0  0  0  0  0  0  0  0  0  0  0
  145.8699  136.8168  153.1020 C   0  0  0  0  0  0  0  0  0  0  0  0
  146.2916  135.5763  152.4033 N   0  3  2  0  0  0  0  0  0  0  0  0
  145.3153  135.1655  151.3610 C   0  0  0  0  0  0  0  0  0  0  0  0
  145.8316  133.9605  150.5594 C   0  0  0  0  0  0  0  0  0  0  0  0
  146.1624  132.7854  151.4876 C   0  0  0  0  0  0  0  0  0  0  0  0
  147.1540  133.2298  152.5755 C   0  0  2  0  0  0  0  0  0  0  0  0
  147.4836  132.0787  153.5364 C   0  0  0  0  0  0  0  0  0  0  0  0
  146.6033  134.4557  153.3318 C   0  0  0  0  0  0  0  0  0  0  0  0
  151.0070  139.4810  155.0606 N   0  0  0  0  0  0  0  0  0  0  0  0
  151.6109  138.2388  154.6185 C   0  0  0  0  0  0  0  0  0  0  0  0
  151.5815  140.1948  156.0528 N   0  0  0  0  0  0  0  0  0  0  0  0
  150.4350  143.0964  157.2659 H   0  0  0  0  0  0  0  0  0  0  0  0
  152.1392  142.6959  157.0797 H   0  0  0  0  0  0  0  0  0  0  0  0
  151.1530  141.8323  158.2587 H   0  0  0  0  0  0  0  0  0  0  0  0
  148.8942  141.9919  155.2542 H   0  0  0  0  0  0  0  0  0  0  0  0
  149.5356  139.5307  152.7230 H   0  0  0  0  0  0  0  0  0  0  0  0
  148.0447  138.7297  151.7230 H   0  0  0  0  0  0  0  0  0  0  0  0
  145.3202  138.8216  152.4473 H   0  0  0  0  0  0  0  0  0  0  0  0
  146.0519  137.8535  151.1892 H   0  0  0  0  0  0  0  0  0  0  0  0
  146.3833  136.8947  154.0618 H   0  0  0  0  0  0  0  0  0  0  0  0
  144.8053  136.7457  153.3298 H   0  0  0  0  0  0  0  0  0  0  0  0
  144.3597  134.9253  151.8300 H   0  0  0  0  0  0  0  0  0  0  0  0
  145.1332  135.9948  150.6764 H   0  0  0  0  0  0  0  0  0  0  0  0
  145.0862  133.6555  149.8242 H   0  0  0  0  0  0  0  0  0  0  0  0
  146.7214  134.2471  149.9971 H   0  0  0  0  0  0  0  0  0  0  0  0
  145.2460  132.4126  151.9478 H   0  0  0  0  0  0  0  0  0  0  0  0
  146.5788  131.9607  150.9079 H   0  0  0  0  0  0  0  0  0  0  0  0
  148.0836  133.5247  152.0855 H   0  0  0  0  0  0  0  0  0  0  0  0
  146.5954  131.7415  154.0720 H   0  0  0  0  0  0  0  0  0  0  0  0
  148.2227  132.3848  154.2774 H   0  0  0  0  0  0  0  0  0  0  0  0
  147.8924  131.2227  152.9985 H   0  0  0  0  0  0  0  0  0  0  0  0
  147.3407  134.7738  154.0678 H   0  0  0  0  0  0  0  0  0  0  0  0
  145.7034  134.1838  153.8865 H   0  0  0  0  0  0  0  0  0  0  0  0
  151.6458  138.2115  153.5292 H   0  0  0  0  0  0  0  0  0  0  0  0
  151.0185  137.3973  154.9784 H   0  0  0  0  0  0  0  0  0  0  0  0
  152.6274  138.1485  155.0042 H   0  0  0  0  0  0  0  0  0  0  0  0
  147.1460  135.8004  151.9132 H   0  0  0  0  0  0  0  0  0  0  0  0
  1  2  1  0  0  0  0
  1 21  1  0  0  0  0
  1 22  1  0  0  0  0
  1 23  1  0  0  0  0
  2 20  2  0  0  0  0
  2  3  1  0  0  0  0
  3  4  2  0  0  0  0
  3 24  1  0  0  0  0
  4  5  1  0  0  0  0
  4 18  1  0  0  0  0
  5  6  1  0  0  0  0
  5 25  1  0  0  0  0
  6  7  2  0  0  0  0
  6  8  1  0  0  0  0
  8  9  1  0  0  0  0
  8 26  1  0  0  0  0
  9 10  1  0  0  0  0
  9 27  1  0  0  0  0
  9 28  1  0  0  0  0
 10 11  1  0  0  0  0
 10 29  1  0  0  0  0
 10 30  1  0  0  0  0
 11 17  1  0  0  0  0
 11 12  1  0  0  0  0
 11 46  1  0  0  0  0
 12 13  1  0  0  0  0
 12 31  1  0  0  0  0
 12 32  1  0  0  0  0
 13 14  1  0  0  0  0
 13 33  1  0  0  0  0
 13 34  1  0  0  0  0
 14 15  1  0  0  0  0
 14 35  1  0  0  0  0
 14 36  1  0  0  0  0
 15 16  1  0  0  0  0
 15 17  1  0  0  0  0
 15 37  1  0  0  0  0
 16 38  1  0  0  0  0
 16 39  1  0  0  0  0
 16 40  1  0  0  0  0
 17 41  1  0  0  0  0
 17 42  1  0  0  0  0
 18 19  1  0  0  0  0
 18 20  1  0  0  0  0
 19 43  1  0  0  0  0
 19 44  1  0  0  0  0
 19 45  1  0  0  0  0
M  CHG  1  11   1
M  END
> <s_m_source_file>
AV-unprocessed.smi

> <i_m_source_file_index>
1934

> <i_lp_mmshare_version>
43012

> <i_f3d_flags>
0

> <s_epik_input>
W0NIM11jMVtjSF1jKG4objEpW0NIM10pW05IXUMoPU8pW05IXVtDSDJdW0NIMl1OMltDSDJdW0NIMl1bQ0gyXVtDQEBIXShbQ0gzXSlbQ0gyXTI=

> <s_epik_cmdline>
J2VwaWtfcHl0aG9uJywgJy1waCcsICc3LjAnLCAnLXRuJywgJzgnLCAnLW1hJywgJzIwMCcsICctbWV0YWxfYmluZGluZycsICctaW1hZScsICc8aW5maWxlLm1hZT4nLCAnLW9tYWUnLCAnPG91dGZpbGUubWFlPic=

> <r_lp_tautomer_probability>
1

> <r_epik_Ionization_Penalty>
0.00202955

> <r_epik_Ionization_Penalty_Charging>
0.00195276

> <r_epik_Ionization_Penalty_Neutral>
7.67968e-05

> <r_epik_State_Penalty>
0.00133177

> <r_epik_Charging_Adjusted_Penalty>
0.00328452

> <i_epik_Tot_Q>
1

> <i_epik_Tot_abs_Q>
1

> <r_epik_Metal_State_Penalty>
-0

> <b_epik_Metal_Only>
0

> <s_lp_Force_Field>
OPLS_2005

> <r_lp_Energy>
17.6546

> <b_lp_Chiralities_Consistent>
1

> <s_lp_Variant>
AV-unprocessed.smi:1934-4

> <Gold.Version>
5.8.1

> <Gold.Id.Protein>
6NUR|6NUR_protein|mol2

> <Gold.PLP.Fitness>
48.0434

> <Gold.PLP.PLP>
-38.7356

> <Gold.PLP.part.hbond>
-4.0000

> <Gold.PLP.part.metal>
0.0000

> <Gold.PLP.part.buried>
-1.8292

> <Gold.PLP.part.nonpolar>
-33.2555

> <Gold.PLP.part.repulsive>
0.2916

> <Gold.PLP.ligand.clash>
0.0000

> <Gold.PLP.ligand.torsion>
1.0101

> <Gold.PLP.Chemscore.Hbond>
3.7680

> <Gold.PLP.Chemscore.CHOScore>
0.0000

> <Gold.PLP.Chemscore.Metal>
0.0000

> <Gold.Chemscore.Hbonds>
donor molecule, donor type, donor heavy atom, donor atom, acceptor molecule, acceptor atom, score
      L1  H     5    25       P1  7957  0.99
      L1  H     8    26       P1  7957  0.65
      L1  H    11    46       P1  7948  2.00

> <Gold.PLP.Chemscore.Internal.Correction>
0.0240

> <Gold.Rescore>
     Score         DG    S(hbond)    S(metal)    S(lipo)     H(rot)  DE(clash)    DE(int)     intcor
     18.26     -19.33       2.84        0.00      69.76       1.48       0.05       1.02       ----

> <Gold.Chemscore.Fitness>
18.2598

> <Gold.Chemscore.DG>
-19.3252

> <Gold.Chemscore.ZeroCoef>
-5.4800

> <Gold.Chemscore.Hbond>
2.8387

> <Gold.Chemscore.Metal>
0.0000

> <Gold.Chemscore.Lipo>
69.7630

> <Gold.Chemscore.Internal_Hbond>
0.0000

> <Gold.Chemscore.DEClash>
0.0456

> <Gold.Chemscore.DEInternal>
1.0198

> <Gold.Chemscore.Rot>
1.4838

> <Gold.Chemscore.Internal.Correction>
   9.000000E+99

> <Gold.Chemscore.Hbonds>
donor molecule, donor type, donor heavy atom, donor atom, acceptor molecule, acceptor atom, score
      L1  H     5    25       P1  7957  0.93
      L1  H     8    26       P1  7957  0.50
      L1  H    11    46       P1  7948  0.98

> <Gold.Chemscore.Hbond.Weighted>
-9.4814

> <Gold.Chemscore.Metal.Weighted>
-0.0000

> <Gold.Chemscore.Lipo.Weighted>
-8.1623

> <Gold.Chemscore.Internal_Hbond.Weighted>
0.0000

> <Gold.Chemscore.DEClash.Weighted>
0.0456

> <Gold.Chemscore.DEInternal.Weighted>
1.0198

> <Gold.Chemscore.Rot.Weighted>
3.7985

> <Gold.Chemscore.Internal.Correction.Weighted>
   9.000000E+99

> <Gold.Protein.RotatedTorsions>
[ 6907 6896 6895 6894 ] final  -83.71 input  -60.11 | X-H torsion
[ 7974 7965 7964 7962 ] final  143.54 input  175.53 | X-H torsion
[ 8008 7997 7996 7995 ] final -112.46 input   59.86 | X-H torsion
[ 10167 10162 10161 10158 ] final  -27.86 input  -65.29 | X-H torsion
[ 10718 10713 10712 10709 ] final   45.17 input   66.30 | X-H torsion
[ 10763 10752 10751 10750 ] final   60.67 input  -60.55 | X-H torsion
[ 11005 11000 10999 10996 ] final  -47.76 input  -57.11 | X-H torsion

> <Gold.Protein.ActiveResidues>
 VAL166  LYS551  ARG553  GLY616  TRP617  ASP618  TYR619  PRO620  LYS621  CYS622 
 ASP623  PHE694  ASN695  SER759  ASP760  ASP761  ALA762  ILE779  LEU786  VAL792 
 PHE793  MET794  SER795  GLU796  ALA797  LYS798  CYS799  TRP800  GLU811  SER814 

> <Gold.Protein.RotatedAtoms>
  150.6883  134.3470  159.4892 H   0  0  0  0  0  0  0  0  0  0  0  0  # atno 6907 bound_to 6896
  152.1316  134.9128  160.0567 H   0  0  0  0  0  0  0  0  0  0  0  0  # atno 6908 bound_to 6896
  152.0296  133.3897  159.4328 H   0  0  0  0  0  0  0  0  0  0  0  0  # atno 6909 bound_to 6896
  144.8912  139.5555  143.5797 H   0  0  0  0  0  0  0  0  0  0  0  0  # atno 7974 bound_to 7965
  155.0056  140.0394  157.2378 H   0  0  0  0  0  0  0  0  0  0  0  0  # atno 8008 bound_to 7997
  154.7505  140.2766  155.6274 H   0  0  0  0  0  0  0  0  0  0  0  0  # atno 8009 bound_to 7997
  156.2884  140.2648  156.2257 H   0  0  0  0  0  0  0  0  0  0  0  0  # atno 8010 bound_to 7997
  140.7274  143.4058  151.1188 H   0  0  0  0  0  0  0  0  0  0  0  0  # atno 10167 bound_to 10162
  157.4347  130.8045  149.7636 H   0  0  0  0  0  0  0  0  0  0  0  0  # atno 10718 bound_to 10713
  152.9928  135.5528  154.5910 H   0  0  0  0  0  0  0  0  0  0  0  0  # atno 10763 bound_to 10752
  154.5272  135.2811  155.1214 H   0  0  0  0  0  0  0  0  0  0  0  0  # atno 10764 bound_to 10752
  154.2543  135.6393  153.5304 H   0  0  0  0  0  0  0  0  0  0  0  0  # atno 10765 bound_to 10752
  141.0660  133.6693  156.3344 H   0  0  0  0  0  0  0  0  0  0  0  0  # atno 11005 bound_to 11000
  146.3055  139.7565  142.9059 LP  0  0  0  0  0  0  0  0  0  0  0  0  # atno 17320 bound_to 7965
  145.3780  141.0353  143.3194 LP  0  0  0  0  0  0  0  0  0  0  0  0  # atno 17321 bound_to 7965
  139.7684  143.8531  152.3115 LP  0  0  0  0  0  0  0  0  0  0  0  0  # atno 17342 bound_to 10162
  139.8441  144.7196  150.9295 LP  0  0  0  0  0  0  0  0  0  0  0  0  # atno 17343 bound_to 10162
  155.9926  130.3930  150.2936 LP  0  0  0  0  0  0  0  0  0  0  0  0  # atno 17370 bound_to 10713
  157.1095  131.0217  151.3053 LP  0  0  0  0  0  0  0  0  0  0  0  0  # atno 17371 bound_to 10713
  140.5772  134.5782  157.5471 LP  0  0  0  0  0  0  0  0  0  0  0  0  # atno 17394 bound_to 11000
  139.9477  134.7673  156.0523 LP  0  0  0  0  0  0  0  0  0  0  0  0  # atno 17395 bound_to 11000

$$$$
