AV-unprocessed.smi:1056|AV-procd|sdf|4639|dock3
  -GOLD-   22720 3143D 1   1.00000     0.00000
 Structure written by MMmdl.
 44 46  0  0  0  0  0  0  0  0  1 V2000
  153.5051  142.6532  162.1223 C   0  0  0  0  0  0  0  0  0  0  0  0
  152.8886  142.2314  160.8000 C   0  0  0  0  0  0  0  0  0  0  0  0
  151.9911  143.1080  160.1495 C   0  0  0  0  0  0  0  0  0  0  0  0
  151.3972  142.7537  158.9181 C   0  0  0  0  0  0  0  0  0  0  0  0
  150.5058  143.4481  158.1180 N   0  0  0  0  0  0  0  0  0  0  0  0
  150.3289  142.5956  157.1129 C   0  0  0  0  0  0  0  0  0  0  0  0
  151.0005  141.4296  157.1671 N   0  0  0  0  0  0  0  0  0  0  0  0
  150.9631  140.3554  156.1906 C   0  0  0  0  0  0  0  0  0  0  0  0
  149.9699  140.6321  155.0452 C   0  0  1  0  0  0  0  0  0  0  0  0
  150.4052  139.9608  153.8785 O   0  0  0  0  0  0  0  0  0  0  0  0
  148.5500  140.1408  155.3961 C   0  0  0  0  0  0  0  0  0  0  0  0
  147.6026  140.0526  154.2708 N   0  0  0  0  0  0  0  0  0  0  0  0
  147.4451  141.3077  153.5270 C   0  0  0  0  0  0  0  0  0  0  0  0
  146.7667  142.4253  154.3449 C   0  0  0  0  0  0  0  0  0  0  0  0
  145.6471  141.9281  155.1439 N   0  0  0  0  0  0  0  0  0  0  0  0
  145.3942  140.6305  155.3884 C   0  0  0  0  0  0  0  0  0  0  0  0
  144.4704  140.2755  156.1165 O   0  0  0  0  0  0  0  0  0  0  0  0
  146.2808  139.5716  154.7021 C   0  0  0  0  0  0  0  0  0  0  0  0
  151.7270  141.4877  158.3517 C   0  0  0  0  0  0  0  0  0  0  0  0
  152.6190  140.6074  158.9891 C   0  0  0  0  0  0  0  0  0  0  0  0
  153.2040  140.9772  160.2182 C   0  0  0  0  0  0  0  0  0  0  0  0
  154.1674  140.0202  160.8976 C   0  0  0  0  0  0  0  0  0  0  0  0
  153.1794  143.6525  162.4129 H   0  0  0  0  0  0  0  0  0  0  0  0
  154.5931  142.6640  162.0519 H   0  0  0  0  0  0  0  0  0  0  0  0
  153.2155  141.9632  162.9152 H   0  0  0  0  0  0  0  0  0  0  0  0
  151.7504  144.0634  160.5920 H   0  0  0  0  0  0  0  0  0  0  0  0
  149.6736  142.8319  156.2873 H   0  0  0  0  0  0  0  0  0  0  0  0
  151.9696  140.2025  155.7990 H   0  0  0  0  0  0  0  0  0  0  0  0
  150.6896  139.4360  156.7098 H   0  0  0  0  0  0  0  0  0  0  0  0
  149.9720  141.7033  154.8497 H   0  0  0  0  0  0  0  0  0  0  0  0
  149.7469  140.0698  153.2091 H   0  0  0  0  0  0  0  0  0  0  0  0
  148.6499  139.1560  155.8553 H   0  0  0  0  0  0  0  0  0  0  0  0
  148.1393  140.7772  156.1806 H   0  0  0  0  0  0  0  0  0  0  0  0
  148.3947  141.6550  153.1235 H   0  0  0  0  0  0  0  0  0  0  0  0
  146.8305  141.1088  152.6475 H   0  0  0  0  0  0  0  0  0  0  0  0
  147.4873  142.8855  155.0214 H   0  0  0  0  0  0  0  0  0  0  0  0
  146.4133  143.2164  153.6833 H   0  0  0  0  0  0  0  0  0  0  0  0
  145.0480  142.6169  155.5756 H   0  0  0  0  0  0  0  0  0  0  0  0
  145.7321  139.2214  153.8270 H   0  0  0  0  0  0  0  0  0  0  0  0
  146.3809  138.7007  155.3514 H   0  0  0  0  0  0  0  0  0  0  0  0
  152.8530  139.6570  158.5326 H   0  0  0  0  0  0  0  0  0  0  0  0
  154.2759  139.0956  160.3297 H   0  0  0  0  0  0  0  0  0  0  0  0
  153.8101  139.7605  161.8942 H   0  0  0  0  0  0  0  0  0  0  0  0
  155.1542  140.4744  160.9897 H   0  0  0  0  0  0  0  0  0  0  0  0
  1  2  1  0  0  0  0
  1 23  1  0  0  0  0
  1 24  1  0  0  0  0
  1 25  1  0  0  0  0
  2 21  1  0  0  0  0
  2  3  2  0  0  0  0
  3  4  1  0  0  0  0
  3 26  1  0  0  0  0
  4 19  2  0  0  0  0
  4  5  1  0  0  0  0
  5  6  2  0  0  0  0
  6  7  1  0  0  0  0
  6 27  1  0  0  0  0
  7  8  1  0  0  0  0
  7 19  1  0  0  0  0
  8  9  1  0  0  0  0
  8 28  1  0  0  0  0
  8 29  1  0  0  0  0
  9 10  1  0  0  0  0
  9 11  1  0  0  0  0
  9 30  1  0  0  0  0
 10 31  1  0  0  0  0
 11 12  1  0  0  0  0
 11 32  1  0  0  0  0
 11 33  1  0  0  0  0
 12 18  1  0  0  0  0
 12 13  1  0  0  0  0
 13 14  1  0  0  0  0
 13 34  1  0  0  0  0
 13 35  1  0  0  0  0
 14 15  1  0  0  0  0
 14 36  1  0  0  0  0
 14 37  1  0  0  0  0
 15 16  1  0  0  0  0
 15 38  1  0  0  0  0
 16 17  2  0  0  0  0
 16 18  1  0  0  0  0
 18 39  1  0  0  0  0
 18 40  1  0  0  0  0
 19 20  1  0  0  0  0
 20 21  2  0  0  0  0
 20 41  1  0  0  0  0
 21 22  1  0  0  0  0
 22 42  1  0  0  0  0
 22 43  1  0  0  0  0
 22 44  1  0  0  0  0
M  END
> <s_m_source_file>
AV-unprocessed.smi

> <i_m_source_file_index>
1056

> <i_lp_mmshare_version>
43012

> <i_f3d_flags>
0

> <s_epik_input>
W0NIM11jKFtjSF0xKWMoW0NIM10pW2NIXWMoYzEyKW4oW2NIXW4yKVtDSDJdW0NASF0oW09IXSlbQ0gyXU4zW0NIMl1bQ0gyXVtOSF1DKD1PKVtDSDJdMw==

> <s_epik_cmdline>
J2VwaWtfcHl0aG9uJywgJy1waCcsICc3LjAnLCAnLXRuJywgJzgnLCAnLW1hJywgJzIwMCcsICctbWV0YWxfYmluZGluZycsICctaW1hZScsICc8aW5maWxlLm1hZT4nLCAnLW9tYWUnLCAnPG91dGZpbGUubWFlPic=

> <r_epik_Ionization_Penalty>
1.40166

> <r_epik_Ionization_Penalty_Charging>
0

> <r_epik_Ionization_Penalty_Neutral>
1.40166

> <r_epik_State_Penalty>
1.44226

> <r_epik_Charging_Adjusted_Penalty>
1.44226

> <i_epik_Tot_Q>
0

> <i_epik_Tot_abs_Q>
0

> <r_epik_Metal_State_Penalty>
1.50267

> <b_epik_Metal_Only>
0

> <s_lp_Force_Field>
OPLS_2005

> <r_lp_Energy>
31.4444

> <b_lp_Chiralities_Consistent>
1

> <s_lp_Variant>
AV-unprocessed.smi:1056-10

> <Gold.Version>
5.8.1

> <Gold.Id.Protein>
6NUR|6NUR_protein|mol2

> <Gold.PLP.Fitness>
46.1435

> <Gold.PLP.PLP>
-38.6982

> <Gold.PLP.part.hbond>
-1.8240

> <Gold.PLP.part.metal>
0.0000

> <Gold.PLP.part.buried>
-2.1385

> <Gold.PLP.part.nonpolar>
-34.3091

> <Gold.PLP.part.repulsive>
0.3634

> <Gold.PLP.ligand.clash>
0.0000

> <Gold.PLP.ligand.torsion>
0.4477

> <Gold.PLP.Chemscore.Hbond>
1.7670

> <Gold.PLP.Chemscore.CHOScore>
1.0000

> <Gold.PLP.Chemscore.Metal>
0.0000

> <Gold.Chemscore.Hbonds>
donor molecule, donor type, donor heavy atom, donor atom, acceptor molecule, acceptor atom, score
      L1  H    10    31       P1  7957  0.72
      P1  H  7989  7998       L1    10  0.99
      L1  C     6    27       P1  8028  0.99

> <Gold.PLP.Chemscore.Internal.Correction>
0.0397

> <Gold.Rescore>
     Score         DG    S(hbond)    S(metal)    S(lipo)     H(rot)  DE(clash)    DE(int)     intcor
     14.34     -14.89       0.87        0.00     106.32       2.31       0.09       0.46       ----

> <Gold.Chemscore.Fitness>
14.3376

> <Gold.Chemscore.DG>
-14.8872

> <Gold.Chemscore.ZeroCoef>
-5.4800

> <Gold.Chemscore.Hbond>
0.8661

> <Gold.Chemscore.Metal>
0.0000

> <Gold.Chemscore.Lipo>
106.3247

> <Gold.Chemscore.Internal_Hbond>
0.0000

> <Gold.Chemscore.DEClash>
0.0928

> <Gold.Chemscore.DEInternal>
0.4567

> <Gold.Chemscore.Rot>
2.3147

> <Gold.Chemscore.Internal.Correction>
   9.000000E+99

> <Gold.Chemscore.Hbonds>
donor molecule, donor type, donor heavy atom, donor atom, acceptor molecule, acceptor atom, score
      L1  H    10    31       P1  7957  0.68
      P1  H  7989  7998       L1    10  0.13

> <Gold.Chemscore.Hbond.Weighted>
-2.8927

> <Gold.Chemscore.Metal.Weighted>
-0.0000

> <Gold.Chemscore.Lipo.Weighted>
-12.4400

> <Gold.Chemscore.Internal_Hbond.Weighted>
0.0000

> <Gold.Chemscore.DEClash.Weighted>
0.0928

> <Gold.Chemscore.DEInternal.Weighted>
0.4567

> <Gold.Chemscore.Rot.Weighted>
5.9256

> <Gold.Chemscore.Internal.Correction.Weighted>
   9.000000E+99

> <Gold.Protein.RotatedTorsions>
[ 6907 6896 6895 6894 ] final  -54.08 input  -60.11 | X-H torsion
[ 7974 7965 7964 7962 ] final -161.96 input  175.53 | X-H torsion
[ 8008 7997 7996 7995 ] final  140.45 input   59.86 | X-H torsion
[ 10167 10162 10161 10158 ] final -129.53 input  -65.29 | X-H torsion
[ 10718 10713 10712 10709 ] final  125.63 input   66.30 | X-H torsion
[ 10763 10752 10751 10750 ] final   22.42 input  -60.55 | X-H torsion
[ 11005 11000 10999 10996 ] final -147.40 input  -57.11 | X-H torsion

> <Gold.Protein.ActiveResidues>
 VAL166  LYS551  ARG553  GLY616  TRP617  ASP618  TYR619  PRO620  LYS621  CYS622 
 ASP623  PHE694  ASN695  SER759  ASP760  ASP761  ALA762  ILE779  LEU786  VAL792 
 PHE793  MET794  SER795  GLU796  ALA797  LYS798  CYS799  TRP800  GLU811  SER814 

> <Gold.Protein.RotatedAtoms>
  150.8370  134.7646  159.6900 H   0  0  0  0  0  0  0  0  0  0  0  0  # atno 6907 bound_to 6896
  152.4464  134.5481  159.9868 H   0  0  0  0  0  0  0  0  0  0  0  0  # atno 6908 bound_to 6896
  151.5630  133.3363  159.3010 H   0  0  0  0  0  0  0  0  0  0  0  0  # atno 6909 bound_to 6896
  144.7373  140.3322  143.6151 H   0  0  0  0  0  0  0  0  0  0  0  0  # atno 7974 bound_to 7965
  156.2979  140.2341  156.4403 H   0  0  0  0  0  0  0  0  0  0  0  0  # atno 8008 bound_to 7997
  154.8192  140.0439  157.1419 H   0  0  0  0  0  0  0  0  0  0  0  0  # atno 8009 bound_to 7997
  154.9334  140.3020  155.5160 H   0  0  0  0  0  0  0  0  0  0  0  0  # atno 8010 bound_to 7997
  139.9388  143.6187  152.2509 H   0  0  0  0  0  0  0  0  0  0  0  0  # atno 10167 bound_to 10162
  157.5487  131.1095  150.8739 H   0  0  0  0  0  0  0  0  0  0  0  0  # atno 10718 bound_to 10713
  153.0917  135.6648  153.9841 H   0  0  0  0  0  0  0  0  0  0  0  0  # atno 10763 bound_to 10752
  153.9436  135.2991  155.3443 H   0  0  0  0  0  0  0  0  0  0  0  0  # atno 10764 bound_to 10752
  154.7332  135.5113  153.9071 H   0  0  0  0  0  0  0  0  0  0  0  0  # atno 10765 bound_to 10752
  140.7720  134.3178  157.5072 H   0  0  0  0  0  0  0  0  0  0  0  0  # atno 11005 bound_to 11000
  145.7460  139.1779  143.2348 LP  0  0  0  0  0  0  0  0  0  0  0  0  # atno 17320 bound_to 7965
  146.1097  140.7443  142.9509 LP  0  0  0  0  0  0  0  0  0  0  0  0  # atno 17321 bound_to 7965
  139.6722  144.7660  151.1763 LP  0  0  0  0  0  0  0  0  0  0  0  0  # atno 17342 bound_to 10162
  140.7617  143.5849  150.8856 LP  0  0  0  0  0  0  0  0  0  0  0  0  # atno 17343 bound_to 10162
  156.9270  130.5336  149.5279 LP  0  0  0  0  0  0  0  0  0  0  0  0  # atno 17370 bound_to 10713
  156.0557  130.5619  150.9087 LP  0  0  0  0  0  0  0  0  0  0  0  0  # atno 17371 bound_to 10713
  139.8754  134.9267  156.3406 LP  0  0  0  0  0  0  0  0  0  0  0  0  # atno 17394 bound_to 11000
  140.9564  133.7417  156.0342 LP  0  0  0  0  0  0  0  0  0  0  0  0  # atno 17395 bound_to 11000

$$$$
