#       Name:                AV-unprocessed.smi:1626
#       Creating user name   scv26
#       Creation time:       Fri Mar 27 07:18:13 2020


#       File generated by GOLD software.
#

@<TRIPOS>MOLECULE
AV-unprocessed.smi:1626
    53    55     1
SMALL
NO_CHARGES


@<TRIPOS>ATOM
      1 ****        -3.3461   4.6695  -2.4973 C.3            1 S1                 0.0000
      2 ****        -3.0268   3.5373  -1.5356 C.ar           1 S1                 0.0000
      3 ****        -3.3305   3.7100  -0.1661 C.ar           1 S1                 0.0000
      4 ****        -3.0285   2.6563   0.6883 C.ar           1 S1                 0.0000
      5 ****        -3.2036   2.5159   2.0668 N.pl3          1 S1                 1.0000
      6 ****        -2.7567   1.2908   2.4594 C.2            1 S1                 0.0000
      7 ****        -2.2907   0.6503   1.3523 N.pl3          1 S1                 0.0000
      8 ****        -1.7051  -0.6899   1.2123 C.3            1 S1                 0.0000
      9 ****        -0.1653  -0.6716   1.1388 C.3            1 S1                 0.0000
     10 ****         0.3475  -0.0278   2.2894 O.3            1 S1                 0.0000
     11 ****         0.4167  -2.0975   1.0702 C.3            1 S1                 0.0000
     12 ****         1.8928  -2.1036   0.9026 N.4            1 S1                 1.0000
     13 ****         2.3289  -1.8348  -0.4943 C.3            1 S1                 0.0000
     14 ****         3.8593  -1.7118  -0.5823 C.3            1 S1                 0.0000
     15 ****         4.5413  -2.9742  -0.0348 C.3            1 S1                 0.0000
     16 ****         5.9419  -2.7989  -0.0320 O.3            1 S1                 0.0000
     17 ****         4.0534  -3.2507   1.3948 C.3            1 S1                 0.0000
     18 ****         2.5188  -3.3388   1.4427 C.3            1 S1                 0.0000
     19 ****        -2.4442   1.4621   0.2236 C.ar           1 S1                 0.0000
     20 ****        -2.1380   1.2751  -1.1219 C.ar           1 S1                 0.0000
     21 ****        -2.4376   2.3355  -2.0072 C.ar           1 S1                 0.0000
     22 ****        -2.1165   2.1606  -3.4819 C.3            1 S1                 0.0000
     23 ****        -3.8169   5.5083  -1.9838 H              1 S1                 0.0000
     24 ****        -4.0302   4.3306  -3.2757 H              1 S1                 0.0000
     25 ****        -2.4358   5.0372  -2.9716 H              1 S1                 0.0000
     26 ****        -3.7802   4.6217   0.1999 H              1 S1                 0.0000
     27 ****        -2.7680   0.9000   3.4670 H              1 S1                 0.0000
     28 ****        -2.0365  -1.2799   2.0683 H              1 S1                 0.0000
     29 ****        -2.1330  -1.1626   0.3274 H              1 S1                 0.0000
     30 ****         0.1373  -0.0939   0.2662 H              1 S1                 0.0000
     31 ****         0.0043   0.8527   2.3195 H              1 S1                 0.0000
     32 ****         0.1463  -2.6222   1.9882 H              1 S1                 0.0000
     33 ****        -0.0406  -2.6607   0.2551 H              1 S1                 0.0000
     34 ****         1.9810  -2.6375  -1.1466 H              1 S1                 0.0000
     35 ****         1.8791  -0.9137  -0.8630 H              1 S1                 0.0000
     36 ****         4.1587  -1.5410  -1.6170 H              1 S1                 0.0000
     37 ****         4.1845  -0.8373  -0.0165 H              1 S1                 0.0000
     38 ****         4.3055  -3.8264  -0.6737 H              1 S1                 0.0000
     39 ****         6.2355  -2.6766  -0.9224 H              1 S1                 0.0000
     40 ****         4.4901  -4.1777   1.7687 H              1 S1                 0.0000
     41 ****         4.3911  -2.4574   2.0639 H              1 S1                 0.0000
     42 ****         2.2051  -3.4898   2.4764 H              1 S1                 0.0000
     43 ****         2.1717  -4.2035   0.8750 H              1 S1                 0.0000
     44 ****        -1.6923   0.3596  -1.4812 H              1 S1                 0.0000
     45 ****        -1.6429   1.1979  -3.6762 H              1 S1                 0.0000
     46 ****        -1.4350   2.9407  -3.8221 H              1 S1                 0.0000
     47 ****        -3.0269   2.2104  -4.0798 H              1 S1                 0.0000
     48 ****         2.2399  -1.3448   1.4725 H              1 S1                 0.0000
     49 ****        -3.6024   3.2021   2.6951 H              1 S1                 0.0000
     50 ****         1.3460   0.0010   2.2428 LP             1 S1                 0.0000
     51 ****         0.0663  -0.5274   3.1087 LP             1 S1                 0.0000
     52 ****         6.3811  -3.6080   0.3585 LP             1 S1                 0.0000
     53 ****         6.1789  -1.9950   0.5134 LP             1 S1                 0.0000
@<TRIPOS>BOND
    1    1    2 1     
    2    1   23 1     
    3    1   24 1     
    4    1   25 1     
    5    2   21 ar    
    6    2    3 ar    
    7    3    4 ar    
    8    3   26 1     
    9    4   19 ar    
   10    4    5 1     
   11    5    6 2     
   12    5   49 1     
   13    6    7 1     
   14    6   27 1     
   15    7    8 1     
   16    7   19 1     
   17    8    9 1     
   18    8   28 1     
   19    8   29 1     
   20    9   10 1     
   21    9   11 1     
   22    9   30 1     
   23   10   31 1     
   24   11   12 1     
   25   11   32 1     
   26   11   33 1     
   27   12   18 1     
   28   12   13 1     
   29   12   48 1     
   30   13   14 1     
   31   13   34 1     
   32   13   35 1     
   33   14   15 1     
   34   14   36 1     
   35   14   37 1     
   36   15   16 1     
   37   15   17 1     
   38   15   38 1     
   39   16   39 1     
   40   17   18 1     
   41   17   40 1     
   42   17   41 1     
   43   18   42 1     
   44   18   43 1     
   45   19   20 ar    
   46   20   21 ar    
   47   20   44 1     
   48   21   22 1     
   49   22   45 1     
   50   22   46 1     
   51   22   47 1     
   52   10   50 1     
   53   10   51 1     
   54   16   52 1     
   55   16   53 1     
@<TRIPOS>SUBSTRUCTURE
      1 S1             1
@<TRIPOS>SET
LONE_PAIRS      STATIC     ATOMS    <user>   **** ""
4 50 51 52 53
DONOR_HYDROGENS      STATIC     ATOMS    <user>   **** ""
4 49 31 48 39
ATOM$BLUE        STATIC     ATOMS    COLORGROUP SYSTEM
4 50 51 52 53
ATOM$RED        STATIC     ATOMS    COLORGROUP SYSTEM
4 49 31 48 39
