AV-unprocessed.smi:2687|AV-procd|sdf|10385|dock4
  -GOLD-   2272014413D 1   1.00000     0.00000
 Structure written by MMmdl.
 38 39  0  0  0  0  0  0  0  0  1 V2000
  149.5726  137.4673  159.2288 O   0  0  0  0  0  0  0  0  0  0  0  0
  148.6308  137.6503  158.4583 C   0  0  0  0  0  0  0  0  0  0  0  0
  147.2063  137.3882  158.9428 C   0  0  0  0  0  0  0  0  0  0  0  0
  147.2438  137.1656  160.3426 O   0  0  0  0  0  0  0  0  0  0  0  0
  147.4590  135.8041  160.6784 C   0  0  0  0  0  0  0  0  0  0  0  0
  146.9016  135.5277  162.0803 C   0  0  0  0  0  0  0  0  0  0  0  0
  147.5117  136.3210  162.9599 F   0  0  0  0  0  0  0  0  0  0  0  0
  145.5931  135.7785  162.1147 F   0  0  0  0  0  0  0  0  0  0  0  0
  147.1236  134.2590  162.4224 F   0  0  0  0  0  0  0  0  0  0  0  0
  148.7550  138.0577  157.1824 N   0  0  0  0  0  0  0  0  0  0  0  0
  149.9460  138.3847  156.4738 C   0  0  0  0  0  0  0  0  0  0  0  0
  151.2226  137.9136  156.8653 C   0  0  0  0  0  0  0  0  0  0  0  0
  152.3543  138.3060  156.1276 C   0  0  0  0  0  0  0  0  0  0  0  0
  152.1719  139.1644  155.0284 C   0  0  0  0  0  0  0  0  0  0  0  0
  150.9653  139.6342  154.6512 N   0  0  0  0  0  0  0  0  0  0  0  0
  149.8725  139.2583  155.3588 C   0  0  0  0  0  0  0  0  0  0  0  0
  148.6293  139.7625  154.9412 N   0  0  0  0  0  0  0  0  0  0  0  0
  148.6412  141.1927  154.6625 C   0  0  0  0  0  0  0  0  0  0  0  0
  147.2155  141.6775  154.3473 C   0  0  0  0  0  0  0  0  0  0  0  0
  146.6779  140.9158  153.2694 O   0  0  0  0  0  0  0  0  0  0  0  0
  146.6025  139.5270  153.5791 C   0  0  0  0  0  0  0  0  0  0  0  0
  148.0127  138.9875  153.8719 C   0  0  0  0  0  0  0  0  0  0  0  0
  146.5575  138.2343  158.7082 H   0  0  0  0  0  0  0  0  0  0  0  0
  146.8104  136.5126  158.4260 H   0  0  0  0  0  0  0  0  0  0  0  0
  146.9699  135.1567  159.9488 H   0  0  0  0  0  0  0  0  0  0  0  0
  148.5262  135.5784  160.6528 H   0  0  0  0  0  0  0  0  0  0  0  0
  147.9081  138.0640  156.6326 H   0  0  0  0  0  0  0  0  0  0  0  0
  151.3542  137.2742  157.7247 H   0  0  0  0  0  0  0  0  0  0  0  0
  153.3401  137.9617  156.4022 H   0  0  0  0  0  0  0  0  0  0  0  0
  153.0178  139.4876  154.4400 H   0  0  0  0  0  0  0  0  0  0  0  0
  149.0403  141.7329  155.5219 H   0  0  0  0  0  0  0  0  0  0  0  0
  149.2977  141.3993  153.8162 H   0  0  0  0  0  0  0  0  0  0  0  0
  146.5718  141.5900  155.2242 H   0  0  0  0  0  0  0  0  0  0  0  0
  147.2300  142.7306  154.0660 H   0  0  0  0  0  0  0  0  0  0  0  0
  145.9403  139.3684  154.4318 H   0  0  0  0  0  0  0  0  0  0  0  0
  146.1657  138.9968  152.7327 H   0  0  0  0  0  0  0  0  0  0  0  0
  148.6247  139.0472  152.9709 H   0  0  0  0  0  0  0  0  0  0  0  0
  147.9615  137.9367  154.1598 H   0  0  0  0  0  0  0  0  0  0  0  0
  1  2  2  0  0  0  0
  2  3  1  0  0  0  0
  2 10  1  0  0  0  0
  3  4  1  0  0  0  0
  3 23  1  0  0  0  0
  3 24  1  0  0  0  0
  4  5  1  0  0  0  0
  5  6  1  0  0  0  0
  5 25  1  0  0  0  0
  5 26  1  0  0  0  0
  6  7  1  0  0  0  0
  6  8  1  0  0  0  0
  6  9  1  0  0  0  0
 10 11  1  0  0  0  0
 10 27  1  0  0  0  0
 11 16  1  0  0  0  0
 11 12  2  0  0  0  0
 12 13  1  0  0  0  0
 12 28  1  0  0  0  0
 13 14  2  0  0  0  0
 13 29  1  0  0  0  0
 14 15  1  0  0  0  0
 14 30  1  0  0  0  0
 15 16  2  0  0  0  0
 16 17  1  0  0  0  0
 17 22  1  0  0  0  0
 17 18  1  0  0  0  0
 18 19  1  0  0  0  0
 18 31  1  0  0  0  0
 18 32  1  0  0  0  0
 19 20  1  0  0  0  0
 19 33  1  0  0  0  0
 19 34  1  0  0  0  0
 20 21  1  0  0  0  0
 21 22  1  0  0  0  0
 21 35  1  0  0  0  0
 21 36  1  0  0  0  0
 22 37  1  0  0  0  0
 22 38  1  0  0  0  0
M  END
> <s_m_source_file>
AV-unprocessed.smi

> <i_m_source_file_index>
2687

> <i_lp_mmshare_version>
43012

> <i_f3d_flags>
0

> <s_epik_input>
RkMoRikoRilbQ0gyXU9bQ0gyXUMoPU8pW05IXWMxW2NIXVtjSF1bY0hdbmMxTjJbQ0gyXVtDSDJdT1tDSDJdW0NIMl0y

> <s_epik_cmdline>
J2VwaWtfcHl0aG9uJywgJy1waCcsICc3LjAnLCAnLXRuJywgJzgnLCAnLW1hJywgJzIwMCcsICctbWV0YWxfYmluZGluZycsICctaW1hZScsICc8aW5maWxlLm1hZT4nLCAnLW9tYWUnLCAnPG91dGZpbGUubWFlPic=

> <r_lp_tautomer_probability>
1

> <r_epik_Ionization_Penalty>
0.00040187

> <r_epik_Ionization_Penalty_Charging>
0

> <r_epik_Ionization_Penalty_Neutral>
0.00040187

> <r_epik_State_Penalty>
0.000245652

> <r_epik_Charging_Adjusted_Penalty>
0.000245652

> <i_epik_Tot_Q>
0

> <i_epik_Tot_abs_Q>
0

> <r_epik_Metal_State_Penalty>
-0

> <b_epik_Metal_Only>
0

> <s_lp_Force_Field>
OPLS_2005

> <r_lp_Energy>
25.827

> <b_lp_Chiralities_Consistent>
1

> <s_lp_Variant>
AV-unprocessed.smi:2687-1

> <Gold.Version>
5.8.1

> <Gold.Id.Protein>
6NUR|6NUR_protein|mol2

> <Gold.PLP.Fitness>
43.1800

> <Gold.PLP.PLP>
-38.4750

> <Gold.PLP.part.hbond>
-3.5239

> <Gold.PLP.part.metal>
0.0000

> <Gold.PLP.part.buried>
-3.8819

> <Gold.PLP.part.nonpolar>
-31.8152

> <Gold.PLP.part.repulsive>
0.3584

> <Gold.PLP.ligand.clash>
0.0000

> <Gold.PLP.ligand.torsion>
1.0101

> <Gold.PLP.Chemscore.Hbond>
2.1722

> <Gold.PLP.Chemscore.CHOScore>
0.0000

> <Gold.PLP.Chemscore.Metal>
0.0000

> <Gold.Chemscore.Hbonds>
donor molecule, donor type, donor heavy atom, donor atom, acceptor molecule, acceptor atom, score
      P1  H  6934  6947       L1     4  0.90
      P1  H  7989  7998       L1    15  0.75

> <Gold.PLP.Chemscore.Internal.Correction>
0.2087

> <Gold.Rescore>
     Score         DG    S(hbond)    S(metal)    S(lipo)     H(rot)  DE(clash)    DE(int)     intcor
     10.25     -13.80       1.73        0.00      65.80       2.01       0.21       3.34       ----

> <Gold.Chemscore.Fitness>
10.2462

> <Gold.Chemscore.DG>
-13.7982

> <Gold.Chemscore.ZeroCoef>
-5.4800

> <Gold.Chemscore.Hbond>
1.7295

> <Gold.Chemscore.Metal>
0.0000

> <Gold.Chemscore.Lipo>
65.7982

> <Gold.Chemscore.Internal_Hbond>
0.0000

> <Gold.Chemscore.DEClash>
0.2083

> <Gold.Chemscore.DEInternal>
3.3437

> <Gold.Chemscore.Rot>
2.0144

> <Gold.Chemscore.Internal.Correction>
   9.000000E+99

> <Gold.Chemscore.Hbonds>
donor molecule, donor type, donor heavy atom, donor atom, acceptor molecule, acceptor atom, score
      P1  H  6934  6947       L1     4  0.18
      P1  H  7989  7998       L1    15  0.09

> <Gold.Chemscore.Hbond.Weighted>
-5.7766

> <Gold.Chemscore.Metal.Weighted>
-0.0000

> <Gold.Chemscore.Lipo.Weighted>
-7.6984

> <Gold.Chemscore.Internal_Hbond.Weighted>
0.0000

> <Gold.Chemscore.DEClash.Weighted>
0.2083

> <Gold.Chemscore.DEInternal.Weighted>
3.3437

> <Gold.Chemscore.Rot.Weighted>
5.1568

> <Gold.Chemscore.Internal.Correction.Weighted>
   9.000000E+99

> <Gold.Protein.RotatedTorsions>
[ 6907 6896 6895 6894 ] final -140.09 input  -60.11 | X-H torsion
[ 7974 7965 7964 7962 ] final   31.65 input  175.53 | X-H torsion
[ 8008 7997 7996 7995 ] final  -83.31 input   59.86 | X-H torsion
[ 10167 10162 10161 10158 ] final  -99.60 input  -65.29 | X-H torsion
[ 10718 10713 10712 10709 ] final -168.18 input   66.30 | X-H torsion
[ 10763 10752 10751 10750 ] final  -36.53 input  -60.55 | X-H torsion
[ 11005 11000 10999 10996 ] final -133.71 input  -57.11 | X-H torsion

> <Gold.Protein.ActiveResidues>
 VAL166  LYS551  ARG553  GLY616  TRP617  ASP618  TYR619  PRO620  LYS621  CYS622 
 ASP623  PHE694  ASN695  SER759  ASP760  ASP761  ALA762  ILE779  LEU786  VAL792 
 PHE793  MET794  SER795  GLU796  ALA797  LYS798  CYS799  TRP800  GLU811  SER814 

> <Gold.Protein.RotatedAtoms>
  151.0562  133.5582  159.2637 H   0  0  0  0  0  0  0  0  0  0  0  0  # atno 6907 bound_to 6896
  151.2574  135.0642  159.9095 H   0  0  0  0  0  0  0  0  0  0  0  0  # atno 6908 bound_to 6896
  152.5390  134.0313  159.8080 H   0  0  0  0  0  0  0  0  0  0  0  0  # atno 6909 bound_to 6896
  146.1537  139.6629  142.9081 H   0  0  0  0  0  0  0  0  0  0  0  0  # atno 7974 bound_to 7965
  154.6177  140.0621  156.9575 H   0  0  0  0  0  0  0  0  0  0  0  0  # atno 8008 bound_to 7997
  155.1868  140.3304  155.4347 H   0  0  0  0  0  0  0  0  0  0  0  0  # atno 8009 bound_to 7997
  156.2414  140.1888  156.6961 H   0  0  0  0  0  0  0  0  0  0  0  0  # atno 8010 bound_to 7997
  140.2607  143.3409  152.0628 H   0  0  0  0  0  0  0  0  0  0  0  0  # atno 10167 bound_to 10162
  156.6931  130.9167  151.3071 H   0  0  0  0  0  0  0  0  0  0  0  0  # atno 10718 bound_to 10713
  153.8813  135.6821  153.4767 H   0  0  0  0  0  0  0  0  0  0  0  0  # atno 10763 bound_to 10752
  153.1232  135.4730  154.9228 H   0  0  0  0  0  0  0  0  0  0  0  0  # atno 10764 bound_to 10752
  154.7667  135.3226  154.8223 H   0  0  0  0  0  0  0  0  0  0  0  0  # atno 10765 bound_to 10752
  140.9056  134.1634  157.4428 H   0  0  0  0  0  0  0  0  0  0  0  0  # atno 11005 bound_to 11000
  145.4762  141.0437  143.2671 LP  0  0  0  0  0  0  0  0  0  0  0  0  # atno 17320 bound_to 7965
  144.7936  139.6280  143.7103 LP  0  0  0  0  0  0  0  0  0  0  0  0  # atno 17321 bound_to 7965
  139.5017  144.6720  151.6219 LP  0  0  0  0  0  0  0  0  0  0  0  0  # atno 17342 bound_to 10162
  140.5968  143.9682  150.6359 LP  0  0  0  0  0  0  0  0  0  0  0  0  # atno 17343 bound_to 10162
  157.7001  130.9324  150.0760 LP  0  0  0  0  0  0  0  0  0  0  0  0  # atno 17370 bound_to 10713
  156.1783  130.3649  149.9070 LP  0  0  0  0  0  0  0  0  0  0  0  0  # atno 17371 bound_to 10713
  139.8749  134.9915  156.5554 LP  0  0  0  0  0  0  0  0  0  0  0  0  # atno 17394 bound_to 11000
  140.8175  133.8380  155.8865 LP  0  0  0  0  0  0  0  0  0  0  0  0  # atno 17395 bound_to 11000

$$$$
