AV-unprocessed.smi:708|AV-procd|sdf|3457|dock10
  -GOLD-   22720 0443D 1   1.00000     0.00000
 Structure written by MMmdl.
 42 43  0  0  0  0  0  0  0  0  1 V2000
  147.3221  131.4838  154.1835 O   0  0  0  0  0  0  0  0  0  0  0  0
  147.3580  132.7092  154.0670 C   0  0  0  0  0  0  0  0  0  0  0  0
  147.5638  133.3542  152.6906 C   0  0  0  0  0  0  0  0  0  0  0  0
  146.3739  133.2433  151.8310 N   0  0  0  0  0  0  0  0  0  0  0  0
  146.1782  132.0227  151.1546 C   0  0  0  0  0  0  0  0  0  0  0  0
  145.1274  131.8212  150.3435 C   0  0  0  0  0  0  0  0  0  0  0  0
  144.1812  132.8982  150.1712 C   0  0  0  0  0  0  0  0  0  0  0  0
  144.3565  134.0682  150.8167 C   0  0  0  0  0  0  0  0  0  0  0  0
  145.5014  134.2918  151.7071 C   0  0  0  0  0  0  0  0  0  0  0  0
  145.6663  135.3561  152.3045 O   0  0  0  0  0  0  0  0  0  0  0  0
  147.2327  133.5527  155.1022 N   0  0  0  0  0  0  0  0  0  0  0  0
  146.9700  133.1605  156.4827 C   0  0  0  0  0  0  0  0  0  0  0  0
  146.3339  134.2958  157.3146 C   0  0  0  0  0  0  0  0  0  0  0  0
  147.2282  135.5564  157.3967 C   0  0  0  0  0  0  0  0  0  0  0  0
  146.6141  136.6182  158.3257 C   0  0  0  0  0  0  0  0  0  0  0  0
  146.4015  136.0227  159.6507 N   0  0  0  0  0  0  0  0  0  0  0  0
  147.1491  136.3610  160.7315 C   0  0  0  0  0  0  0  0  0  0  0  0
  148.0204  137.2309  160.6732 O   0  0  0  0  0  0  0  0  0  0  0  0
  146.9197  135.6523  162.0786 C   0  0  0  0  0  0  0  0  0  0  0  0
  145.6516  135.8060  162.4619 F   0  0  0  0  0  0  0  0  0  0  0  0
  147.2138  134.3561  161.9679 F   0  0  0  0  0  0  0  0  0  0  0  0
  147.7108  136.1873  163.0103 F   0  0  0  0  0  0  0  0  0  0  0  0
  145.4024  134.9485  159.5959 C   0  0  0  0  0  0  0  0  0  0  0  0
  145.9527  133.8023  158.7278 C   0  0  0  0  0  0  0  0  0  0  0  0
  147.8392  134.4045  152.8066 H   0  0  0  0  0  0  0  0  0  0  0  0
  148.4280  132.8817  152.2220 H   0  0  0  0  0  0  0  0  0  0  0  0
  146.9267  131.2663  151.3412 H   0  0  0  0  0  0  0  0  0  0  0  0
  144.9914  130.8778  149.8357 H   0  0  0  0  0  0  0  0  0  0  0  0
  143.3281  132.7648  149.5224 H   0  0  0  0  0  0  0  0  0  0  0  0
  143.6380  134.8623  150.6757 H   0  0  0  0  0  0  0  0  0  0  0  0
  147.2842  134.5432  154.9135 H   0  0  0  0  0  0  0  0  0  0  0  0
  146.3318  132.2754  156.4956 H   0  0  0  0  0  0  0  0  0  0  0  0
  147.9191  132.8618  156.9290 H   0  0  0  0  0  0  0  0  0  0  0  0
  145.4062  134.5924  156.8231 H   0  0  0  0  0  0  0  0  0  0  0  0
  148.2198  135.2847  157.7612 H   0  0  0  0  0  0  0  0  0  0  0  0
  147.3700  135.9879  156.4054 H   0  0  0  0  0  0  0  0  0  0  0  0
  147.2546  137.5008  158.3532 H   0  0  0  0  0  0  0  0  0  0  0  0
  145.6594  136.9611  157.9242 H   0  0  0  0  0  0  0  0  0  0  0  0
  145.1165  134.5648  160.5728 H   0  0  0  0  0  0  0  0  0  0  0  0
  144.4815  135.3371  159.1586 H   0  0  0  0  0  0  0  0  0  0  0  0
  145.2110  133.0061  158.6558 H   0  0  0  0  0  0  0  0  0  0  0  0
  146.8256  133.3673  159.2164 H   0  0  0  0  0  0  0  0  0  0  0  0
  1  2  2  0  0  0  0
  2  3  1  0  0  0  0
  2 11  1  0  0  0  0
  3  4  1  0  0  0  0
  3 25  1  0  0  0  0
  3 26  1  0  0  0  0
  4  9  1  0  0  0  0
  4  5  1  0  0  0  0
  5  6  2  0  0  0  0
  5 27  1  0  0  0  0
  6  7  1  0  0  0  0
  6 28  1  0  0  0  0
  7  8  2  0  0  0  0
  7 29  1  0  0  0  0
  8  9  1  0  0  0  0
  8 30  1  0  0  0  0
  9 10  2  0  0  0  0
 11 12  1  0  0  0  0
 11 31  1  0  0  0  0
 12 13  1  0  0  0  0
 12 32  1  0  0  0  0
 12 33  1  0  0  0  0
 13 24  1  0  0  0  0
 13 14  1  0  0  0  0
 13 34  1  0  0  0  0
 14 15  1  0  0  0  0
 14 35  1  0  0  0  0
 14 36  1  0  0  0  0
 15 16  1  0  0  0  0
 15 37  1  0  0  0  0
 15 38  1  0  0  0  0
 16 17  1  0  0  0  0
 16 23  1  0  0  0  0
 17 18  2  0  0  0  0
 17 19  1  0  0  0  0
 19 20  1  0  0  0  0
 19 21  1  0  0  0  0
 19 22  1  0  0  0  0
 23 24  1  0  0  0  0
 23 39  1  0  0  0  0
 23 40  1  0  0  0  0
 24 41  1  0  0  0  0
 24 42  1  0  0  0  0
M  END
> <s_m_source_file>
AV-unprocessed.smi

> <i_m_source_file_index>
708

> <i_lp_mmshare_version>
43012

> <i_f3d_flags>
0

> <s_epik_input>
Tz1jMVtjSF1bY0hdW2NIXVtjSF1uMVtDSDJdQyg9TylbTkhdW0NIMl1bQ0hdMltDSDJdW0NIMl1OKEMoPU8pQyhGKShGKUYpW0NIMl1bQ0gyXTI=

> <s_epik_cmdline>
J2VwaWtfcHl0aG9uJywgJy1waCcsICc3LjAnLCAnLXRuJywgJzgnLCAnLW1hJywgJzIwMCcsICctbWV0YWxfYmluZGluZycsICctaW1hZScsICc8aW5maWxlLm1hZT4nLCAnLW9tYWUnLCAnPG91dGZpbGUubWFlPic=

> <r_lp_tautomer_probability>
1

> <r_epik_Ionization_Penalty>
3.72594e-07

> <r_epik_Ionization_Penalty_Charging>
3.54487e-07

> <r_epik_Ionization_Penalty_Neutral>
1.81071e-08

> <r_epik_State_Penalty>
-0

> <r_epik_Charging_Adjusted_Penalty>
3.54487e-07

> <i_epik_Tot_Q>
0

> <i_epik_Tot_abs_Q>
0

> <r_epik_Metal_State_Penalty>
-0

> <b_epik_Metal_Only>
0

> <s_lp_Force_Field>
OPLS_2005

> <r_lp_Energy>
36.5202

> <b_lp_Chiralities_Consistent>
1

> <s_lp_Variant>
AV-unprocessed.smi:708-1

> <Gold.Version>
5.8.1

> <Gold.Id.Protein>
6NUR|6NUR_protein|mol2

> <Gold.PLP.Fitness>
42.0479

> <Gold.PLP.PLP>
-35.4795

> <Gold.PLP.part.hbond>
-2.0000

> <Gold.PLP.part.metal>
0.0000

> <Gold.PLP.part.buried>
-4.7657

> <Gold.PLP.part.nonpolar>
-28.9360

> <Gold.PLP.part.repulsive>
0.1968

> <Gold.PLP.ligand.clash>
0.0000

> <Gold.PLP.ligand.torsion>
0.6416

> <Gold.PLP.Chemscore.Hbond>
1.6093

> <Gold.PLP.Chemscore.CHOScore>
1.0000

> <Gold.PLP.Chemscore.Metal>
0.0000

> <Gold.Chemscore.Hbonds>
donor molecule, donor type, donor heavy atom, donor atom, acceptor molecule, acceptor atom, score
      P1  H  6931  6943       L1    18  0.80
      P1  H  6934  6947       L1    18  0.74
      L1  C     5    27       P1 10747  1.00

> <Gold.PLP.Chemscore.Internal.Correction>
0.0238

> <Gold.Rescore>
     Score         DG    S(hbond)    S(metal)    S(lipo)     H(rot)  DE(clash)    DE(int)     intcor
     10.71     -12.68       1.70        0.00      54.92       1.91       0.05       1.92       ----

> <Gold.Chemscore.Fitness>
10.7137

> <Gold.Chemscore.DG>
-12.6807

> <Gold.Chemscore.ZeroCoef>
-5.4800

> <Gold.Chemscore.Hbond>
1.6955

> <Gold.Chemscore.Metal>
0.0000

> <Gold.Chemscore.Lipo>
54.9178

> <Gold.Chemscore.Internal_Hbond>
0.0000

> <Gold.Chemscore.DEClash>
0.0456

> <Gold.Chemscore.DEInternal>
1.9214

> <Gold.Chemscore.Rot>
1.9093

> <Gold.Chemscore.Internal.Correction>
   9.000000E+99

> <Gold.Chemscore.Hbonds>
donor molecule, donor type, donor heavy atom, donor atom, acceptor molecule, acceptor atom, score
      P1  H  6931  6943       L1    18  0.79
      P1  H  6934  6947       L1    18  0.53

> <Gold.Chemscore.Hbond.Weighted>
-5.6630

> <Gold.Chemscore.Metal.Weighted>
-0.0000

> <Gold.Chemscore.Lipo.Weighted>
-6.4254

> <Gold.Chemscore.Internal_Hbond.Weighted>
0.0000

> <Gold.Chemscore.DEClash.Weighted>
0.0456

> <Gold.Chemscore.DEInternal.Weighted>
1.9214

> <Gold.Chemscore.Rot.Weighted>
4.8877

> <Gold.Chemscore.Internal.Correction.Weighted>
   9.000000E+99

> <Gold.Protein.RotatedTorsions>
[ 6907 6896 6895 6894 ] final    6.94 input  -60.11 | X-H torsion
[ 7974 7965 7964 7962 ] final  102.86 input  175.53 | X-H torsion
[ 8008 7997 7996 7995 ] final   48.45 input   59.86 | X-H torsion
[ 10167 10162 10161 10158 ] final   32.18 input  -65.29 | X-H torsion
[ 10718 10713 10712 10709 ] final -172.12 input   66.30 | X-H torsion
[ 10763 10752 10751 10750 ] final -171.14 input  -60.55 | X-H torsion
[ 11005 11000 10999 10996 ] final   29.68 input  -57.11 | X-H torsion

> <Gold.Protein.ActiveResidues>
 VAL166  LYS551  ARG553  GLY616  TRP617  ASP618  TYR619  PRO620  LYS621  CYS622 
 ASP623  PHE694  ASN695  SER759  ASP760  ASP761  ALA762  ILE779  LEU786  VAL792 
 PHE793  MET794  SER795  GLU796  ALA797  LYS798  CYS799  TRP800  GLU811  SER814 

> <Gold.Protein.RotatedAtoms>
  151.6818  135.0960  160.0217 H   0  0  0  0  0  0  0  0  0  0  0  0  # atno 6907 bound_to 6896
  152.3831  133.6569  159.6185 H   0  0  0  0  0  0  0  0  0  0  0  0  # atno 6908 bound_to 6896
  150.7763  133.8997  159.3379 H   0  0  0  0  0  0  0  0  0  0  0  0  # atno 6909 bound_to 6896
  145.3535  139.2434  143.3545 H   0  0  0  0  0  0  0  0  0  0  0  0  # atno 7974 bound_to 7965
  155.3858  140.3431  155.4249 H   0  0  0  0  0  0  0  0  0  0  0  0  # atno 8008 bound_to 7997
  156.1585  140.1593  156.8685 H   0  0  0  0  0  0  0  0  0  0  0  0  # atno 8009 bound_to 7997
  154.5117  140.0788  156.7985 H   0  0  0  0  0  0  0  0  0  0  0  0  # atno 8010 bound_to 7997
  140.4522  144.1032  150.6194 H   0  0  0  0  0  0  0  0  0  0  0  0  # atno 10167 bound_to 10162
  156.7509  130.9377  151.3114 H   0  0  0  0  0  0  0  0  0  0  0  0  # atno 10718 bound_to 10713
  154.6338  135.2890  155.0185 H   0  0  0  0  0  0  0  0  0  0  0  0  # atno 10763 bound_to 10752
  154.1336  135.6529  153.4931 H   0  0  0  0  0  0  0  0  0  0  0  0  # atno 10764 bound_to 10752
  153.0293  135.5316  154.7177 H   0  0  0  0  0  0  0  0  0  0  0  0  # atno 10765 bound_to 10752
  140.3023  134.2742  155.7751 H   0  0  0  0  0  0  0  0  0  0  0  0  # atno 11005 bound_to 11000
  146.2958  140.4155  142.8722 LP  0  0  0  0  0  0  0  0  0  0  0  0  # atno 17320 bound_to 7965
  144.8700  140.7259  143.6053 LP  0  0  0  0  0  0  0  0  0  0  0  0  # atno 17321 bound_to 7965
  140.4194  143.2619  151.9734 LP  0  0  0  0  0  0  0  0  0  0  0  0  # atno 17342 bound_to 10162
  139.4797  144.5845  151.7877 LP  0  0  0  0  0  0  0  0  0  0  0  0  # atno 17343 bound_to 10162
  157.6778  130.9110  150.0191 LP  0  0  0  0  0  0  0  0  0  0  0  0  # atno 17370 bound_to 10713
  156.1402  130.3642  149.9594 LP  0  0  0  0  0  0  0  0  0  0  0  0  # atno 17371 bound_to 10713
  141.2125  133.7654  156.9786 LP  0  0  0  0  0  0  0  0  0  0  0  0  # atno 17394 bound_to 11000
  140.1098  134.9484  157.2048 LP  0  0  0  0  0  0  0  0  0  0  0  0  # atno 17395 bound_to 11000

$$$$
