AV-unprocessed.smi:2695|AV-procd|sdf|10410|dock9
  -GOLD-   2272014443D 1   1.00000     0.00000
 Structure written by MMmdl.
 42 43  0  0  0  0  0  0  0  0  1 V2000
  147.5650  137.3328  157.9712 C   0  0  0  0  0  0  0  0  0  0  0  0
  149.0060  136.8855  157.7569 C   0  0  0  0  0  0  0  0  0  0  0  0
  149.8400  136.7074  158.7978 C   0  0  0  0  0  0  0  0  0  0  0  0
  151.2082  136.3176  158.5616 C   0  0  0  0  0  0  0  0  0  0  0  0
  152.0395  136.1298  159.5940 O   0  0  0  0  0  0  0  0  0  0  0  0
  151.6447  136.1527  157.2994 C   0  0  0  0  0  0  0  0  0  0  0  0
  150.7654  136.3480  156.1442 C   0  0  0  0  0  0  0  0  0  0  0  0
  151.1816  136.2098  154.9929 O   0  0  0  0  0  0  0  0  0  0  0  0
  149.4645  136.6863  156.4213 N   0  0  0  0  0  0  0  0  0  0  0  0
  148.5235  136.8485  155.2885 C   0  0  0  0  0  0  0  0  0  0  0  0
  147.5984  135.6400  155.0758 C   0  0  0  0  0  0  0  0  0  0  0  0
  146.8490  135.2488  155.9716 O   0  0  0  0  0  0  0  0  0  0  0  0
  147.6738  135.0579  153.8695 N   0  0  0  0  0  0  0  0  0  0  0  0
  146.9091  133.8907  153.4253 C   0  0  1  0  0  0  0  0  0  0  0  0
  146.2871  134.1820  152.0356 C   0  0  0  0  0  0  0  0  0  0  0  0
  145.5337  135.5159  151.9494 C   0  0  0  0  0  0  0  0  0  0  0  0
  144.6669  135.3950  150.6956 C   0  0  0  0  0  0  0  0  0  0  0  0
  144.3605  133.8998  150.5415 C   0  0  0  0  0  0  0  0  0  0  0  0
  145.2320  133.1682  151.5713 C   0  0  0  0  0  0  0  0  0  0  0  0
  147.8333  132.6516  153.4521 C   0  0  0  0  0  0  0  0  0  0  0  0
  148.3873  132.5272  154.6590 F   0  0  0  0  0  0  0  0  0  0  0  0
  147.1476  131.5366  153.2039 F   0  0  0  0  0  0  0  0  0  0  0  0
  148.8054  132.7724  152.5472 F   0  0  0  0  0  0  0  0  0  0  0  0
  147.4214  137.6891  158.9918 H   0  0  0  0  0  0  0  0  0  0  0  0
  146.8776  136.5015  157.8128 H   0  0  0  0  0  0  0  0  0  0  0  0
  147.2894  138.1545  157.3108 H   0  0  0  0  0  0  0  0  0  0  0  0
  149.4939  136.8682  159.8087 H   0  0  0  0  0  0  0  0  0  0  0  0
  152.8991  136.4133  159.3229 H   0  0  0  0  0  0  0  0  0  0  0  0
  152.6716  135.8652  157.1251 H   0  0  0  0  0  0  0  0  0  0  0  0
  147.8963  137.7303  155.4319 H   0  0  0  0  0  0  0  0  0  0  0  0
  149.0464  137.0664  154.3583 H   0  0  0  0  0  0  0  0  0  0  0  0
  148.3217  135.4479  153.2006 H   0  0  0  0  0  0  0  0  0  0  0  0
  146.0918  133.7008  154.1233 H   0  0  0  0  0  0  0  0  0  0  0  0
  147.0834  134.2041  151.2897 H   0  0  0  0  0  0  0  0  0  0  0  0
  144.8938  135.6390  152.8245 H   0  0  0  0  0  0  0  0  0  0  0  0
  146.2016  136.3769  151.9048 H   0  0  0  0  0  0  0  0  0  0  0  0
  143.7617  135.9991  150.7647 H   0  0  0  0  0  0  0  0  0  0  0  0
  145.2274  135.7438  149.8272 H   0  0  0  0  0  0  0  0  0  0  0  0
  143.3043  133.6912  150.7153 H   0  0  0  0  0  0  0  0  0  0  0  0
  144.5946  133.5701  149.5286 H   0  0  0  0  0  0  0  0  0  0  0  0
  145.6795  132.2663  151.1527 H   0  0  0  0  0  0  0  0  0  0  0  0
  144.6106  132.8648  152.4153 H   0  0  0  0  0  0  0  0  0  0  0  0
  1  2  1  0  0  0  0
  1 24  1  0  0  0  0
  1 25  1  0  0  0  0
  1 26  1  0  0  0  0
  2  9  1  0  0  0  0
  2  3  2  0  0  0  0
  3  4  1  0  0  0  0
  3 27  1  0  0  0  0
  4  5  1  0  0  0  0
  4  6  2  0  0  0  0
  5 28  1  0  0  0  0
  6  7  1  0  0  0  0
  6 29  1  0  0  0  0
  7  8  2  0  0  0  0
  7  9  1  0  0  0  0
  9 10  1  0  0  0  0
 10 11  1  0  0  0  0
 10 30  1  0  0  0  0
 10 31  1  0  0  0  0
 11 12  2  0  0  0  0
 11 13  1  0  0  0  0
 13 14  1  0  0  0  0
 13 32  1  0  0  0  0
 14 15  1  0  0  0  0
 14 20  1  0  0  0  0
 14 33  1  0  0  0  0
 15 19  1  0  0  0  0
 15 16  1  0  0  0  0
 15 34  1  0  0  0  0
 16 17  1  0  0  0  0
 16 35  1  0  0  0  0
 16 36  1  0  0  0  0
 17 18  1  0  0  0  0
 17 37  1  0  0  0  0
 17 38  1  0  0  0  0
 18 19  1  0  0  0  0
 18 39  1  0  0  0  0
 18 40  1  0  0  0  0
 19 41  1  0  0  0  0
 19 42  1  0  0  0  0
 20 21  1  0  0  0  0
 20 22  1  0  0  0  0
 20 23  1  0  0  0  0
M  END
> <s_m_source_file>
AV-unprocessed.smi

> <i_m_source_file_index>
2695

> <i_lp_mmshare_version>
43012

> <i_f3d_flags>
0

> <s_epik_input>
W0NIM11jMVtjSF1jKFtPSF0pW2NIXWMoPU8pbjFbQ0gyXUMoPU8pW05IXVtDQEBIXShDKEYpKEYpRilbQ0hdMltDSDJdW0NIMl1bQ0gyXVtDSDJdMg==

> <s_epik_cmdline>
J2VwaWtfcHl0aG9uJywgJy1waCcsICc3LjAnLCAnLXRuJywgJzgnLCAnLW1hJywgJzIwMCcsICctbWV0YWxfYmluZGluZycsICctaW1hZScsICc8aW5maWxlLm1hZT4nLCAnLW9tYWUnLCAnPG91dGZpbGUubWFlPic=

> <r_lp_tautomer_probability>
0.999984

> <r_epik_Ionization_Penalty>
0.843628

> <r_epik_Ionization_Penalty_Charging>
1.18449e-07

> <r_epik_Ionization_Penalty_Neutral>
0.843628

> <r_epik_State_Penalty>
0.886913

> <r_epik_Charging_Adjusted_Penalty>
0.886913

> <i_epik_Tot_Q>
0

> <i_epik_Tot_abs_Q>
0

> <r_epik_Metal_State_Penalty>
0.886913

> <b_epik_Metal_Only>
0

> <s_lp_Force_Field>
OPLS_2005

> <r_lp_Energy>
35.4527

> <b_lp_Chiralities_Consistent>
1

> <s_lp_Variant>
AV-unprocessed.smi:2695-4

> <Gold.Version>
5.8.1

> <Gold.Id.Protein>
6NUR|6NUR_protein|mol2

> <Gold.PLP.Fitness>
36.0070

> <Gold.PLP.PLP>
-27.8522

> <Gold.PLP.part.hbond>
-2.9490

> <Gold.PLP.part.metal>
0.0000

> <Gold.PLP.part.buried>
-5.2469

> <Gold.PLP.part.nonpolar>
-20.9661

> <Gold.PLP.part.repulsive>
0.1644

> <Gold.PLP.ligand.clash>
0.0160

> <Gold.PLP.ligand.torsion>
0.5792

> <Gold.PLP.Chemscore.Hbond>
3.0000

> <Gold.PLP.Chemscore.CHOScore>
0.0000

> <Gold.PLP.Chemscore.Metal>
0.0000

> <Gold.Chemscore.Hbonds>
donor molecule, donor type, donor heavy atom, donor atom, acceptor molecule, acceptor atom, score
      L1  H    13    32       P1  7948  1.00
      P1  H 10752 10765       L1     8  1.00

> <Gold.PLP.Chemscore.Internal.Correction>
0.3291

> <Gold.Rescore>
     Score         DG    S(hbond)    S(metal)    S(lipo)     H(rot)  DE(clash)    DE(int)     intcor
     12.44     -13.50       2.42        0.00      51.04       2.36       0.01       1.05       ----

> <Gold.Chemscore.Fitness>
12.4365

> <Gold.Chemscore.DG>
-13.4961

> <Gold.Chemscore.ZeroCoef>
-5.4800

> <Gold.Chemscore.Hbond>
2.4210

> <Gold.Chemscore.Metal>
0.0000

> <Gold.Chemscore.Lipo>
51.0374

> <Gold.Chemscore.Internal_Hbond>
0.0000

> <Gold.Chemscore.DEClash>
0.0115

> <Gold.Chemscore.DEInternal>
1.0480

> <Gold.Chemscore.Rot>
2.3599

> <Gold.Chemscore.Internal.Correction>
   9.000000E+99

> <Gold.Chemscore.Hbonds>
donor molecule, donor type, donor heavy atom, donor atom, acceptor molecule, acceptor atom, score
      L1  H    13    32       P1  7948  0.99
      P1  H  6896  6908       L1     5  0.02
      P1  H 10752 10765       L1     8  0.98

> <Gold.Chemscore.Hbond.Weighted>
-8.0860

> <Gold.Chemscore.Metal.Weighted>
-0.0000

> <Gold.Chemscore.Lipo.Weighted>
-5.9714

> <Gold.Chemscore.Internal_Hbond.Weighted>
0.0000

> <Gold.Chemscore.DEClash.Weighted>
0.0115

> <Gold.Chemscore.DEInternal.Weighted>
1.0480

> <Gold.Chemscore.Rot.Weighted>
6.0413

> <Gold.Chemscore.Internal.Correction.Weighted>
   9.000000E+99

> <Gold.Protein.RotatedTorsions>
[ 6907 6896 6895 6894 ] final -110.64 input  -60.11 | X-H torsion
[ 7974 7965 7964 7962 ] final  -53.02 input  175.53 | X-H torsion
[ 8008 7997 7996 7995 ] final  -51.55 input   59.86 | X-H torsion
[ 10167 10162 10161 10158 ] final  142.06 input  -65.29 | X-H torsion
[ 10718 10713 10712 10709 ] final   15.72 input   66.30 | X-H torsion
[ 10763 10752 10751 10750 ] final -176.27 input  -60.55 | X-H torsion
[ 11005 11000 10999 10996 ] final   32.35 input  -57.11 | X-H torsion

> <Gold.Protein.ActiveResidues>
 VAL166  LYS551  ARG553  GLY616  TRP617  ASP618  TYR619  PRO620  LYS621  CYS622 
 ASP623  PHE694  ASN695  SER759  ASP760  ASP761  ALA762  ILE779  LEU786  VAL792 
 PHE793  MET794  SER795  GLU796  ALA797  LYS798  CYS799  TRP800  GLU811  SER814 

> <Gold.Protein.RotatedAtoms>
  150.7638  133.9351  159.3438 H   0  0  0  0  0  0  0  0  0  0  0  0  # atno 6907 bound_to 6896
  151.7254  135.0884  160.0300 H   0  0  0  0  0  0  0  0  0  0  0  0  # atno 6908 bound_to 6896
  152.3623  133.6275  159.6060 H   0  0  0  0  0  0  0  0  0  0  0  0  # atno 6909 bound_to 6896
  145.9015  140.7990  142.9741 H   0  0  0  0  0  0  0  0  0  0  0  0  # atno 7974 bound_to 7965
  154.4085  140.1245  156.4847 H   0  0  0  0  0  0  0  0  0  0  0  0  # atno 8008 bound_to 7997
  155.7050  140.3494  155.4929 H   0  0  0  0  0  0  0  0  0  0  0  0  # atno 8009 bound_to 7997
  155.9351  140.1077  157.1091 H   0  0  0  0  0  0  0  0  0  0  0  0  # atno 8010 bound_to 7997
  139.5004  144.6131  151.6225 H   0  0  0  0  0  0  0  0  0  0  0  0  # atno 10167 bound_to 10162
  157.0575  130.6295  149.5779 H   0  0  0  0  0  0  0  0  0  0  0  0  # atno 10718 bound_to 10713
  154.5744  135.2830  155.0795 H   0  0  0  0  0  0  0  0  0  0  0  0  # atno 10763 bound_to 10752
  154.2156  135.6400  153.5132 H   0  0  0  0  0  0  0  0  0  0  0  0  # atno 10764 bound_to 10752
  153.0068  135.5502  154.6377 H   0  0  0  0  0  0  0  0  0  0  0  0  # atno 10765 bound_to 10752
  140.2744  134.3045  155.7818 H   0  0  0  0  0  0  0  0  0  0  0  0  # atno 11005 bound_to 11000
  144.6736  140.1684  143.7416 LP  0  0  0  0  0  0  0  0  0  0  0  0  # atno 17320 bound_to 7965
  145.8785  139.2310  143.1619 LP  0  0  0  0  0  0  0  0  0  0  0  0  # atno 17321 bound_to 7965
  140.5812  143.9943  150.6269 LP  0  0  0  0  0  0  0  0  0  0  0  0  # atno 17342 bound_to 10162
  140.3093  143.3209  152.0895 LP  0  0  0  0  0  0  0  0  0  0  0  0  # atno 17343 bound_to 10162
  155.9988  130.5063  150.7585 LP  0  0  0  0  0  0  0  0  0  0  0  0  # atno 17370 bound_to 10713
  157.4981  131.0916  151.0347 LP  0  0  0  0  0  0  0  0  0  0  0  0  # atno 17371 bound_to 10713
  141.2172  133.7486  156.9384 LP  0  0  0  0  0  0  0  0  0  0  0  0  # atno 17394 bound_to 11000
  140.1343  134.9335  157.2380 LP  0  0  0  0  0  0  0  0  0  0  0  0  # atno 17395 bound_to 11000

$$$$
