AV-unprocessed.smi:1510|AV-procd|sdf|6096|dock8
  -GOLD-   22720 6223D 1   1.00000     0.00000
 Structure written by MMmdl.
 33 34  0  0  0  0  0  0  0  0  1 V2000
  152.5085  140.9599  158.6001 O   0  0  0  0  0  0  0  0  0  0  0  0
  151.5219  141.0385  157.8669 C   0  0  0  0  0  0  0  0  0  0  0  0
  150.6940  139.7887  157.5387 C   0  0  0  0  0  0  0  0  0  0  0  0
  150.9301  139.2935  156.1754 N   0  0  0  0  0  0  0  0  0  0  0  0
  149.8307  139.3918  155.3361 N   0  0  0  0  0  0  0  0  0  0  0  0
  149.9196  139.0007  154.1098 C   0  0  0  0  0  0  0  0  0  0  0  0
  148.8089  139.1209  153.3114 O   0  0  0  0  0  0  0  0  0  0  0  0
  151.1507  138.4509  153.5864 C   0  0  0  0  0  0  0  0  0  0  0  0
  152.2153  138.3558  154.4128 C   0  0  0  0  0  0  0  0  0  0  0  0
  152.1503  138.7932  155.8083 C   0  0  0  0  0  0  0  0  0  0  0  0
  153.1041  138.7202  156.5832 O   0  0  0  0  0  0  0  0  0  0  0  0
  151.1135  142.1845  157.3023 N   0  0  0  0  0  0  0  0  0  0  0  0
  151.7321  143.4892  157.5081 C   0  0  0  0  0  0  0  0  0  0  0  0
  151.5131  144.0168  158.9377 C   0  0  2  0  0  0  0  0  0  0  0  0
  152.2954  145.2821  159.2842 C   0  0  0  0  0  0  0  0  0  0  0  0
  152.3740  145.2314  160.8006 C   0  0  0  0  0  0  0  0  0  0  0  0
  152.1032  143.7614  161.1400 C   0  0  0  0  0  0  0  0  0  0  0  0
  152.0038  143.0889  159.8908 O   0  0  0  0  0  0  0  0  0  0  0  0
  148.8465  138.3866  152.7179 H   0  0  0  0  0  0  0  0  0  0  0  0
  150.9049  138.9980  158.2615 H   0  0  0  0  0  0  0  0  0  0  0  0
  149.6402  140.0372  157.6759 H   0  0  0  0  0  0  0  0  0  0  0  0
  151.2072  138.1264  152.5576 H   0  0  0  0  0  0  0  0  0  0  0  0
  153.1411  137.9471  154.0353 H   0  0  0  0  0  0  0  0  0  0  0  0
  150.2980  142.1560  156.7075 H   0  0  0  0  0  0  0  0  0  0  0  0
  152.7985  143.4363  157.2831 H   0  0  0  0  0  0  0  0  0  0  0  0
  151.2982  144.1827  156.7873 H   0  0  0  0  0  0  0  0  0  0  0  0
  150.4500  144.1765  159.1271 H   0  0  0  0  0  0  0  0  0  0  0  0
  153.3000  145.2313  158.8625 H   0  0  0  0  0  0  0  0  0  0  0  0
  151.8180  146.1897  158.9131 H   0  0  0  0  0  0  0  0  0  0  0  0
  153.3481  145.5643  161.1597 H   0  0  0  0  0  0  0  0  0  0  0  0
  151.6137  145.8695  161.2521 H   0  0  0  0  0  0  0  0  0  0  0  0
  152.8928  143.3226  161.7504 H   0  0  0  0  0  0  0  0  0  0  0  0
  151.1610  143.6597  161.6799 H   0  0  0  0  0  0  0  0  0  0  0  0
  1  2  2  0  0  0  0
  2  3  1  0  0  0  0
  2 12  1  0  0  0  0
  3 20  1  0  0  0  0
  3 21  1  0  0  0  0
  3  4  1  0  0  0  0
  4  5  1  0  0  0  0
  4 10  1  0  0  0  0
  5  6  2  0  0  0  0
  6  7  1  0  0  0  0
  6  8  1  0  0  0  0
  7 19  1  0  0  0  0
  8 22  1  0  0  0  0
  8  9  2  0  0  0  0
  9 23  1  0  0  0  0
  9 10  1  0  0  0  0
 10 11  2  0  0  0  0
 12 13  1  0  0  0  0
 12 24  1  0  0  0  0
 13 14  1  0  0  0  0
 13 25  1  0  0  0  0
 13 26  1  0  0  0  0
 14 18  1  0  0  0  0
 14 15  1  0  0  0  0
 14 27  1  0  0  0  0
 15 16  1  0  0  0  0
 15 28  1  0  0  0  0
 15 29  1  0  0  0  0
 16 17  1  0  0  0  0
 16 30  1  0  0  0  0
 16 31  1  0  0  0  0
 17 18  1  0  0  0  0
 17 32  1  0  0  0  0
 17 33  1  0  0  0  0
M  END
> <s_m_source_file>
AV-unprocessed.smi

> <i_m_source_file_index>
1510

> <i_lp_mmshare_version>
43012

> <i_f3d_flags>
0

> <s_epik_input>
TzFbQ0gyXVtDSDJdW0NIMl1bQ0BIXTFbQ0gyXVtOSF1DKD1PKVtDSDJdbjJbbkhdYyg9TylbY0hdW2NIXWMyPU8=

> <s_epik_cmdline>
J2VwaWtfcHl0aG9uJywgJy1waCcsICc3LjAnLCAnLXRuJywgJzgnLCAnLW1hJywgJzIwMCcsICctbWV0YWxfYmluZGluZycsICctaW1hZScsICc8aW5maWxlLm1hZT4nLCAnLW9tYWUnLCAnPG91dGZpbGUubWFlPic=

> <r_lp_tautomer_probability>
0.9996

> <r_epik_Ionization_Penalty>
2.13037

> <r_epik_Ionization_Penalty_Charging>
3.76e-08

> <r_epik_Ionization_Penalty_Neutral>
2.13037

> <r_epik_State_Penalty>
1.70753

> <r_epik_Charging_Adjusted_Penalty>
1.70753

> <i_epik_Tot_Q>
0

> <i_epik_Tot_abs_Q>
0

> <r_epik_Metal_State_Penalty>
1.70753

> <b_epik_Metal_Only>
0

> <s_lp_Force_Field>
OPLS_2005

> <r_lp_Energy>
28.2415

> <b_lp_Chiralities_Consistent>
1

> <s_lp_Variant>
AV-unprocessed.smi:1510-3

> <Gold.Version>
5.8.1

> <Gold.Id.Protein>
6NUR|6NUR_protein|mol2

> <Gold.PLP.Fitness>
39.3337

> <Gold.PLP.PLP>
-33.8679

> <Gold.PLP.part.hbond>
-1.9698

> <Gold.PLP.part.metal>
0.0000

> <Gold.PLP.part.buried>
-5.4190

> <Gold.PLP.part.nonpolar>
-27.3074

> <Gold.PLP.part.repulsive>
0.0642

> <Gold.PLP.ligand.clash>
0.0000

> <Gold.PLP.ligand.torsion>
0.2716

> <Gold.PLP.Chemscore.Hbond>
2.0000

> <Gold.PLP.Chemscore.CHOScore>
0.0000

> <Gold.PLP.Chemscore.Metal>
0.0000

> <Gold.Chemscore.Hbonds>
donor molecule, donor type, donor heavy atom, donor atom, acceptor molecule, acceptor atom, score
      L1  H     7    19       P1  7948  0.36
      P1  H  7997  8009       L1    11  1.00

> <Gold.PLP.Chemscore.Internal.Correction>
0.0090

> <Gold.Rescore>
     Score         DG    S(hbond)    S(metal)    S(lipo)     H(rot)  DE(clash)    DE(int)     intcor
     12.24     -14.19       1.96        0.00      77.50       2.69       0.11       1.84       ----

> <Gold.Chemscore.Fitness>
12.2360

> <Gold.Chemscore.DG>
-14.1882

> <Gold.Chemscore.ZeroCoef>
-5.4800

> <Gold.Chemscore.Hbond>
1.9570

> <Gold.Chemscore.Metal>
0.0000

> <Gold.Chemscore.Lipo>
77.5013

> <Gold.Chemscore.Internal_Hbond>
0.0000

> <Gold.Chemscore.DEClash>
0.1088

> <Gold.Chemscore.DEInternal>
1.8435

> <Gold.Chemscore.Rot>
2.6937

> <Gold.Chemscore.Internal.Correction>
   9.000000E+99

> <Gold.Chemscore.Hbonds>
donor molecule, donor type, donor heavy atom, donor atom, acceptor molecule, acceptor atom, score
      L1  H     7    19       P1  7948  0.35
      P1  H  7997  8009       L1    11  0.97

> <Gold.Chemscore.Hbond.Weighted>
-6.5365

> <Gold.Chemscore.Metal.Weighted>
-0.0000

> <Gold.Chemscore.Lipo.Weighted>
-9.0677

> <Gold.Chemscore.Internal_Hbond.Weighted>
0.0000

> <Gold.Chemscore.DEClash.Weighted>
0.1088

> <Gold.Chemscore.DEInternal.Weighted>
1.8435

> <Gold.Chemscore.Rot.Weighted>
6.8959

> <Gold.Chemscore.Internal.Correction.Weighted>
   9.000000E+99

> <Gold.Protein.RotatedTorsions>
[ 6907 6896 6895 6894 ] final  102.31 input  -60.11 | X-H torsion
[ 7974 7965 7964 7962 ] final -156.42 input  175.53 | X-H torsion
[ 8008 7997 7996 7995 ] final -179.85 input   59.86 | X-H torsion
[ 10167 10162 10161 10158 ] final   53.87 input  -65.29 | X-H torsion
[ 10718 10713 10712 10709 ] final  -46.98 input   66.30 | X-H torsion
[ 10763 10752 10751 10750 ] final -153.81 input  -60.55 | X-H torsion
[ 11005 11000 10999 10996 ] final -117.38 input  -57.11 | X-H torsion

> <Gold.Protein.ActiveResidues>
 VAL166  LYS551  ARG553  GLY616  TRP617  ASP618  TYR619  PRO620  LYS621  CYS622 
 ASP623  PHE694  ASN695  SER759  ASP760  ASP761  ALA762  ILE779  LEU786  VAL792 
 PHE793  MET794  SER795  GLU796  ALA797  LYS798  CYS799  TRP800  GLU811  SER814 

> <Gold.Protein.RotatedAtoms>
  152.5327  133.9995  159.7887 H   0  0  0  0  0  0  0  0  0  0  0  0  # atno 6907 bound_to 6896
  151.0216  133.5863  159.2678 H   0  0  0  0  0  0  0  0  0  0  0  0  # atno 6908 bound_to 6896
  151.2901  135.0746  159.9254 H   0  0  0  0  0  0  0  0  0  0  0  0  # atno 6909 bound_to 6896
  144.7594  140.4112  143.5988 H   0  0  0  0  0  0  0  0  0  0  0  0  # atno 7974 bound_to 7965
  156.0353  140.1291  157.0214 H   0  0  0  0  0  0  0  0  0  0  0  0  # atno 8008 bound_to 7997
  154.4367  140.1041  156.6229 H   0  0  0  0  0  0  0  0  0  0  0  0  # atno 8009 bound_to 7997
  155.5747  140.3467  155.4526 H   0  0  0  0  0  0  0  0  0  0  0  0  # atno 8010 bound_to 7997
  140.2362  144.3634  150.6396 H   0  0  0  0  0  0  0  0  0  0  0  0  # atno 10167 bound_to 10162
  156.2130  130.4161  149.9091 H   0  0  0  0  0  0  0  0  0  0  0  0  # atno 10718 bound_to 10713
  154.7902  135.3204  154.7795 H   0  0  0  0  0  0  0  0  0  0  0  0  # atno 10763 bound_to 10752
  153.8485  135.6864  153.4799 H   0  0  0  0  0  0  0  0  0  0  0  0  # atno 10764 bound_to 10752
  153.1569  135.4676  154.9657 H   0  0  0  0  0  0  0  0  0  0  0  0  # atno 10765 bound_to 10752
  141.0358  133.9911  157.3072 H   0  0  0  0  0  0  0  0  0  0  0  0  # atno 11005 bound_to 11000
  145.6670  139.1592  143.2776 LP  0  0  0  0  0  0  0  0  0  0  0  0  # atno 17320 bound_to 7965
  146.1640  140.6745  142.9264 LP  0  0  0  0  0  0  0  0  0  0  0  0  # atno 17321 bound_to 7965
  140.6148  143.2171  151.6813 LP  0  0  0  0  0  0  0  0  0  0  0  0  # atno 17342 bound_to 10162
  139.5093  144.3582  152.0588 LP  0  0  0  0  0  0  0  0  0  0  0  0  # atno 17343 bound_to 10162
  156.6762  130.8840  151.3569 LP  0  0  0  0  0  0  0  0  0  0  0  0  # atno 17370 bound_to 10713
  157.7048  130.9373  150.0897 LP  0  0  0  0  0  0  0  0  0  0  0  0  # atno 17371 bound_to 10713
  139.9240  135.0201  156.8167 LP  0  0  0  0  0  0  0  0  0  0  0  0  # atno 17394 bound_to 11000
  140.6324  133.9893  155.7668 LP  0  0  0  0  0  0  0  0  0  0  0  0  # atno 17395 bound_to 11000

$$$$
