AV-unprocessed.smi:1631|AV-procd|sdf|6526|dock1
  -GOLD-   22720 7203D 1   1.00000     0.00000
 Structure written by MMmdl.
 38 39  0  0  0  0  0  0  0  0  1 V2000
  147.1670  137.3187  163.3249 C   0  0  0  0  0  0  0  0  0  0  0  0
  147.5460  136.5700  162.0733 C   0  0  0  0  0  0  0  0  0  0  0  0
  148.2183  137.2516  161.2052 N   0  0  0  0  0  0  0  0  0  0  0  0
  148.6386  136.6935  160.0150 N   0  0  0  0  0  0  0  0  0  0  0  0
  149.3988  137.6165  159.1616 C   0  0  0  0  0  0  0  0  0  0  0  0
  150.6736  136.9643  158.5783 C   0  0  2  0  0  0  0  0  0  0  0  0
  151.6810  136.9857  159.5714 O   0  0  0  0  0  0  0  0  0  0  0  0
  151.1384  137.6919  157.3165 C   0  0  0  0  0  0  0  0  0  0  0  0
  151.7913  138.9371  157.4719 C   0  0  0  0  0  0  0  0  0  0  0  0
  152.2387  139.6652  156.3559 C   0  0  0  0  0  0  0  0  0  0  0  0
  152.0377  139.1535  155.0640 C   0  0  0  0  0  0  0  0  0  0  0  0
  151.3919  137.9159  154.8930 C   0  0  0  0  0  0  0  0  0  0  0  0
  150.9359  137.1701  156.0063 C   0  0  0  0  0  0  0  0  0  0  0  0
  150.2463  135.8268  155.7643 C   0  0  0  0  0  0  0  0  0  0  0  0
  150.2029  135.5166  154.4679 F   0  0  0  0  0  0  0  0  0  0  0  0
  150.9077  134.8522  156.3891 F   0  0  0  0  0  0  0  0  0  0  0  0
  148.9910  135.8667  156.2089 F   0  0  0  0  0  0  0  0  0  0  0  0
  148.3944  135.4081  159.6330 C   0  0  0  0  0  0  0  0  0  0  0  0
  148.7849  134.9499  158.5588 O   0  0  0  0  0  0  0  0  0  0  0  0
  147.6324  134.6378  160.6180 C   0  0  0  0  0  0  0  0  0  0  0  0
  147.3605  133.2840  160.2560 C   0  0  0  0  0  0  0  0  0  0  0  0
  147.1201  132.1900  159.9630 N   0  0  0  0  0  0  0  0  0  0  0  0
  147.2146  135.1734  161.7929 C   0  0  0  0  0  0  0  0  0  0  0  0
  146.4210  134.4036  162.8399 C   0  0  0  0  0  0  0  0  0  0  0  0
  146.5862  136.7177  164.0219 H   0  0  0  0  0  0  0  0  0  0  0  0
  146.5706  138.1985  163.0809 H   0  0  0  0  0  0  0  0  0  0  0  0
  148.0584  137.6579  163.8536 H   0  0  0  0  0  0  0  0  0  0  0  0
  148.7553  137.9488  158.3444 H   0  0  0  0  0  0  0  0  0  0  0  0
  149.6488  138.5280  159.7084 H   0  0  0  0  0  0  0  0  0  0  0  0
  150.4741  135.9172  158.3681 H   0  0  0  0  0  0  0  0  0  0  0  0
  152.2097  137.7584  159.4434 H   0  0  0  0  0  0  0  0  0  0  0  0
  151.9527  139.3433  158.4597 H   0  0  0  0  0  0  0  0  0  0  0  0
  152.7351  140.6149  156.4913 H   0  0  0  0  0  0  0  0  0  0  0  0
  152.3793  139.7092  154.2032 H   0  0  0  0  0  0  0  0  0  0  0  0
  151.2529  137.5474  153.8877 H   0  0  0  0  0  0  0  0  0  0  0  0
  146.2197  133.3770  162.5358 H   0  0  0  0  0  0  0  0  0  0  0  0
  145.4581  134.8832  163.0196 H   0  0  0  0  0  0  0  0  0  0  0  0
  146.9701  134.3628  163.7813 H   0  0  0  0  0  0  0  0  0  0  0  0
  1  2  1  0  0  0  0
  1 25  1  0  0  0  0
  1 26  1  0  0  0  0
  1 27  1  0  0  0  0
  2 23  1  0  0  0  0
  2  3  2  0  0  0  0
  3  4  1  0  0  0  0
  4  5  1  0  0  0  0
  4 18  1  0  0  0  0
  5  6  1  0  0  0  0
  5 28  1  0  0  0  0
  5 29  1  0  0  0  0
  6  7  1  0  0  0  0
  6  8  1  0  0  0  0
  6 30  1  0  0  0  0
  7 31  1  0  0  0  0
  8 13  1  0  0  0  0
  8  9  2  0  0  0  0
  9 10  1  0  0  0  0
  9 32  1  0  0  0  0
 10 11  2  0  0  0  0
 10 33  1  0  0  0  0
 11 12  1  0  0  0  0
 11 34  1  0  0  0  0
 12 13  2  0  0  0  0
 12 35  1  0  0  0  0
 13 14  1  0  0  0  0
 14 15  1  0  0  0  0
 14 16  1  0  0  0  0
 14 17  1  0  0  0  0
 18 19  2  0  0  0  0
 18 20  1  0  0  0  0
 20 21  1  0  0  0  0
 20 23  2  0  0  0  0
 21 22  3  0  0  0  0
 23 24  1  0  0  0  0
 24 36  1  0  0  0  0
 24 37  1  0  0  0  0
 24 38  1  0  0  0  0
M  END
> <s_m_source_file>
AV-unprocessed.smi

> <i_m_source_file_index>
1631

> <i_lp_mmshare_version>
43012

> <i_f3d_flags>
0

> <s_epik_input>
TiNDYyhjMVtDSDNdKWMoPU8pbihuYzFbQ0gzXSlbQ0gyXVtDQEhdKFtPSF0pYzJbY0hdW2NIXVtjSF1bY0hdYzJDKEYpKEYpRg==

> <s_epik_cmdline>
J2VwaWtfcHl0aG9uJywgJy1waCcsICc3LjAnLCAnLXRuJywgJzgnLCAnLW1hJywgJzIwMCcsICctbWV0YWxfYmluZGluZycsICctaW1hZScsICc8aW5maWxlLm1hZT4nLCAnLW9tYWUnLCAnPG91dGZpbGUubWFlPic=

> <r_lp_tautomer_probability>
1

> <r_epik_Ionization_Penalty>
7.1854e-08

> <r_epik_Ionization_Penalty_Charging>
1.40848e-10

> <r_epik_Ionization_Penalty_Neutral>
7.17131e-08

> <r_epik_State_Penalty>
-0

> <r_epik_Charging_Adjusted_Penalty>
1.40848e-10

> <i_epik_Tot_Q>
0

> <i_epik_Tot_abs_Q>
0

> <r_epik_Metal_State_Penalty>
-0

> <b_epik_Metal_Only>
0

> <s_lp_Force_Field>
OPLS_2005

> <r_lp_Energy>
30.0509

> <b_lp_Chiralities_Consistent>
1

> <s_lp_Variant>
AV-unprocessed.smi:1631-1

> <Gold.Version>
5.8.1

> <Gold.Id.Protein>
6NUR|6NUR_protein|mol2

> <Gold.PLP.Fitness>
47.3901

> <Gold.PLP.PLP>
-38.5069

> <Gold.PLP.part.hbond>
-3.9412

> <Gold.PLP.part.metal>
0.0000

> <Gold.PLP.part.buried>
0.6972

> <Gold.PLP.part.nonpolar>
-35.2596

> <Gold.PLP.part.repulsive>
0.0000

> <Gold.PLP.ligand.clash>
1.3966

> <Gold.PLP.ligand.torsion>
0.7963

> <Gold.PLP.Chemscore.Hbond>
3.4820

> <Gold.PLP.Chemscore.CHOScore>
0.0000

> <Gold.PLP.Chemscore.Metal>
0.0000

> <Gold.Chemscore.Hbonds>
donor molecule, donor type, donor heavy atom, donor atom, acceptor molecule, acceptor atom, score
      P1  H  6896  6907       L1     7  1.00
      P1  H  6896  6909       L1    19  0.37
      P1  H  6931  6943       L1     3  0.84
      P1  H  6934  6947       L1     3  0.55

> <Gold.PLP.Chemscore.Internal.Correction>
1.4263

> <Gold.Rescore>
     Score         DG    S(hbond)    S(metal)    S(lipo)     H(rot)  DE(clash)    DE(int)     intcor
     13.11     -16.92       2.09        0.00      84.28       2.11       0.64       3.18       ----

> <Gold.Chemscore.Fitness>
13.1069

> <Gold.Chemscore.DG>
-16.9246

> <Gold.Chemscore.ZeroCoef>
-5.4800

> <Gold.Chemscore.Hbond>
2.0934

> <Gold.Chemscore.Metal>
0.0000

> <Gold.Chemscore.Lipo>
84.2777

> <Gold.Chemscore.Internal_Hbond>
0.0000

> <Gold.Chemscore.DEClash>
0.6410

> <Gold.Chemscore.DEInternal>
3.1767

> <Gold.Chemscore.Rot>
2.1124

> <Gold.Chemscore.Internal.Correction>
   9.000000E+99

> <Gold.Chemscore.Hbonds>
donor molecule, donor type, donor heavy atom, donor atom, acceptor molecule, acceptor atom, score
      P1  H  6896  6907       L1     7  0.29
      P1  H  6896  6909       L1    19  0.06
      P1  H  6931  6943       L1     3  0.58
      P1  H  6934  6947       L1     3  0.26

> <Gold.Chemscore.Hbond.Weighted>
-6.9919

> <Gold.Chemscore.Metal.Weighted>
-0.0000

> <Gold.Chemscore.Lipo.Weighted>
-9.8605

> <Gold.Chemscore.Internal_Hbond.Weighted>
0.0000

> <Gold.Chemscore.DEClash.Weighted>
0.6410

> <Gold.Chemscore.DEInternal.Weighted>
3.1767

> <Gold.Chemscore.Rot.Weighted>
5.4078

> <Gold.Chemscore.Internal.Correction.Weighted>
   9.000000E+99

> <Gold.Protein.RotatedTorsions>
[ 6907 6896 6895 6894 ] final   13.61 input  -60.11 | X-H torsion
[ 7974 7965 7964 7962 ] final  -20.42 input  175.53 | X-H torsion
[ 8008 7997 7996 7995 ] final -121.23 input   59.86 | X-H torsion
[ 10167 10162 10161 10158 ] final  119.88 input  -65.29 | X-H torsion
[ 10718 10713 10712 10709 ] final   27.95 input   66.30 | X-H torsion
[ 10763 10752 10751 10750 ] final -110.57 input  -60.55 | X-H torsion
[ 11005 11000 10999 10996 ] final   20.14 input  -57.11 | X-H torsion

> <Gold.Protein.ActiveResidues>
 VAL166  LYS551  ARG553  GLY616  TRP617  ASP618  TYR619  PRO620  LYS621  CYS622 
 ASP623  PHE694  ASN695  SER759  ASP760  ASP761  ALA762  ILE779  LEU786  VAL792 
 PHE793  MET794  SER795  GLU796  ALA797  LYS798  CYS799  TRP800  GLU811  SER814 

> <Gold.Protein.RotatedAtoms>
  151.7891  135.0741  160.0384 H   0  0  0  0  0  0  0  0  0  0  0  0  # atno 6907 bound_to 6896
  152.3169  133.5808  159.5727 H   0  0  0  0  0  0  0  0  0  0  0  0  # atno 6908 bound_to 6896
  150.7349  133.9985  159.3672 H   0  0  0  0  0  0  0  0  0  0  0  0  # atno 6909 bound_to 6896
  146.1789  140.4199  142.8502 H   0  0  0  0  0  0  0  0  0  0  0  0  # atno 7974 bound_to 7965
  155.1447  140.0402  157.2807 H   0  0  0  0  0  0  0  0  0  0  0  0  # atno 8008 bound_to 7997
  154.6447  140.2555  155.7255 H   0  0  0  0  0  0  0  0  0  0  0  0  # atno 8009 bound_to 7997
  156.2549  140.2848  156.0856 H   0  0  0  0  0  0  0  0  0  0  0  0  # atno 8010 bound_to 7997
  139.6017  144.7058  151.3046 H   0  0  0  0  0  0  0  0  0  0  0  0  # atno 10167 bound_to 10162
  157.2270  130.7006  149.6296 H   0  0  0  0  0  0  0  0  0  0  0  0  # atno 10718 bound_to 10713
  154.8255  135.4559  154.0905 H   0  0  0  0  0  0  0  0  0  0  0  0  # atno 10763 bound_to 10752
  153.2223  135.6895  153.7992 H   0  0  0  0  0  0  0  0  0  0  0  0  # atno 10764 bound_to 10752
  153.7405  135.3313  155.3279 H   0  0  0  0  0  0  0  0  0  0  0  0  # atno 10765 bound_to 10752
  140.4059  134.1669  155.7665 H   0  0  0  0  0  0  0  0  0  0  0  0  # atno 11005 bound_to 11000
  144.8282  140.6663  143.6308 LP  0  0  0  0  0  0  0  0  0  0  0  0  # atno 17320 bound_to 7965
  145.4133  139.1576  143.4114 LP  0  0  0  0  0  0  0  0  0  0  0  0  # atno 17321 bound_to 7965
  140.7255  143.7016  150.7840 LP  0  0  0  0  0  0  0  0  0  0  0  0  # atno 17342 bound_to 10162
  140.0594  143.5170  152.2635 LP  0  0  0  0  0  0  0  0  0  0  0  0  # atno 17343 bound_to 10162
  155.9678  130.4501  150.5685 LP  0  0  0  0  0  0  0  0  0  0  0  0  # atno 17370 bound_to 10713
  157.3517  131.0734  151.1708 LP  0  0  0  0  0  0  0  0  0  0  0  0  # atno 17371 bound_to 10713
  141.1839  133.8354  157.1158 LP  0  0  0  0  0  0  0  0  0  0  0  0  # atno 17394 bound_to 11000
  140.0302  134.9905  157.0765 LP  0  0  0  0  0  0  0  0  0  0  0  0  # atno 17395 bound_to 11000

$$$$
