AV-unprocessed.smi:2388|AV-procd|sdf|9471|dock4
  -GOLD-   2272013103D 1   1.00000     0.00000
 Structure written by MMmdl.
 43 44  0  0  0  0  0  0  0  0  1 V2000
  153.6221  141.0197  159.9051 C   0  0  0  0  0  0  0  0  0  0  0  0
  152.8328  142.2199  159.4263 C   0  0  0  0  0  0  0  0  0  0  0  0
  152.9508  143.4683  160.0681 C   0  0  0  0  0  0  0  0  0  0  0  0
  152.1947  144.5440  159.5691 C   0  0  0  0  0  0  0  0  0  0  0  0
  151.3575  144.3287  158.4574 C   0  0  0  0  0  0  0  0  0  0  0  0
  151.2942  143.0434  157.8735 C   0  0  0  0  0  0  0  0  0  0  0  0
  150.4191  142.9304  156.7606 N   0  0  0  0  0  0  0  0  0  0  0  0
  150.1592  141.8423  156.0144 C   0  0  0  0  0  0  0  0  0  0  0  0
  150.6505  140.7265  156.1874 O   0  0  0  0  0  0  0  0  0  0  0  0
  149.2784  142.1227  155.0436 N   0  0  0  0  0  0  0  0  0  0  0  0
  148.7700  141.1688  154.0643 C   0  0  0  0  0  0  0  0  0  0  0  0
  147.2482  140.9980  154.2236 C   0  0  0  0  0  0  0  0  0  0  0  0
  146.4904  142.3222  154.4262 C   0  0  0  0  0  0  0  0  0  0  0  0
  146.6606  143.2368  153.6181 O   0  0  0  0  0  0  0  0  0  0  0  0
  145.6612  142.4475  155.4915 N   0  0  0  0  0  0  0  0  0  0  0  0
  144.8310  143.6216  155.7946 C   0  0  0  0  0  0  0  0  0  0  0  0
  143.3578  143.2680  155.5202 C   0  0  0  0  0  0  0  0  0  0  0  0
  142.9295  142.0302  156.3320 C   0  0  0  0  0  0  0  0  0  0  0  0
  143.9229  140.8647  156.1635 C   0  0  0  0  0  0  0  0  0  0  0  0
  145.3699  141.3339  156.4039 C   0  0  0  0  0  0  0  0  0  0  0  0
  152.0290  142.0127  158.3611 N   0  0  0  0  0  0  0  0  0  0  0  0
  154.1438  141.2359  160.8378 H   0  0  0  0  0  0  0  0  0  0  0  0
  154.3628  140.7331  159.1580 H   0  0  0  0  0  0  0  0  0  0  0  0
  152.9594  140.1707  160.0756 H   0  0  0  0  0  0  0  0  0  0  0  0
  153.6027  143.6013  160.9188 H   0  0  0  0  0  0  0  0  0  0  0  0
  152.2551  145.5187  160.0304 H   0  0  0  0  0  0  0  0  0  0  0  0
  150.7703  145.1449  158.0621 H   0  0  0  0  0  0  0  0  0  0  0  0
  149.9285  143.7751  156.5075 H   0  0  0  0  0  0  0  0  0  0  0  0
  148.9266  143.0668  154.9810 H   0  0  0  0  0  0  0  0  0  0  0  0
  148.9988  141.4942  153.0476 H   0  0  0  0  0  0  0  0  0  0  0  0
  149.2823  140.2182  154.2191 H   0  0  0  0  0  0  0  0  0  0  0  0
  146.8448  140.4997  153.3410 H   0  0  0  0  0  0  0  0  0  0  0  0
  147.0588  140.3490  155.0799 H   0  0  0  0  0  0  0  0  0  0  0  0
  144.9586  143.8880  156.8447 H   0  0  0  0  0  0  0  0  0  0  0  0
  145.1116  144.5142  155.2378 H   0  0  0  0  0  0  0  0  0  0  0  0
  142.7157  144.1143  155.7651 H   0  0  0  0  0  0  0  0  0  0  0  0
  143.2225  143.0725  154.4555 H   0  0  0  0  0  0  0  0  0  0  0  0
  142.8737  142.2993  157.3875 H   0  0  0  0  0  0  0  0  0  0  0  0
  141.9268  141.7160  156.0410 H   0  0  0  0  0  0  0  0  0  0  0  0
  143.6706  140.0562  156.8500 H   0  0  0  0  0  0  0  0  0  0  0  0
  143.8373  140.4542  155.1564 H   0  0  0  0  0  0  0  0  0  0  0  0
  146.0569  140.4953  156.2841 H   0  0  0  0  0  0  0  0  0  0  0  0
  145.4893  141.6690  157.4352 H   0  0  0  0  0  0  0  0  0  0  0  0
  1  2  1  0  0  0  0
  1 22  1  0  0  0  0
  1 23  1  0  0  0  0
  1 24  1  0  0  0  0
  2 21  1  0  0  0  0
  2  3  2  0  0  0  0
  3  4  1  0  0  0  0
  3 25  1  0  0  0  0
  4  5  2  0  0  0  0
  4 26  1  0  0  0  0
  5  6  1  0  0  0  0
  5 27  1  0  0  0  0
  6  7  1  0  0  0  0
  6 21  2  0  0  0  0
  7  8  1  0  0  0  0
  7 28  1  0  0  0  0
  8  9  2  0  0  0  0
  8 10  1  0  0  0  0
 10 11  1  0  0  0  0
 10 29  1  0  0  0  0
 11 12  1  0  0  0  0
 11 30  1  0  0  0  0
 11 31  1  0  0  0  0
 12 13  1  0  0  0  0
 12 32  1  0  0  0  0
 12 33  1  0  0  0  0
 13 14  2  0  0  0  0
 13 15  1  0  0  0  0
 15 20  1  0  0  0  0
 15 16  1  0  0  0  0
 16 17  1  0  0  0  0
 16 34  1  0  0  0  0
 16 35  1  0  0  0  0
 17 18  1  0  0  0  0
 17 36  1  0  0  0  0
 17 37  1  0  0  0  0
 18 19  1  0  0  0  0
 18 38  1  0  0  0  0
 18 39  1  0  0  0  0
 19 20  1  0  0  0  0
 19 40  1  0  0  0  0
 19 41  1  0  0  0  0
 20 42  1  0  0  0  0
 20 43  1  0  0  0  0
M  END
> <s_m_source_file>
AV-unprocessed.smi

> <i_m_source_file_index>
2388

> <i_lp_mmshare_version>
43012

> <i_f3d_flags>
0

> <s_epik_input>
W0NIM11jMVtjSF1bY0hdW2NIXWMobjEpW05IXUMoPU8pW05IXVtDSDJdW0NIMl1DKD1PKU4yW0NIMl1bQ0gyXVtDSDJdW0NIMl1bQ0gyXTI=

> <s_epik_cmdline>
J2VwaWtfcHl0aG9uJywgJy1waCcsICc3LjAnLCAnLXRuJywgJzgnLCAnLW1hJywgJzIwMCcsICctbWV0YWxfYmluZGluZycsICctaW1hZScsICc8aW5maWxlLm1hZT4nLCAnLW9tYWUnLCAnPG91dGZpbGUubWFlPic=

> <r_lp_tautomer_probability>
1

> <r_epik_Ionization_Penalty>
7.16628e-05

> <r_epik_Ionization_Penalty_Charging>
0

> <r_epik_Ionization_Penalty_Neutral>
7.16628e-05

> <r_epik_State_Penalty>
-0

> <r_epik_Charging_Adjusted_Penalty>
0

> <i_epik_Tot_Q>
0

> <i_epik_Tot_abs_Q>
0

> <r_epik_Metal_State_Penalty>
-0

> <b_epik_Metal_Only>
0

> <s_lp_Force_Field>
OPLS_2005

> <r_lp_Energy>
26.3076

> <b_lp_Chiralities_Consistent>
1

> <s_lp_Variant>
AV-unprocessed.smi:2388-1

> <Gold.Version>
5.8.1

> <Gold.Id.Protein>
6NUR|6NUR_protein|mol2

> <Gold.PLP.Fitness>
46.7464

> <Gold.PLP.PLP>
-40.8531

> <Gold.PLP.part.hbond>
-3.0000

> <Gold.PLP.part.metal>
0.0000

> <Gold.PLP.part.buried>
-3.5693

> <Gold.PLP.part.nonpolar>
-35.0002

> <Gold.PLP.part.repulsive>
0.4992

> <Gold.PLP.ligand.clash>
0.0000

> <Gold.PLP.ligand.torsion>
0.1237

> <Gold.PLP.Chemscore.Hbond>
2.0379

> <Gold.PLP.Chemscore.CHOScore>
0.0000

> <Gold.PLP.Chemscore.Metal>
0.0000

> <Gold.Chemscore.Hbonds>
donor molecule, donor type, donor heavy atom, donor atom, acceptor molecule, acceptor atom, score
      L1  H     7    28       P1  8028  1.00
      L1  H    10    29       P1  8028  0.99

> <Gold.PLP.Chemscore.Internal.Correction>
0.0270

> <Gold.Rescore>
     Score         DG    S(hbond)    S(metal)    S(lipo)     H(rot)  DE(clash)    DE(int)     intcor
     15.82     -17.46       1.97        0.00      79.32       1.51       0.23       1.41       ----

> <Gold.Chemscore.Fitness>
15.8179

> <Gold.Chemscore.DG>
-17.4587

> <Gold.Chemscore.ZeroCoef>
-5.4800

> <Gold.Chemscore.Hbond>
1.9677

> <Gold.Chemscore.Metal>
0.0000

> <Gold.Chemscore.Lipo>
79.3175

> <Gold.Chemscore.Internal_Hbond>
0.0000

> <Gold.Chemscore.DEClash>
0.2301

> <Gold.Chemscore.DEInternal>
1.4107

> <Gold.Chemscore.Rot>
1.5131

> <Gold.Chemscore.Internal.Correction>
   9.000000E+99

> <Gold.Chemscore.Hbonds>
donor molecule, donor type, donor heavy atom, donor atom, acceptor molecule, acceptor atom, score
      L1  H     7    28       P1  8028  0.99
      L1  H    10    29       P1  8028  0.94
      P1  H  8022  8030       L1    14  0.02

> <Gold.Chemscore.Hbond.Weighted>
-6.5720

> <Gold.Chemscore.Metal.Weighted>
-0.0000

> <Gold.Chemscore.Lipo.Weighted>
-9.2801

> <Gold.Chemscore.Internal_Hbond.Weighted>
0.0000

> <Gold.Chemscore.DEClash.Weighted>
0.2301

> <Gold.Chemscore.DEInternal.Weighted>
1.4107

> <Gold.Chemscore.Rot.Weighted>
3.8735

> <Gold.Chemscore.Internal.Correction.Weighted>
   9.000000E+99

> <Gold.Protein.RotatedTorsions>
[ 6907 6896 6895 6894 ] final -166.69 input  -60.11 | X-H torsion
[ 7974 7965 7964 7962 ] final -100.33 input  175.53 | X-H torsion
[ 8008 7997 7996 7995 ] final -136.02 input   59.86 | X-H torsion
[ 10167 10162 10161 10158 ] final  -19.95 input  -65.29 | X-H torsion
[ 10718 10713 10712 10709 ] final  -16.85 input   66.30 | X-H torsion
[ 10763 10752 10751 10750 ] final  103.24 input  -60.55 | X-H torsion
[ 11005 11000 10999 10996 ] final  139.03 input  -57.11 | X-H torsion

> <Gold.Protein.ActiveResidues>
 VAL166  LYS551  ARG553  GLY616  TRP617  ASP618  TYR619  PRO620  LYS621  CYS622 
 ASP623  PHE694  ASN695  SER759  ASP760  ASP761  ALA762  ILE779  LEU786  VAL792 
 PHE793  MET794  SER795  GLU796  ALA797  LYS798  CYS799  TRP800  GLU811  SER814 

> <Gold.Protein.RotatedAtoms>
  151.4476  133.3626  159.2790 H   0  0  0  0  0  0  0  0  0  0  0  0  # atno 6907 bound_to 6896
  150.9113  134.8532  159.7438 H   0  0  0  0  0  0  0  0  0  0  0  0  # atno 6908 bound_to 6896
  152.4934  134.4406  159.9594 H   0  0  0  0  0  0  0  0  0  0  0  0  # atno 6909 bound_to 6896
  145.2960  140.9365  143.2851 H   0  0  0  0  0  0  0  0  0  0  0  0  # atno 7974 bound_to 7965
  155.3884  140.0498  157.3041 H   0  0  0  0  0  0  0  0  0  0  0  0  # atno 8008 bound_to 7997
  154.5048  140.2170  155.9234 H   0  0  0  0  0  0  0  0  0  0  0  0  # atno 8009 bound_to 7997
  156.1512  140.3135  155.8657 H   0  0  0  0  0  0  0  0  0  0  0  0  # atno 8010 bound_to 7997
  140.7272  143.4769  151.0170 H   0  0  0  0  0  0  0  0  0  0  0  0  # atno 10167 bound_to 10162
  156.5818  130.4776  149.6317 H   0  0  0  0  0  0  0  0  0  0  0  0  # atno 10718 bound_to 10713
  153.3501  135.3983  155.1639 H   0  0  0  0  0  0  0  0  0  0  0  0  # atno 10763 bound_to 10752
  154.8660  135.3654  154.5234 H   0  0  0  0  0  0  0  0  0  0  0  0  # atno 10764 bound_to 10752
  153.5685  135.7079  153.5575 H   0  0  0  0  0  0  0  0  0  0  0  0  # atno 10765 bound_to 10752
  140.0225  134.9390  157.0503 H   0  0  0  0  0  0  0  0  0  0  0  0  # atno 11005 bound_to 11000
  144.9133  139.4501  143.6576 LP  0  0  0  0  0  0  0  0  0  0  0  0  # atno 17320 bound_to 7965
  146.3168  139.7953  142.8977 LP  0  0  0  0  0  0  0  0  0  0  0  0  # atno 17321 bound_to 7965
  139.8465  143.7495  152.3179 LP  0  0  0  0  0  0  0  0  0  0  0  0  # atno 17342 bound_to 10162
  139.7662  144.7491  151.0291 LP  0  0  0  0  0  0  0  0  0  0  0  0  # atno 17343 bound_to 10162
  156.2625  130.6970  151.1743 LP  0  0  0  0  0  0  0  0  0  0  0  0  # atno 17370 bound_to 10713
  157.7324  131.0599  150.5627 LP  0  0  0  0  0  0  0  0  0  0  0  0  # atno 17371 bound_to 10713
  140.4362  134.1729  155.7171 LP  0  0  0  0  0  0  0  0  0  0  0  0  # atno 17394 bound_to 11000
  141.1783  133.8468  157.1347 LP  0  0  0  0  0  0  0  0  0  0  0  0  # atno 17395 bound_to 11000

$$$$
