#       Name:                AV-unprocessed.smi:2807
#       Creating user name   scv26
#       Creation time:       Fri Mar 27 15:25:26 2020


#       File generated by GOLD software.
#

@<TRIPOS>MOLECULE
AV-unprocessed.smi:2807
    37    38     1
SMALL
NO_CHARGES


@<TRIPOS>ATOM
      1 ****        -0.5024   2.8835  -0.2325 O.2            1 S1                 0.0000
      2 ****         0.1759   1.9277  -0.6110 C.2            1 S1                 0.0000
      3 ****        -0.3587   0.7695  -1.0318 N.am           1 S1                 0.0000
      4 ****        -1.7842   0.4421  -1.0260 C.3            1 S1                 0.0000
      5 ****        -2.0969  -0.5777  -2.1356 C.3            1 S1                 0.0000
      6 ****        -2.3331  -1.9087  -1.4241 C.3            1 S1                 0.0000
      7 ****        -2.9727  -1.5087  -0.0979 C.3            1 S1                 0.0000
      8 ****        -2.2681  -0.2060   0.3020 C.3            1 S1                 0.0000
      9 ****        -1.2123  -0.5158   1.1963 O.3            1 S1                 0.0000
     10 ****         1.7095   2.0002  -0.5849 C.3            1 S1                 0.0000
     11 ****         2.1715   1.6403  -1.7845 F              1 S1                 0.0000
     12 ****         2.0913   3.2596  -0.3581 F              1 S1                 0.0000
     13 ****         2.2574   1.0844   0.5075 C.ar           1 S1                 0.0000
     14 ****         2.8075  -0.1797   0.1933 C.ar           1 S1                 0.0000
     15 ****         3.2665  -0.9966   1.2445 C.ar           1 S1                 0.0000
     16 ****         3.1612  -0.5250   2.5666 C.ar           1 S1                 0.0000
     17 ****         2.5983   0.7481   2.7800 C.ar           1 S1                 0.0000
     18 ****         2.1533   1.5379   1.7797 N.ar           1 S1                 0.0000
     19 ****         0.2725   0.0363  -1.3211 H              1 S1                 0.0000
     20 ****        -2.3624   1.3461  -1.2259 H              1 S1                 0.0000
     21 ****        -3.0132  -0.2807  -2.6476 H              1 S1                 0.0000
     22 ****        -1.3163  -0.6484  -2.8946 H              1 S1                 0.0000
     23 ****        -2.9566  -2.5901  -2.0036 H              1 S1                 0.0000
     24 ****        -1.3785  -2.4033  -1.2387 H              1 S1                 0.0000
     25 ****        -4.0327  -1.3098  -0.2607 H              1 S1                 0.0000
     26 ****        -2.9031  -2.2916   0.6586 H              1 S1                 0.0000
     27 ****        -2.9582   0.4557   0.8263 H              1 S1                 0.0000
     28 ****        -0.7747   0.2882   1.4318 H              1 S1                 0.0000
     29 ****         2.8696  -0.5254  -0.8278 H              1 S1                 0.0000
     30 ****         3.6888  -1.9693   1.0402 H              1 S1                 0.0000
     31 ****         3.5019  -1.1247   3.3975 H              1 S1                 0.0000
     32 ****         2.5002   1.1414   3.7810 H              1 S1                 0.0000
     33 ****        -1.5003   2.8183  -0.2291 LP             1 S1                 0.0000
     34 ****        -0.0553   3.7247   0.0715 LP             1 S1                 0.0000
     35 ****        -0.5647  -1.1352   0.7525 LP             1 S1                 0.0000
     36 ****        -1.5819  -0.9519   2.0168 LP             1 S1                 0.0000
     37 ****         1.7567   2.4353   1.9731 LP             1 S1                 0.0000
@<TRIPOS>BOND
    1    1    2 2     
    2    2    3 am    
    3    2   10 1     
    4    3    4 1     
    5    3   19 1     
    6    4    8 1     
    7    4    5 1     
    8    4   20 1     
    9    5    6 1     
   10    5   21 1     
   11    5   22 1     
   12    6    7 1     
   13    6   23 1     
   14    6   24 1     
   15    7    8 1     
   16    7   25 1     
   17    7   26 1     
   18    8    9 1     
   19    8   27 1     
   20    9   28 1     
   21   10   11 1     
   22   10   12 1     
   23   10   13 1     
   24   13   18 ar    
   25   13   14 ar    
   26   14   15 ar    
   27   14   29 1     
   28   15   16 ar    
   29   15   30 1     
   30   16   17 ar    
   31   16   31 1     
   32   17   18 ar    
   33   17   32 1     
   34    1   33 1     
   35    1   34 1     
   36    9   35 1     
   37    9   36 1     
   38   18   37 1     
@<TRIPOS>SUBSTRUCTURE
      1 S1             1
@<TRIPOS>SET
LONE_PAIRS      STATIC     ATOMS    <user>   **** ""
5 33 34 35 36 37
DONOR_HYDROGENS      STATIC     ATOMS    <user>   **** ""
2 19 28
ATOM$BLUE        STATIC     ATOMS    COLORGROUP SYSTEM
5 33 34 35 36 37
ATOM$RED        STATIC     ATOMS    COLORGROUP SYSTEM
2 19 28
