AV-unprocessed.smi:1803|AV-procd|sdf|7294|dock8
  -GOLD-   22720 8553D 1   1.00000     0.00000
 Structure written by MMmdl.
 35 37  0  0  0  0  0  0  0  0  3 V2000
  147.6806  132.2149  153.7456 O   0  0  0  0  0  0  0  0  0  0  0  0
  148.2856  133.2719  153.5724 C   0  0  0  0  0  0  0  0  0  0  0  0
  149.5455  133.4963  154.0281 N   0  5  0  0  0  0  0  0  0  0  0  0
  150.0260  132.9205  155.1459 C   0  0  0  0  0  0  0  0  0  0  0  0
  150.2272  133.6076  156.2819 N   0  0  0  0  0  0  0  0  0  0  0  0
  150.7366  132.8257  157.3095 N   0  0  0  0  0  0  0  0  0  0  0  0
  150.8923  131.5592  156.9251 C   0  0  0  0  0  0  0  0  0  0  0  0
  150.4424  131.2092  155.2696 S   0  0  0  0  0  0  0  0  0  0  0  0
  147.6768  134.2658  152.8986 N   0  0  0  0  0  0  0  0  0  0  0  0
  146.3377  134.2133  152.3249 C   0  0  1  0  0  0  0  0  0  0  0  0
  145.6802  135.5906  152.1437 C   0  0  0  0  0  0  0  0  0  0  0  0
  144.9399  135.5146  150.7939 C   0  0  0  0  0  0  0  0  0  0  0  0
  145.0905  134.1252  150.3033 N   0  3  2  0  0  0  0  0  0  0  0  0
  143.9037  133.2859  150.6250 C   0  0  0  0  0  0  0  0  0  0  0  0
  144.1507  131.7998  150.3345 C   0  0  0  0  0  0  0  0  0  0  0  0
  145.3605  131.3000  151.1282 C   0  0  0  0  0  0  0  0  0  0  0  0
  146.5933  132.1325  150.7595 C   0  0  0  0  0  0  0  0  0  0  0  0
  146.3628  133.6538  150.9006 C   0  0  2  0  0  0  0  0  0  0  0  0
  151.2760  130.8272  157.6201 H   0  0  0  0  0  0  0  0  0  0  0  0
  148.1922  135.1255  152.7778 H   0  0  0  0  0  0  0  0  0  0  0  0
  145.6980  133.5878  152.9497 H   0  0  0  0  0  0  0  0  0  0  0  0
  144.9989  135.8063  152.9674 H   0  0  0  0  0  0  0  0  0  0  0  0
  146.4229  136.3893  152.1157 H   0  0  0  0  0  0  0  0  0  0  0  0
  143.8958  135.8212  150.8720 H   0  0  0  0  0  0  0  0  0  0  0  0
  145.4192  136.1829  150.0777 H   0  0  0  0  0  0  0  0  0  0  0  0
  143.6356  133.4084  151.6757 H   0  0  0  0  0  0  0  0  0  0  0  0
  143.0517  133.6401  150.0437 H   0  0  0  0  0  0  0  0  0  0  0  0
  143.2672  131.2177  150.5980 H   0  0  0  0  0  0  0  0  0  0  0  0
  144.3157  131.6500  149.2666 H   0  0  0  0  0  0  0  0  0  0  0  0
  145.1627  131.3709  152.1983 H   0  0  0  0  0  0  0  0  0  0  0  0
  145.5428  130.2464  150.9146 H   0  0  0  0  0  0  0  0  0  0  0  0
  147.4493  131.8236  151.3604 H   0  0  0  0  0  0  0  0  0  0  0  0
  146.8598  131.9146  149.7245 H   0  0  0  0  0  0  0  0  0  0  0  0
  147.1658  134.1586  150.3590 H   0  0  0  0  0  0  0  0  0  0  0  0
  145.1887  134.1336  149.2983 H   0  0  0  0  0  0  0  0  0  0  0  0
  1  2  2  0  0  0  0
  2  3  1  0  0  0  0
  2  9  1  0  0  0  0
  3  4  1  0  0  0  0
  4  8  1  0  0  0  0
  4  5  2  0  0  0  0
  5  6  1  0  0  0  0
  6  7  2  0  0  0  0
  7  8  1  0  0  0  0
  7 19  1  0  0  0  0
  9 10  1  0  0  0  0
  9 20  1  0  0  0  0
 10 18  1  0  0  0  0
 10 11  1  0  0  0  0
 10 21  1  0  0  0  0
 11 12  1  0  0  0  0
 11 22  1  0  0  0  0
 11 23  1  0  0  0  0
 12 13  1  0  0  0  0
 12 24  1  0  0  0  0
 12 25  1  0  0  0  0
 13 18  1  0  0  0  0
 13 14  1  0  0  0  0
 13 35  1  0  0  0  0
 14 15  1  0  0  0  0
 14 26  1  0  0  0  0
 14 27  1  0  0  0  0
 15 16  1  0  0  0  0
 15 28  1  0  0  0  0
 15 29  1  0  0  0  0
 16 17  1  0  0  0  0
 16 30  1  0  0  0  0
 16 31  1  0  0  0  0
 17 18  1  0  0  0  0
 17 32  1  0  0  0  0
 17 33  1  0  0  0  0
 18 34  1  0  0  0  0
M  CHG  1   3  -1
M  CHG  1  13   1
M  END
> <s_m_source_file>
AV-unprocessed.smi

> <i_m_source_file_index>
1803

> <i_lp_mmshare_version>
43012

> <i_f3d_flags>
0

> <s_epik_input>
czFbY0hdbm5jMVtOSF1DKD1PKVtOSF1bQ0BIXShbQ0gyXVtDSDJdMilbQ0BASF0oTjIzKVtDSDJdW0NIMl1bQ0gyXVtDSDJdMw==

> <s_epik_cmdline>
J2VwaWtfcHl0aG9uJywgJy1waCcsICc3LjAnLCAnLXRuJywgJzgnLCAnLW1hJywgJzIwMCcsICctbWV0YWxfYmluZGluZycsICctaW1hZScsICc8aW5maWxlLm1hZT4nLCAnLW9tYWUnLCAnPG91dGZpbGUubWFlPic=

> <r_lp_tautomer_probability>
1

> <r_epik_Ionization_Penalty>
3.78828

> <r_epik_Ionization_Penalty_Charging>
3.7591

> <r_epik_Ionization_Penalty_Neutral>
0.0291838

> <r_epik_State_Penalty>
3.757

> <r_epik_Charging_Adjusted_Penalty>
7.51609

> <i_epik_Tot_Q>
0

> <i_epik_Tot_abs_Q>
2

> <r_epik_Metal_State_Penalty>
0.558016

> <b_epik_Metal_Only>
1

> <s_lp_Force_Field>
OPLS_2005

> <r_lp_Energy>
31.4395

> <b_lp_Chiralities_Consistent>
1

> <s_lp_Variant>
AV-unprocessed.smi:1803-16

> <Gold.Version>
5.8.1

> <Gold.Id.Protein>
6NUR|6NUR_protein|mol2

> <Gold.PLP.Fitness>
36.4905

> <Gold.PLP.PLP>
-29.9352

> <Gold.PLP.part.hbond>
-2.9901

> <Gold.PLP.part.metal>
0.0000

> <Gold.PLP.part.buried>
-1.5265

> <Gold.PLP.part.nonpolar>
-26.5183

> <Gold.PLP.part.repulsive>
0.2917

> <Gold.PLP.ligand.clash>
0.0000

> <Gold.PLP.ligand.torsion>
1.2271

> <Gold.PLP.Chemscore.Hbond>
3.0000

> <Gold.PLP.Chemscore.CHOScore>
0.0000

> <Gold.PLP.Chemscore.Metal>
0.0000

> <Gold.Chemscore.Hbonds>
donor molecule, donor type, donor heavy atom, donor atom, acceptor molecule, acceptor atom, score
      L1  H     9    20       P1  7948  1.00
      L1  H    13    35       P1  7921  0.99
      P1  H  6896  6907       L1     6  0.99

> <Gold.PLP.Chemscore.Internal.Correction>
0.0095

> <Gold.Rescore>
     Score         DG    S(hbond)    S(metal)    S(lipo)     H(rot)  DE(clash)    DE(int)     intcor
     17.46     -19.97       2.69        0.00      69.01       1.00       1.27       1.24       ----

> <Gold.Chemscore.Fitness>
17.4584

> <Gold.Chemscore.DG>
-19.9734

> <Gold.Chemscore.ZeroCoef>
-5.4800

> <Gold.Chemscore.Hbond>
2.6882

> <Gold.Chemscore.Metal>
0.0000

> <Gold.Chemscore.Lipo>
69.0144

> <Gold.Chemscore.Internal_Hbond>
0.0000

> <Gold.Chemscore.DEClash>
1.2715

> <Gold.Chemscore.DEInternal>
1.2434

> <Gold.Chemscore.Rot>
1.0000

> <Gold.Chemscore.Internal.Correction>
   9.000000E+99

> <Gold.Chemscore.Hbonds>
donor molecule, donor type, donor heavy atom, donor atom, acceptor molecule, acceptor atom, score
      L1  H     9    20       P1  7948  0.87
      L1  H    13    35       P1  7921  0.85
      P1  H  6896  6907       L1     6  0.90

> <Gold.Chemscore.Hbond.Weighted>
-8.9787

> <Gold.Chemscore.Metal.Weighted>
-0.0000

> <Gold.Chemscore.Lipo.Weighted>
-8.0747

> <Gold.Chemscore.Internal_Hbond.Weighted>
0.0000

> <Gold.Chemscore.DEClash.Weighted>
1.2715

> <Gold.Chemscore.DEInternal.Weighted>
1.2434

> <Gold.Chemscore.Rot.Weighted>
2.5600

> <Gold.Chemscore.Internal.Correction.Weighted>
   9.000000E+99

> <Gold.Protein.RotatedTorsions>
[ 6907 6896 6895 6894 ] final -150.65 input  -60.11 | X-H torsion
[ 7974 7965 7964 7962 ] final  -40.28 input  175.53 | X-H torsion
[ 8008 7997 7996 7995 ] final    0.63 input   59.86 | X-H torsion
[ 10167 10162 10161 10158 ] final -133.75 input  -65.29 | X-H torsion
[ 10718 10713 10712 10709 ] final   76.88 input   66.30 | X-H torsion
[ 10763 10752 10751 10750 ] final -166.42 input  -60.55 | X-H torsion
[ 11005 11000 10999 10996 ] final -174.16 input  -57.11 | X-H torsion

> <Gold.Protein.ActiveResidues>
 VAL166  LYS551  ARG553  GLY616  TRP617  ASP618  TYR619  PRO620  LYS621  CYS622 
 ASP623  PHE694  ASN695  SER759  ASP760  ASP761  ALA762  ILE779  LEU786  VAL792 
 PHE793  MET794  SER795  GLU796  ALA797  LYS798  CYS799  TRP800  GLU811  SER814 

> <Gold.Protein.RotatedAtoms>
  151.2016  133.4607  159.2596 H   0  0  0  0  0  0  0  0  0  0  0  0  # atno 6907 bound_to 6896
  151.1064  135.0001  159.8483 H   0  0  0  0  0  0  0  0  0  0  0  0  # atno 6908 bound_to 6896
  152.5447  134.1939  159.8738 H   0  0  0  0  0  0  0  0  0  0  0  0  # atno 6909 bound_to 6896
  146.0319  140.6721  142.9128 H   0  0  0  0  0  0  0  0  0  0  0  0  # atno 7974 bound_to 7965
  154.6703  140.2610  155.7014 H   0  0  0  0  0  0  0  0  0  0  0  0  # atno 8008 bound_to 7997
  156.2656  140.2830  156.1132 H   0  0  0  0  0  0  0  0  0  0  0  0  # atno 8009 bound_to 7997
  155.1178  140.0376  157.2732 H   0  0  0  0  0  0  0  0  0  0  0  0  # atno 8010 bound_to 7997
  139.8951  143.6676  152.2605 H   0  0  0  0  0  0  0  0  0  0  0  0  # atno 10167 bound_to 10162
  157.6690  130.9795  150.1561 H   0  0  0  0  0  0  0  0  0  0  0  0  # atno 10718 bound_to 10713
  154.6834  135.2958  154.9581 H   0  0  0  0  0  0  0  0  0  0  0  0  # atno 10763 bound_to 10752
  154.0568  135.6637  153.4811 H   0  0  0  0  0  0  0  0  0  0  0  0  # atno 10764 bound_to 10752
  153.0563  135.5143  154.7889 H   0  0  0  0  0  0  0  0  0  0  0  0  # atno 10765 bound_to 10752
  140.4777  134.6105  157.4907 H   0  0  0  0  0  0  0  0  0  0  0  0  # atno 11005 bound_to 11000
  144.7034  140.3751  143.7137 LP  0  0  0  0  0  0  0  0  0  0  0  0  # atno 17320 bound_to 7965
  145.7027  139.1665  143.2583 LP  0  0  0  0  0  0  0  0  0  0  0  0  # atno 17321 bound_to 7965
  139.7075  144.7625  151.1168 LP  0  0  0  0  0  0  0  0  0  0  0  0  # atno 17342 bound_to 10162
  140.7718  143.5375  150.9351 LP  0  0  0  0  0  0  0  0  0  0  0  0  # atno 17343 bound_to 10162
  156.2349  130.3685  149.8403 LP  0  0  0  0  0  0  0  0  0  0  0  0  # atno 17370 bound_to 10713
  156.6219  130.8630  151.3477 LP  0  0  0  0  0  0  0  0  0  0  0  0  # atno 17371 bound_to 10713
  139.9846  134.7082  155.9798 LP  0  0  0  0  0  0  0  0  0  0  0  0  # atno 17394 bound_to 11000
  141.1546  133.6544  156.4122 LP  0  0  0  0  0  0  0  0  0  0  0  0  # atno 17395 bound_to 11000

$$$$
