AV-unprocessed.smi:146|AV-procd|sdf|1199|dock3
  -GOLD-   2262018353D 1   1.00000     0.00000
 Structure written by MMmdl.
 55 59  0  0  0  0  0  0  0  0  1 V2000
  151.1466  138.0874  155.1565 C   0  0  0  0  0  0  0  0  0  0  0  0
  150.1297  137.0445  155.6460 C   0  0  0  0  0  0  0  0  0  0  0  0
  148.9706  136.9662  154.6313 C   0  0  0  0  0  0  0  0  0  0  0  0
  150.8279  135.6800  155.8039 C   0  0  0  0  0  0  0  0  0  0  0  0
  149.9779  134.7515  156.5364 N   0  0  0  0  0  0  0  0  0  0  0  0
  150.3011  133.4402  156.3986 C   0  0  0  0  0  0  0  0  0  0  0  0
  151.0024  132.8063  157.3766 N   0  0  0  0  0  0  0  0  0  0  0  0
  151.3408  131.5208  157.2408 C   0  0  0  0  0  0  0  0  0  0  0  0
  151.0835  130.6930  156.2268 N   0  0  0  0  0  0  0  0  0  0  0  0
  150.3679  131.3170  155.2478 C   0  0  0  0  0  0  0  0  0  0  0  0
  149.9392  132.6747  155.2534 C   0  0  0  0  0  0  0  0  0  0  0  0
  149.2313  132.9496  154.0894 N   0  0  0  0  0  0  0  0  0  0  0  0
  149.2563  131.8258  153.4269 C   0  0  0  0  0  0  0  0  0  0  0  0
  149.9078  130.7870  154.0539 N   0  0  0  0  0  0  0  0  0  0  0  0
  150.0968  129.4342  153.5477 C   0  0  0  0  0  0  0  0  0  0  0  0
  148.7901  128.6540  153.2642 C   0  0  0  0  0  0  0  0  0  0  0  0
  149.1678  127.2991  152.6497 C   0  0  0  0  0  0  0  0  0  0  0  0
  149.8471  127.4624  151.4212 O   0  0  0  0  0  0  0  0  0  0  0  0
  147.7156  128.6260  154.3656 C   0  0  0  0  0  0  0  0  0  0  0  0
  146.9477  129.6612  153.7161 O   0  0  0  0  0  0  0  0  0  0  0  0
  147.6998  129.4301  152.5066 C   0  0  0  0  0  0  0  0  0  0  0  0
  149.6373  135.2492  157.8633 C   0  0  0  0  0  0  0  0  0  0  0  0
  148.9551  136.6347  157.7764 C   0  0  2  0  0  0  0  0  0  0  0  0
  148.8956  137.2872  159.1525 C   0  0  0  0  0  0  0  0  0  0  0  0
  147.5819  136.7746  159.7211 C   0  0  0  0  0  0  0  0  0  0  0  0
  146.7127  136.8321  158.6049 O   0  0  0  0  0  0  0  0  0  0  0  0
  147.4542  136.5519  157.4206 C   0  0  0  0  0  0  0  0  0  0  0  0
  149.6961  137.5239  156.9283 O   0  0  0  0  0  0  0  0  0  0  0  0
  151.5642  137.8117  154.1875 H   0  0  0  0  0  0  0  0  0  0  0  0
  151.9767  138.1888  155.8565 H   0  0  0  0  0  0  0  0  0  0  0  0
  150.6851  139.0697  155.0511 H   0  0  0  0  0  0  0  0  0  0  0  0
  149.3439  136.7453  153.6309 H   0  0  0  0  0  0  0  0  0  0  0  0
  148.4275  137.9102  154.5778 H   0  0  0  0  0  0  0  0  0  0  0  0
  148.2569  136.1809  154.8759 H   0  0  0  0  0  0  0  0  0  0  0  0
  151.1095  135.2945  154.8247 H   0  0  0  0  0  0  0  0  0  0  0  0
  151.7570  135.7997  156.3633 H   0  0  0  0  0  0  0  0  0  0  0  0
  151.8991  131.0955  158.0617 H   0  0  0  0  0  0  0  0  0  0  0  0
  148.7966  131.7272  152.4549 H   0  0  0  0  0  0  0  0  0  0  0  0
  150.6970  129.5024  152.6397 H   0  0  0  0  0  0  0  0  0  0  0  0
  150.7181  128.9027  154.2690 H   0  0  0  0  0  0  0  0  0  0  0  0
  149.8205  126.7361  153.3175 H   0  0  0  0  0  0  0  0  0  0  0  0
  148.2843  126.6810  152.4865 H   0  0  0  0  0  0  0  0  0  0  0  0
  150.7279  127.7540  151.6009 H   0  0  0  0  0  0  0  0  0  0  0  0
  147.1616  127.6870  154.4146 H   0  0  0  0  0  0  0  0  0  0  0  0
  148.0636  128.9127  155.3569 H   0  0  0  0  0  0  0  0  0  0  0  0
  148.0408  130.3497  152.0335 H   0  0  0  0  0  0  0  0  0  0  0  0
  147.1364  128.8240  151.7952 H   0  0  0  0  0  0  0  0  0  0  0  0
  148.9874  134.5433  158.3821 H   0  0  0  0  0  0  0  0  0  0  0  0
  150.5574  135.3225  158.4453 H   0  0  0  0  0  0  0  0  0  0  0  0
  149.7536  137.0588  159.7854 H   0  0  0  0  0  0  0  0  0  0  0  0
  148.8395  138.3724  159.0529 H   0  0  0  0  0  0  0  0  0  0  0  0
  147.6766  135.7427  160.0619 H   0  0  0  0  0  0  0  0  0  0  0  0
  147.2139  137.3800  160.5496 H   0  0  0  0  0  0  0  0  0  0  0  0
  147.1724  137.2994  156.6798 H   0  0  0  0  0  0  0  0  0  0  0  0
  147.1803  135.5723  157.0274 H   0  0  0  0  0  0  0  0  0  0  0  0
  1  2  1  0  0  0  0
  1 29  1  0  0  0  0
  1 30  1  0  0  0  0
  1 31  1  0  0  0  0
  2 28  1  0  0  0  0
  2  3  1  0  0  0  0
  2  4  1  0  0  0  0
  3 32  1  0  0  0  0
  3 33  1  0  0  0  0
  3 34  1  0  0  0  0
  4  5  1  0  0  0  0
  4 35  1  0  0  0  0
  4 36  1  0  0  0  0
  5  6  1  0  0  0  0
  5 22  1  0  0  0  0
  6 11  1  0  0  0  0
  6  7  2  0  0  0  0
  7  8  1  0  0  0  0
  8  9  2  0  0  0  0
  8 37  1  0  0  0  0
  9 10  1  0  0  0  0
 10 14  1  0  0  0  0
 10 11  2  0  0  0  0
 11 12  1  0  0  0  0
 12 13  2  0  0  0  0
 13 14  1  0  0  0  0
 13 38  1  0  0  0  0
 14 15  1  0  0  0  0
 15 16  1  0  0  0  0
 15 39  1  0  0  0  0
 15 40  1  0  0  0  0
 16 21  1  0  0  0  0
 16 17  1  0  0  0  0
 16 19  1  0  0  0  0
 17 18  1  0  0  0  0
 17 41  1  0  0  0  0
 17 42  1  0  0  0  0
 18 43  1  0  0  0  0
 19 20  1  0  0  0  0
 19 44  1  0  0  0  0
 19 45  1  0  0  0  0
 20 21  1  0  0  0  0
 21 46  1  0  0  0  0
 21 47  1  0  0  0  0
 22 23  1  0  0  0  0
 22 48  1  0  0  0  0
 22 49  1  0  0  0  0
 23 27  1  0  0  0  0
 23 24  1  0  0  0  0
 23 28  1  0  0  0  0
 24 25  1  0  0  0  0
 24 50  1  0  0  0  0
 24 51  1  0  0  0  0
 25 26  1  0  0  0  0
 25 52  1  0  0  0  0
 25 53  1  0  0  0  0
 26 27  1  0  0  0  0
 27 54  1  0  0  0  0
 27 55  1  0  0  0  0
M  END
> <s_m_source_file>
AV-unprocessed.smi

> <i_m_source_file_index>
146

> <i_lp_mmshare_version>
43012

> <i_f3d_flags>
0

> <s_epik_input>
W0NIMl0xT1tDSDJdW0NIMl1bQ0BAXTEyW0NIMl1OKFtDSDJdQyhPMikoW0NIM10pW0NIM10pYyhuW2NIXW4zKWMoYzM0KW5bY0hdbjRbQ0gyXUM1KFtDSDJdW09IXSlbQ0gyXU9bQ0gyXTU=

> <s_epik_cmdline>
J2VwaWtfcHl0aG9uJywgJy1waCcsICc3LjAnLCAnLXRuJywgJzgnLCAnLW1hJywgJzIwMCcsICctbWV0YWxfYmluZGluZycsICctaW1hZScsICc8aW5maWxlLm1hZT4nLCAnLW9tYWUnLCAnPG91dGZpbGUubWFlPic=

> <r_lp_tautomer_probability>
1

> <r_epik_Ionization_Penalty>
0.00353822

> <r_epik_Ionization_Penalty_Charging>
0

> <r_epik_Ionization_Penalty_Neutral>
0.00353822

> <r_epik_State_Penalty>
0.0023805

> <r_epik_Charging_Adjusted_Penalty>
0.0023805

> <i_epik_Tot_Q>
0

> <i_epik_Tot_abs_Q>
0

> <r_epik_Metal_State_Penalty>
-0

> <b_epik_Metal_Only>
0

> <s_lp_Force_Field>
OPLS_2005

> <r_lp_Energy>
56.8345

> <b_lp_Chiralities_Consistent>
1

> <s_lp_Variant>
AV-unprocessed.smi:146-1

> <Gold.Version>
5.8.1

> <Gold.Id.Protein>
6NUR|6NUR_protein|mol2

> <Gold.PLP.Fitness>
35.3941

> <Gold.PLP.PLP>
-27.3634

> <Gold.PLP.part.hbond>
-2.0000

> <Gold.PLP.part.metal>
0.0000

> <Gold.PLP.part.buried>
-2.4251

> <Gold.PLP.part.nonpolar>
-23.5454

> <Gold.PLP.part.repulsive>
0.2388

> <Gold.PLP.ligand.clash>
0.0000

> <Gold.PLP.ligand.torsion>
0.7817

> <Gold.PLP.Chemscore.Hbond>
1.9920

> <Gold.PLP.Chemscore.CHOScore>
1.0000

> <Gold.PLP.Chemscore.Metal>
0.0000

> <Gold.Chemscore.Hbonds>
donor molecule, donor type, donor heavy atom, donor atom, acceptor molecule, acceptor atom, score
      L1  H    18    43       P1 10737  0.42
      P1  H  6896  6909       L1     7  0.99
      L1  C    13    38       P1 10747  1.00

> <Gold.PLP.Chemscore.Internal.Correction>
0.6181

> <Gold.Rescore>
     Score         DG    S(hbond)    S(metal)    S(lipo)     H(rot)  DE(clash)    DE(int)     intcor
     10.71     -12.59       1.90        0.00      59.77       2.44       1.12       0.75       ----

> <Gold.Chemscore.Fitness>
10.7114

> <Gold.Chemscore.DG>
-12.5854

> <Gold.Chemscore.ZeroCoef>
-5.4800

> <Gold.Chemscore.Hbond>
1.9021

> <Gold.Chemscore.Metal>
0.0000

> <Gold.Chemscore.Lipo>
59.7655

> <Gold.Chemscore.Internal_Hbond>
0.0000

> <Gold.Chemscore.DEClash>
1.1197

> <Gold.Chemscore.DEInternal>
0.7543

> <Gold.Chemscore.Rot>
2.4376

> <Gold.Chemscore.Internal.Correction>
   9.000000E+99

> <Gold.Chemscore.Hbonds>
donor molecule, donor type, donor heavy atom, donor atom, acceptor molecule, acceptor atom, score
      L1  H    18    43       P1 10737  0.40
      P1  H  6896  6909       L1     7  0.61

> <Gold.Chemscore.Hbond.Weighted>
-6.3530

> <Gold.Chemscore.Metal.Weighted>
-0.0000

> <Gold.Chemscore.Lipo.Weighted>
-6.9926

> <Gold.Chemscore.Internal_Hbond.Weighted>
0.0000

> <Gold.Chemscore.DEClash.Weighted>
1.1197

> <Gold.Chemscore.DEInternal.Weighted>
0.7543

> <Gold.Chemscore.Rot.Weighted>
6.2402

> <Gold.Chemscore.Internal.Correction.Weighted>
   9.000000E+99

> <Gold.Protein.RotatedTorsions>
[ 6907 6896 6895 6894 ] final  -45.35 input  -60.11 | X-H torsion
[ 7974 7965 7964 7962 ] final -126.50 input  175.53 | X-H torsion
[ 8008 7997 7996 7995 ] final  161.68 input   59.86 | X-H torsion
[ 10167 10162 10161 10158 ] final  139.69 input  -65.29 | X-H torsion
[ 10718 10713 10712 10709 ] final   13.93 input   66.30 | X-H torsion
[ 10763 10752 10751 10750 ] final   98.96 input  -60.55 | X-H torsion
[ 11005 11000 10999 10996 ] final   84.39 input  -57.11 | X-H torsion

> <Gold.Protein.ActiveResidues>
 VAL166  LYS551  ARG553  GLY616  TRP617  ASP618  TYR619  PRO620  LYS621  CYS622 
 ASP623  PHE694  ASN695  SER759  ASP760  ASP761  ALA762  ILE779  LEU786  VAL792 
 PHE793  MET794  SER795  GLU796  ALA797  LYS798  CYS799  TRP800  GLU811  SER814 

> <Gold.Protein.RotatedAtoms>
  150.9229  134.8646  159.7500 H   0  0  0  0  0  0  0  0  0  0  0  0  # atno 6907 bound_to 6896
  152.5001  134.4192  159.9485 H   0  0  0  0  0  0  0  0  0  0  0  0  # atno 6908 bound_to 6896
  151.4225  133.3654  159.2793 H   0  0  0  0  0  0  0  0  0  0  0  0  # atno 6909 bound_to 6896
  144.9866  140.7692  143.4579 H   0  0  0  0  0  0  0  0  0  0  0  0  # atno 7974 bound_to 7965
  156.2086  140.1770  156.7746 H   0  0  0  0  0  0  0  0  0  0  0  0  # atno 8008 bound_to 7997
  154.5689  140.0686  156.8964 H   0  0  0  0  0  0  0  0  0  0  0  0  # atno 8009 bound_to 7997
  155.2709  140.3342  155.4268 H   0  0  0  0  0  0  0  0  0  0  0  0  # atno 8010 bound_to 7997
  139.5071  144.6279  151.5890 H   0  0  0  0  0  0  0  0  0  0  0  0  # atno 10167 bound_to 10162
  157.0318  130.6196  149.5736 H   0  0  0  0  0  0  0  0  0  0  0  0  # atno 10718 bound_to 10713
  153.2955  135.4130  155.1205 H   0  0  0  0  0  0  0  0  0  0  0  0  # atno 10763 bound_to 10752
  154.8533  135.3528  154.5923 H   0  0  0  0  0  0  0  0  0  0  0  0  # atno 10764 bound_to 10752
  153.6347  135.7059  153.5321 H   0  0  0  0  0  0  0  0  0  0  0  0  # atno 10765 bound_to 10752
  139.9002  134.8213  156.2439 H   0  0  0  0  0  0  0  0  0  0  0  0  # atno 11005 bound_to 11000
  145.2345  139.2100  143.5025 LP  0  0  0  0  0  0  0  0  0  0  0  0  # atno 17320 bound_to 7965
  146.3421  140.2228  142.8592 LP  0  0  0  0  0  0  0  0  0  0  0  0  # atno 17321 bound_to 7965
  140.6002  143.9623  150.6381 LP  0  0  0  0  0  0  0  0  0  0  0  0  # atno 17342 bound_to 10162
  140.2832  143.3375  152.1132 LP  0  0  0  0  0  0  0  0  0  0  0  0  # atno 17343 bound_to 10162
  156.0067  130.5154  150.7853 LP  0  0  0  0  0  0  0  0  0  0  0  0  # atno 17370 bound_to 10713
  157.5172  131.0929  151.0124 LP  0  0  0  0  0  0  0  0  0  0  0  0  # atno 17371 bound_to 10713
  141.0267  133.7011  156.1360 LP  0  0  0  0  0  0  0  0  0  0  0  0  # atno 17394 bound_to 11000
  140.7155  134.4415  157.5579 LP  0  0  0  0  0  0  0  0  0  0  0  0  # atno 17395 bound_to 11000

$$$$
