AV-unprocessed.smi:2687|AV-procd|sdf|10385|dock5
  -GOLD-   2272014413D 1   1.00000     0.00000
 Structure written by MMmdl.
 38 39  0  0  0  0  0  0  0  0  1 V2000
  150.0211  136.4657  158.8255 O   0  0  0  0  0  0  0  0  0  0  0  0
  149.0788  136.9457  158.1965 C   0  0  0  0  0  0  0  0  0  0  0  0
  147.6532  136.7171  158.6945 C   0  0  0  0  0  0  0  0  0  0  0  0
  147.6306  136.9245  160.0969 O   0  0  0  0  0  0  0  0  0  0  0  0
  147.8942  135.7409  160.8332 C   0  0  0  0  0  0  0  0  0  0  0  0
  147.1612  135.8006  162.1791 C   0  0  0  0  0  0  0  0  0  0  0  0
  145.8604  135.9919  161.9628 F   0  0  0  0  0  0  0  0  0  0  0  0
  147.3200  134.6558  162.8427 F   0  0  0  0  0  0  0  0  0  0  0  0
  147.6261  136.8116  162.9125 F   0  0  0  0  0  0  0  0  0  0  0  0
  149.2011  137.6619  157.0644 N   0  0  0  0  0  0  0  0  0  0  0  0
  150.3941  138.0371  156.3837 C   0  0  0  0  0  0  0  0  0  0  0  0
  151.6463  137.4292  156.6435 C   0  0  0  0  0  0  0  0  0  0  0  0
  152.7837  137.8772  155.9475 C   0  0  0  0  0  0  0  0  0  0  0  0
  152.6320  138.9252  155.0217 C   0  0  0  0  0  0  0  0  0  0  0  0
  151.4499  139.5252  154.7734 N   0  0  0  0  0  0  0  0  0  0  0  0
  150.3516  139.0963  155.4413 C   0  0  0  0  0  0  0  0  0  0  0  0
  149.1344  139.7393  155.1605 N   0  0  0  0  0  0  0  0  0  0  0  0
  149.2915  141.0214  154.4861 C   0  0  0  0  0  0  0  0  0  0  0  0
  147.9232  141.7104  154.3441 C   0  0  0  0  0  0  0  0  0  0  0  0
  147.0186  140.8436  153.6648 O   0  0  0  0  0  0  0  0  0  0  0  0
  146.8151  139.6218  154.3693 C   0  0  0  0  0  0  0  0  0  0  0  0
  148.1545  138.8790  154.5093 C   0  0  0  0  0  0  0  0  0  0  0  0
  146.9576  137.3958  158.1971 H   0  0  0  0  0  0  0  0  0  0  0  0
  147.3516  135.6966  158.4531 H   0  0  0  0  0  0  0  0  0  0  0  0
  147.5651  134.8674  160.2683 H   0  0  0  0  0  0  0  0  0  0  0  0
  148.9675  135.6374  161.0002 H   0  0  0  0  0  0  0  0  0  0  0  0
  148.3402  137.9040  156.5955 H   0  0  0  0  0  0  0  0  0  0  0  0
  151.7560  136.6416  157.3732 H   0  0  0  0  0  0  0  0  0  0  0  0
  153.7513  137.4318  156.1242 H   0  0  0  0  0  0  0  0  0  0  0  0
  153.4832  139.2959  154.4703 H   0  0  0  0  0  0  0  0  0  0  0  0
  149.9743  141.6554  155.0529 H   0  0  0  0  0  0  0  0  0  0  0  0
  149.7330  140.8694  153.5003 H   0  0  0  0  0  0  0  0  0  0  0  0
  147.5197  141.9798  155.3215 H   0  0  0  0  0  0  0  0  0  0  0  0
  148.0248  142.6346  153.7751 H   0  0  0  0  0  0  0  0  0  0  0  0
  146.3769  139.8221  155.3484 H   0  0  0  0  0  0  0  0  0  0  0  0
  146.1011  139.0085  153.8195 H   0  0  0  0  0  0  0  0  0  0  0  0
  148.5174  138.5842  153.5237 H   0  0  0  0  0  0  0  0  0  0  0  0
  148.0199  137.9664  155.0913 H   0  0  0  0  0  0  0  0  0  0  0  0
  1  2  2  0  0  0  0
  2  3  1  0  0  0  0
  2 10  1  0  0  0  0
  3  4  1  0  0  0  0
  3 23  1  0  0  0  0
  3 24  1  0  0  0  0
  4  5  1  0  0  0  0
  5  6  1  0  0  0  0
  5 25  1  0  0  0  0
  5 26  1  0  0  0  0
  6  7  1  0  0  0  0
  6  8  1  0  0  0  0
  6  9  1  0  0  0  0
 10 11  1  0  0  0  0
 10 27  1  0  0  0  0
 11 16  1  0  0  0  0
 11 12  2  0  0  0  0
 12 13  1  0  0  0  0
 12 28  1  0  0  0  0
 13 14  2  0  0  0  0
 13 29  1  0  0  0  0
 14 15  1  0  0  0  0
 14 30  1  0  0  0  0
 15 16  2  0  0  0  0
 16 17  1  0  0  0  0
 17 22  1  0  0  0  0
 17 18  1  0  0  0  0
 18 19  1  0  0  0  0
 18 31  1  0  0  0  0
 18 32  1  0  0  0  0
 19 20  1  0  0  0  0
 19 33  1  0  0  0  0
 19 34  1  0  0  0  0
 20 21  1  0  0  0  0
 21 22  1  0  0  0  0
 21 35  1  0  0  0  0
 21 36  1  0  0  0  0
 22 37  1  0  0  0  0
 22 38  1  0  0  0  0
M  END
> <s_m_source_file>
AV-unprocessed.smi

> <i_m_source_file_index>
2687

> <i_lp_mmshare_version>
43012

> <i_f3d_flags>
0

> <s_epik_input>
RkMoRikoRilbQ0gyXU9bQ0gyXUMoPU8pW05IXWMxW2NIXVtjSF1bY0hdbmMxTjJbQ0gyXVtDSDJdT1tDSDJdW0NIMl0y

> <s_epik_cmdline>
J2VwaWtfcHl0aG9uJywgJy1waCcsICc3LjAnLCAnLXRuJywgJzgnLCAnLW1hJywgJzIwMCcsICctbWV0YWxfYmluZGluZycsICctaW1hZScsICc8aW5maWxlLm1hZT4nLCAnLW9tYWUnLCAnPG91dGZpbGUubWFlPic=

> <r_lp_tautomer_probability>
1

> <r_epik_Ionization_Penalty>
0.00040187

> <r_epik_Ionization_Penalty_Charging>
0

> <r_epik_Ionization_Penalty_Neutral>
0.00040187

> <r_epik_State_Penalty>
0.000245652

> <r_epik_Charging_Adjusted_Penalty>
0.000245652

> <i_epik_Tot_Q>
0

> <i_epik_Tot_abs_Q>
0

> <r_epik_Metal_State_Penalty>
-0

> <b_epik_Metal_Only>
0

> <s_lp_Force_Field>
OPLS_2005

> <r_lp_Energy>
25.827

> <b_lp_Chiralities_Consistent>
1

> <s_lp_Variant>
AV-unprocessed.smi:2687-1

> <Gold.Version>
5.8.1

> <Gold.Id.Protein>
6NUR|6NUR_protein|mol2

> <Gold.PLP.Fitness>
43.3178

> <Gold.PLP.PLP>
-36.6849

> <Gold.PLP.part.hbond>
-3.3820

> <Gold.PLP.part.metal>
0.0000

> <Gold.PLP.part.buried>
-4.0033

> <Gold.PLP.part.nonpolar>
-30.5677

> <Gold.PLP.part.repulsive>
0.2881

> <Gold.PLP.ligand.clash>
0.0000

> <Gold.PLP.ligand.torsion>
0.9167

> <Gold.PLP.Chemscore.Hbond>
2.7525

> <Gold.PLP.Chemscore.CHOScore>
0.0000

> <Gold.PLP.Chemscore.Metal>
0.0000

> <Gold.Chemscore.Hbonds>
donor molecule, donor type, donor heavy atom, donor atom, acceptor molecule, acceptor atom, score
      P1  H  6896  6907       L1     1  1.00
      P1  H  6934  6947       L1     4  0.32
      P1  H  7989  7998       L1    15  1.00

> <Gold.PLP.Chemscore.Internal.Correction>
0.2087

> <Gold.Rescore>
     Score         DG    S(hbond)    S(metal)    S(lipo)     H(rot)  DE(clash)    DE(int)     intcor
     13.58     -16.71       2.71        0.00      62.54       2.01       0.20       2.93       ----

> <Gold.Chemscore.Fitness>
13.5832

> <Gold.Chemscore.DG>
-16.7082

> <Gold.Chemscore.ZeroCoef>
-5.4800

> <Gold.Chemscore.Hbond>
2.7149

> <Gold.Chemscore.Metal>
0.0000

> <Gold.Chemscore.Lipo>
62.5415

> <Gold.Chemscore.Internal_Hbond>
0.0000

> <Gold.Chemscore.DEClash>
0.1964

> <Gold.Chemscore.DEInternal>
2.9285

> <Gold.Chemscore.Rot>
2.0144

> <Gold.Chemscore.Internal.Correction>
   9.000000E+99

> <Gold.Chemscore.Hbonds>
donor molecule, donor type, donor heavy atom, donor atom, acceptor molecule, acceptor atom, score
      P1  H  6896  6907       L1     1  0.97
      P1  H  6934  6947       L1     4  0.30
      P1  H  7989  7998       L1    15  0.74

> <Gold.Chemscore.Hbond.Weighted>
-9.0676

> <Gold.Chemscore.Metal.Weighted>
-0.0000

> <Gold.Chemscore.Lipo.Weighted>
-7.3174

> <Gold.Chemscore.Internal_Hbond.Weighted>
0.0000

> <Gold.Chemscore.DEClash.Weighted>
0.1964

> <Gold.Chemscore.DEInternal.Weighted>
2.9285

> <Gold.Chemscore.Rot.Weighted>
5.1568

> <Gold.Chemscore.Internal.Correction.Weighted>
   9.000000E+99

> <Gold.Protein.RotatedTorsions>
[ 6907 6896 6895 6894 ] final  -49.49 input  -60.11 | X-H torsion
[ 7974 7965 7964 7962 ] final  -83.45 input  175.53 | X-H torsion
[ 8008 7997 7996 7995 ] final  145.37 input   59.86 | X-H torsion
[ 10167 10162 10161 10158 ] final  -43.93 input  -65.29 | X-H torsion
[ 10718 10713 10712 10709 ] final  -77.15 input   66.30 | X-H torsion
[ 10763 10752 10751 10750 ] final -153.41 input  -60.55 | X-H torsion
[ 11005 11000 10999 10996 ] final    7.14 input  -57.11 | X-H torsion

> <Gold.Protein.ActiveResidues>
 VAL166  LYS551  ARG553  GLY616  TRP617  ASP618  TYR619  PRO620  LYS621  CYS622 
 ASP623  PHE694  ASN695  SER759  ASP760  ASP761  ALA762  ILE779  LEU786  VAL792 
 PHE793  MET794  SER795  GLU796  ALA797  LYS798  CYS799  TRP800  GLU811  SER814 

> <Gold.Protein.RotatedAtoms>
  150.8800  134.8189  159.7217 H   0  0  0  0  0  0  0  0  0  0  0  0  # atno 6907 bound_to 6896
  152.4771  134.4812  159.9676 H   0  0  0  0  0  0  0  0  0  0  0  0  # atno 6908 bound_to 6896
  151.4888  133.3491  159.2885 H   0  0  0  0  0  0  0  0  0  0  0  0  # atno 6909 bound_to 6896
  145.5198  140.9532  143.1661 H   0  0  0  0  0  0  0  0  0  0  0  0  # atno 7974 bound_to 7965
  156.2885  140.2211  156.5205 H   0  0  0  0  0  0  0  0  0  0  0  0  # atno 8008 bound_to 7997
  154.7533  140.0479  157.0933 H   0  0  0  0  0  0  0  0  0  0  0  0  # atno 8009 bound_to 7997
  155.0083  140.3110  155.4843 H   0  0  0  0  0  0  0  0  0  0  0  0  # atno 8010 bound_to 7997
  140.6916  143.2957  151.3422 H   0  0  0  0  0  0  0  0  0  0  0  0  # atno 10167 bound_to 10162
  156.0153  130.4484  150.3302 H   0  0  0  0  0  0  0  0  0  0  0  0  # atno 10718 bound_to 10713
  154.7929  135.3213  154.7734 H   0  0  0  0  0  0  0  0  0  0  0  0  # atno 10763 bound_to 10752
  153.8419  135.6870  153.4806 H   0  0  0  0  0  0  0  0  0  0  0  0  # atno 10764 bound_to 10752
  153.1607  135.4662  154.9709 H   0  0  0  0  0  0  0  0  0  0  0  0  # atno 10765 bound_to 10752
  140.5516  134.0278  155.7939 H   0  0  0  0  0  0  0  0  0  0  0  0  # atno 11005 bound_to 11000
  144.7682  139.6796  143.7206 LP  0  0  0  0  0  0  0  0  0  0  0  0  # atno 17320 bound_to 7965
  146.2113  139.5471  142.9679 LP  0  0  0  0  0  0  0  0  0  0  0  0  # atno 17321 bound_to 7965
  139.6324  144.0694  152.2488 LP  0  0  0  0  0  0  0  0  0  0  0  0  # atno 17342 bound_to 10162
  140.0173  144.6179  150.7596 LP  0  0  0  0  0  0  0  0  0  0  0  0  # atno 17343 bound_to 10162
  157.1400  131.0294  151.2932 LP  0  0  0  0  0  0  0  0  0  0  0  0  # atno 17370 bound_to 10713
  157.4480  130.7582  149.7126 LP  0  0  0  0  0  0  0  0  0  0  0  0  # atno 17371 bound_to 10713
  141.1168  133.9527  157.2806 LP  0  0  0  0  0  0  0  0  0  0  0  0  # atno 17394 bound_to 11000
  139.9452  135.0185  156.8831 LP  0  0  0  0  0  0  0  0  0  0  0  0  # atno 17395 bound_to 11000

$$$$
