AV-unprocessed.smi:2424|AV-procd|sdf|9573|dock7
  -GOLD-   2272013203D 1   1.00000     0.00000
 Structure written by MMmdl.
 49 50  0  0  0  0  0  0  0  0  2 V2000
  148.7667  140.7169  154.2912 C   0  0  0  0  0  0  0  0  0  0  0  0
  149.0343  139.2201  154.5216 C   0  0  0  0  0  0  0  0  0  0  0  0
  150.0708  138.8945  155.6297 C   0  0  0  0  0  0  0  0  0  0  0  0
  149.4146  139.1187  157.0117 C   0  0  0  0  0  0  0  0  0  0  0  0
  148.1851  138.2437  157.3033 C   0  0  0  0  0  0  0  0  0  0  0  0
  150.8373  137.5518  155.4913 C   0  0  1  0  0  0  0  0  0  0  0  0
  150.1447  136.5387  154.6990 N   0  0  0  0  0  0  0  0  0  0  0  0
  149.8951  135.2839  155.0959 C   0  0  0  0  0  0  0  0  0  0  0  0
  150.2395  134.8400  156.1906 O   0  0  0  0  0  0  0  0  0  0  0  0
  149.2283  134.6077  154.1441 N   0  0  0  0  0  0  0  0  0  0  0  0
  148.7755  133.2822  154.1653 C   0  0  0  0  0  0  0  0  0  0  0  0
  149.3292  132.3716  155.0422 C   0  0  0  0  0  0  0  0  0  0  0  0
  149.0298  131.0651  155.2089 N   0  5  0  0  0  0  0  0  0  0  0  0
  148.0523  130.5249  154.4262 C   0  0  0  0  0  0  0  0  0  0  0  0
  147.7250  129.3425  154.5226 O   0  0  0  0  0  0  0  0  0  0  0  0
  147.3727  131.3877  153.4389 C   0  0  0  0  0  0  0  0  0  0  0  0
  146.2857  130.7832  152.5666 C   0  0  0  0  0  0  0  0  0  0  0  0
  147.7291  132.6921  153.3303 C   0  0  0  0  0  0  0  0  0  0  0  0
  151.9286  138.2693  154.6927 C   0  0  2  0  0  0  0  0  0  0  0  0
  153.3767  137.8074  154.8013 C   0  0  0  0  0  0  0  0  0  0  0  0
  151.4678  139.5491  155.4086 C   0  0  2  0  0  0  0  0  0  0  0  0
  152.2171  139.7473  156.6022 O   0  0  0  0  0  0  0  0  0  0  0  0
  151.8181  140.9014  157.3222 C   0  0  0  0  0  0  0  0  0  0  0  0
  148.1294  140.8591  153.4185 H   0  0  0  0  0  0  0  0  0  0  0  0
  149.6888  141.2706  154.1158 H   0  0  0  0  0  0  0  0  0  0  0  0
  148.2538  141.1732  155.1371 H   0  0  0  0  0  0  0  0  0  0  0  0
  148.0869  138.7176  154.7147 H   0  0  0  0  0  0  0  0  0  0  0  0
  149.3681  138.8083  153.5694 H   0  0  0  0  0  0  0  0  0  0  0  0
  150.1391  138.9063  157.7980 H   0  0  0  0  0  0  0  0  0  0  0  0
  149.1516  140.1656  157.1560 H   0  0  0  0  0  0  0  0  0  0  0  0
  147.8395  138.4025  158.3249 H   0  0  0  0  0  0  0  0  0  0  0  0
  148.4163  137.1840  157.1999 H   0  0  0  0  0  0  0  0  0  0  0  0
  147.3499  138.4754  156.6435 H   0  0  0  0  0  0  0  0  0  0  0  0
  151.2206  137.1959  156.4508 H   0  0  0  0  0  0  0  0  0  0  0  0
  149.8257  136.8172  153.7829 H   0  0  0  0  0  0  0  0  0  0  0  0
  149.0185  135.1126  153.2955 H   0  0  0  0  0  0  0  0  0  0  0  0
  150.1331  132.7492  155.7105 H   0  0  0  0  0  0  0  0  0  0  0  0
  145.8646  131.5233  151.8857 H   0  0  0  0  0  0  0  0  0  0  0  0
  145.4751  130.3932  153.1829 H   0  0  0  0  0  0  0  0  0  0  0  0
  146.6884  129.9656  151.9678 H   0  0  0  0  0  0  0  0  0  0  0  0
  147.2108  133.2895  152.5983 H   0  0  0  0  0  0  0  0  0  0  0  0
  151.6405  138.3375  153.6420 H   0  0  0  0  0  0  0  0  0  0  0  0
  153.6738  137.6563  155.8392 H   0  0  0  0  0  0  0  0  0  0  0  0
  154.0572  138.5389  154.3659 H   0  0  0  0  0  0  0  0  0  0  0  0
  153.5264  136.8626  154.2786 H   0  0  0  0  0  0  0  0  0  0  0  0
  151.4797  140.4137  154.7428 H   0  0  0  0  0  0  0  0  0  0  0  0
  152.3957  140.9743  158.2434 H   0  0  0  0  0  0  0  0  0  0  0  0
  150.7620  140.8658  157.5888 H   0  0  0  0  0  0  0  0  0  0  0  0
  151.9989  141.8058  156.7402 H   0  0  0  0  0  0  0  0  0  0  0  0
  1  2  1  0  0  0  0
  1 24  1  0  0  0  0
  1 25  1  0  0  0  0
  1 26  1  0  0  0  0
  2  3  1  0  0  0  0
  2 27  1  0  0  0  0
  2 28  1  0  0  0  0
  3 21  1  0  0  0  0
  3  4  1  0  0  0  0
  3  6  1  0  0  0  0
  4  5  1  0  0  0  0
  4 29  1  0  0  0  0
  4 30  1  0  0  0  0
  5 31  1  0  0  0  0
  5 32  1  0  0  0  0
  5 33  1  0  0  0  0
  6  7  1  0  0  0  0
  6 19  1  0  0  0  0
  6 34  1  0  0  0  0
  7  8  1  0  0  0  0
  7 35  1  0  0  0  0
  8  9  2  0  0  0  0
  8 10  1  0  0  0  0
 10 11  1  0  0  0  0
 10 36  1  0  0  0  0
 11 18  1  0  0  0  0
 11 12  2  0  0  0  0
 12 13  1  0  0  0  0
 12 37  1  0  0  0  0
 13 14  1  0  0  0  0
 14 15  2  0  0  0  0
 14 16  1  0  0  0  0
 16 17  1  0  0  0  0
 16 18  2  0  0  0  0
 17 38  1  0  0  0  0
 17 39  1  0  0  0  0
 17 40  1  0  0  0  0
 18 41  1  0  0  0  0
 19 20  1  0  0  0  0
 19 21  1  0  0  0  0
 19 42  1  0  0  0  0
 20 43  1  0  0  0  0
 20 44  1  0  0  0  0
 20 45  1  0  0  0  0
 21 22  1  0  0  0  0
 21 46  1  0  0  0  0
 22 23  1  0  0  0  0
 23 47  1  0  0  0  0
 23 48  1  0  0  0  0
 23 49  1  0  0  0  0
M  CHG  1  13  -1
M  END
> <s_m_source_file>
AV-unprocessed.smi

> <i_m_source_file_index>
2424

> <i_lp_mmshare_version>
43012

> <i_f3d_flags>
0

> <s_epik_input>
W0NIM11PW0NAQEhdMVtDQEhdKFtDSDNdKVtDQEBIXShDMShbQ0gyXVtDSDNdKVtDSDJdW0NIM10pW05IXUMoPU8pW05IXWMyW2NIXVtuSF1jKD1PKWMoW0NIM10pW2NIXTI=

> <s_epik_cmdline>
J2VwaWtfcHl0aG9uJywgJy1waCcsICc3LjAnLCAnLXRuJywgJzgnLCAnLW1hJywgJzIwMCcsICctbWV0YWxfYmluZGluZycsICctaW1hZScsICc8aW5maWxlLm1hZT4nLCAnLW9tYWUnLCAnPG91dGZpbGUubWFlPic=

> <r_lp_tautomer_probability>
1

> <r_epik_Ionization_Penalty>
7.6122

> <r_epik_Ionization_Penalty_Charging>
1.53843

> <r_epik_Ionization_Penalty_Neutral>
6.07377

> <r_epik_State_Penalty>
6.07371

> <r_epik_Charging_Adjusted_Penalty>
7.61214

> <i_epik_Tot_Q>
-1

> <i_epik_Tot_abs_Q>
1

> <r_epik_Metal_State_Penalty>
2.02136

> <b_epik_Metal_Only>
1

> <s_lp_Force_Field>
OPLS_2005

> <r_lp_Energy>
41.9258

> <b_lp_Chiralities_Consistent>
1

> <s_lp_Variant>
AV-unprocessed.smi:2424-15

> <Gold.Version>
5.8.1

> <Gold.Id.Protein>
6NUR|6NUR_protein|mol2

> <Gold.PLP.Fitness>
41.3500

> <Gold.PLP.PLP>
-33.8038

> <Gold.PLP.part.hbond>
-3.3423

> <Gold.PLP.part.metal>
0.0000

> <Gold.PLP.part.buried>
-1.1109

> <Gold.PLP.part.nonpolar>
-29.7061

> <Gold.PLP.part.repulsive>
0.1651

> <Gold.PLP.ligand.clash>
0.0000

> <Gold.PLP.ligand.torsion>
0.5610

> <Gold.PLP.Chemscore.Hbond>
2.6580

> <Gold.PLP.Chemscore.CHOScore>
0.0000

> <Gold.PLP.Chemscore.Metal>
0.0000

> <Gold.Chemscore.Hbonds>
donor molecule, donor type, donor heavy atom, donor atom, acceptor molecule, acceptor atom, score
      L1  H     7    35       P1  7948  0.66
      L1  H    10    36       P1  7948  1.00
      P1  H  7997  8010       L1    22  0.65

> <Gold.PLP.Chemscore.Internal.Correction>
0.6943

> <Gold.Rescore>
     Score         DG    S(hbond)    S(metal)    S(lipo)     H(rot)  DE(clash)    DE(int)     intcor
     12.17     -15.12       1.13        0.00      83.36       1.52       0.12       2.83       ----

> <Gold.Chemscore.Fitness>
12.1680

> <Gold.Chemscore.DG>
-15.1166

> <Gold.Chemscore.ZeroCoef>
-5.4800

> <Gold.Chemscore.Hbond>
1.1303

> <Gold.Chemscore.Metal>
0.0000

> <Gold.Chemscore.Lipo>
83.3642

> <Gold.Chemscore.Internal_Hbond>
0.0000

> <Gold.Chemscore.DEClash>
0.1168

> <Gold.Chemscore.DEInternal>
2.8318

> <Gold.Chemscore.Rot>
1.5204

> <Gold.Chemscore.Internal.Correction>
   9.000000E+99

> <Gold.Chemscore.Hbonds>
donor molecule, donor type, donor heavy atom, donor atom, acceptor molecule, acceptor atom, score
      L1  H     7    35       P1  7948  0.35
      L1  H    10    36       P1  7948  0.30
      P1  H  7997  8010       L1    22  0.18

> <Gold.Chemscore.Hbond.Weighted>
-3.7753

> <Gold.Chemscore.Metal.Weighted>
-0.0000

> <Gold.Chemscore.Lipo.Weighted>
-9.7536

> <Gold.Chemscore.Internal_Hbond.Weighted>
0.0000

> <Gold.Chemscore.DEClash.Weighted>
0.1168

> <Gold.Chemscore.DEInternal.Weighted>
2.8318

> <Gold.Chemscore.Rot.Weighted>
3.8922

> <Gold.Chemscore.Internal.Correction.Weighted>
   9.000000E+99

> <Gold.Protein.RotatedTorsions>
[ 6907 6896 6895 6894 ] final  -86.98 input  -60.11 | X-H torsion
[ 7974 7965 7964 7962 ] final   11.91 input  175.53 | X-H torsion
[ 8008 7997 7996 7995 ] final   78.99 input   59.86 | X-H torsion
[ 10167 10162 10161 10158 ] final   70.58 input  -65.29 | X-H torsion
[ 10718 10713 10712 10709 ] final  -64.76 input   66.30 | X-H torsion
[ 10763 10752 10751 10750 ] final  -49.94 input  -60.55 | X-H torsion
[ 11005 11000 10999 10996 ] final   51.62 input  -57.11 | X-H torsion

> <Gold.Protein.ActiveResidues>
 VAL166  LYS551  ARG553  GLY616  TRP617  ASP618  TYR619  PRO620  LYS621  CYS622 
 ASP623  PHE694  ASN695  SER759  ASP760  ASP761  ALA762  ILE779  LEU786  VAL792 
 PHE793  MET794  SER795  GLU796  ALA797  LYS798  CYS799  TRP800  GLU811  SER814 

> <Gold.Protein.RotatedAtoms>
  150.6866  134.2967  159.4689 H   0  0  0  0  0  0  0  0  0  0  0  0  # atno 6907 bound_to 6896
  152.0867  134.9432  160.0582 H   0  0  0  0  0  0  0  0  0  0  0  0  # atno 6908 bound_to 6896
  152.0764  133.4096  159.4518 H   0  0  0  0  0  0  0  0  0  0  0  0  # atno 6909 bound_to 6896
  146.2362  139.9415  142.8482 H   0  0  0  0  0  0  0  0  0  0  0  0  # atno 7974 bound_to 7965
  155.8634  140.3452  155.5772 H   0  0  0  0  0  0  0  0  0  0  0  0  # atno 8008 bound_to 7997
  155.7908  140.0871  157.2029 H   0  0  0  0  0  0  0  0  0  0  0  0  # atno 8009 bound_to 7997
  154.4013  140.1483  156.3148 H   0  0  0  0  0  0  0  0  0  0  0  0  # atno 8010 bound_to 7997
  140.0554  144.5277  150.7333 H   0  0  0  0  0  0  0  0  0  0  0  0  # atno 10167 bound_to 10162
  156.0710  130.4238  150.1466 H   0  0  0  0  0  0  0  0  0  0  0  0  # atno 10718 bound_to 10713
  154.1022  135.6561  153.4870 H   0  0  0  0  0  0  0  0  0  0  0  0  # atno 10763 bound_to 10752
  153.0285  135.5228  154.7275 H   0  0  0  0  0  0  0  0  0  0  0  0  # atno 10764 bound_to 10752
  154.6430  135.2991  155.0049 H   0  0  0  0  0  0  0  0  0  0  0  0  # atno 10765 bound_to 10752
  140.0917  134.5200  155.8846 H   0  0  0  0  0  0  0  0  0  0  0  0  # atno 11005 bound_to 11000
  145.1948  140.9828  143.4190 LP  0  0  0  0  0  0  0  0  0  0  0  0  # atno 17320 bound_to 7965
  144.9825  139.3769  143.6255 LP  0  0  0  0  0  0  0  0  0  0  0  0  # atno 17321 bound_to 7965
  140.7197  143.2577  151.4319 LP  0  0  0  0  0  0  0  0  0  0  0  0  # atno 17342 bound_to 10162
  139.5927  144.1465  152.2107 LP  0  0  0  0  0  0  0  0  0  0  0  0  # atno 17343 bound_to 10162
  156.9517  130.9777  151.3497 LP  0  0  0  0  0  0  0  0  0  0  0  0  # atno 17370 bound_to 10713
  157.5780  130.8356  149.8482 LP  0  0  0  0  0  0  0  0  0  0  0  0  # atno 17371 bound_to 10713
  141.2080  133.6669  156.6341 LP  0  0  0  0  0  0  0  0  0  0  0  0  # atno 17394 bound_to 11000
  140.3343  134.7902  157.4350 LP  0  0  0  0  0  0  0  0  0  0  0  0  # atno 17395 bound_to 11000

$$$$
