AV-unprocessed.smi:2825|AV-procd|sdf|10889|dock9
  -GOLD-   2272015333D 1   1.00000     0.00000
 Structure written by MMmdl.
 48 49  0  0  0  0  0  0  0  0  1 V2000
  149.1997  133.7738  153.5761 C   0  0  0  0  0  0  0  0  0  0  0  0
  150.0950  134.9468  153.9879 C   0  0  0  0  0  0  0  0  0  0  0  0
  149.3212  136.0397  154.7387 C   0  0  0  0  0  0  0  0  0  0  0  0
  150.4106  137.4590  155.1954 S   0  0  0  0  0  0  0  0  0  0  0  0
  150.5680  137.4866  156.6575 O   0  0  0  0  0  0  0  0  0  0  0  0
  151.5976  137.4321  154.3262 O   0  0  0  0  0  0  0  0  0  0  0  0
  149.4494  138.8339  154.7508 N   0  0  0  0  0  0  0  0  0  0  0  0
  148.7255  138.8075  153.4759 C   0  0  0  0  0  0  0  0  0  0  0  0
  148.8378  139.6597  155.8036 C   0  0  0  0  0  0  0  0  0  0  0  0
  148.8465  141.1516  155.4164 C   0  0  1  0  0  0  0  0  0  0  0  0
  148.1807  141.8828  156.4283 O   0  0  0  0  0  0  0  0  0  0  0  0
  150.2808  141.6930  155.2687 C   0  0  0  0  0  0  0  0  0  0  0  0
  151.1634  141.2183  156.3191 N   0  0  0  0  0  0  0  0  0  0  0  0
  151.9304  140.1117  156.2911 C   0  0  0  0  0  0  0  0  0  0  0  0
  152.6706  139.8567  157.3659 N   0  0  0  0  0  0  0  0  0  0  0  0
  152.3467  140.9235  158.1866 C   0  0  0  0  0  0  0  0  0  0  0  0
  152.7944  141.2491  159.4858 C   0  0  0  0  0  0  0  0  0  0  0  0
  152.3250  142.4076  160.1452 C   0  0  0  0  0  0  0  0  0  0  0  0
  152.8317  142.7187  161.5425 C   0  0  0  0  0  0  0  0  0  0  0  0
  151.3939  143.2627  159.5028 C   0  0  0  0  0  0  0  0  0  0  0  0
  150.8784  144.5152  160.1898 C   0  0  0  0  0  0  0  0  0  0  0  0
  150.9346  142.9510  158.2060 C   0  0  0  0  0  0  0  0  0  0  0  0
  151.4074  141.7945  157.5610 C   0  0  0  0  0  0  0  0  0  0  0  0
  149.7736  133.0187  153.0385 H   0  0  0  0  0  0  0  0  0  0  0  0
  148.3926  134.1059  152.9225 H   0  0  0  0  0  0  0  0  0  0  0  0
  148.7522  133.2945  154.4472 H   0  0  0  0  0  0  0  0  0  0  0  0
  150.9105  134.5752  154.6089 H   0  0  0  0  0  0  0  0  0  0  0  0
  150.5537  135.3731  153.0957 H   0  0  0  0  0  0  0  0  0  0  0  0
  148.4856  136.4134  154.1483 H   0  0  0  0  0  0  0  0  0  0  0  0
  148.9092  135.6340  155.6629 H   0  0  0  0  0  0  0  0  0  0  0  0
  148.4977  139.8213  153.1450 H   0  0  0  0  0  0  0  0  0  0  0  0
  147.7927  138.2538  153.5846 H   0  0  0  0  0  0  0  0  0  0  0  0
  149.3241  138.3268  152.7032 H   0  0  0  0  0  0  0  0  0  0  0  0
  147.8224  139.3257  156.0246 H   0  0  0  0  0  0  0  0  0  0  0  0
  149.4073  139.5042  156.7207 H   0  0  0  0  0  0  0  0  0  0  0  0
  148.3193  141.3095  154.4761 H   0  0  0  0  0  0  0  0  0  0  0  0
  148.4664  142.7823  156.3869 H   0  0  0  0  0  0  0  0  0  0  0  0
  150.7009  141.4136  154.3017 H   0  0  0  0  0  0  0  0  0  0  0  0
  150.2747  142.7834  155.3012 H   0  0  0  0  0  0  0  0  0  0  0  0
  151.9465  139.4574  155.4317 H   0  0  0  0  0  0  0  0  0  0  0  0
  153.5053  140.5981  159.9730 H   0  0  0  0  0  0  0  0  0  0  0  0
  153.3749  143.6641  161.5497 H   0  0  0  0  0  0  0  0  0  0  0  0
  153.5062  141.9420  161.9041 H   0  0  0  0  0  0  0  0  0  0  0  0
  152.0000  142.7913  162.2439 H   0  0  0  0  0  0  0  0  0  0  0  0
  150.2098  145.0796  159.5388 H   0  0  0  0  0  0  0  0  0  0  0  0
  151.7058  145.1693  160.4661 H   0  0  0  0  0  0  0  0  0  0  0  0
  150.3258  144.2540  161.0925 H   0  0  0  0  0  0  0  0  0  0  0  0
  150.2259  143.5938  157.7054 H   0  0  0  0  0  0  0  0  0  0  0  0
  1  2  1  0  0  0  0
  1 24  1  0  0  0  0
  1 25  1  0  0  0  0
  1 26  1  0  0  0  0
  2  3  1  0  0  0  0
  2 27  1  0  0  0  0
  2 28  1  0  0  0  0
  3  4  1  0  0  0  0
  3 29  1  0  0  0  0
  3 30  1  0  0  0  0
  4  5  2  0  0  0  0
  4  6  2  0  0  0  0
  4  7  1  0  0  0  0
  7  8  1  0  0  0  0
  7  9  1  0  0  0  0
  8 31  1  0  0  0  0
  8 32  1  0  0  0  0
  8 33  1  0  0  0  0
  9 10  1  0  0  0  0
  9 34  1  0  0  0  0
  9 35  1  0  0  0  0
 10 11  1  0  0  0  0
 10 12  1  0  0  0  0
 10 36  1  0  0  0  0
 11 37  1  0  0  0  0
 12 13  1  0  0  0  0
 12 38  1  0  0  0  0
 12 39  1  0  0  0  0
 13 23  1  0  0  0  0
 13 14  1  0  0  0  0
 14 15  2  0  0  0  0
 14 40  1  0  0  0  0
 15 16  1  0  0  0  0
 16 23  2  0  0  0  0
 16 17  1  0  0  0  0
 17 18  2  0  0  0  0
 17 41  1  0  0  0  0
 18 19  1  0  0  0  0
 18 20  1  0  0  0  0
 19 42  1  0  0  0  0
 19 43  1  0  0  0  0
 19 44  1  0  0  0  0
 20 21  1  0  0  0  0
 20 22  2  0  0  0  0
 21 45  1  0  0  0  0
 21 46  1  0  0  0  0
 21 47  1  0  0  0  0
 22 23  1  0  0  0  0
 22 48  1  0  0  0  0
M  END
> <s_m_source_file>
AV-unprocessed.smi

> <i_m_source_file_index>
2825

> <i_lp_mmshare_version>
43012

> <i_f3d_flags>
0

> <s_epik_input>
W0NIM11bQ0gyXVtDSDJdUyg9TykoPU8pTihbQ0gzXSlbQ0gyXVtDQEhdKFtPSF0pW0NIMl1uKFtjSF1uMSljKGMxMilbY0hdYyhbQ0gzXSljKFtjSF0yKVtDSDNd

> <s_epik_cmdline>
J2VwaWtfcHl0aG9uJywgJy1waCcsICc3LjAnLCAnLXRuJywgJzgnLCAnLW1hJywgJzIwMCcsICctbWV0YWxfYmluZGluZycsICctaW1hZScsICc8aW5maWxlLm1hZT4nLCAnLW9tYWUnLCAnPG91dGZpbGUubWFlPic=

> <r_epik_Ionization_Penalty>
0.104931

> <r_epik_Ionization_Penalty_Charging>
0

> <r_epik_Ionization_Penalty_Neutral>
0.104931

> <r_epik_State_Penalty>
0.0948201

> <r_epik_Charging_Adjusted_Penalty>
0.0948201

> <i_epik_Tot_Q>
0

> <i_epik_Tot_abs_Q>
0

> <r_epik_Metal_State_Penalty>
0.00010282

> <b_epik_Metal_Only>
0

> <s_lp_Force_Field>
OPLS_2005

> <r_lp_Energy>
7.6372

> <b_lp_Chiralities_Consistent>
1

> <s_lp_Variant>
AV-unprocessed.smi:2825-2

> <Gold.Version>
5.8.1

> <Gold.Id.Protein>
6NUR|6NUR_protein|mol2

> <Gold.PLP.Fitness>
46.3370

> <Gold.PLP.PLP>
-40.3255

> <Gold.PLP.part.hbond>
-2.6332

> <Gold.PLP.part.metal>
0.0000

> <Gold.PLP.part.buried>
-2.7768

> <Gold.PLP.part.nonpolar>
-33.6807

> <Gold.PLP.part.repulsive>
0.1265

> <Gold.PLP.ligand.clash>
0.0000

> <Gold.PLP.ligand.torsion>
2.0574

> <Gold.PLP.Chemscore.Hbond>
2.5363

> <Gold.PLP.Chemscore.CHOScore>
0.0000

> <Gold.PLP.Chemscore.Metal>
0.0000

> <Gold.Chemscore.Hbonds>
donor molecule, donor type, donor heavy atom, donor atom, acceptor molecule, acceptor atom, score
      L1  H    11    37       P1  8028  0.81
      P1  H  7997  8010       L1    15  1.00
      P1  H 10752 10763       L1     6  0.52

> <Gold.PLP.Chemscore.Internal.Correction>
2.5176

> <Gold.Rescore>
     Score         DG    S(hbond)    S(metal)    S(lipo)     H(rot)  DE(clash)    DE(int)     intcor
     16.13     -18.77       2.07        0.00     107.77       2.43       0.31       2.34       ----

> <Gold.Chemscore.Fitness>
16.1285

> <Gold.Chemscore.DG>
-18.7724

> <Gold.Chemscore.ZeroCoef>
-5.4800

> <Gold.Chemscore.Hbond>
2.0696

> <Gold.Chemscore.Metal>
0.0000

> <Gold.Chemscore.Lipo>
107.7678

> <Gold.Chemscore.Internal_Hbond>
0.0000

> <Gold.Chemscore.DEClash>
0.3052

> <Gold.Chemscore.DEInternal>
2.3387

> <Gold.Chemscore.Rot>
2.4332

> <Gold.Chemscore.Internal.Correction>
   9.000000E+99

> <Gold.Chemscore.Hbonds>
donor molecule, donor type, donor heavy atom, donor atom, acceptor molecule, acceptor atom, score
      L1  H    11    37       P1  8028  0.73
      P1  H  7997  8010       L1    15  0.28
      P1  H 10752 10763       L1     6  0.50

> <Gold.Chemscore.Hbond.Weighted>
-6.9125

> <Gold.Chemscore.Metal.Weighted>
-0.0000

> <Gold.Chemscore.Lipo.Weighted>
-12.6088

> <Gold.Chemscore.Internal_Hbond.Weighted>
0.0000

> <Gold.Chemscore.DEClash.Weighted>
0.3052

> <Gold.Chemscore.DEInternal.Weighted>
2.3387

> <Gold.Chemscore.Rot.Weighted>
6.2289

> <Gold.Chemscore.Internal.Correction.Weighted>
   9.000000E+99

> <Gold.Protein.RotatedTorsions>
[ 6907 6896 6895 6894 ] final  -89.72 input  -60.11 | X-H torsion
[ 7974 7965 7964 7962 ] final -121.83 input  175.53 | X-H torsion
[ 8008 7997 7996 7995 ] final   53.11 input   59.86 | X-H torsion
[ 10167 10162 10161 10158 ] final  -23.13 input  -65.29 | X-H torsion
[ 10718 10713 10712 10709 ] final  -52.17 input   66.30 | X-H torsion
[ 10763 10752 10751 10750 ] final   41.59 input  -60.55 | X-H torsion
[ 11005 11000 10999 10996 ] final   15.38 input  -57.11 | X-H torsion

> <Gold.Protein.ActiveResidues>
 VAL166  LYS551  ARG553  GLY616  TRP617  ASP618  TYR619  PRO620  LYS621  CYS622 
 ASP623  PHE694  ASN695  SER759  ASP760  ASP761  ALA762  ILE779  LEU786  VAL792 
 PHE793  MET794  SER795  GLU796  ALA797  LYS798  CYS799  TRP800  GLU811  SER814 

> <Gold.Protein.RotatedAtoms>
  150.6876  134.2544  159.4523 H   0  0  0  0  0  0  0  0  0  0  0  0  # atno 6907 bound_to 6896
  152.0479  134.9669  160.0584 H   0  0  0  0  0  0  0  0  0  0  0  0  # atno 6908 bound_to 6896
  152.1145  133.4284  159.4683 H   0  0  0  0  0  0  0  0  0  0  0  0  # atno 6909 bound_to 6896
  145.0361  140.8107  143.4294 H   0  0  0  0  0  0  0  0  0  0  0  0  # atno 7974 bound_to 7965
  155.4628  140.3462  155.4315 H   0  0  0  0  0  0  0  0  0  0  0  0  # atno 8008 bound_to 7997
  156.1150  140.1471  156.9315 H   0  0  0  0  0  0  0  0  0  0  0  0  # atno 8009 bound_to 7997
  154.4783  140.0878  156.7294 H   0  0  0  0  0  0  0  0  0  0  0  0  # atno 8010 bound_to 7997
  140.7287  143.4472  151.0570 H   0  0  0  0  0  0  0  0  0  0  0  0  # atno 10167 bound_to 10162
  156.1645  130.4149  149.9741 H   0  0  0  0  0  0  0  0  0  0  0  0  # atno 10718 bound_to 10713
  152.9904  135.6157  154.2811 H   0  0  0  0  0  0  0  0  0  0  0  0  # atno 10763 bound_to 10752
  154.2541  135.2784  155.2806 H   0  0  0  0  0  0  0  0  0  0  0  0  # atno 10764 bound_to 10752
  154.5263  135.5800  153.6779 H   0  0  0  0  0  0  0  0  0  0  0  0  # atno 10765 bound_to 10752
  140.4589  134.1147  155.7713 H   0  0  0  0  0  0  0  0  0  0  0  0  # atno 11005 bound_to 11000
  145.1708  139.2405  143.5343 LP  0  0  0  0  0  0  0  0  0  0  0  0  # atno 17320 bound_to 7965
  146.3504  140.1458  142.8593 LP  0  0  0  0  0  0  0  0  0  0  0  0  # atno 17321 bound_to 7965
  139.8144  143.7906  152.3173 LP  0  0  0  0  0  0  0  0  0  0  0  0  # atno 17342 bound_to 10162
  139.7967  144.7390  150.9881 LP  0  0  0  0  0  0  0  0  0  0  0  0  # atno 17343 bound_to 10162
  156.7560  130.9133  151.3639 LP  0  0  0  0  0  0  0  0  0  0  0  0  # atno 17370 bound_to 10713
  157.6757  130.9093  150.0146 LP  0  0  0  0  0  0  0  0  0  0  0  0  # atno 17371 bound_to 10713
  141.1630  133.8756  157.1794 LP  0  0  0  0  0  0  0  0  0  0  0  0  # atno 17394 bound_to 11000
  139.9958  135.0047  157.0079 LP  0  0  0  0  0  0  0  0  0  0  0  0  # atno 17395 bound_to 11000

$$$$
