AV-unprocessed.smi:2671|AV-procd|sdf|10348|dock1
  -GOLD-   2272014373D 1   1.00000     0.00000
 Structure written by MMmdl.
 29 30  0  0  0  0  0  0  0  0  1 V2000
  148.6020  141.7010  153.8327 O   0  0  0  0  0  0  0  0  0  0  0  0
  149.4575  141.2989  154.6177 C   0  0  0  0  0  0  0  0  0  0  0  0
  150.0391  139.9578  154.5801 C   0  0  0  0  0  0  0  0  0  0  0  0
  150.9829  139.5918  155.4814 C   0  0  0  0  0  0  0  0  0  0  0  0
  151.5951  138.2005  155.4611 C   0  0  0  0  0  0  0  0  0  0  0  0
  150.6558  137.2792  155.6750 F   0  0  0  0  0  0  0  0  0  0  0  0
  152.1494  137.9594  154.2732 F   0  0  0  0  0  0  0  0  0  0  0  0
  152.5358  138.0632  156.3970 F   0  0  0  0  0  0  0  0  0  0  0  0
  151.4149  140.4902  156.4687 N   0  0  0  0  0  0  0  0  0  0  0  0
  150.9127  141.6844  156.5234 C   0  0  0  0  0  0  0  0  0  0  0  0
  151.2845  143.0334  157.6803 S   0  0  0  0  0  0  0  0  0  0  0  0
  152.5457  142.2604  158.7336 C   0  0  0  0  0  0  0  0  0  0  0  0
  152.2646  142.4863  160.2254 C   0  0  2  0  0  0  0  0  0  0  0  0
  152.5050  143.9173  160.7082 C   0  0  0  0  0  0  0  0  0  0  0  0
  152.7711  143.6996  162.1796 C   0  0  0  0  0  0  0  0  0  0  0  0
  153.5823  142.4080  162.1593 C   0  0  0  0  0  0  0  0  0  0  0  0
  153.1361  141.6817  161.0163 O   0  0  0  0  0  0  0  0  0  0  0  0
  149.9390  142.0898  155.6039 N   0  0  0  0  0  0  0  0  0  0  0  0
  149.5693  143.0265  155.6749 H   0  0  0  0  0  0  0  0  0  0  0  0
  149.7112  139.2564  153.8268 H   0  0  0  0  0  0  0  0  0  0  0  0
  153.5283  142.6531  158.4696 H   0  0  0  0  0  0  0  0  0  0  0  0
  152.5623  141.1906  158.5227 H   0  0  0  0  0  0  0  0  0  0  0  0
  151.2418  142.1900  160.4636 H   0  0  0  0  0  0  0  0  0  0  0  0
  153.3872  144.3445  160.2289 H   0  0  0  0  0  0  0  0  0  0  0  0
  151.6588  144.5790  160.5208 H   0  0  0  0  0  0  0  0  0  0  0  0
  153.2998  144.5292  162.6498 H   0  0  0  0  0  0  0  0  0  0  0  0
  151.8309  143.5462  162.7108 H   0  0  0  0  0  0  0  0  0  0  0  0
  154.6437  142.6267  162.0360 H   0  0  0  0  0  0  0  0  0  0  0  0
  153.4608  141.8271  163.0738 H   0  0  0  0  0  0  0  0  0  0  0  0
  1  2  2  0  0  0  0
  2 18  1  0  0  0  0
  2  3  1  0  0  0  0
  3 20  1  0  0  0  0
  3  4  2  0  0  0  0
  4  5  1  0  0  0  0
  4  9  1  0  0  0  0
  5  6  1  0  0  0  0
  5  7  1  0  0  0  0
  5  8  1  0  0  0  0
  9 10  2  0  0  0  0
 10 11  1  0  0  0  0
 10 18  1  0  0  0  0
 11 12  1  0  0  0  0
 12 13  1  0  0  0  0
 12 21  1  0  0  0  0
 12 22  1  0  0  0  0
 13 17  1  0  0  0  0
 13 14  1  0  0  0  0
 13 23  1  0  0  0  0
 14 15  1  0  0  0  0
 14 24  1  0  0  0  0
 14 25  1  0  0  0  0
 15 16  1  0  0  0  0
 15 26  1  0  0  0  0
 15 27  1  0  0  0  0
 16 17  1  0  0  0  0
 16 28  1  0  0  0  0
 16 29  1  0  0  0  0
 18 19  1  0  0  0  0
M  END
> <s_m_source_file>
AV-unprocessed.smi

> <i_m_source_file_index>
2671

> <i_lp_mmshare_version>
43012

> <i_f3d_flags>
0

> <s_epik_input>
W09IXWMxW2NIXWMoQyhGKShGKUYpbmMobjEpU1tDSDJdW0NAQEhdMltDSDJdW0NIMl1bQ0gyXU8y

> <s_epik_cmdline>
J2VwaWtfcHl0aG9uJywgJy1waCcsICc3LjAnLCAnLXRuJywgJzgnLCAnLW1hJywgJzIwMCcsICctbWV0YWxfYmluZGluZycsICctaW1hZScsICc8aW5maWxlLm1hZT4nLCAnLW9tYWUnLCAnPG91dGZpbGUubWFlPic=

> <r_lp_tautomer_probability>
0.660323

> <r_epik_Ionization_Penalty>
0.14469

> <r_epik_Ionization_Penalty_Charging>
0.14469

> <r_epik_Ionization_Penalty_Neutral>
3.1007e-10

> <r_epik_State_Penalty>
0.804349

> <r_epik_Charging_Adjusted_Penalty>
0.949039

> <i_epik_Tot_Q>
0

> <i_epik_Tot_abs_Q>
0

> <r_epik_Metal_State_Penalty>
1.52783

> <b_epik_Metal_Only>
0

> <s_lp_Force_Field>
OPLS_2005

> <r_lp_Energy>
21.2239

> <b_lp_Chiralities_Consistent>
1

> <s_lp_Variant>
AV-unprocessed.smi:2671-3

> <Gold.Version>
5.8.1

> <Gold.Id.Protein>
6NUR|6NUR_protein|mol2

> <Gold.PLP.Fitness>
44.8136

> <Gold.PLP.PLP>
-40.8384

> <Gold.PLP.part.hbond>
-2.0000

> <Gold.PLP.part.metal>
0.0000

> <Gold.PLP.part.buried>
-3.0604

> <Gold.PLP.part.nonpolar>
-34.4270

> <Gold.PLP.part.repulsive>
0.3520

> <Gold.PLP.ligand.clash>
0.0000

> <Gold.PLP.ligand.torsion>
0.4164

> <Gold.PLP.Chemscore.Hbond>
1.5920

> <Gold.PLP.Chemscore.CHOScore>
0.0000

> <Gold.PLP.Chemscore.Metal>
0.0000

> <Gold.Chemscore.Hbonds>
donor molecule, donor type, donor heavy atom, donor atom, acceptor molecule, acceptor atom, score
      L1  H    18    19       P1  8028  1.00
      P1  H  8011  8017       L1     1  0.58

> <Gold.PLP.Chemscore.Internal.Correction>
0.0320

> <Gold.Rescore>
     Score         DG    S(hbond)    S(metal)    S(lipo)     H(rot)  DE(clash)    DE(int)     intcor
     15.04     -15.50       1.32        0.00      84.91       1.69       0.04       0.43       ----

> <Gold.Chemscore.Fitness>
15.0373

> <Gold.Chemscore.DG>
-15.5029

> <Gold.Chemscore.ZeroCoef>
-5.4800

> <Gold.Chemscore.Hbond>
1.3235

> <Gold.Chemscore.Metal>
0.0000

> <Gold.Chemscore.Lipo>
84.9135

> <Gold.Chemscore.Internal_Hbond>
0.0000

> <Gold.Chemscore.DEClash>
0.0359

> <Gold.Chemscore.DEInternal>
0.4297

> <Gold.Chemscore.Rot>
1.6924

> <Gold.Chemscore.Internal.Correction>
   9.000000E+99

> <Gold.Chemscore.Hbonds>
donor molecule, donor type, donor heavy atom, donor atom, acceptor molecule, acceptor atom, score
      L1  H    18    19       P1  8028  1.00
      P1  H  8011  8017       L1     1  0.16

> <Gold.Chemscore.Hbond.Weighted>
-4.4204

> <Gold.Chemscore.Metal.Weighted>
-0.0000

> <Gold.Chemscore.Lipo.Weighted>
-9.9349

> <Gold.Chemscore.Internal_Hbond.Weighted>
0.0000

> <Gold.Chemscore.DEClash.Weighted>
0.0359

> <Gold.Chemscore.DEInternal.Weighted>
0.4297

> <Gold.Chemscore.Rot.Weighted>
4.3324

> <Gold.Chemscore.Internal.Correction.Weighted>
   9.000000E+99

> <Gold.Protein.RotatedTorsions>
[ 6907 6896 6895 6894 ] final  -36.93 input  -60.11 | X-H torsion
[ 7974 7965 7964 7962 ] final -120.25 input  175.53 | X-H torsion
[ 8008 7997 7996 7995 ] final -168.41 input   59.86 | X-H torsion
[ 10167 10162 10161 10158 ] final  168.03 input  -65.29 | X-H torsion
[ 10718 10713 10712 10709 ] final   72.83 input   66.30 | X-H torsion
[ 10763 10752 10751 10750 ] final  -11.90 input  -60.55 | X-H torsion
[ 11005 11000 10999 10996 ] final  -67.90 input  -57.11 | X-H torsion

> <Gold.Protein.ActiveResidues>
 VAL166  LYS551  ARG553  GLY616  TRP617  ASP618  TYR619  PRO620  LYS621  CYS622 
 ASP623  PHE694  ASN695  SER759  ASP760  ASP761  ALA762  ILE779  LEU786  VAL792 
 PHE793  MET794  SER795  GLU796  ALA797  LYS798  CYS799  TRP800  GLU811  SER814 

> <Gold.Protein.RotatedAtoms>
  151.0210  134.9469  159.8059 H   0  0  0  0  0  0  0  0  0  0  0  0  # atno 6907 bound_to 6896
  152.5325  134.2903  159.9050 H   0  0  0  0  0  0  0  0  0  0  0  0  # atno 6908 bound_to 6896
  151.2911  133.4123  159.2667 H   0  0  0  0  0  0  0  0  0  0  0  0  # atno 6909 bound_to 6896
  145.0534  140.8236  143.4195 H   0  0  0  0  0  0  0  0  0  0  0  0  # atno 7974 bound_to 7965
  155.8910  140.1025  157.1419 H   0  0  0  0  0  0  0  0  0  0  0  0  # atno 8008 bound_to 7997
  154.4015  140.1311  156.4379 H   0  0  0  0  0  0  0  0  0  0  0  0  # atno 8009 bound_to 7997
  155.7534  140.3464  155.5164 H   0  0  0  0  0  0  0  0  0  0  0  0  # atno 8010 bound_to 7997
  139.4958  144.3858  151.9572 H   0  0  0  0  0  0  0  0  0  0  0  0  # atno 10167 bound_to 10162
  157.6519  130.9598  150.0983 H   0  0  0  0  0  0  0  0  0  0  0  0  # atno 10718 bound_to 10713
  153.4905  135.7017  153.5887 H   0  0  0  0  0  0  0  0  0  0  0  0  # atno 10763 bound_to 10752
  153.4061  135.3860  155.2020 H   0  0  0  0  0  0  0  0  0  0  0  0  # atno 10764 bound_to 10752
  154.8717  135.3893  154.4365 H   0  0  0  0  0  0  0  0  0  0  0  0  # atno 10765 bound_to 10752
  141.1519  133.6729  156.6364 H   0  0  0  0  0  0  0  0  0  0  0  0  # atno 11005 bound_to 11000
  145.1499  139.2521  143.5446 LP  0  0  0  0  0  0  0  0  0  0  0  0  # atno 17320 bound_to 7965
  146.3519  140.1198  142.8600 LP  0  0  0  0  0  0  0  0  0  0  0  0  # atno 17321 bound_to 7965
  140.3295  144.3333  150.5990 LP  0  0  0  0  0  0  0  0  0  0  0  0  # atno 17342 bound_to 10162
  140.5656  143.2186  151.7688 LP  0  0  0  0  0  0  0  0  0  0  0  0  # atno 17343 bound_to 10162
  156.1913  130.3655  149.8906 LP  0  0  0  0  0  0  0  0  0  0  0  0  # atno 17370 bound_to 10713
  156.6834  130.8867  151.3579 LP  0  0  0  0  0  0  0  0  0  0  0  0  # atno 17371 bound_to 10713
  140.3427  134.7835  157.4409 LP  0  0  0  0  0  0  0  0  0  0  0  0  # atno 17394 bound_to 11000
  140.0925  134.5582  155.8430 LP  0  0  0  0  0  0  0  0  0  0  0  0  # atno 17395 bound_to 11000

$$$$
