AV-unprocessed.smi:2165|AV-procd|sdf|8813|dock3
  -GOLD-   2272012 03D 1   1.00000     0.00000
 Structure written by MMmdl.
 36 37  0  0  0  0  0  0  0  0  1 V2000
  153.2989  141.9059  160.9328 C   0  0  0  0  0  0  0  0  0  0  0  0
  152.5122  142.7729  160.0808 N   0  0  0  0  0  0  0  0  0  0  0  0
  152.1091  144.0398  160.5683 C   0  0  0  0  0  0  0  0  0  0  0  0
  152.4034  144.4437  161.6937 O   0  0  0  0  0  0  0  0  0  0  0  0
  151.3134  144.8214  159.6292 C   0  0  0  0  0  0  0  0  0  0  0  0
  151.0047  144.3350  158.4073 C   0  0  0  0  0  0  0  0  0  0  0  0
  151.4063  143.0901  157.9584 N   0  0  0  0  0  0  0  0  0  0  0  0
  151.0107  142.6354  156.6193 C   0  0  0  0  0  0  0  0  0  0  0  0
  150.0253  141.4594  156.6525 C   0  0  0  0  0  0  0  0  0  0  0  0
  150.3893  140.3433  157.0263 O   0  0  0  0  0  0  0  0  0  0  0  0
  148.7690  141.7330  156.2708 N   0  0  0  0  0  0  0  0  0  0  0  0
  147.6830  140.7622  156.2052 C   0  0  0  0  0  0  0  0  0  0  0  0
  146.4270  141.3644  155.5536 C   0  0  1  0  0  0  0  0  0  0  0  0
  145.8470  142.5520  156.3192 C   0  0  0  0  0  0  0  0  0  0  0  0
  145.0993  143.2808  155.2269 C   0  0  0  0  0  0  0  0  0  0  0  0
  146.0392  143.1061  154.0377 C   0  0  0  0  0  0  0  0  0  0  0  0
  146.7298  141.8785  154.2584 O   0  0  0  0  0  0  0  0  0  0  0  0
  152.1807  142.2678  158.8045 C   0  0  0  0  0  0  0  0  0  0  0  0
  152.5461  141.1490  158.4340 O   0  0  0  0  0  0  0  0  0  0  0  0
  153.6076  142.4184  161.8434 H   0  0  0  0  0  0  0  0  0  0  0  0
  154.1863  141.6091  160.3708 H   0  0  0  0  0  0  0  0  0  0  0  0
  152.6740  141.0446  161.1746 H   0  0  0  0  0  0  0  0  0  0  0  0
  150.9640  145.8021  159.9177 H   0  0  0  0  0  0  0  0  0  0  0  0
  150.4084  144.9515  157.7504 H   0  0  0  0  0  0  0  0  0  0  0  0
  150.5438  143.4540  156.0702 H   0  0  0  0  0  0  0  0  0  0  0  0
  151.8963  142.3604  156.0432 H   0  0  0  0  0  0  0  0  0  0  0  0
  148.5553  142.6759  155.9795 H   0  0  0  0  0  0  0  0  0  0  0  0
  148.0091  139.8784  155.6545 H   0  0  0  0  0  0  0  0  0  0  0  0
  147.4562  140.4294  157.2185 H   0  0  0  0  0  0  0  0  0  0  0  0
  145.6503  140.6061  155.4413 H   0  0  0  0  0  0  0  0  0  0  0  0
  145.2073  142.2512  157.1492 H   0  0  0  0  0  0  0  0  0  0  0  0
  146.6436  143.1859  156.7116 H   0  0  0  0  0  0  0  0  0  0  0  0
  144.1472  142.7855  155.0307 H   0  0  0  0  0  0  0  0  0  0  0  0
  144.8998  144.3261  155.4643 H   0  0  0  0  0  0  0  0  0  0  0  0
  145.5072  143.0986  153.0863 H   0  0  0  0  0  0  0  0  0  0  0  0
  146.7721  143.9131  154.0094 H   0  0  0  0  0  0  0  0  0  0  0  0
  1  2  1  0  0  0  0
  1 20  1  0  0  0  0
  1 21  1  0  0  0  0
  1 22  1  0  0  0  0
  2 18  1  0  0  0  0
  2  3  1  0  0  0  0
  3  4  2  0  0  0  0
  3  5  1  0  0  0  0
  5  6  2  0  0  0  0
  5 23  1  0  0  0  0
  6  7  1  0  0  0  0
  6 24  1  0  0  0  0
  7  8  1  0  0  0  0
  7 18  1  0  0  0  0
  8  9  1  0  0  0  0
  8 25  1  0  0  0  0
  8 26  1  0  0  0  0
  9 10  2  0  0  0  0
  9 11  1  0  0  0  0
 11 12  1  0  0  0  0
 11 27  1  0  0  0  0
 12 13  1  0  0  0  0
 12 28  1  0  0  0  0
 12 29  1  0  0  0  0
 13 17  1  0  0  0  0
 13 14  1  0  0  0  0
 13 30  1  0  0  0  0
 14 15  1  0  0  0  0
 14 31  1  0  0  0  0
 14 32  1  0  0  0  0
 15 16  1  0  0  0  0
 15 33  1  0  0  0  0
 15 34  1  0  0  0  0
 16 17  1  0  0  0  0
 16 35  1  0  0  0  0
 16 36  1  0  0  0  0
 18 19  2  0  0  0  0
M  END
> <s_m_source_file>
AV-unprocessed.smi

> <i_m_source_file_index>
2165

> <i_lp_mmshare_version>
43012

> <i_f3d_flags>
0

> <s_epik_input>
W0NIM11uMWMoPU8pW2NIXVtjSF1uKGMxPU8pW0NIMl1DKD1PKVtOSF1bQ0gyXVtDQEBIXTJbQ0gyXVtDSDJdW0NIMl1PMg==

> <s_epik_cmdline>
J2VwaWtfcHl0aG9uJywgJy1waCcsICc3LjAnLCAnLXRuJywgJzgnLCAnLW1hJywgJzIwMCcsICctbWV0YWxfYmluZGluZycsICctaW1hZScsICc8aW5maWxlLm1hZT4nLCAnLW9tYWUnLCAnPG91dGZpbGUubWFlPic=

> <r_lp_tautomer_probability>
1

> <r_epik_Ionization_Penalty>
3.89869e-08

> <r_epik_Ionization_Penalty_Charging>
1.21279e-08

> <r_epik_Ionization_Penalty_Neutral>
2.6859e-08

> <r_epik_State_Penalty>
-0

> <r_epik_Charging_Adjusted_Penalty>
1.21279e-08

> <i_epik_Tot_Q>
0

> <i_epik_Tot_abs_Q>
0

> <r_epik_Metal_State_Penalty>
-0

> <b_epik_Metal_Only>
0

> <s_lp_Force_Field>
OPLS_2005

> <r_lp_Energy>
24.234

> <b_lp_Chiralities_Consistent>
1

> <s_lp_Variant>
AV-unprocessed.smi:2165-2

> <Gold.Version>
5.8.1

> <Gold.Id.Protein>
6NUR|6NUR_protein|mol2

> <Gold.PLP.Fitness>
42.3613

> <Gold.PLP.PLP>
-37.0035

> <Gold.PLP.part.hbond>
-1.0000

> <Gold.PLP.part.metal>
0.0000

> <Gold.PLP.part.buried>
-5.1287

> <Gold.PLP.part.nonpolar>
-32.2061

> <Gold.PLP.part.repulsive>
1.2825

> <Gold.PLP.ligand.clash>
0.0000

> <Gold.PLP.ligand.torsion>
0.1799

> <Gold.PLP.Chemscore.Hbond>
1.0000

> <Gold.PLP.Chemscore.CHOScore>
0.9023

> <Gold.PLP.Chemscore.Metal>
0.0000

> <Gold.Chemscore.Hbonds>
donor molecule, donor type, donor heavy atom, donor atom, acceptor molecule, acceptor atom, score
      L1  H    11    27       P1  8028  0.86
      L1  C     6    24       P1  8028  0.71
      L1  C     6    24       P1  8029  0.19

> <Gold.PLP.Chemscore.Internal.Correction>
0.0107

> <Gold.Rescore>
     Score         DG    S(hbond)    S(metal)    S(lipo)     H(rot)  DE(clash)    DE(int)     intcor
      9.25     -11.50       0.97        0.00      64.77       1.87       0.56       1.69       ----

> <Gold.Chemscore.Fitness>
9.2546

> <Gold.Chemscore.DG>
-11.5041

> <Gold.Chemscore.ZeroCoef>
-5.4800

> <Gold.Chemscore.Hbond>
0.9667

> <Gold.Chemscore.Metal>
0.0000

> <Gold.Chemscore.Lipo>
64.7658

> <Gold.Chemscore.Internal_Hbond>
0.0000

> <Gold.Chemscore.DEClash>
0.5577

> <Gold.Chemscore.DEInternal>
1.6919

> <Gold.Chemscore.Rot>
1.8681

> <Gold.Chemscore.Internal.Correction>
   9.000000E+99

> <Gold.Chemscore.Hbonds>
donor molecule, donor type, donor heavy atom, donor atom, acceptor molecule, acceptor atom, score
      L1  H    11    27       P1  8028  0.83

> <Gold.Chemscore.Hbond.Weighted>
-3.2288

> <Gold.Chemscore.Metal.Weighted>
-0.0000

> <Gold.Chemscore.Lipo.Weighted>
-7.5776

> <Gold.Chemscore.Internal_Hbond.Weighted>
0.0000

> <Gold.Chemscore.DEClash.Weighted>
0.5577

> <Gold.Chemscore.DEInternal.Weighted>
1.6919

> <Gold.Chemscore.Rot.Weighted>
4.7822

> <Gold.Chemscore.Internal.Correction.Weighted>
   9.000000E+99

> <Gold.Protein.RotatedTorsions>
[ 6907 6896 6895 6894 ] final -178.24 input  -60.11 | X-H torsion
[ 7974 7965 7964 7962 ] final   31.88 input  175.53 | X-H torsion
[ 8008 7997 7996 7995 ] final -134.86 input   59.86 | X-H torsion
[ 10167 10162 10161 10158 ] final   43.24 input  -65.29 | X-H torsion
[ 10718 10713 10712 10709 ] final -100.62 input   66.30 | X-H torsion
[ 10763 10752 10751 10750 ] final -101.08 input  -60.55 | X-H torsion
[ 11005 11000 10999 10996 ] final  -75.59 input  -57.11 | X-H torsion

> <Gold.Protein.ActiveResidues>
 VAL166  LYS551  ARG553  GLY616  TRP617  ASP618  TYR619  PRO620  LYS621  CYS622 
 ASP623  PHE694  ASN695  SER759  ASP760  ASP761  ALA762  ILE779  LEU786  VAL792 
 PHE793  MET794  SER795  GLU796  ALA797  LYS798  CYS799  TRP800  GLU811  SER814 

> <Gold.Protein.RotatedAtoms>
  151.6339  133.3330  159.3114 H   0  0  0  0  0  0  0  0  0  0  0  0  # atno 6907 bound_to 6896
  150.8042  134.7160  159.6640 H   0  0  0  0  0  0  0  0  0  0  0  0  # atno 6908 bound_to 6896
  152.4136  134.6085  160.0070 H   0  0  0  0  0  0  0  0  0  0  0  0  # atno 6909 bound_to 6896
  146.1522  139.6599  142.9091 H   0  0  0  0  0  0  0  0  0  0  0  0  # atno 7974 bound_to 7965
  155.3691  140.0487  157.3045 H   0  0  0  0  0  0  0  0  0  0  0  0  # atno 8008 bound_to 7997
  154.5139  140.2201  155.9066 H   0  0  0  0  0  0  0  0  0  0  0  0  # atno 8009 bound_to 7997
  156.1614  140.3115  155.8819 H   0  0  0  0  0  0  0  0  0  0  0  0  # atno 8010 bound_to 7997
  140.3463  144.2406  150.6150 H   0  0  0  0  0  0  0  0  0  0  0  0  # atno 10167 bound_to 10162
  156.0168  130.5336  150.6843 H   0  0  0  0  0  0  0  0  0  0  0  0  # atno 10718 bound_to 10713
  154.7630  135.4911  153.9500 H   0  0  0  0  0  0  0  0  0  0  0  0  # atno 10763 bound_to 10752
  153.1273  135.6745  153.9243 H   0  0  0  0  0  0  0  0  0  0  0  0  # atno 10764 bound_to 10752
  153.8957  135.3115  155.3427 H   0  0  0  0  0  0  0  0  0  0  0  0  # atno 10765 bound_to 10752
  141.1647  133.6952  156.7540 H   0  0  0  0  0  0  0  0  0  0  0  0  # atno 11005 bound_to 11000
  145.4795  141.0437  143.2653 LP  0  0  0  0  0  0  0  0  0  0  0  0  # atno 17320 bound_to 7965
  144.7918  139.6313  143.7110 LP  0  0  0  0  0  0  0  0  0  0  0  0  # atno 17321 bound_to 7965
  140.5261  143.2254  151.8312 LP  0  0  0  0  0  0  0  0  0  0  0  0  # atno 17342 bound_to 10162
  139.4833  144.4778  151.9345 LP  0  0  0  0  0  0  0  0  0  0  0  0  # atno 17343 bound_to 10162
  157.4539  131.0875  151.0817 LP  0  0  0  0  0  0  0  0  0  0  0  0  # atno 17370 bound_to 10713
  157.1325  130.6108  149.5533 LP  0  0  0  0  0  0  0  0  0  0  0  0  # atno 17371 bound_to 10713
  140.2583  134.8487  157.3734 LP  0  0  0  0  0  0  0  0  0  0  0  0  # atno 17394 bound_to 11000
  140.1636  134.4698  155.7878 LP  0  0  0  0  0  0  0  0  0  0  0  0  # atno 17395 bound_to 11000

$$$$
