#       Name:                AV-unprocessed.smi:1868
#       Creating user name   scv26
#       Creation time:       Fri Mar 27 09:30:19 2020


#       File generated by GOLD software.
#

@<TRIPOS>MOLECULE
AV-unprocessed.smi:1868
    50    52     1
SMALL
NO_CHARGES


@<TRIPOS>ATOM
      1 ****        -3.2745  -0.2891  -3.4477 C.3            1 S1                 0.0000
      2 ****        -3.3275   0.6970  -2.3295 C.2            1 S1                 0.0000
      3 ****        -3.9458   1.9111  -2.3618 N.pl3          1 S1                 1.0000
      4 ****        -3.7890   2.5541  -1.1330 C.ar           1 S1                 0.0000
      5 ****        -4.2371   3.7945  -0.6891 C.ar           1 S1                 0.0000
      6 ****        -3.9023   4.1520   0.6334 C.ar           1 S1                 0.0000
      7 ****        -3.1511   3.2905   1.4594 C.ar           1 S1                 0.0000
      8 ****        -2.7020   2.0351   0.9983 C.ar           1 S1                 0.0000
      9 ****        -3.0371   1.6900  -0.3107 C.ar           1 S1                 0.0000
     10 ****        -2.7719   0.5590  -1.0910 N.pl3          1 S1                 0.0000
     11 ****        -1.9925  -0.5474  -0.5135 C.3            1 S1                 0.0000
     12 ****        -0.4717  -0.2901  -0.5323 C.3            1 S1                 0.0000
     13 ****        -0.0558  -0.0841  -1.8691 O.3            1 S1                 0.0000
     14 ****         0.3057  -1.4825   0.0634 C.3            1 S1                 0.0000
     15 ****         1.7653  -1.2310   0.1910 N.4            1 S1                 1.0000
     16 ****         2.5433  -2.4958   0.2480 C.3            1 S1                 0.0000
     17 ****         4.0587  -2.2252   0.2456 C.3            1 S1                 0.0000
     18 ****         4.4839  -1.2777   1.3816 C.3            1 S1                 0.0000
     19 ****         4.4692  -1.9573   2.7624 C.3            1 S1                 0.0000
     20 ****         3.6182  -0.0058   1.3353 C.3            1 S1                 0.0000
     21 ****         2.1126  -0.3259   1.3196 C.3            1 S1                 0.0000
     22 ****        -3.8006   0.0941  -4.3224 H              1 S1                 0.0000
     23 ****        -3.7418  -1.2265  -3.1455 H              1 S1                 0.0000
     24 ****        -2.2399  -0.4883  -3.7265 H              1 S1                 0.0000
     25 ****        -4.8135   4.4558  -1.3195 H              1 S1                 0.0000
     26 ****        -4.2291   5.1057   1.0222 H              1 S1                 0.0000
     27 ****        -2.9154   3.5994   2.4676 H              1 S1                 0.0000
     28 ****        -2.1284   1.3826   1.6393 H              1 S1                 0.0000
     29 ****        -2.3464  -0.7210   0.5035 H              1 S1                 0.0000
     30 ****        -2.2311  -1.4504  -1.0770 H              1 S1                 0.0000
     31 ****        -0.2698   0.6207   0.0292 H              1 S1                 0.0000
     32 ****         0.8384   0.2210  -1.8707 H              1 S1                 0.0000
     33 ****        -0.0946  -1.7459   1.0436 H              1 S1                 0.0000
     34 ****         0.1374  -2.3519  -0.5741 H              1 S1                 0.0000
     35 ****         2.2565  -3.0630   1.1344 H              1 S1                 0.0000
     36 ****         2.2963  -3.1168  -0.6139 H              1 S1                 0.0000
     37 ****         4.6069  -3.1657   0.3126 H              1 S1                 0.0000
     38 ****         4.3366  -1.7826  -0.7122 H              1 S1                 0.0000
     39 ****         5.5171  -0.9812   1.1953 H              1 S1                 0.0000
     40 ****         3.4747  -2.3044   3.0414 H              1 S1                 0.0000
     41 ****         4.8075  -1.2698   3.5384 H              1 S1                 0.0000
     42 ****         5.1351  -2.8206   2.7803 H              1 S1                 0.0000
     43 ****         3.8548   0.6429   2.1794 H              1 S1                 0.0000
     44 ****         3.8674   0.5640   0.4390 H              1 S1                 0.0000
     45 ****         1.5626   0.6106   1.2398 H              1 S1                 0.0000
     46 ****         1.8105  -0.7825   2.2630 H              1 S1                 0.0000
     47 ****         2.0520  -0.7681  -0.6594 H              1 S1                 0.0000
     48 ****        -4.4410   2.2712  -3.1677 H              1 S1                 0.0000
     49 ****        -0.6438   0.5996  -2.3013 LP             1 S1                 0.0000
     50 ****        -0.1172  -0.9443  -2.3753 LP             1 S1                 0.0000
@<TRIPOS>BOND
    1    1    2 1     
    2    1   22 1     
    3    1   23 1     
    4    1   24 1     
    5    2   10 1     
    6    2    3 2     
    7    3    4 1     
    8    3   48 1     
    9    4    9 ar    
   10    4    5 ar    
   11    5    6 ar    
   12    5   25 1     
   13    6    7 ar    
   14    6   26 1     
   15    7    8 ar    
   16    7   27 1     
   17    8    9 ar    
   18    8   28 1     
   19    9   10 1     
   20   10   11 1     
   21   11   12 1     
   22   11   29 1     
   23   11   30 1     
   24   12   13 1     
   25   12   14 1     
   26   12   31 1     
   27   13   32 1     
   28   14   15 1     
   29   14   33 1     
   30   14   34 1     
   31   15   21 1     
   32   15   16 1     
   33   15   47 1     
   34   16   17 1     
   35   16   35 1     
   36   16   36 1     
   37   17   18 1     
   38   17   37 1     
   39   17   38 1     
   40   18   19 1     
   41   18   20 1     
   42   18   39 1     
   43   19   40 1     
   44   19   41 1     
   45   19   42 1     
   46   20   21 1     
   47   20   43 1     
   48   20   44 1     
   49   21   45 1     
   50   21   46 1     
   51   13   49 1     
   52   13   50 1     
@<TRIPOS>SUBSTRUCTURE
      1 S1             1
@<TRIPOS>SET
LONE_PAIRS      STATIC     ATOMS    <user>   **** ""
2 49 50
DONOR_HYDROGENS      STATIC     ATOMS    <user>   **** ""
3 48 32 47
ATOM$BLUE        STATIC     ATOMS    COLORGROUP SYSTEM
2 49 50
ATOM$RED        STATIC     ATOMS    COLORGROUP SYSTEM
3 48 32 47
