AV-unprocessed.smi:90|AV-procd|sdf|829|dock1
  -GOLD-   2262017243D 1   1.00000     0.00000
 Structure written by MMmdl.
 64 67  0  0  0  0  0  0  0  0  2 V2000
  149.3562  141.4856  155.4532 C   0  0  0  0  0  0  0  0  0  0  0  0
  150.4021  140.7574  156.1620 N   0  0  0  0  0  0  0  0  0  0  0  0
  150.7336  141.1880  157.5214 C   0  0  0  0  0  0  0  0  0  0  0  0
  152.2532  141.3374  157.7387 C   0  0  0  0  0  0  0  0  0  0  0  0
  152.6504  142.3519  158.8419 C   0  0  2  0  0  0  0  0  0  0  0  0
  152.5617  141.7081  160.2485 C   0  0  0  0  0  0  0  0  0  0  0  0
  152.9290  142.6945  161.3628 C   0  0  0  0  0  0  0  0  0  0  0  0
  152.0527  143.9428  161.2588 C   0  0  0  0  0  0  0  0  0  0  0  0
  152.1791  144.5650  159.8626 C   0  0  0  0  0  0  0  0  0  0  0  0
  151.8140  143.5954  158.7956 N   0  3  1  0  0  0  0  0  0  0  0  0
  151.7813  144.2663  157.4726 C   0  0  0  0  0  0  0  0  0  0  0  0
  150.7981  139.5343  155.7019 C   0  0  0  0  0  0  0  0  0  0  0  0
  151.1315  139.4073  154.3885 N   0  0  0  0  0  0  0  0  0  0  0  0
  151.5359  138.2360  153.8917 C   0  0  0  0  0  0  0  0  0  0  0  0
  151.6738  137.0694  154.5198 N   0  0  0  0  0  0  0  0  0  0  0  0
  151.3277  137.1720  155.8338 C   0  0  0  0  0  0  0  0  0  0  0  0
  150.8885  138.3530  156.5029 C   0  0  0  0  0  0  0  0  0  0  0  0
  150.6368  138.0560  157.8389 N   0  0  0  0  0  0  0  0  0  0  0  0
  150.9182  136.7883  157.9529 C   0  0  0  0  0  0  0  0  0  0  0  0
  151.3238  136.1715  156.7920 N   0  0  0  0  0  0  0  0  0  0  0  0
  151.6966  134.7710  156.6373 C   0  0  0  0  0  0  0  0  0  0  0  0
  150.5222  133.8024  156.2976 C   0  0  0  0  0  0  0  0  0  0  0  0
  150.9794  132.3509  156.6358 C   0  0  0  0  0  0  0  0  0  0  0  0
  151.2565  132.1082  157.9971 O   0  0  0  0  0  0  0  0  0  0  0  0
  149.2662  134.2166  157.1086 C   0  0  0  0  0  0  0  0  0  0  0  0
  147.9460  133.6671  156.5407 C   0  0  0  0  0  0  0  0  0  0  0  0
  147.8139  134.0420  155.1765 O   0  0  0  0  0  0  0  0  0  0  0  0
  148.8242  133.4750  154.3543 C   0  0  0  0  0  0  0  0  0  0  0  0
  150.2131  133.9848  154.7869 C   0  0  0  0  0  0  0  0  0  0  0  0
  148.5240  140.8281  155.1997 H   0  0  0  0  0  0  0  0  0  0  0  0
  149.7509  141.9256  154.5374 H   0  0  0  0  0  0  0  0  0  0  0  0
  148.9607  142.2979  156.0635 H   0  0  0  0  0  0  0  0  0  0  0  0
  150.2061  142.1134  157.7513 H   0  0  0  0  0  0  0  0  0  0  0  0
  150.3408  140.4467  158.2181 H   0  0  0  0  0  0  0  0  0  0  0  0
  152.6307  140.3492  157.9968 H   0  0  0  0  0  0  0  0  0  0  0  0
  152.7343  141.6133  156.7998 H   0  0  0  0  0  0  0  0  0  0  0  0
  153.6865  142.6475  158.6675 H   0  0  0  0  0  0  0  0  0  0  0  0
  151.5534  141.3270  160.4167 H   0  0  0  0  0  0  0  0  0  0  0  0
  153.2311  140.8521  160.3247 H   0  0  0  0  0  0  0  0  0  0  0  0
  152.8043  142.2257  162.3392 H   0  0  0  0  0  0  0  0  0  0  0  0
  153.9807  142.9721  161.2803 H   0  0  0  0  0  0  0  0  0  0  0  0
  151.0120  143.6831  161.4568 H   0  0  0  0  0  0  0  0  0  0  0  0
  152.3436  144.6675  162.0199 H   0  0  0  0  0  0  0  0  0  0  0  0
  151.5276  145.4379  159.8065 H   0  0  0  0  0  0  0  0  0  0  0  0
  153.1977  144.9211  159.6996 H   0  0  0  0  0  0  0  0  0  0  0  0
  152.7899  144.4667  157.1090 H   0  0  0  0  0  0  0  0  0  0  0  0
  151.2488  145.2163  157.5305 H   0  0  0  0  0  0  0  0  0  0  0  0
  151.2533  143.6671  156.7319 H   0  0  0  0  0  0  0  0  0  0  0  0
  151.7839  138.2330  152.8406 H   0  0  0  0  0  0  0  0  0  0  0  0
  150.8273  136.2624  158.8922 H   0  0  0  0  0  0  0  0  0  0  0  0
  152.4706  134.7169  155.8704 H   0  0  0  0  0  0  0  0  0  0  0  0
  152.1802  134.4545  157.5628 H   0  0  0  0  0  0  0  0  0  0  0  0
  150.2144  131.6377  156.3279 H   0  0  0  0  0  0  0  0  0  0  0  0
  151.8837  132.0955  156.0839 H   0  0  0  0  0  0  0  0  0  0  0  0
  151.4904  131.1984  158.0988 H   0  0  0  0  0  0  0  0  0  0  0  0
  149.3693  133.9244  158.1541 H   0  0  0  0  0  0  0  0  0  0  0  0
  149.1834  135.3041  157.1059 H   0  0  0  0  0  0  0  0  0  0  0  0
  147.8717  132.5855  156.6492 H   0  0  0  0  0  0  0  0  0  0  0  0
  147.1070  134.0883  157.0949 H   0  0  0  0  0  0  0  0  0  0  0  0
  148.7587  132.3881  154.3705 H   0  0  0  0  0  0  0  0  0  0  0  0
  148.6328  133.7718  153.3230 H   0  0  0  0  0  0  0  0  0  0  0  0
  150.2496  135.0467  154.5398 H   0  0  0  0  0  0  0  0  0  0  0  0
  150.9879  133.5134  154.1812 H   0  0  0  0  0  0  0  0  0  0  0  0
  150.8649  143.3091  158.9897 H   0  0  0  0  0  0  0  0  0  0  0  0
  1  2  1  0  0  0  0
  1 30  1  0  0  0  0
  1 31  1  0  0  0  0
  1 32  1  0  0  0  0
  2  3  1  0  0  0  0
  2 12  1  0  0  0  0
  3  4  1  0  0  0  0
  3 33  1  0  0  0  0
  3 34  1  0  0  0  0
  4  5  1  0  0  0  0
  4 35  1  0  0  0  0
  4 36  1  0  0  0  0
  5 10  1  0  0  0  0
  5  6  1  0  0  0  0
  5 37  1  0  0  0  0
  6  7  1  0  0  0  0
  6 38  1  0  0  0  0
  6 39  1  0  0  0  0
  7  8  1  0  0  0  0
  7 40  1  0  0  0  0
  7 41  1  0  0  0  0
  8  9  1  0  0  0  0
  8 42  1  0  0  0  0
  8 43  1  0  0  0  0
  9 10  1  0  0  0  0
  9 44  1  0  0  0  0
  9 45  1  0  0  0  0
 10 11  1  0  0  0  0
 10 64  1  0  0  0  0
 11 46  1  0  0  0  0
 11 47  1  0  0  0  0
 11 48  1  0  0  0  0
 12 17  1  0  0  0  0
 12 13  2  0  0  0  0
 13 14  1  0  0  0  0
 14 15  2  0  0  0  0
 14 49  1  0  0  0  0
 15 16  1  0  0  0  0
 16 20  1  0  0  0  0
 16 17  2  0  0  0  0
 17 18  1  0  0  0  0
 18 19  2  0  0  0  0
 19 20  1  0  0  0  0
 19 50  1  0  0  0  0
 20 21  1  0  0  0  0
 21 22  1  0  0  0  0
 21 51  1  0  0  0  0
 21 52  1  0  0  0  0
 22 29  1  0  0  0  0
 22 23  1  0  0  0  0
 22 25  1  0  0  0  0
 23 24  1  0  0  0  0
 23 53  1  0  0  0  0
 23 54  1  0  0  0  0
 24 55  1  0  0  0  0
 25 26  1  0  0  0  0
 25 56  1  0  0  0  0
 25 57  1  0  0  0  0
 26 27  1  0  0  0  0
 26 58  1  0  0  0  0
 26 59  1  0  0  0  0
 27 28  1  0  0  0  0
 28 29  1  0  0  0  0
 28 60  1  0  0  0  0
 28 61  1  0  0  0  0
 29 62  1  0  0  0  0
 29 63  1  0  0  0  0
M  CHG  1  10   1
M  END
> <s_m_source_file>
AV-unprocessed.smi

> <i_m_source_file_index>
90

> <i_lp_mmshare_version>
43012

> <i_f3d_flags>
0

> <s_epik_input>
W0NIM11OMVtDSDJdW0NIMl1bQ0gyXVtDSDJdW0NASF0xW0NIMl1bQ0gyXU4oW0NIM10pYyhuW2NIXW4yKWMoYzIzKW5bY0hdbjNbQ0gyXUM0KFtDSDJdW09IXSlbQ0gyXVtDSDJdT1tDSDJdW0NIMl00

> <s_epik_cmdline>
J2VwaWtfcHl0aG9uJywgJy1waCcsICc3LjAnLCAnLXRuJywgJzgnLCAnLW1hJywgJzIwMCcsICctbWV0YWxfYmluZGluZycsICctaW1hZScsICc8aW5maWxlLm1hZT4nLCAnLW9tYWUnLCAnPG91dGZpbGUubWFlPic=

> <r_lp_tautomer_probability>
1

> <r_epik_Ionization_Penalty>
0.00234895

> <r_epik_Ionization_Penalty_Charging>
0.00106647

> <r_epik_Ionization_Penalty_Neutral>
0.00128248

> <r_epik_State_Penalty>
-0

> <r_epik_Charging_Adjusted_Penalty>
0.00106647

> <i_epik_Tot_Q>
1

> <i_epik_Tot_abs_Q>
1

> <r_epik_Metal_State_Penalty>
-0

> <b_epik_Metal_Only>
0

> <s_lp_Force_Field>
OPLS_2005

> <r_lp_Energy>
43.9513

> <b_lp_Chiralities_Consistent>
1

> <s_lp_Variant>
AV-unprocessed.smi:90-1

> <Gold.Version>
5.8.1

> <Gold.Id.Protein>
6NUR|6NUR_protein|mol2

> <Gold.PLP.Fitness>
55.1847

> <Gold.PLP.PLP>
-47.4419

> <Gold.PLP.part.hbond>
-3.0000

> <Gold.PLP.part.metal>
0.0000

> <Gold.PLP.part.buried>
-6.8680

> <Gold.PLP.part.nonpolar>
-37.9649

> <Gold.PLP.part.repulsive>
0.3666

> <Gold.PLP.ligand.clash>
0.0000

> <Gold.PLP.ligand.torsion>
1.7451

> <Gold.PLP.Chemscore.Hbond>
3.0000

> <Gold.PLP.Chemscore.CHOScore>
0.4599

> <Gold.PLP.Chemscore.Metal>
0.0000

> <Gold.Chemscore.Hbonds>
donor molecule, donor type, donor heavy atom, donor atom, acceptor molecule, acceptor atom, score
      P1  H  6896  6909       L1    24  1.00
      P1  H  7989  7998       L1    13  1.00
      P1  H 10752 10765       L1    15  1.00
      L1  C    14    49       P1  7949  0.46

> <Gold.PLP.Chemscore.Internal.Correction>
0.8534

> <Gold.Rescore>
     Score         DG    S(hbond)    S(metal)    S(lipo)     H(rot)  DE(clash)    DE(int)     intcor
     20.53     -22.61       2.84        0.00     125.28       2.73       0.32       1.76       ----

> <Gold.Chemscore.Fitness>
20.5321

> <Gold.Chemscore.DG>
-22.6139

> <Gold.Chemscore.ZeroCoef>
-5.4800

> <Gold.Chemscore.Hbond>
2.8374

> <Gold.Chemscore.Metal>
0.0000

> <Gold.Chemscore.Lipo>
125.2815

> <Gold.Chemscore.Internal_Hbond>
0.0000

> <Gold.Chemscore.DEClash>
0.3226

> <Gold.Chemscore.DEInternal>
1.7592

> <Gold.Chemscore.Rot>
2.7347

> <Gold.Chemscore.Internal.Correction>
   9.000000E+99

> <Gold.Chemscore.Hbonds>
donor molecule, donor type, donor heavy atom, donor atom, acceptor molecule, acceptor atom, score
      P1  H  6896  6909       L1    24  0.99
      P1  H  7989  7998       L1    13  0.90
      P1  H 10752 10765       L1    15  0.65

> <Gold.Chemscore.Hbond.Weighted>
-9.4769

> <Gold.Chemscore.Metal.Weighted>
-0.0000

> <Gold.Chemscore.Lipo.Weighted>
-14.6579

> <Gold.Chemscore.Internal_Hbond.Weighted>
0.0000

> <Gold.Chemscore.DEClash.Weighted>
0.3226

> <Gold.Chemscore.DEInternal.Weighted>
1.7592

> <Gold.Chemscore.Rot.Weighted>
7.0009

> <Gold.Chemscore.Internal.Correction.Weighted>
   9.000000E+99

> <Gold.Protein.RotatedTorsions>
[ 6907 6896 6895 6894 ] final  -53.18 input  -60.11 | X-H torsion
[ 7974 7965 7964 7962 ] final -105.12 input  175.53 | X-H torsion
[ 8008 7997 7996 7995 ] final -108.87 input   59.86 | X-H torsion
[ 10167 10162 10161 10158 ] final -150.50 input  -65.29 | X-H torsion
[ 10718 10713 10712 10709 ] final -161.86 input   66.30 | X-H torsion
[ 10763 10752 10751 10750 ] final  165.67 input  -60.55 | X-H torsion
[ 11005 11000 10999 10996 ] final -103.87 input  -57.11 | X-H torsion

> <Gold.Protein.ActiveResidues>
 VAL166  LYS551  ARG553  GLY616  TRP617  ASP618  TYR619  PRO620  LYS621  CYS622 
 ASP623  PHE694  ASN695  SER759  ASP760  ASP761  ALA762  ILE779  LEU786  VAL792 
 PHE793  MET794  SER795  GLU796  ALA797  LYS798  CYS799  TRP800  GLU811  SER814 

> <Gold.Protein.RotatedAtoms>
  150.8450  134.7756  159.6963 H   0  0  0  0  0  0  0  0  0  0  0  0  # atno 6907 bound_to 6896
  152.4529  134.5351  159.9832 H   0  0  0  0  0  0  0  0  0  0  0  0  # atno 6908 bound_to 6896
  151.5483  133.3383  159.2984 H   0  0  0  0  0  0  0  0  0  0  0  0  # atno 6909 bound_to 6896
  145.2345  140.9183  143.3185 H   0  0  0  0  0  0  0  0  0  0  0  0  # atno 7974 bound_to 7965
  154.9507  140.0401  157.2143 H   0  0  0  0  0  0  0  0  0  0  0  0  # atno 8008 bound_to 7997
  154.7981  140.2847  155.5920 H   0  0  0  0  0  0  0  0  0  0  0  0  # atno 8009 bound_to 7997
  156.2958  140.2560  156.2843 H   0  0  0  0  0  0  0  0  0  0  0  0  # atno 8010 bound_to 7997
  139.7348  143.8752  152.2545 H   0  0  0  0  0  0  0  0  0  0  0  0  # atno 10167 bound_to 10162
  156.6022  130.8815  151.2916 H   0  0  0  0  0  0  0  0  0  0  0  0  # atno 10718 bound_to 10713
  154.3275  135.2755  155.2489 H   0  0  0  0  0  0  0  0  0  0  0  0  # atno 10763 bound_to 10752
  154.4815  135.5857  153.6396 H   0  0  0  0  0  0  0  0  0  0  0  0  # atno 10764 bound_to 10752
  152.9870  135.6112  154.3464 H   0  0  0  0  0  0  0  0  0  0  0  0  # atno 10765 bound_to 10752
  141.1126  133.8676  157.1540 H   0  0  0  0  0  0  0  0  0  0  0  0  # atno 11005 bound_to 11000
  144.9646  139.3944  143.6339 LP  0  0  0  0  0  0  0  0  0  0  0  0  # atno 17320 bound_to 7965
  146.3344  139.8715  142.8839 LP  0  0  0  0  0  0  0  0  0  0  0  0  # atno 17321 bound_to 7965
  139.8685  144.7080  150.9015 LP  0  0  0  0  0  0  0  0  0  0  0  0  # atno 17342 bound_to 10162
  140.7777  143.3757  151.1567 LP  0  0  0  0  0  0  0  0  0  0  0  0  # atno 17343 bound_to 10162
  157.7276  130.9646  150.1707 LP  0  0  0  0  0  0  0  0  0  0  0  0  # atno 17370 bound_to 10713
  156.2459  130.3695  149.8285 LP  0  0  0  0  0  0  0  0  0  0  0  0  # atno 17371 bound_to 10713
  140.0029  135.0020  157.0230 LP  0  0  0  0  0  0  0  0  0  0  0  0  # atno 17394 bound_to 11000
  140.4733  134.1364  155.7206 LP  0  0  0  0  0  0  0  0  0  0  0  0  # atno 17395 bound_to 11000

$$$$
