AV-unprocessed.smi:1843|AV-procd|sdf|7505|dock6
  -GOLD-   22720 9213D 1   1.00000     0.00000
 Structure written by MMmdl.
 36 38  0  0  0  0  0  0  0  0  2 V2000
  150.6566  140.0057  158.3524 O   0  0  0  0  0  0  0  0  0  0  0  0
  151.8305  140.2250  158.0451 C   0  0  0  0  0  0  0  0  0  0  0  0
  152.6371  139.4095  157.3289 N   0  5  0  0  0  0  0  0  0  0  0  0
  152.2142  138.1830  156.9810 C   0  0  0  0  0  0  0  0  0  0  0  0
  153.0605  137.1773  156.7173 N   0  0  0  0  0  0  0  0  0  0  0  0
  152.4147  135.9983  156.3736 N   0  0  0  0  0  0  0  0  0  0  0  0
  151.0863  136.1329  156.3749 C   0  0  0  0  0  0  0  0  0  0  0  0
  150.1675  135.0059  156.0397 C   0  0  0  0  0  0  0  0  0  0  0  0
  150.3039  134.2304  154.7474 C   0  0  0  0  0  0  0  0  0  0  0  0
  149.1289  135.1525  154.9513 C   0  0  0  0  0  0  0  0  0  0  0  0
  150.5176  137.7400  156.7973 S   0  0  0  0  0  0  0  0  0  0  0  0
  152.4190  141.3696  158.4206 N   0  0  0  0  0  0  0  0  0  0  0  0
  151.7950  142.4545  159.1767 C   0  0  1  0  0  0  0  0  0  0  0  0
  152.8567  143.4856  159.6064 C   0  0  0  0  0  0  0  0  0  0  0  0
  152.2251  144.6365  160.4061 C   0  0  0  0  0  0  0  0  0  0  0  0
  151.0964  145.3138  159.6131 C   0  0  0  0  0  0  0  0  0  0  0  0
  150.0308  144.2947  159.1695 C   0  0  0  0  0  0  0  0  0  0  0  0
  150.6408  143.1174  158.3839 C   0  0  1  0  0  0  0  0  0  0  0  0
  151.0955  143.5854  157.1273 O   0  0  0  0  0  0  0  0  0  0  0  0
  149.8919  134.4553  156.9370 H   0  0  0  0  0  0  0  0  0  0  0  0
  151.0639  134.5445  154.0347 H   0  0  0  0  0  0  0  0  0  0  0  0
  150.1152  133.1596  154.7844 H   0  0  0  0  0  0  0  0  0  0  0  0
  148.1555  134.6976  155.1225 H   0  0  0  0  0  0  0  0  0  0  0  0
  149.1168  136.0826  154.3862 H   0  0  0  0  0  0  0  0  0  0  0  0
  153.3821  141.5025  158.1491 H   0  0  0  0  0  0  0  0  0  0  0  0
  151.3760  142.0262  160.0895 H   0  0  0  0  0  0  0  0  0  0  0  0
  153.6239  142.9996  160.2103 H   0  0  0  0  0  0  0  0  0  0  0  0
  153.3653  143.8876  158.7289 H   0  0  0  0  0  0  0  0  0  0  0  0
  151.8307  144.2537  161.3481 H   0  0  0  0  0  0  0  0  0  0  0  0
  152.9889  145.3701  160.6661 H   0  0  0  0  0  0  0  0  0  0  0  0
  150.6330  146.0933  160.2183 H   0  0  0  0  0  0  0  0  0  0  0  0
  151.5146  145.8134  158.7384 H   0  0  0  0  0  0  0  0  0  0  0  0
  149.5232  143.9060  160.0534 H   0  0  0  0  0  0  0  0  0  0  0  0
  149.2639  144.7902  158.5730 H   0  0  0  0  0  0  0  0  0  0  0  0
  149.8582  142.3830  158.1903 H   0  0  0  0  0  0  0  0  0  0  0  0
  150.3395  143.8222  156.6112 H   0  0  0  0  0  0  0  0  0  0  0  0
  1  2  2  0  0  0  0
  2  3  1  0  0  0  0
  2 12  1  0  0  0  0
  3  4  1  0  0  0  0
  4 11  1  0  0  0  0
  4  5  2  0  0  0  0
  5  6  1  0  0  0  0
  6  7  2  0  0  0  0
  7  8  1  0  0  0  0
  7 11  1  0  0  0  0
  8 10  1  0  0  0  0
  8  9  1  0  0  0  0
  8 20  1  0  0  0  0
  9 10  1  0  0  0  0
  9 21  1  0  0  0  0
  9 22  1  0  0  0  0
 10 23  1  0  0  0  0
 10 24  1  0  0  0  0
 12 13  1  0  0  0  0
 12 25  1  0  0  0  0
 13 18  1  0  0  0  0
 13 14  1  0  0  0  0
 13 26  1  0  0  0  0
 14 15  1  0  0  0  0
 14 27  1  0  0  0  0
 14 28  1  0  0  0  0
 15 16  1  0  0  0  0
 15 29  1  0  0  0  0
 15 30  1  0  0  0  0
 16 17  1  0  0  0  0
 16 31  1  0  0  0  0
 16 32  1  0  0  0  0
 17 18  1  0  0  0  0
 17 33  1  0  0  0  0
 17 34  1  0  0  0  0
 18 19  1  0  0  0  0
 18 35  1  0  0  0  0
 19 36  1  0  0  0  0
M  CHG  1   3  -1
M  END
> <s_m_source_file>
AV-unprocessed.smi

> <i_m_source_file_index>
1843

> <i_lp_mmshare_version>
43012

> <i_f3d_flags>
0

> <s_epik_input>
W09IXVtDQEBIXTFbQ0gyXVtDSDJdW0NIMl1bQ0gyXVtDQEhdMVtOSF1DKD1PKVtOSF1jMm5uYyhzMilbQ0hdM1tDSDJdW0NIMl0z

> <s_epik_cmdline>
J2VwaWtfcHl0aG9uJywgJy1waCcsICc3LjAnLCAnLXRuJywgJzgnLCAnLW1hJywgJzIwMCcsICctbWV0YWxfYmluZGluZycsICctaW1hZScsICc8aW5maWxlLm1hZT4nLCAnLW9tYWUnLCAnPG91dGZpbGUubWFlPic=

> <r_lp_tautomer_probability>
1

> <r_epik_Ionization_Penalty>
4.7996

> <r_epik_Ionization_Penalty_Charging>
4.64516

> <r_epik_Ionization_Penalty_Neutral>
0.154442

> <r_epik_State_Penalty>
4.64493

> <r_epik_Charging_Adjusted_Penalty>
9.29009

> <i_epik_Tot_Q>
-1

> <i_epik_Tot_abs_Q>
1

> <r_epik_Metal_State_Penalty>
0.896144

> <b_epik_Metal_Only>
1

> <s_lp_Force_Field>
OPLS_2005

> <r_lp_Energy>
9.18757

> <b_lp_Chiralities_Consistent>
1

> <s_lp_Variant>
AV-unprocessed.smi:1843-6

> <Gold.Version>
5.8.1

> <Gold.Id.Protein>
6NUR|6NUR_protein|mol2

> <Gold.PLP.Fitness>
41.7400

> <Gold.PLP.PLP>
-30.0879

> <Gold.PLP.part.hbond>
-3.5134

> <Gold.PLP.part.metal>
0.0000

> <Gold.PLP.part.buried>
-6.3342

> <Gold.PLP.part.nonpolar>
-20.3960

> <Gold.PLP.part.repulsive>
0.0908

> <Gold.PLP.ligand.clash>
0.0000

> <Gold.PLP.ligand.torsion>
0.2565

> <Gold.PLP.Chemscore.Hbond>
4.0000

> <Gold.PLP.Chemscore.CHOScore>
0.0000

> <Gold.PLP.Chemscore.Metal>
0.0000

> <Gold.Chemscore.Hbonds>
donor molecule, donor type, donor heavy atom, donor atom, acceptor molecule, acceptor atom, score
      L1  H    19    36       P1  8028  1.00
      P1  H  7997  8008       L1     3  2.00
      P1  H 10752 10763       L1     6  1.00

> <Gold.PLP.Chemscore.Internal.Correction>
0.1652

> <Gold.Rescore>
     Score         DG    S(hbond)    S(metal)    S(lipo)     H(rot)  DE(clash)    DE(int)     intcor
     16.89     -18.96       2.47        0.00      82.16       1.72       0.34       1.73       ----

> <Gold.Chemscore.Fitness>
16.8921

> <Gold.Chemscore.DG>
-18.9611

> <Gold.Chemscore.ZeroCoef>
-5.4800

> <Gold.Chemscore.Hbond>
2.4735

> <Gold.Chemscore.Metal>
0.0000

> <Gold.Chemscore.Lipo>
82.1594

> <Gold.Chemscore.Internal_Hbond>
0.0000

> <Gold.Chemscore.DEClash>
0.3377

> <Gold.Chemscore.DEInternal>
1.7312

> <Gold.Chemscore.Rot>
1.7160

> <Gold.Chemscore.Internal.Correction>
   9.000000E+99

> <Gold.Chemscore.Hbonds>
donor molecule, donor type, donor heavy atom, donor atom, acceptor molecule, acceptor atom, score
      L1  H    19    36       P1  8028  0.99
      P1  H  7997  8008       L1     3  0.92
      P1  H 10752 10763       L1     6  0.51

> <Gold.Chemscore.Hbond.Weighted>
-8.2614

> <Gold.Chemscore.Metal.Weighted>
-0.0000

> <Gold.Chemscore.Lipo.Weighted>
-9.6126

> <Gold.Chemscore.Internal_Hbond.Weighted>
0.0000

> <Gold.Chemscore.DEClash.Weighted>
0.3377

> <Gold.Chemscore.DEInternal.Weighted>
1.7312

> <Gold.Chemscore.Rot.Weighted>
4.3930

> <Gold.Chemscore.Internal.Correction.Weighted>
   9.000000E+99

> <Gold.Protein.RotatedTorsions>
[ 6907 6896 6895 6894 ] final  -58.03 input  -60.11 | X-H torsion
[ 7974 7965 7964 7962 ] final  -13.46 input  175.53 | X-H torsion
[ 8008 7997 7996 7995 ] final  -74.26 input   59.86 | X-H torsion
[ 10167 10162 10161 10158 ] final  -63.06 input  -65.29 | X-H torsion
[ 10718 10713 10712 10709 ] final   58.71 input   66.30 | X-H torsion
[ 10763 10752 10751 10750 ] final   83.75 input  -60.55 | X-H torsion
[ 11005 11000 10999 10996 ] final   12.92 input  -57.11 | X-H torsion

> <Gold.Protein.ActiveResidues>
 VAL166  LYS551  ARG553  GLY616  TRP617  ASP618  TYR619  PRO620  LYS621  CYS622 
 ASP623  PHE694  ASN695  SER759  ASP760  ASP761  ALA762  ILE779  LEU786  VAL792 
 PHE793  MET794  SER795  GLU796  ALA797  LYS798  CYS799  TRP800  GLU811  SER814 

> <Gold.Protein.RotatedAtoms>
  150.8039  134.7151  159.6625 H   0  0  0  0  0  0  0  0  0  0  0  0  # atno 6907 bound_to 6896
  152.4157  134.6042  160.0018 H   0  0  0  0  0  0  0  0  0  0  0  0  # atno 6908 bound_to 6896
  151.6272  133.3297  159.3137 H   0  0  0  0  0  0  0  0  0  0  0  0  # atno 6909 bound_to 6896
  146.2113  140.3206  142.8390 H   0  0  0  0  0  0  0  0  0  0  0  0  # atno 7974 bound_to 7965
  154.5316  140.0764  156.8355 H   0  0  0  0  0  0  0  0  0  0  0  0  # atno 8008 bound_to 7997
  155.3363  140.3404  155.4221 H   0  0  0  0  0  0  0  0  0  0  0  0  # atno 8009 bound_to 7997
  156.1787  140.1644  156.8302 H   0  0  0  0  0  0  0  0  0  0  0  0  # atno 8010 bound_to 7997
  140.5897  143.2339  151.6166 H   0  0  0  0  0  0  0  0  0  0  0  0  # atno 10167 bound_to 10162
  157.5618  130.8841  149.9124 H   0  0  0  0  0  0  0  0  0  0  0  0  # atno 10718 bound_to 10713
  153.1319  135.4679  154.9362 H   0  0  0  0  0  0  0  0  0  0  0  0  # atno 10763 bound_to 10752
  154.7672  135.3148  154.8265 H   0  0  0  0  0  0  0  0  0  0  0  0  # atno 10764 bound_to 10752
  153.8806  135.6894  153.4821 H   0  0  0  0  0  0  0  0  0  0  0  0  # atno 10765 bound_to 10752
  140.4866  134.0882  155.7762 H   0  0  0  0  0  0  0  0  0  0  0  0  # atno 11005 bound_to 11000
  144.8923  140.7539  143.5919 LP  0  0  0  0  0  0  0  0  0  0  0  0  # atno 17320 bound_to 7965
  145.3129  139.1813  143.4629 LP  0  0  0  0  0  0  0  0  0  0  0  0  # atno 17321 bound_to 7965
  139.5219  144.3177  152.0938 LP  0  0  0  0  0  0  0  0  0  0  0  0  # atno 17342 bound_to 10162
  140.2340  144.4339  150.6288 LP  0  0  0  0  0  0  0  0  0  0  0  0  # atno 17343 bound_to 10162
  156.0670  130.3691  150.0857 LP  0  0  0  0  0  0  0  0  0  0  0  0  # atno 17370 bound_to 10713
  156.9020  130.9623  151.3575 LP  0  0  0  0  0  0  0  0  0  0  0  0  # atno 17371 bound_to 10713
  141.1505  133.8977  157.2110 LP  0  0  0  0  0  0  0  0  0  0  0  0  # atno 17394 bound_to 11000
  139.9794  135.0103  156.9713 LP  0  0  0  0  0  0  0  0  0  0  0  0  # atno 17395 bound_to 11000

$$$$
