AV-unprocessed.smi:392|AV-procd|sdf|2483|dock4
  -GOLD-   2262022423D 1   1.00000     0.00000
 Structure written by MMmdl.
 33 35  0  0  0  0  0  0  0  0  2 V2000
  149.6143  140.5275  157.5117 O   0  0  0  0  0  0  0  0  0  0  0  0
  151.0110  140.6592  157.3452 C   0  0  1  0  0  0  0  0  0  0  0  0
  151.2951  140.8726  155.8447 C   0  0  0  0  0  0  0  0  0  0  0  0
  150.4643  140.0194  154.9855 N   0  0  0  0  0  0  0  0  0  0  0  0
  150.6526  138.7321  154.5863 C   0  0  0  0  0  0  0  0  0  0  0  0
  149.5892  138.3833  153.8099 N   0  3  0  0  0  0  0  0  0  0  0  0
  148.7105  139.4640  153.7097 C   0  0  0  0  0  0  0  0  0  0  0  0
  147.4992  139.5960  153.0376 C   0  0  0  0  0  0  0  0  0  0  0  0
  146.8495  140.8436  153.1435 C   0  0  0  0  0  0  0  0  0  0  0  0
  147.4056  141.9008  153.8931 C   0  0  0  0  0  0  0  0  0  0  0  0
  148.6349  141.7564  154.5694 C   0  0  0  0  0  0  0  0  0  0  0  0
  149.2689  140.5198  154.4607 C   0  0  0  0  0  0  0  0  0  0  0  0
  151.5965  141.7741  158.2047 C   0  0  0  0  0  0  0  0  0  0  0  0
  151.2621  143.1227  157.9482 C   0  0  0  0  0  0  0  0  0  0  0  0
  151.8177  144.1554  158.7279 C   0  0  0  0  0  0  0  0  0  0  0  0
  152.7143  143.8472  159.7682 C   0  0  0  0  0  0  0  0  0  0  0  0
  153.0559  142.5062  160.0268 C   0  0  0  0  0  0  0  0  0  0  0  0
  152.5014  141.4715  159.2481 C   0  0  0  0  0  0  0  0  0  0  0  0
  152.8541  140.1879  159.5012 F   0  0  0  0  0  0  0  0  0  0  0  0
  149.2422  140.2269  156.6964 H   0  0  0  0  0  0  0  0  0  0  0  0
  151.4392  139.7075  157.6599 H   0  0  0  0  0  0  0  0  0  0  0  0
  151.1237  141.9109  155.5569 H   0  0  0  0  0  0  0  0  0  0  0  0
  152.3397  140.6553  155.6167 H   0  0  0  0  0  0  0  0  0  0  0  0
  151.4886  138.0990  154.8473 H   0  0  0  0  0  0  0  0  0  0  0  0
  147.0705  138.7881  152.4629 H   0  0  0  0  0  0  0  0  0  0  0  0
  145.9053  140.9926  152.6400 H   0  0  0  0  0  0  0  0  0  0  0  0
  146.8781  142.8419  153.9517 H   0  0  0  0  0  0  0  0  0  0  0  0
  149.0533  142.5708  155.1424 H   0  0  0  0  0  0  0  0  0  0  0  0
  150.5809  143.3717  157.1476 H   0  0  0  0  0  0  0  0  0  0  0  0
  151.5573  145.1840  158.5263 H   0  0  0  0  0  0  0  0  0  0  0  0
  153.1419  144.6387  160.3660 H   0  0  0  0  0  0  0  0  0  0  0  0
  153.7479  142.2710  160.8220 H   0  0  0  0  0  0  0  0  0  0  0  0
  149.4734  137.4729  153.3834 H   0  0  0  0  0  0  0  0  0  0  0  0
  1  2  1  0  0  0  0
  1 20  1  0  0  0  0
  2  3  1  0  0  0  0
  2 13  1  0  0  0  0
  2 21  1  0  0  0  0
  3  4  1  0  0  0  0
  3 22  1  0  0  0  0
  3 23  1  0  0  0  0
  4 12  1  0  0  0  0
  4  5  1  0  0  0  0
  5  6  2  0  0  0  0
  5 24  1  0  0  0  0
  6  7  1  0  0  0  0
  6 33  1  0  0  0  0
  7 12  2  0  0  0  0
  7  8  1  0  0  0  0
  8  9  2  0  0  0  0
  8 25  1  0  0  0  0
  9 10  1  0  0  0  0
  9 26  1  0  0  0  0
 10 11  2  0  0  0  0
 10 27  1  0  0  0  0
 11 12  1  0  0  0  0
 11 28  1  0  0  0  0
 13 18  1  0  0  0  0
 13 14  2  0  0  0  0
 14 15  1  0  0  0  0
 14 29  1  0  0  0  0
 15 16  2  0  0  0  0
 15 30  1  0  0  0  0
 16 17  1  0  0  0  0
 16 31  1  0  0  0  0
 17 18  2  0  0  0  0
 17 32  1  0  0  0  0
 18 19  1  0  0  0  0
M  CHG  1   6   1
M  END
> <s_m_source_file>
AV-unprocessed.smi

> <i_m_source_file_index>
392

> <i_lp_mmshare_version>
43012

> <i_f3d_flags>
0

> <s_epik_input>
RmMxW2NIXVtjSF1bY0hdW2NIXWMxW0NASF0oW09IXSlbQ0gyXW4oW2NIXW4yKWMoYzIzKVtjSF1bY0hdW2NIXVtjSF0z

> <s_epik_cmdline>
J2VwaWtfcHl0aG9uJywgJy1waCcsICc3LjAnLCAnLXRuJywgJzgnLCAnLW1hJywgJzIwMCcsICctbWV0YWxfYmluZGluZycsICctaW1hZScsICc8aW5maWxlLm1hZT4nLCAnLW9tYWUnLCAnPG91dGZpbGUubWFlPic=

> <r_epik_Ionization_Penalty>
1.3029

> <r_epik_Ionization_Penalty_Charging>
1.3029

> <r_epik_Ionization_Penalty_Neutral>
1.34362e-06

> <r_epik_State_Penalty>
1.377

> <r_epik_Charging_Adjusted_Penalty>
2.6799

> <i_epik_Tot_Q>
1

> <i_epik_Tot_abs_Q>
1

> <r_epik_Metal_State_Penalty>
5.40879

> <b_epik_Metal_Only>
0

> <s_lp_Force_Field>
OPLS_2005

> <r_lp_Energy>
17.8975

> <b_lp_Chiralities_Consistent>
1

> <s_lp_Variant>
AV-unprocessed.smi:392-4

> <Gold.Version>
5.8.1

> <Gold.Id.Protein>
6NUR|6NUR_protein|mol2

> <Gold.PLP.Fitness>
50.2265

> <Gold.PLP.PLP>
-45.2991

> <Gold.PLP.part.hbond>
-1.3365

> <Gold.PLP.part.metal>
0.0000

> <Gold.PLP.part.buried>
0.9922

> <Gold.PLP.part.nonpolar>
-44.1443

> <Gold.PLP.part.repulsive>
0.0442

> <Gold.PLP.ligand.clash>
0.0000

> <Gold.PLP.ligand.torsion>
0.5429

> <Gold.PLP.Chemscore.Hbond>
2.0000

> <Gold.PLP.Chemscore.CHOScore>
0.0000

> <Gold.PLP.Chemscore.Metal>
0.0000

> <Gold.Chemscore.Hbonds>
donor molecule, donor type, donor heavy atom, donor atom, acceptor molecule, acceptor atom, score
      L1  H     6    33       P1  7948  2.00

> <Gold.PLP.Chemscore.Internal.Correction>
0.0132

> <Gold.Rescore>
     Score         DG    S(hbond)    S(metal)    S(lipo)     H(rot)  DE(clash)    DE(int)     intcor
     15.54     -17.43       0.95        0.00     118.01       1.97       0.29       1.61       ----

> <Gold.Chemscore.Fitness>
15.5402

> <Gold.Chemscore.DG>
-17.4338

> <Gold.Chemscore.ZeroCoef>
-5.4800

> <Gold.Chemscore.Hbond>
0.9533

> <Gold.Chemscore.Metal>
0.0000

> <Gold.Chemscore.Lipo>
118.0086

> <Gold.Chemscore.Internal_Hbond>
0.0000

> <Gold.Chemscore.DEClash>
0.2869

> <Gold.Chemscore.DEInternal>
1.6067

> <Gold.Chemscore.Rot>
1.9677

> <Gold.Chemscore.Internal.Correction>
   9.000000E+99

> <Gold.Chemscore.Hbonds>
donor molecule, donor type, donor heavy atom, donor atom, acceptor molecule, acceptor atom, score
      L1  H     6    33       P1  7948  0.86

> <Gold.Chemscore.Hbond.Weighted>
-3.1840

> <Gold.Chemscore.Metal.Weighted>
-0.0000

> <Gold.Chemscore.Lipo.Weighted>
-13.8070

> <Gold.Chemscore.Internal_Hbond.Weighted>
0.0000

> <Gold.Chemscore.DEClash.Weighted>
0.2869

> <Gold.Chemscore.DEInternal.Weighted>
1.6067

> <Gold.Chemscore.Rot.Weighted>
5.0372

> <Gold.Chemscore.Internal.Correction.Weighted>
   9.000000E+99

> <Gold.Protein.RotatedTorsions>
[ 6907 6896 6895 6894 ] final  -20.75 input  -60.11 | X-H torsion
[ 7974 7965 7964 7962 ] final  158.67 input  175.53 | X-H torsion
[ 8008 7997 7996 7995 ] final -173.89 input   59.86 | X-H torsion
[ 10167 10162 10161 10158 ] final   50.85 input  -65.29 | X-H torsion
[ 10718 10713 10712 10709 ] final -152.53 input   66.30 | X-H torsion
[ 10763 10752 10751 10750 ] final   71.10 input  -60.55 | X-H torsion
[ 11005 11000 10999 10996 ] final  -97.22 input  -57.11 | X-H torsion

> <Gold.Protein.ActiveResidues>
 VAL166  LYS551  ARG553  GLY616  TRP617  ASP618  TYR619  PRO620  LYS621  CYS622 
 ASP623  PHE694  ASN695  SER759  ASP760  ASP761  ALA762  ILE779  LEU786  VAL792 
 PHE793  MET794  SER795  GLU796  ALA797  LYS798  CYS799  TRP800  GLU811  SER814 

> <Gold.Protein.RotatedAtoms>
  151.2435  135.0597  159.9034 H   0  0  0  0  0  0  0  0  0  0  0  0  # atno 6907 bound_to 6896
  152.5390  134.0408  159.8077 H   0  0  0  0  0  0  0  0  0  0  0  0  # atno 6908 bound_to 6896
  151.0606  133.5499  159.2666 H   0  0  0  0  0  0  0  0  0  0  0  0  # atno 6909 bound_to 6896
  144.7832  139.7511  143.6251 H   0  0  0  0  0  0  0  0  0  0  0  0  # atno 7974 bound_to 7965
  155.9632  140.1148  157.0877 H   0  0  0  0  0  0  0  0  0  0  0  0  # atno 8008 bound_to 7997
  154.4137  140.1178  156.5274 H   0  0  0  0  0  0  0  0  0  0  0  0  # atno 8009 bound_to 7997
  155.6693  140.3473  155.4814 H   0  0  0  0  0  0  0  0  0  0  0  0  # atno 8010 bound_to 7997
  140.2681  144.3297  150.6298 H   0  0  0  0  0  0  0  0  0  0  0  0  # atno 10167 bound_to 10162
  156.4737  130.8271  151.2499 H   0  0  0  0  0  0  0  0  0  0  0  0  # atno 10718 bound_to 10713
  153.0379  135.5149  154.7541 H   0  0  0  0  0  0  0  0  0  0  0  0  # atno 10763 bound_to 10752
  154.6503  135.2924  154.9998 H   0  0  0  0  0  0  0  0  0  0  0  0  # atno 10764 bound_to 10752
  154.0884  135.6654  153.4901 H   0  0  0  0  0  0  0  0  0  0  0  0  # atno 10765 bound_to 10752
  141.1386  133.8154  157.0676 H   0  0  0  0  0  0  0  0  0  0  0  0  # atno 11005 bound_to 11000
  146.2051  139.5371  142.9717 LP  0  0  0  0  0  0  0  0  0  0  0  0  # atno 17320 bound_to 7965
  145.5992  141.0358  143.2028 LP  0  0  0  0  0  0  0  0  0  0  0  0  # atno 17321 bound_to 7965
  140.5912  143.2168  151.7249 LP  0  0  0  0  0  0  0  0  0  0  0  0  # atno 17342 bound_to 10162
  139.4997  144.3936  152.0254 LP  0  0  0  0  0  0  0  0  0  0  0  0  # atno 17343 bound_to 10162
  157.7489  131.0067  150.3164 LP  0  0  0  0  0  0  0  0  0  0  0  0  # atno 17370 bound_to 10713
  156.3592  130.3844  149.7265 LP  0  0  0  0  0  0  0  0  0  0  0  0  # atno 17371 bound_to 10713
  140.0531  134.9795  157.1173 LP  0  0  0  0  0  0  0  0  0  0  0  0  # atno 17394 bound_to 11000
  140.3959  134.2134  155.7164 LP  0  0  0  0  0  0  0  0  0  0  0  0  # atno 17395 bound_to 11000

$$$$
