AV-unprocessed.smi:601|AV-procd|sdf|3033|dock4
  -GOLD-   2262023543D 1   1.00000     0.00000
 Structure written by MMmdl.
 49 50  0  0  0  0  0  0  0  0  2 V2000
  149.4089  134.3074  154.3486 C   0  0  0  0  0  0  0  0  0  0  0  0
  150.1276  134.9079  155.5642 C   0  0  0  0  0  0  0  0  0  0  0  0
  149.5341  134.4686  156.9122 C   0  0  0  0  0  0  0  0  0  0  0  0
  148.3128  135.3004  157.3506 C   0  0  0  0  0  0  0  0  0  0  0  0
  148.6897  136.3894  158.2645 N   0  0  0  0  0  0  0  0  0  0  0  0
  148.1133  136.5027  159.4907 C   0  0  0  0  0  0  0  0  0  0  0  0
  148.4819  137.3543  160.3031 O   0  0  0  0  0  0  0  0  0  0  0  0
  146.9326  135.5699  159.8684 C   0  0  2  0  0  0  0  0  0  0  0  0
  146.3480  135.8075  161.2674 C   0  0  0  0  0  0  0  0  0  0  0  0
  147.2083  134.9549  162.1924 C   0  0  0  0  0  0  0  0  0  0  0  0
  147.9742  134.0246  161.2473 C   0  0  0  0  0  0  0  0  0  0  0  0
  147.3782  134.2227  159.9707 O   0  0  0  0  0  0  0  0  0  0  0  0
  149.7103  137.2553  157.8306 C   0  0  0  0  0  0  0  0  0  0  0  0
  149.5813  138.0135  156.7098 C   0  0  0  0  0  0  0  0  0  0  0  0
  148.4354  137.9398  155.9304 N   0  0  0  0  0  0  0  0  0  0  0  0
  150.6281  138.8930  156.3237 N   0  0  0  0  0  0  0  0  0  0  0  0
  150.4829  139.6827  155.0822 C   0  0  0  0  0  0  0  0  0  0  0  0
  150.1960  141.1631  155.3872 C   0  0  0  0  0  0  0  0  0  0  0  0
  148.7285  141.5354  155.1515 C   0  0  0  0  0  0  0  0  0  0  0  0
  151.7484  139.0288  157.0982 C   0  0  0  0  0  0  0  0  0  0  0  0
  152.6217  139.8293  156.7603 O   0  0  0  0  0  0  0  0  0  0  0  0
  151.8678  138.2754  158.2288 N   0  5  0  0  0  0  0  0  0  0  0  0
  150.9211  137.3947  158.6481 C   0  0  0  0  0  0  0  0  0  0  0  0
  151.0520  136.7344  159.6791 O   0  0  0  0  0  0  0  0  0  0  0  0
  149.8227  134.7047  153.4216 H   0  0  0  0  0  0  0  0  0  0  0  0
  148.3446  134.5435  154.3641 H   0  0  0  0  0  0  0  0  0  0  0  0
  149.5125  133.2231  154.3148 H   0  0  0  0  0  0  0  0  0  0  0  0
  151.1889  134.6600  155.5272 H   0  0  0  0  0  0  0  0  0  0  0  0
  150.0690  135.9946  155.4965 H   0  0  0  0  0  0  0  0  0  0  0  0
  149.2341  133.4235  156.8302 H   0  0  0  0  0  0  0  0  0  0  0  0
  150.3106  134.4986  157.6773 H   0  0  0  0  0  0  0  0  0  0  0  0
  147.7921  135.7107  156.4844 H   0  0  0  0  0  0  0  0  0  0  0  0
  147.5912  134.6425  157.8377 H   0  0  0  0  0  0  0  0  0  0  0  0
  146.1434  135.6525  159.1208 H   0  0  0  0  0  0  0  0  0  0  0  0
  146.3259  136.8577  161.5612 H   0  0  0  0  0  0  0  0  0  0  0  0
  145.3192  135.4465  161.2921 H   0  0  0  0  0  0  0  0  0  0  0  0
  147.9013  135.5681  162.7695 H   0  0  0  0  0  0  0  0  0  0  0  0
  146.5892  134.3967  162.8953 H   0  0  0  0  0  0  0  0  0  0  0  0
  149.0290  134.2993  161.2037 H   0  0  0  0  0  0  0  0  0  0  0  0
  147.9100  132.9788  161.5472 H   0  0  0  0  0  0  0  0  0  0  0  0
  147.6688  137.3271  156.1681 H   0  0  0  0  0  0  0  0  0  0  0  0
  148.2878  138.5596  155.1471 H   0  0  0  0  0  0  0  0  0  0  0  0
  151.3768  139.6062  154.4611 H   0  0  0  0  0  0  0  0  0  0  0  0
  149.6988  139.2714  154.4465 H   0  0  0  0  0  0  0  0  0  0  0  0
  150.4601  141.3863  156.4213 H   0  0  0  0  0  0  0  0  0  0  0  0
  150.8306  141.7952  154.7649 H   0  0  0  0  0  0  0  0  0  0  0  0
  148.5558  142.5906  155.3638 H   0  0  0  0  0  0  0  0  0  0  0  0
  148.0679  140.9533  155.7946 H   0  0  0  0  0  0  0  0  0  0  0  0
  148.4377  141.3521  154.1169 H   0  0  0  0  0  0  0  0  0  0  0  0
  1  2  1  0  0  0  0
  1 25  1  0  0  0  0
  1 26  1  0  0  0  0
  1 27  1  0  0  0  0
  2  3  1  0  0  0  0
  2 28  1  0  0  0  0
  2 29  1  0  0  0  0
  3  4  1  0  0  0  0
  3 30  1  0  0  0  0
  3 31  1  0  0  0  0
  4  5  1  0  0  0  0
  4 32  1  0  0  0  0
  4 33  1  0  0  0  0
  5  6  1  0  0  0  0
  5 13  1  0  0  0  0
  6  7  2  0  0  0  0
  6  8  1  0  0  0  0
  8 12  1  0  0  0  0
  8  9  1  0  0  0  0
  8 34  1  0  0  0  0
  9 10  1  0  0  0  0
  9 35  1  0  0  0  0
  9 36  1  0  0  0  0
 10 11  1  0  0  0  0
 10 37  1  0  0  0  0
 10 38  1  0  0  0  0
 11 12  1  0  0  0  0
 11 39  1  0  0  0  0
 11 40  1  0  0  0  0
 13 23  1  0  0  0  0
 13 14  2  0  0  0  0
 14 15  1  0  0  0  0
 14 16  1  0  0  0  0
 15 41  1  0  0  0  0
 15 42  1  0  0  0  0
 16 17  1  0  0  0  0
 16 20  1  0  0  0  0
 17 18  1  0  0  0  0
 17 43  1  0  0  0  0
 17 44  1  0  0  0  0
 18 19  1  0  0  0  0
 18 45  1  0  0  0  0
 18 46  1  0  0  0  0
 19 47  1  0  0  0  0
 19 48  1  0  0  0  0
 19 49  1  0  0  0  0
 20 21  2  0  0  0  0
 20 22  1  0  0  0  0
 22 23  1  0  0  0  0
 23 24  2  0  0  0  0
M  CHG  1  22  -1
M  END
> <s_m_source_file>
AV-unprocessed.smi

> <i_m_source_file_index>
601

> <i_lp_mmshare_version>
43012

> <i_f3d_flags>
0

> <s_epik_input>
TzFbQ0gyXVtDSDJdW0NIMl1bQ0BIXTFDKD1PKU4oW0NIMl1bQ0gyXVtDSDJdW0NIM10pYzJjKFtOSDJdKW4oW0NIMl1bQ0gyXVtDSDNdKWMoPU8pW25IXWMyPU8=

> <s_epik_cmdline>
J2VwaWtfcHl0aG9uJywgJy1waCcsICc3LjAnLCAnLXRuJywgJzgnLCAnLW1hJywgJzIwMCcsICctbWV0YWxfYmluZGluZycsICctaW1hZScsICc8aW5maWxlLm1hZT4nLCAnLW9tYWUnLCAnPG91dGZpbGUubWFlPic=

> <r_lp_tautomer_probability>
1

> <r_epik_Ionization_Penalty>
5.90608

> <r_epik_Ionization_Penalty_Charging>
4.55687e-07

> <r_epik_Ionization_Penalty_Neutral>
5.90608

> <r_epik_State_Penalty>
5.90604

> <r_epik_Charging_Adjusted_Penalty>
5.90604

> <i_epik_Tot_Q>
-1

> <i_epik_Tot_abs_Q>
1

> <r_epik_Metal_State_Penalty>
1.84043

> <b_epik_Metal_Only>
1

> <s_lp_Force_Field>
OPLS_2005

> <r_lp_Energy>
51.8523

> <b_lp_Chiralities_Consistent>
1

> <s_lp_Variant>
AV-unprocessed.smi:601-3

> <Gold.Version>
5.8.1

> <Gold.Id.Protein>
6NUR|6NUR_protein|mol2

> <Gold.PLP.Fitness>
37.0421

> <Gold.PLP.PLP>
-29.4438

> <Gold.PLP.part.hbond>
-4.0000

> <Gold.PLP.part.metal>
0.0000

> <Gold.PLP.part.buried>
-2.8482

> <Gold.PLP.part.nonpolar>
-22.3819

> <Gold.PLP.part.repulsive>
0.0000

> <Gold.PLP.ligand.clash>
0.0098

> <Gold.PLP.ligand.torsion>
2.0037

> <Gold.PLP.Chemscore.Hbond>
3.0880

> <Gold.PLP.Chemscore.CHOScore>
0.0000

> <Gold.PLP.Chemscore.Metal>
0.0000

> <Gold.Chemscore.Hbonds>
donor molecule, donor type, donor heavy atom, donor atom, acceptor molecule, acceptor atom, score
      P1  H  6896  6909       L1    24  1.00
      P1  H  6931  6943       L1     7  0.59
      P1  H  6934  6947       L1     7  0.30
      P1  H  7997  8010       L1    21  1.00

> <Gold.PLP.Chemscore.Internal.Correction>
2.3515

> <Gold.Rescore>
     Score         DG    S(hbond)    S(metal)    S(lipo)     H(rot)  DE(clash)    DE(int)     intcor
     12.04     -18.03       3.07        0.00      61.73       1.92       0.22       5.77       ----

> <Gold.Chemscore.Fitness>
12.0442

> <Gold.Chemscore.DG>
-18.0341

> <Gold.Chemscore.ZeroCoef>
-5.4800

> <Gold.Chemscore.Hbond>
3.0680

> <Gold.Chemscore.Metal>
0.0000

> <Gold.Chemscore.Lipo>
61.7292

> <Gold.Chemscore.Internal_Hbond>
0.0000

> <Gold.Chemscore.DEClash>
0.2195

> <Gold.Chemscore.DEInternal>
5.7705

> <Gold.Chemscore.Rot>
1.9201

> <Gold.Chemscore.Internal.Correction>
   9.000000E+99

> <Gold.Chemscore.Hbonds>
donor molecule, donor type, donor heavy atom, donor atom, acceptor molecule, acceptor atom, score
      P1  H  6896  6909       L1    24  0.99
      P1  H  6931  6943       L1     7  0.58
      P1  H  6934  6947       L1     7  0.30
      P1  H  7997  8010       L1    21  0.95

> <Gold.Chemscore.Hbond.Weighted>
-10.2472

> <Gold.Chemscore.Metal.Weighted>
-0.0000

> <Gold.Chemscore.Lipo.Weighted>
-7.2223

> <Gold.Chemscore.Internal_Hbond.Weighted>
0.0000

> <Gold.Chemscore.DEClash.Weighted>
0.2195

> <Gold.Chemscore.DEInternal.Weighted>
5.7705

> <Gold.Chemscore.Rot.Weighted>
4.9154

> <Gold.Chemscore.Internal.Correction.Weighted>
   9.000000E+99

> <Gold.Protein.RotatedTorsions>
[ 6907 6896 6895 6894 ] final  107.07 input  -60.11 | X-H torsion
[ 7974 7965 7964 7962 ] final  179.71 input  175.53 | X-H torsion
[ 8008 7997 7996 7995 ] final   84.41 input   59.86 | X-H torsion
[ 10167 10162 10161 10158 ] final   46.83 input  -65.29 | X-H torsion
[ 10718 10713 10712 10709 ] final  129.86 input   66.30 | X-H torsion
[ 10763 10752 10751 10750 ] final  108.08 input  -60.55 | X-H torsion
[ 11005 11000 10999 10996 ] final  128.86 input  -57.11 | X-H torsion

> <Gold.Protein.ActiveResidues>
 VAL166  LYS551  ARG553  GLY616  TRP617  ASP618  TYR619  PRO620  LYS621  CYS622 
 ASP623  PHE694  ASN695  SER759  ASP760  ASP761  ALA762  ILE779  LEU786  VAL792 
 PHE793  MET794  SER795  GLU796  ALA797  LYS798  CYS799  TRP800  GLU811  SER814 

> <Gold.Protein.RotatedAtoms>
  152.5169  133.9288  159.7569 H   0  0  0  0  0  0  0  0  0  0  0  0  # atno 6907 bound_to 6896
  150.9643  133.6403  159.2756 H   0  0  0  0  0  0  0  0  0  0  0  0  # atno 6908 bound_to 6896
  151.3637  135.0914  159.9496 H   0  0  0  0  0  0  0  0  0  0  0  0  # atno 6909 bound_to 6896
  144.7143  140.0589  143.6433 H   0  0  0  0  0  0  0  0  0  0  0  0  # atno 7974 bound_to 7965
  155.9367  140.3411  155.6293 H   0  0  0  0  0  0  0  0  0  0  0  0  # atno 8008 bound_to 7997
  155.7090  140.0769  157.2397 H   0  0  0  0  0  0  0  0  0  0  0  0  # atno 8009 bound_to 7997
  154.4095  140.1626  156.2263 H   0  0  0  0  0  0  0  0  0  0  0  0  # atno 8010 bound_to 7997
  140.3099  144.2833  150.6202 H   0  0  0  0  0  0  0  0  0  0  0  0  # atno 10167 bound_to 10162
  157.5116  131.1097  150.9285 H   0  0  0  0  0  0  0  0  0  0  0  0  # atno 10718 bound_to 10713
  153.4157  135.3823  155.2079 H   0  0  0  0  0  0  0  0  0  0  0  0  # atno 10763 bound_to 10752
  154.8741  135.3805  154.4446 H   0  0  0  0  0  0  0  0  0  0  0  0  # atno 10764 bound_to 10752
  153.4959  135.7088  153.5920 H   0  0  0  0  0  0  0  0  0  0  0  0  # atno 10765 bound_to 10752
  139.9583  134.9608  156.9063 H   0  0  0  0  0  0  0  0  0  0  0  0  # atno 11005 bound_to 11000
  145.9881  139.2993  143.1001 LP  0  0  0  0  0  0  0  0  0  0  0  0  # atno 17320 bound_to 7965
  145.8935  140.9289  143.0540 LP  0  0  0  0  0  0  0  0  0  0  0  0  # atno 17321 bound_to 7965
  140.5578  143.2196  151.7818 LP  0  0  0  0  0  0  0  0  0  0  0  0  # atno 17342 bound_to 10162
  139.4896  144.4390  151.9786 LP  0  0  0  0  0  0  0  0  0  0  0  0  # atno 17343 bound_to 10162
  156.9923  130.5568  149.5304 LP  0  0  0  0  0  0  0  0  0  0  0  0  # atno 17370 bound_to 10713
  156.0293  130.5385  150.8490 LP  0  0  0  0  0  0  0  0  0  0  0  0  # atno 17371 bound_to 10713
  140.5557  134.0583  155.7383 LP  0  0  0  0  0  0  0  0  0  0  0  0  # atno 17394 bound_to 11000
  141.1258  133.9386  157.2638 LP  0  0  0  0  0  0  0  0  0  0  0  0  # atno 17395 bound_to 11000

$$$$
