#       Name:                AV-unprocessed.smi:2450
#       Creating user name   scv26
#       Creation time:       Fri Mar 27 13:30:35 2020


#       File generated by GOLD software.
#

@<TRIPOS>MOLECULE
AV-unprocessed.smi:2450
    45    46     1
SMALL
NO_CHARGES


@<TRIPOS>ATOM
      1 ****        -3.3926  -0.3712  -2.1175 C.3            1 S1                 0.0000
      2 ****        -3.8716  -1.1490  -0.8833 C.3            1 S1                 0.0000
      3 ****        -3.5886  -0.4396   0.4561 C.3            1 S1                 0.0000
      4 ****        -4.2036  -1.2025   1.6377 C.3            1 S1                 0.0000
      5 ****        -2.1503  -0.2980   0.6790 N.am           1 S1                 0.0000
      6 ****        -1.4428   0.8354   0.5632 C.2            1 S1                 0.0000
      7 ****        -1.9285   1.9145   0.2241 O.2            1 S1                 0.0000
      8 ****        -0.1460   0.6239   0.8430 N.am           1 S1                 0.0000
      9 ****         0.9294   1.5557   0.7975 C.ar           1 S1                 0.0000
     10 ****         0.7381   2.9246   1.1074 C.ar           1 S1                 0.0000
     11 ****         1.8443   3.7914   1.1180 C.ar           1 S1                 0.0000
     12 ****         3.1108   3.2553   0.8329 C.ar           1 S1                 0.0000
     13 ****         3.3124   1.9530   0.5497 N.ar           1 S1                 0.0000
     14 ****         2.2531   1.1067   0.5218 C.ar           1 S1                 0.0000
     15 ****         2.5247  -0.2446   0.2062 N.3            1 S1                 0.0000
     16 ****         3.8938  -0.7481   0.2266 C.3            1 S1                 0.0000
     17 ****         3.8338  -2.0826  -0.5104 C.3            1 S1                 0.0000
     18 ****         2.7903  -1.8111  -1.5899 C.3            1 S1                 0.0000
     19 ****         1.8084  -0.8471  -0.9148 C.3            1 S1                 0.0000
     20 ****        -3.6764  -0.8885  -3.0340 H              1 S1                 0.0000
     21 ****        -2.3084  -0.2598  -2.1269 H              1 S1                 0.0000
     22 ****        -3.8331   0.6258  -2.1487 H              1 S1                 0.0000
     23 ****        -4.9456  -1.3138  -0.9773 H              1 S1                 0.0000
     24 ****        -3.4142  -2.1392  -0.8818 H              1 S1                 0.0000
     25 ****        -4.0601   0.5442   0.4278 H              1 S1                 0.0000
     26 ****        -5.2835  -1.2999   1.5219 H              1 S1                 0.0000
     27 ****        -4.0203  -0.6831   2.5790 H              1 S1                 0.0000
     28 ****        -3.7866  -2.2067   1.7240 H              1 S1                 0.0000
     29 ****        -1.6551  -1.1337   0.9538 H              1 S1                 0.0000
     30 ****         0.1219  -0.3347   1.0122 H              1 S1                 0.0000
     31 ****        -0.2336   3.3198   1.3613 H              1 S1                 0.0000
     32 ****         1.7256   4.8388   1.3524 H              1 S1                 0.0000
     33 ****         3.9870   3.8866   0.8391 H              1 S1                 0.0000
     34 ****         4.5634  -0.0707  -0.3052 H              1 S1                 0.0000
     35 ****         4.2605  -0.8637   1.2470 H              1 S1                 0.0000
     36 ****         4.7990  -2.3896  -0.9141 H              1 S1                 0.0000
     37 ****         3.4801  -2.8656   0.1619 H              1 S1                 0.0000
     38 ****         3.2639  -1.3163  -2.4391 H              1 S1                 0.0000
     39 ****         2.3094  -2.7186  -1.9558 H              1 S1                 0.0000
     40 ****         0.9518  -1.4010  -0.5295 H              1 S1                 0.0000
     41 ****         1.4388  -0.0986  -1.6173 H              1 S1                 0.0000
     42 ****        -2.9045   1.9804   0.0166 LP             1 S1                 0.0000
     43 ****        -1.3470   2.7253   0.1562 LP             1 S1                 0.0000
     44 ****         4.2343   1.6141   0.3620 LP             1 S1                 0.0000
     45 ****         2.1129  -0.5632   1.0600 LP             1 S1                 0.0000
@<TRIPOS>BOND
    1    1    2 1     
    2    1   20 1     
    3    1   21 1     
    4    1   22 1     
    5    2    3 1     
    6    2   23 1     
    7    2   24 1     
    8    3    4 1     
    9    3    5 1     
   10    3   25 1     
   11    4   26 1     
   12    4   27 1     
   13    4   28 1     
   14    5    6 am    
   15    5   29 1     
   16    6    7 2     
   17    6    8 am    
   18    8    9 1     
   19    8   30 1     
   20    9   14 ar    
   21    9   10 ar    
   22   10   11 ar    
   23   10   31 1     
   24   11   12 ar    
   25   11   32 1     
   26   12   13 ar    
   27   12   33 1     
   28   13   14 ar    
   29   14   15 1     
   30   15   19 1     
   31   15   16 1     
   32   16   17 1     
   33   16   34 1     
   34   16   35 1     
   35   17   18 1     
   36   17   36 1     
   37   17   37 1     
   38   18   19 1     
   39   18   38 1     
   40   18   39 1     
   41   19   40 1     
   42   19   41 1     
   43    7   42 1     
   44    7   43 1     
   45   13   44 1     
   46   15   45 1     
@<TRIPOS>SUBSTRUCTURE
      1 S1             1
@<TRIPOS>SET
LONE_PAIRS      STATIC     ATOMS    <user>   **** ""
4 42 43 44 45
DONOR_HYDROGENS      STATIC     ATOMS    <user>   **** ""
2 29 30
ATOM$BLUE        STATIC     ATOMS    COLORGROUP SYSTEM
4 42 43 44 45
ATOM$RED        STATIC     ATOMS    COLORGROUP SYSTEM
2 29 30
