AV-unprocessed.smi:1047|AV-procd|sdf|4580|dock7
  -GOLD-   22720 3 43D 1   1.00000     0.00000
 Structure written by MMmdl.
 58 60  0  0  0  0  0  0  0  0  4 V2000
  145.2996  134.1527  151.0375 C   0  0  0  0  0  0  0  0  0  0  0  0
  144.9070  135.4849  150.3826 C   0  0  0  0  0  0  0  0  0  0  0  0
  144.7353  136.5792  151.3709 N   0  3  1  0  0  0  0  0  0  0  0  0
  143.5902  136.3398  152.2817 C   0  0  0  0  0  0  0  0  0  0  0  0
  143.4090  137.5249  153.2450 C   0  0  0  0  0  0  0  0  0  0  0  0
  144.6099  137.7354  153.9784 O   0  0  0  0  0  0  0  0  0  0  0  0
  145.7115  138.0427  153.1306 C   0  0  1  0  0  0  0  0  0  0  0  0
  146.9327  138.3844  154.0017 C   0  0  0  0  0  0  0  0  0  0  0  0
  148.1453  138.6243  153.1918 N   0  3  0  0  0  0  0  0  0  0  0  0
  149.2988  139.1241  153.9663 C   0  0  0  0  0  0  0  0  0  0  0  0
  149.0521  140.5594  154.4673 C   0  0  2  0  0  0  0  0  0  0  0  0
  148.5034  141.3218  153.4118 O   0  0  0  0  0  0  0  0  0  0  0  0
  150.3225  141.2822  154.9576 C   0  0  0  0  0  0  0  0  0  0  0  0
  150.8453  140.7313  156.2161 N   0  0  0  0  0  0  0  0  0  0  0  0
  151.0443  139.4329  156.5732 C   0  0  0  0  0  0  0  0  0  0  0  0
  151.5368  139.4259  157.8423 N   0  3  0  0  0  0  0  0  0  0  0  0
  151.6498  140.7380  158.3058 C   0  0  0  0  0  0  0  0  0  0  0  0
  152.0964  141.2356  159.5241 C   0  0  0  0  0  0  0  0  0  0  0  0
  152.0886  142.6388  159.6896 C   0  0  0  0  0  0  0  0  0  0  0  0
  152.5686  143.2152  161.0111 C   0  0  0  0  0  0  0  0  0  0  0  0
  151.6439  143.4938  158.6483 C   0  0  0  0  0  0  0  0  0  0  0  0
  151.6409  145.0014  158.8367 C   0  0  0  0  0  0  0  0  0  0  0  0
  151.1921  142.9680  157.4166 C   0  0  0  0  0  0  0  0  0  0  0  0
  151.2049  141.5823  157.2692 C   0  0  0  0  0  0  0  0  0  0  0  0
  145.9620  136.8751  152.1523 C   0  0  0  0  0  0  0  0  0  0  0  0
  145.5149  133.4018  150.2770 H   0  0  0  0  0  0  0  0  0  0  0  0
  144.5033  133.7539  151.6654 H   0  0  0  0  0  0  0  0  0  0  0  0
  146.1927  134.2629  151.6532 H   0  0  0  0  0  0  0  0  0  0  0  0
  145.6988  135.7600  149.6846 H   0  0  0  0  0  0  0  0  0  0  0  0
  143.9989  135.3683  149.7892 H   0  0  0  0  0  0  0  0  0  0  0  0
  142.6775  136.1992  151.7011 H   0  0  0  0  0  0  0  0  0  0  0  0
  143.7560  135.4206  152.8460 H   0  0  0  0  0  0  0  0  0  0  0  0
  143.1360  138.4308  152.7013 H   0  0  0  0  0  0  0  0  0  0  0  0
  142.5994  137.3192  153.9455 H   0  0  0  0  0  0  0  0  0  0  0  0
  145.4620  138.9346  152.5524 H   0  0  0  0  0  0  0  0  0  0  0  0
  146.7188  139.2690  154.6030 H   0  0  0  0  0  0  0  0  0  0  0  0
  147.1289  137.5675  154.6975 H   0  0  0  0  0  0  0  0  0  0  0  0
  148.4134  137.7570  152.7474 H   0  0  0  0  0  0  0  0  0  0  0  0
  149.4466  138.4497  154.8099 H   0  0  0  0  0  0  0  0  0  0  0  0
  150.2043  139.0810  153.3591 H   0  0  0  0  0  0  0  0  0  0  0  0
  148.3238  140.5389  155.2793 H   0  0  0  0  0  0  0  0  0  0  0  0
  148.8223  140.9806  152.5896 H   0  0  0  0  0  0  0  0  0  0  0  0
  151.1056  141.2700  154.1994 H   0  0  0  0  0  0  0  0  0  0  0  0
  150.1000  142.3338  155.1453 H   0  0  0  0  0  0  0  0  0  0  0  0
  150.8453  138.5645  155.9614 H   0  0  0  0  0  0  0  0  0  0  0  0
  152.4342  140.5784  160.3123 H   0  0  0  0  0  0  0  0  0  0  0  0
  151.7979  143.8419  161.4607 H   0  0  0  0  0  0  0  0  0  0  0  0
  153.4636  143.8196  160.8618 H   0  0  0  0  0  0  0  0  0  0  0  0
  152.8131  142.4277  161.7246 H   0  0  0  0  0  0  0  0  0  0  0  0
  151.3429  145.5176  157.9235 H   0  0  0  0  0  0  0  0  0  0  0  0
  152.6339  145.3586  159.1099 H   0  0  0  0  0  0  0  0  0  0  0  0
  150.9417  145.2847  159.6239 H   0  0  0  0  0  0  0  0  0  0  0  0
  150.8535  143.6235  156.6283 H   0  0  0  0  0  0  0  0  0  0  0  0
  146.2656  135.9779  152.6940 H   0  0  0  0  0  0  0  0  0  0  0  0
  146.7817  137.1379  151.4842 H   0  0  0  0  0  0  0  0  0  0  0  0
  147.9294  139.2998  152.4729 H   0  0  0  0  0  0  0  0  0  0  0  0
  144.5093  137.4108  150.8434 H   0  0  0  0  0  0  0  0  0  0  0  0
  151.7722  138.5852  158.3550 H   0  0  0  0  0  0  0  0  0  0  0  0
  1  2  1  0  0  0  0
  1 26  1  0  0  0  0
  1 27  1  0  0  0  0
  1 28  1  0  0  0  0
  2  3  1  0  0  0  0
  2 29  1  0  0  0  0
  2 30  1  0  0  0  0
  3 25  1  0  0  0  0
  3  4  1  0  0  0  0
  3 57  1  0  0  0  0
  4  5  1  0  0  0  0
  4 31  1  0  0  0  0
  4 32  1  0  0  0  0
  5  6  1  0  0  0  0
  5 33  1  0  0  0  0
  5 34  1  0  0  0  0
  6  7  1  0  0  0  0
  7  8  1  0  0  0  0
  7 25  1  0  0  0  0
  7 35  1  0  0  0  0
  8  9  1  0  0  0  0
  8 36  1  0  0  0  0
  8 37  1  0  0  0  0
  9 10  1  0  0  0  0
  9 38  1  0  0  0  0
  9 56  1  0  0  0  0
 10 11  1  0  0  0  0
 10 39  1  0  0  0  0
 10 40  1  0  0  0  0
 11 12  1  0  0  0  0
 11 13  1  0  0  0  0
 11 41  1  0  0  0  0
 12 42  1  0  0  0  0
 13 14  1  0  0  0  0
 13 43  1  0  0  0  0
 13 44  1  0  0  0  0
 14 24  1  0  0  0  0
 14 15  1  0  0  0  0
 15 16  2  0  0  0  0
 15 45  1  0  0  0  0
 16 17  1  0  0  0  0
 16 58  1  0  0  0  0
 17 24  2  0  0  0  0
 17 18  1  0  0  0  0
 18 19  2  0  0  0  0
 18 46  1  0  0  0  0
 19 20  1  0  0  0  0
 19 21  1  0  0  0  0
 20 47  1  0  0  0  0
 20 48  1  0  0  0  0
 20 49  1  0  0  0  0
 21 22  1  0  0  0  0
 21 23  2  0  0  0  0
 22 50  1  0  0  0  0
 22 51  1  0  0  0  0
 22 52  1  0  0  0  0
 23 24  1  0  0  0  0
 23 53  1  0  0  0  0
 25 54  1  0  0  0  0
 25 55  1  0  0  0  0
M  CHG  1   3   1
M  CHG  1   9   1
M  CHG  1  16   1
M  END
> <s_m_source_file>
AV-unprocessed.smi

> <i_m_source_file_index>
1047

> <i_lp_mmshare_version>
43012

> <i_f3d_flags>
0

> <s_epik_input>
W0NIM11bQ0gyXU4xW0NIMl1bQ0gyXU9bQ0BIXShbQ0gyXTEpW0NIMl1bTkhdW0NIMl1bQ0BIXShbT0hdKVtDSDJdbihbY0hdbjIpYyhjMjMpW2NIXWMoW0NIM10pYyhbY0hdMylbQ0gzXQ==

> <s_epik_cmdline>
J2VwaWtfcHl0aG9uJywgJy1waCcsICc3LjAnLCAnLXRuJywgJzgnLCAnLW1hJywgJzIwMCcsICctbWV0YWxfYmluZGluZycsICctaW1hZScsICc8aW5maWxlLm1hZT4nLCAnLW9tYWUnLCAnPG91dGZpbGUubWFlPic=

> <r_epik_Ionization_Penalty>
1.6114

> <r_epik_Ionization_Penalty_Charging>
1.61139

> <r_epik_Ionization_Penalty_Neutral>
5.04732e-06

> <r_epik_State_Penalty>
1.63724

> <r_epik_Charging_Adjusted_Penalty>
3.24864

> <i_epik_Tot_Q>
3

> <i_epik_Tot_abs_Q>
3

> <r_epik_Metal_State_Penalty>
5.64594

> <b_epik_Metal_Only>
0

> <s_lp_Force_Field>
OPLS_2005

> <r_lp_Energy>
43.5462

> <b_lp_Chiralities_Consistent>
1

> <s_lp_Variant>
AV-unprocessed.smi:1047-21

> <Gold.Version>
5.8.1

> <Gold.Id.Protein>
6NUR|6NUR_protein|mol2

> <Gold.PLP.Fitness>
59.3590

> <Gold.PLP.PLP>
-47.6417

> <Gold.PLP.part.hbond>
-5.0000

> <Gold.PLP.part.metal>
0.0000

> <Gold.PLP.part.buried>
-0.5529

> <Gold.PLP.part.nonpolar>
-41.5253

> <Gold.PLP.part.repulsive>
0.2415

> <Gold.PLP.ligand.clash>
0.0000

> <Gold.PLP.ligand.torsion>
0.3764

> <Gold.PLP.Chemscore.Hbond>
4.0874

> <Gold.PLP.Chemscore.CHOScore>
0.0000

> <Gold.PLP.Chemscore.Metal>
0.0000

> <Gold.Chemscore.Hbonds>
donor molecule, donor type, donor heavy atom, donor atom, acceptor molecule, acceptor atom, score
      L1  H     3    57       P1 10171  1.00
      L1  H     9    38       P1  7948  2.00
      L1  H     9    56       P1  7957  0.19
      L1  H    12    42       P1  7957  1.00

> <Gold.PLP.Chemscore.Internal.Correction>
0.2080

> <Gold.Rescore>
     Score         DG    S(hbond)    S(metal)    S(lipo)     H(rot)  DE(clash)    DE(int)     intcor
     21.41     -23.98       3.03        0.00     132.61       2.78       2.13       0.43       ----

> <Gold.Chemscore.Fitness>
21.4063

> <Gold.Chemscore.DG>
-23.9753

> <Gold.Chemscore.ZeroCoef>
-5.4800

> <Gold.Chemscore.Hbond>
3.0267

> <Gold.Chemscore.Metal>
0.0000

> <Gold.Chemscore.Lipo>
132.6074

> <Gold.Chemscore.Internal_Hbond>
0.0000

> <Gold.Chemscore.DEClash>
2.1344

> <Gold.Chemscore.DEInternal>
0.4345

> <Gold.Chemscore.Rot>
2.7848

> <Gold.Chemscore.Internal.Correction>
   9.000000E+99

> <Gold.Chemscore.Hbonds>
donor molecule, donor type, donor heavy atom, donor atom, acceptor molecule, acceptor atom, score
      L1  H     3    57       P1 10171  1.00
      L1  H     9    38       P1  7948  1.00
      L1  H     9    56       P1  7957  0.18
      L1  H    12    42       P1  7957  1.00

> <Gold.Chemscore.Hbond.Weighted>
-10.1093

> <Gold.Chemscore.Metal.Weighted>
-0.0000

> <Gold.Chemscore.Lipo.Weighted>
-15.5151

> <Gold.Chemscore.Internal_Hbond.Weighted>
0.0000

> <Gold.Chemscore.DEClash.Weighted>
2.1344

> <Gold.Chemscore.DEInternal.Weighted>
0.4345

> <Gold.Chemscore.Rot.Weighted>
7.1291

> <Gold.Chemscore.Internal.Correction.Weighted>
   9.000000E+99

> <Gold.Protein.RotatedTorsions>
[ 6907 6896 6895 6894 ] final  129.15 input  -60.11 | X-H torsion
[ 7974 7965 7964 7962 ] final -108.40 input  175.53 | X-H torsion
[ 8008 7997 7996 7995 ] final  -60.96 input   59.86 | X-H torsion
[ 10167 10162 10161 10158 ] final   49.47 input  -65.29 | X-H torsion
[ 10718 10713 10712 10709 ] final  135.49 input   66.30 | X-H torsion
[ 10763 10752 10751 10750 ] final   73.58 input  -60.55 | X-H torsion
[ 11005 11000 10999 10996 ] final   26.87 input  -57.11 | X-H torsion

> <Gold.Protein.ActiveResidues>
 VAL166  LYS551  ARG553  GLY616  TRP617  ASP618  TYR619  PRO620  LYS621  CYS622 
 ASP623  PHE694  ASN695  SER759  ASP760  ASP761  ALA762  ILE779  LEU786  VAL792 
 PHE793  MET794  SER795  GLU796  ALA797  LYS798  CYS799  TRP800  GLU811  SER814 

> <Gold.Protein.RotatedAtoms>
  152.3651  133.6347  159.6044 H   0  0  0  0  0  0  0  0  0  0  0  0  # atno 6907 bound_to 6896
  150.7628  133.9360  159.3450 H   0  0  0  0  0  0  0  0  0  0  0  0  # atno 6908 bound_to 6896
  151.7192  135.0898  160.0332 H   0  0  0  0  0  0  0  0  0  0  0  0  # atno 6909 bound_to 6896
  145.1933  140.9024  143.3412 H   0  0  0  0  0  0  0  0  0  0  0  0  # atno 7974 bound_to 7965
  154.4424  140.1028  156.6356 H   0  0  0  0  0  0  0  0  0  0  0  0  # atno 8008 bound_to 7997
  155.5557  140.3486  155.4460 H   0  0  0  0  0  0  0  0  0  0  0  0  # atno 8009 bound_to 7997
  156.0496  140.1301  157.0054 H   0  0  0  0  0  0  0  0  0  0  0  0  # atno 8010 bound_to 7997
  140.2825  144.3140  150.6260 H   0  0  0  0  0  0  0  0  0  0  0  0  # atno 10167 bound_to 10162
  157.4565  131.1070  150.9972 H   0  0  0  0  0  0  0  0  0  0  0  0  # atno 10718 bound_to 10713
  153.0531  135.5057  154.7915 H   0  0  0  0  0  0  0  0  0  0  0  0  # atno 10763 bound_to 10752
  154.6762  135.2961  154.9678 H   0  0  0  0  0  0  0  0  0  0  0  0  # atno 10764 bound_to 10752
  154.0479  135.6708  153.4850 H   0  0  0  0  0  0  0  0  0  0  0  0  # atno 10765 bound_to 10752
  140.3324  134.2423  155.7700 H   0  0  0  0  0  0  0  0  0  0  0  0  # atno 11005 bound_to 11000
  145.0019  139.3590  143.6163 LP  0  0  0  0  0  0  0  0  0  0  0  0  # atno 17320 bound_to 7965
  146.3432  139.9246  142.8762 LP  0  0  0  0  0  0  0  0  0  0  0  0  # atno 17321 bound_to 7965
  140.5800  143.2173  151.7446 LP  0  0  0  0  0  0  0  0  0  0  0  0  # atno 17342 bound_to 10162
  139.4959  144.4094  152.0097 LP  0  0  0  0  0  0  0  0  0  0  0  0  # atno 17343 bound_to 10162
  157.0784  130.5893  149.5415 LP  0  0  0  0  0  0  0  0  0  0  0  0  # atno 17370 bound_to 10713
  156.0009  130.5088  150.7660 LP  0  0  0  0  0  0  0  0  0  0  0  0  # atno 17371 bound_to 10713
  141.2060  133.7845  157.0202 LP  0  0  0  0  0  0  0  0  0  0  0  0  # atno 17394 bound_to 11000
  140.0850  134.9626  157.1685 LP  0  0  0  0  0  0  0  0  0  0  0  0  # atno 17395 bound_to 11000

$$$$
