AV-unprocessed.smi:1327|AV-procd|sdf|5478|dock3
  -GOLD-   22720 5 53D 1   1.00000     0.00000
 Structure written by MMmdl.
 39 40  0  0  0  0  0  0  0  0  2 V2000
  151.9137  136.5140  158.3849 O   0  0  0  0  0  0  0  0  0  0  0  0
  153.2580  137.0108  158.0496 S   0  0  0  0  0  0  0  0  0  0  0  0
  154.1211  136.1443  157.2291 O   0  0  0  0  0  0  0  0  0  0  0  0
  153.2528  138.5659  157.5851 N   0  5  0  0  0  0  0  0  0  0  0  0
  151.9940  139.2900  157.5147 C   0  0  0  0  0  0  0  0  0  0  0  0
  151.6958  140.0192  158.8481 C   0  0  0  0  0  0  0  0  0  0  0  0
  151.9102  141.5312  158.8397 C   0  0  0  0  0  0  0  0  0  0  0  0
  152.6776  142.1606  159.8467 C   0  0  0  0  0  0  0  0  0  0  0  0
  152.8298  143.5597  159.8025 C   0  0  0  0  0  0  0  0  0  0  0  0
  152.2221  144.2765  158.7540 C   0  0  0  0  0  0  0  0  0  0  0  0
  151.4879  143.5582  157.7903 C   0  0  0  0  0  0  0  0  0  0  0  0
  151.3371  142.2176  157.8214 N   0  0  0  0  0  0  0  0  0  0  0  0
  154.0883  137.2419  159.5626 N   0  0  0  0  0  0  0  0  0  0  0  0
  153.3150  136.9966  160.8011 C   0  0  0  0  0  0  0  0  0  0  0  0
  154.0483  137.3086  162.1208 C   0  0  0  0  0  0  0  0  0  0  0  0
  154.0486  138.8006  162.4891 C   0  0  0  0  0  0  0  0  0  0  0  0
  155.0712  139.6314  161.7070 C   0  0  0  0  0  0  0  0  0  0  0  0
  154.8937  139.5547  160.1855 C   0  0  0  0  0  0  0  0  0  0  0  0
  155.2396  138.1707  159.6064 C   0  0  0  0  0  0  0  0  0  0  0  0
  151.9768  140.0138  156.6988 H   0  0  0  0  0  0  0  0  0  0  0  0
  151.1702  138.6063  157.3089 H   0  0  0  0  0  0  0  0  0  0  0  0
  150.6594  139.8299  159.1292 H   0  0  0  0  0  0  0  0  0  0  0  0
  152.2993  139.5804  159.6444 H   0  0  0  0  0  0  0  0  0  0  0  0
  153.1250  141.5845  160.6432 H   0  0  0  0  0  0  0  0  0  0  0  0
  153.4001  144.0742  160.5613 H   0  0  0  0  0  0  0  0  0  0  0  0
  152.3149  145.3502  158.6903 H   0  0  0  0  0  0  0  0  0  0  0  0
  151.0075  144.0736  156.9720 H   0  0  0  0  0  0  0  0  0  0  0  0
  152.3805  137.5574  160.7574 H   0  0  0  0  0  0  0  0  0  0  0  0
  153.0299  135.9445  160.8059 H   0  0  0  0  0  0  0  0  0  0  0  0
  153.5183  136.7823  162.9151 H   0  0  0  0  0  0  0  0  0  0  0  0
  155.0574  136.8952  162.1263 H   0  0  0  0  0  0  0  0  0  0  0  0
  153.0495  139.2173  162.3551 H   0  0  0  0  0  0  0  0  0  0  0  0
  154.2723  138.8993  163.5518 H   0  0  0  0  0  0  0  0  0  0  0  0
  154.9873  140.6723  162.0205 H   0  0  0  0  0  0  0  0  0  0  0  0
  156.0811  139.3190  161.9746 H   0  0  0  0  0  0  0  0  0  0  0  0
  153.8910  139.8681  159.8953 H   0  0  0  0  0  0  0  0  0  0  0  0
  155.5688  140.2843  159.7376 H   0  0  0  0  0  0  0  0  0  0  0  0
  156.0585  137.7104  160.1591 H   0  0  0  0  0  0  0  0  0  0  0  0
  155.6245  138.3055  158.5970 H   0  0  0  0  0  0  0  0  0  0  0  0
  1  2  2  0  0  0  0
  2  3  2  0  0  0  0
  2  4  1  0  0  0  0
  2 13  1  0  0  0  0
  4  5  1  0  0  0  0
  5  6  1  0  0  0  0
  5 20  1  0  0  0  0
  5 21  1  0  0  0  0
  6  7  1  0  0  0  0
  6 22  1  0  0  0  0
  6 23  1  0  0  0  0
  7 12  1  0  0  0  0
  7  8  2  0  0  0  0
  8  9  1  0  0  0  0
  8 24  1  0  0  0  0
  9 10  2  0  0  0  0
  9 25  1  0  0  0  0
 10 11  1  0  0  0  0
 10 26  1  0  0  0  0
 11 12  2  0  0  0  0
 11 27  1  0  0  0  0
 13 19  1  0  0  0  0
 13 14  1  0  0  0  0
 14 15  1  0  0  0  0
 14 28  1  0  0  0  0
 14 29  1  0  0  0  0
 15 16  1  0  0  0  0
 15 30  1  0  0  0  0
 15 31  1  0  0  0  0
 16 17  1  0  0  0  0
 16 32  1  0  0  0  0
 16 33  1  0  0  0  0
 17 18  1  0  0  0  0
 17 34  1  0  0  0  0
 17 35  1  0  0  0  0
 18 19  1  0  0  0  0
 18 36  1  0  0  0  0
 18 37  1  0  0  0  0
 19 38  1  0  0  0  0
 19 39  1  0  0  0  0
M  CHG  1   4  -1
M  END
> <s_m_source_file>
AV-unprocessed.smi

> <i_m_source_file_index>
1327

> <i_lp_mmshare_version>
43012

> <i_f3d_flags>
0

> <s_epik_input>
W0NIMl0xW0NIMl1bQ0gyXVtDSDJdW0NIMl1bQ0gyXU4xUyg9TykoPU8pW05IXVtDSDJdW0NIMl1jMltjSF1bY0hdW2NIXVtjSF1uMg==

> <s_epik_cmdline>
J2VwaWtfcHl0aG9uJywgJy1waCcsICc3LjAnLCAnLXRuJywgJzgnLCAnLW1hJywgJzIwMCcsICctbWV0YWxfYmluZGluZycsICctaW1hZScsICc8aW5maWxlLm1hZT4nLCAnLW9tYWUnLCAnPG91dGZpbGUubWFlPic=

> <r_lp_tautomer_probability>
1

> <r_epik_Ionization_Penalty>
3.18796

> <r_epik_Ionization_Penalty_Charging>
3.10426

> <r_epik_Ionization_Penalty_Neutral>
0.0836926

> <r_epik_State_Penalty>
3.10111

> <r_epik_Charging_Adjusted_Penalty>
6.20538

> <i_epik_Tot_Q>
-1

> <i_epik_Tot_abs_Q>
1

> <r_epik_Metal_State_Penalty>
0.463976

> <b_epik_Metal_Only>
1

> <s_lp_Force_Field>
OPLS_2005

> <r_lp_Energy>
9.11233

> <b_lp_Chiralities_Consistent>
1

> <s_lp_Variant>
AV-unprocessed.smi:1327-2

> <Gold.Version>
5.8.1

> <Gold.Id.Protein>
6NUR|6NUR_protein|mol2

> <Gold.PLP.Fitness>
47.0374

> <Gold.PLP.PLP>
-34.3829

> <Gold.PLP.part.hbond>
-3.0000

> <Gold.PLP.part.metal>
0.0000

> <Gold.PLP.part.buried>
-4.2150

> <Gold.PLP.part.nonpolar>
-27.6873

> <Gold.PLP.part.repulsive>
0.0496

> <Gold.PLP.ligand.clash>
0.0000

> <Gold.PLP.ligand.torsion>
2.2152

> <Gold.PLP.Chemscore.Hbond>
3.6596

> <Gold.PLP.Chemscore.CHOScore>
1.0000

> <Gold.PLP.Chemscore.Metal>
0.0000

> <Gold.Chemscore.Hbonds>
donor molecule, donor type, donor heavy atom, donor atom, acceptor molecule, acceptor atom, score
      P1  H  6896  6907       L1     1  0.46
      P1  H  7997  8009       L1     4  1.92
      P1  H 10752 10764       L1     3  1.00
      L1  C    11    27       P1  8028  0.95

> <Gold.PLP.Chemscore.Internal.Correction>
3.1060

> <Gold.Rescore>
     Score         DG    S(hbond)    S(metal)    S(lipo)     H(rot)  DE(clash)    DE(int)     intcor
     20.00     -22.21       2.42        0.00     101.76       1.27       0.00       2.21       ----

> <Gold.Chemscore.Fitness>
19.9976

> <Gold.Chemscore.DG>
-22.2138

> <Gold.Chemscore.ZeroCoef>
-5.4800

> <Gold.Chemscore.Hbond>
2.4220

> <Gold.Chemscore.Metal>
0.0000

> <Gold.Chemscore.Lipo>
101.7560

> <Gold.Chemscore.Internal_Hbond>
0.0000

> <Gold.Chemscore.DEClash>
0.0029

> <Gold.Chemscore.DEInternal>
2.2133

> <Gold.Chemscore.Rot>
1.2738

> <Gold.Chemscore.Internal.Correction>
   9.000000E+99

> <Gold.Chemscore.Hbonds>
donor molecule, donor type, donor heavy atom, donor atom, acceptor molecule, acceptor atom, score
      P1  H  6896  6907       L1     1  0.44
      P1  H  7997  8009       L1     4  0.23
      P1  H 10752 10764       L1     3  0.93

> <Gold.Chemscore.Hbond.Weighted>
-8.0894

> <Gold.Chemscore.Metal.Weighted>
-0.0000

> <Gold.Chemscore.Lipo.Weighted>
-11.9054

> <Gold.Chemscore.Internal_Hbond.Weighted>
0.0000

> <Gold.Chemscore.DEClash.Weighted>
0.0029

> <Gold.Chemscore.DEInternal.Weighted>
2.2133

> <Gold.Chemscore.Rot.Weighted>
3.2610

> <Gold.Chemscore.Internal.Correction.Weighted>
   9.000000E+99

> <Gold.Protein.RotatedTorsions>
[ 6907 6896 6895 6894 ] final    5.65 input  -60.11 | X-H torsion
[ 7974 7965 7964 7962 ] final -111.27 input  175.53 | X-H torsion
[ 8008 7997 7996 7995 ] final  159.69 input   59.86 | X-H torsion
[ 10167 10162 10161 10158 ] final  -92.61 input  -65.29 | X-H torsion
[ 10718 10713 10712 10709 ] final -165.78 input   66.30 | X-H torsion
[ 10763 10752 10751 10750 ] final   33.80 input  -60.55 | X-H torsion
[ 11005 11000 10999 10996 ] final -159.25 input  -57.11 | X-H torsion

> <Gold.Protein.ActiveResidues>
 VAL166  LYS551  ARG553  GLY616  TRP617  ASP618  TYR619  PRO620  LYS621  CYS622 
 ASP623  PHE694  ASN695  SER759  ASP760  ASP761  ALA762  ILE779  LEU786  VAL792 
 PHE793  MET794  SER795  GLU796  ALA797  LYS798  CYS799  TRP800  GLU811  SER814 

> <Gold.Protein.RotatedAtoms>
  151.6610  135.0989  160.0179 H   0  0  0  0  0  0  0  0  0  0  0  0  # atno 6907 bound_to 6896
  152.3947  133.6725  159.6274 H   0  0  0  0  0  0  0  0  0  0  0  0  # atno 6908 bound_to 6896
  150.7856  133.8812  159.3327 H   0  0  0  0  0  0  0  0  0  0  0  0  # atno 6909 bound_to 6896
  145.1581  140.8864  143.3607 H   0  0  0  0  0  0  0  0  0  0  0  0  # atno 7974 bound_to 7965
  156.2222  140.1824  156.7449 H   0  0  0  0  0  0  0  0  0  0  0  0  # atno 8008 bound_to 7997
  154.5884  140.0655  156.9232 H   0  0  0  0  0  0  0  0  0  0  0  0  # atno 8009 bound_to 7997
  155.2379  140.3320  155.4298 H   0  0  0  0  0  0  0  0  0  0  0  0  # atno 8010 bound_to 7997
  140.3331  143.2984  151.9920 H   0  0  0  0  0  0  0  0  0  0  0  0  # atno 10167 bound_to 10162
  156.6584  130.9036  151.3025 H   0  0  0  0  0  0  0  0  0  0  0  0  # atno 10718 bound_to 10713
  153.0194  135.6377  154.1568 H   0  0  0  0  0  0  0  0  0  0  0  0  # atno 10763 bound_to 10752
  154.1304  135.2841  155.3188 H   0  0  0  0  0  0  0  0  0  0  0  0  # atno 10764 bound_to 10752
  154.6198  135.5528  153.7625 H   0  0  0  0  0  0  0  0  0  0  0  0  # atno 10765 bound_to 10752
  140.6446  134.4515  157.5234 H   0  0  0  0  0  0  0  0  0  0  0  0  # atno 11005 bound_to 11000
  145.0360  139.3300  143.6000 LP  0  0  0  0  0  0  0  0  0  0  0  0  # atno 17320 bound_to 7965
  146.3486  139.9715  142.8705 LP  0  0  0  0  0  0  0  0  0  0  0  0  # atno 17321 bound_to 7965
  139.4853  144.6219  151.7239 LP  0  0  0  0  0  0  0  0  0  0  0  0  # atno 17342 bound_to 10162
  140.5379  144.0626  150.6077 LP  0  0  0  0  0  0  0  0  0  0  0  0  # atno 17343 bound_to 10162
  157.7118  130.9449  150.1115 LP  0  0  0  0  0  0  0  0  0  0  0  0  # atno 17370 bound_to 10713
  156.2030  130.3661  149.8764 LP  0  0  0  0  0  0  0  0  0  0  0  0  # atno 17371 bound_to 10713
  139.9067  134.8432  156.1678 LP  0  0  0  0  0  0  0  0  0  0  0  0  # atno 17394 bound_to 11000
  141.0581  133.6855  156.1900 LP  0  0  0  0  0  0  0  0  0  0  0  0  # atno 17395 bound_to 11000

$$$$
