#       Name:                AV-unprocessed.smi:203
#       Creating user name   scv26
#       Creation time:       Thu Mar 26 19:49:15 2020


#       File generated by GOLD software.
#

@<TRIPOS>MOLECULE
AV-unprocessed.smi:203
    67    71     1
SMALL
NO_CHARGES


@<TRIPOS>ATOM
      1 ****        -3.2840   0.6966   5.9126 O.2            1 S1                 0.0000
      2 ****        -3.1180   0.8374   4.7033 C.2            1 S1                 0.0000
      3 ****        -2.8442  -0.3183   3.7543 C.3            1 S1                 0.0000
      4 ****        -2.4230   0.4025   2.4604 C.3            1 S1                 0.0000
      5 ****        -2.7609  -0.3175   1.1175 C.3            1 S1                 0.0000
      6 ****        -4.2818  -0.5540   0.9172 C.3            1 S1                 0.0000
      7 ****        -4.5781  -1.2609  -0.4121 C.3            1 S1                 0.0000
      8 ****        -3.9786  -0.4611  -1.5727 C.3            1 S1                 0.0000
      9 ****        -2.4749  -0.2553  -1.3528 C.3            1 S1                 0.0000
     10 ****        -2.2062   0.3756  -0.0606 N.3            1 S1                 0.0000
     11 ****        -0.9089   0.7519   0.0042 C.ar           1 S1                 0.0000
     12 ****        -0.6325   2.0585  -0.2289 N.ar           1 S1                 0.0000
     13 ****         0.6307   2.4921  -0.1802 C.ar           1 S1                 0.0000
     14 ****         1.7429   1.7988   0.0732 N.ar           1 S1                 0.0000
     15 ****         1.4664   0.4820   0.2978 C.ar           1 S1                 0.0000
     16 ****         0.1791  -0.1236   0.2804 C.ar           1 S1                 0.0000
     17 ****         0.2908  -1.4838   0.5434 N.2            1 S1                 0.0000
     18 ****         1.5723  -1.6728   0.7021 C.2            1 S1                 0.0000
     19 ****         2.3517  -0.5469   0.5662 N.pl3          1 S1                 0.0000
     20 ****         3.7974  -0.4766   0.6702 C.3            1 S1                 0.0000
     21 ****         4.5150  -0.9372  -0.6162 C.3            1 S1                 0.0000
     22 ****         5.9049  -0.8307  -0.3819 O.3            1 S1                 0.0000
     23 ****         4.1487  -0.1200  -1.8754 C.3            1 S1                 0.0000
     24 ****         4.9529  -0.4750  -3.1270 C.3            1 S1                 0.0000
     25 ****         4.0643   0.0026  -4.2643 C.3            1 S1                 0.0000
     26 ****         2.6780   0.1157  -3.6249 C.3            1 S1                 0.0000
     27 ****         2.8311  -0.4143  -2.3162 O.3            1 S1                 0.0000
     28 ****        -2.9504   1.8434   2.6152 C.3            1 S1                 0.0000
     29 ****        -3.1501   1.9946   4.0430 N.am           1 S1                 0.0000
     30 ****        -2.0586  -0.9717   4.1350 H              1 S1                 0.0000
     31 ****        -3.7562  -0.9025   3.6526 H              1 S1                 0.0000
     32 ****        -1.3369   0.4667   2.5407 H              1 S1                 0.0000
     33 ****        -2.2957  -1.3030   1.1557 H              1 S1                 0.0000
     34 ****        -4.6958  -1.1572   1.7229 H              1 S1                 0.0000
     35 ****        -4.8226   0.3915   0.9328 H              1 S1                 0.0000
     36 ****        -4.1576  -2.2672  -0.3980 H              1 S1                 0.0000
     37 ****        -5.6544  -1.3720  -0.5478 H              1 S1                 0.0000
     38 ****        -4.1519  -0.9787  -2.5164 H              1 S1                 0.0000
     39 ****        -4.4753   0.5070  -1.6511 H              1 S1                 0.0000
     40 ****        -1.9617  -1.2171  -1.3981 H              1 S1                 0.0000
     41 ****        -2.0712   0.3575  -2.1607 H              1 S1                 0.0000
     42 ****         0.7705   3.5455  -0.3730 H              1 S1                 0.0000
     43 ****         1.9885  -2.6467   0.9149 H              1 S1                 0.0000
     44 ****         4.0785   0.5485   0.9158 H              1 S1                 0.0000
     45 ****         4.1051  -1.0932   1.5158 H              1 S1                 0.0000
     46 ****         4.2941  -1.9900  -0.7969 H              1 S1                 0.0000
     47 ****         6.1269  -1.3733   0.3592 H              1 S1                 0.0000
     48 ****         4.2313   0.9497  -1.6731 H              1 S1                 0.0000
     49 ****         5.9413  -0.0148  -3.1409 H              1 S1                 0.0000
     50 ****         5.0834  -1.5562  -3.1939 H              1 S1                 0.0000
     51 ****         4.3902   0.9745  -4.6366 H              1 S1                 0.0000
     52 ****         4.0760  -0.6999  -5.0981 H              1 S1                 0.0000
     53 ****         2.3679   1.1594  -3.5573 H              1 S1                 0.0000
     54 ****         1.9149  -0.4326  -4.1776 H              1 S1                 0.0000
     55 ****        -2.2402   2.5799   2.2380 H              1 S1                 0.0000
     56 ****        -3.9025   2.0045   2.1122 H              1 S1                 0.0000
     57 ****        -3.3199   2.8905   4.4771 H              1 S1                 0.0000
     58 ****        -3.4614   1.4941   6.4891 LP             1 S1                 0.0000
     59 ****        -3.2418  -0.2156   6.3202 LP             1 S1                 0.0000
     60 ****        -2.7456   1.2162  -0.0110 LP             1 S1                 0.0000
     61 ****        -1.3732   2.6972  -0.4371 LP             1 S1                 0.0000
     62 ****         2.6611   2.1940   0.0955 LP             1 S1                 0.0000
     63 ****        -0.4423  -2.1618   0.5984 LP             1 S1                 0.0000
     64 ****         6.1419   0.1208  -0.1862 LP             1 S1                 0.0000
     65 ****         6.4076  -1.1402  -1.1891 LP             1 S1                 0.0000
     66 ****         2.1651   0.0058  -1.6998 LP             1 S1                 0.0000
     67 ****         2.6918  -1.4045  -2.3325 LP             1 S1                 0.0000
@<TRIPOS>BOND
    1    1    2 2     
    2    2   29 am    
    3    2    3 1     
    4    3    4 1     
    5    3   30 1     
    6    3   31 1     
    7    4    5 1     
    8    4   28 1     
    9    4   32 1     
   10    5   10 1     
   11    5    6 1     
   12    5   33 1     
   13    6    7 1     
   14    6   34 1     
   15    6   35 1     
   16    7    8 1     
   17    7   36 1     
   18    7   37 1     
   19    8    9 1     
   20    8   38 1     
   21    8   39 1     
   22    9   10 1     
   23    9   40 1     
   24    9   41 1     
   25   10   11 1     
   26   11   16 ar    
   27   11   12 ar    
   28   12   13 ar    
   29   13   14 ar    
   30   13   42 1     
   31   14   15 ar    
   32   15   19 1     
   33   15   16 ar    
   34   16   17 1     
   35   17   18 2     
   36   18   19 1     
   37   18   43 1     
   38   19   20 1     
   39   20   21 1     
   40   20   44 1     
   41   20   45 1     
   42   21   22 1     
   43   21   23 1     
   44   21   46 1     
   45   22   47 1     
   46   23   27 1     
   47   23   24 1     
   48   23   48 1     
   49   24   25 1     
   50   24   49 1     
   51   24   50 1     
   52   25   26 1     
   53   25   51 1     
   54   25   52 1     
   55   26   27 1     
   56   26   53 1     
   57   26   54 1     
   58   28   29 1     
   59   28   55 1     
   60   28   56 1     
   61   29   57 1     
   62    1   58 1     
   63    1   59 1     
   64   10   60 1     
   65   12   61 1     
   66   14   62 1     
   67   17   63 1     
   68   22   64 1     
   69   22   65 1     
   70   27   66 1     
   71   27   67 1     
@<TRIPOS>SUBSTRUCTURE
      1 S1             1
@<TRIPOS>SET
LONE_PAIRS      STATIC     ATOMS    <user>   **** ""
10 58 59 60 61 62 63 64 65 66 67
DONOR_HYDROGENS      STATIC     ATOMS    <user>   **** ""
2 47 57
ATOM$BLUE        STATIC     ATOMS    COLORGROUP SYSTEM
10 58 59 60 61 62 63 64 65 66 67
ATOM$RED        STATIC     ATOMS    COLORGROUP SYSTEM
2 47 57
