AV-unprocessed.smi:1005|AV-procd|sdf|4388|dock1
  -GOLD-   22720 2313D 1   1.00000     0.00000
 Structure written by MMmdl.
 55 57  0  0  0  0  0  0  0  0  1 V2000
  153.3438  142.5736  161.2091 C   0  0  0  0  0  0  0  0  0  0  0  0
  152.5913  142.4043  159.9011 C   0  0  0  0  0  0  0  0  0  0  0  0
  152.8505  141.2683  159.1015 C   0  0  0  0  0  0  0  0  0  0  0  0
  152.1738  141.0746  157.8773 C   0  0  0  0  0  0  0  0  0  0  0  0
  152.2715  140.0524  156.9488 N   0  0  0  0  0  0  0  0  0  0  0  0
  151.3939  140.4420  156.0286 C   0  0  0  0  0  0  0  0  0  0  0  0
  150.7363  141.5957  156.2522 N   0  0  0  0  0  0  0  0  0  0  0  0
  149.7410  142.2126  155.3927 C   0  0  0  0  0  0  0  0  0  0  0  0
  148.9758  141.1819  154.5407 C   0  0  2  0  0  0  0  0  0  0  0  0
  149.8129  140.7268  153.4948 O   0  0  0  0  0  0  0  0  0  0  0  0
  147.7011  141.7958  153.9258 C   0  0  0  0  0  0  0  0  0  0  0  0
  146.8051  142.4764  154.8629 N   0  0  0  0  0  0  0  0  0  0  0  0
  146.0863  141.5119  155.6874 C   0  0  0  0  0  0  0  0  0  0  0  0
  145.1354  142.1999  156.6798 C   0  0  0  0  0  0  0  0  0  0  0  0
  144.2360  143.0395  155.9638 O   0  0  0  0  0  0  0  0  0  0  0  0
  144.8979  144.0479  155.2031 C   0  0  2  0  0  0  0  0  0  0  0  0
  143.8157  144.9083  154.5178 C   0  0  0  0  0  0  0  0  0  0  0  0
  143.0658  145.8048  155.3995 N   0  0  0  0  0  0  0  0  0  0  0  0
  143.8909  146.8736  155.9482 C   0  0  0  0  0  0  0  0  0  0  0  0
  141.9123  146.3622  154.7073 C   0  0  0  0  0  0  0  0  0  0  0  0
  145.8345  143.3429  154.1964 C   0  0  0  0  0  0  0  0  0  0  0  0
  151.2218  142.0555  157.4719 C   0  0  0  0  0  0  0  0  0  0  0  0
  150.9552  143.1897  158.2592 C   0  0  0  0  0  0  0  0  0  0  0  0
  151.6406  143.3683  159.4791 C   0  0  0  0  0  0  0  0  0  0  0  0
  151.3471  144.5974  160.3208 C   0  0  0  0  0  0  0  0  0  0  0  0
  154.0572  141.7641  161.3655 H   0  0  0  0  0  0  0  0  0  0  0  0
  152.6507  142.5767  162.0505 H   0  0  0  0  0  0  0  0  0  0  0  0
  153.8982  143.5122  161.2130 H   0  0  0  0  0  0  0  0  0  0  0  0
  153.5748  140.5343  159.4224 H   0  0  0  0  0  0  0  0  0  0  0  0
  151.2182  139.8549  155.1391 H   0  0  0  0  0  0  0  0  0  0  0  0
  149.0452  142.7666  156.0244 H   0  0  0  0  0  0  0  0  0  0  0  0
  150.2346  142.9483  154.7564 H   0  0  0  0  0  0  0  0  0  0  0  0
  148.7284  140.3329  155.1768 H   0  0  0  0  0  0  0  0  0  0  0  0
  149.3158  140.1415  152.9442 H   0  0  0  0  0  0  0  0  0  0  0  0
  147.9874  142.4946  153.1382 H   0  0  0  0  0  0  0  0  0  0  0  0
  147.1527  140.9967  153.4243 H   0  0  0  0  0  0  0  0  0  0  0  0
  145.5127  140.8362  155.0508 H   0  0  0  0  0  0  0  0  0  0  0  0
  146.7956  140.8936  156.2386 H   0  0  0  0  0  0  0  0  0  0  0  0
  144.5637  141.4567  157.2355 H   0  0  0  0  0  0  0  0  0  0  0  0
  145.6938  142.7875  157.4102 H   0  0  0  0  0  0  0  0  0  0  0  0
  145.4767  144.6662  155.8922 H   0  0  0  0  0  0  0  0  0  0  0  0
  144.2483  145.4666  153.6859 H   0  0  0  0  0  0  0  0  0  0  0  0
  143.0997  144.2228  154.0617 H   0  0  0  0  0  0  0  0  0  0  0  0
  143.2925  147.5457  156.5644 H   0  0  0  0  0  0  0  0  0  0  0  0
  144.3535  147.4627  155.1550 H   0  0  0  0  0  0  0  0  0  0  0  0
  144.6778  146.4741  156.5873 H   0  0  0  0  0  0  0  0  0  0  0  0
  141.3232  146.9884  155.3781 H   0  0  0  0  0  0  0  0  0  0  0  0
  141.2589  145.5696  154.3409 H   0  0  0  0  0  0  0  0  0  0  0  0
  142.2197  146.9712  153.8560 H   0  0  0  0  0  0  0  0  0  0  0  0
  146.3493  144.0970  153.6060 H   0  0  0  0  0  0  0  0  0  0  0  0
  145.2389  142.7559  153.4953 H   0  0  0  0  0  0  0  0  0  0  0  0
  150.2310  143.9174  157.9246 H   0  0  0  0  0  0  0  0  0  0  0  0
  150.5779  145.2195  159.8622 H   0  0  0  0  0  0  0  0  0  0  0  0
  152.2455  145.2047  160.4336 H   0  0  0  0  0  0  0  0  0  0  0  0
  150.9967  144.3084  161.3118 H   0  0  0  0  0  0  0  0  0  0  0  0
  1  2  1  0  0  0  0
  1 26  1  0  0  0  0
  1 27  1  0  0  0  0
  1 28  1  0  0  0  0
  2 24  1  0  0  0  0
  2  3  2  0  0  0  0
  3  4  1  0  0  0  0
  3 29  1  0  0  0  0
  4 22  2  0  0  0  0
  4  5  1  0  0  0  0
  5  6  2  0  0  0  0
  6  7  1  0  0  0  0
  6 30  1  0  0  0  0
  7  8  1  0  0  0  0
  7 22  1  0  0  0  0
  8  9  1  0  0  0  0
  8 31  1  0  0  0  0
  8 32  1  0  0  0  0
  9 10  1  0  0  0  0
  9 11  1  0  0  0  0
  9 33  1  0  0  0  0
 10 34  1  0  0  0  0
 11 12  1  0  0  0  0
 11 35  1  0  0  0  0
 11 36  1  0  0  0  0
 12 21  1  0  0  0  0
 12 13  1  0  0  0  0
 13 14  1  0  0  0  0
 13 37  1  0  0  0  0
 13 38  1  0  0  0  0
 14 15  1  0  0  0  0
 14 39  1  0  0  0  0
 14 40  1  0  0  0  0
 15 16  1  0  0  0  0
 16 17  1  0  0  0  0
 16 21  1  0  0  0  0
 16 41  1  0  0  0  0
 17 18  1  0  0  0  0
 17 42  1  0  0  0  0
 17 43  1  0  0  0  0
 18 19  1  0  0  0  0
 18 20  1  0  0  0  0
 19 44  1  0  0  0  0
 19 45  1  0  0  0  0
 19 46  1  0  0  0  0
 20 47  1  0  0  0  0
 20 48  1  0  0  0  0
 20 49  1  0  0  0  0
 21 50  1  0  0  0  0
 21 51  1  0  0  0  0
 22 23  1  0  0  0  0
 23 24  2  0  0  0  0
 23 52  1  0  0  0  0
 24 25  1  0  0  0  0
 25 53  1  0  0  0  0
 25 54  1  0  0  0  0
 25 55  1  0  0  0  0
M  END
> <s_m_source_file>
AV-unprocessed.smi

> <i_m_source_file_index>
1005

> <i_lp_mmshare_version>
43012

> <i_f3d_flags>
0

> <s_epik_input>
W0NIM11jKFtjSF0xKWMoW0NIM10pW2NIXWMoYzEyKW4oW2NIXW4yKVtDSDJdW0NASF0oW09IXSlbQ0gyXU4zW0NIMl1bQ0gyXU9bQ0BIXShbQ0gyXTMpW0NIMl1OKFtDSDNdKVtDSDNd

> <s_epik_cmdline>
J2VwaWtfcHl0aG9uJywgJy1waCcsICc3LjAnLCAnLXRuJywgJzgnLCAnLW1hJywgJzIwMCcsICctbWV0YWxfYmluZGluZycsICctaW1hZScsICc8aW5maWxlLm1hZT4nLCAnLW9tYWUnLCAnPG91dGZpbGUubWFlPic=

> <r_epik_Ionization_Penalty>
2.78613

> <r_epik_Ionization_Penalty_Charging>
0

> <r_epik_Ionization_Penalty_Neutral>
2.78613

> <r_epik_State_Penalty>
2.57336

> <r_epik_Charging_Adjusted_Penalty>
2.57336

> <i_epik_Tot_Q>
0

> <i_epik_Tot_abs_Q>
0

> <r_epik_Metal_State_Penalty>
2.49087

> <b_epik_Metal_Only>
0

> <s_lp_Force_Field>
OPLS_2005

> <r_lp_Energy>
40.4742

> <b_lp_Chiralities_Consistent>
1

> <s_lp_Variant>
AV-unprocessed.smi:1005-27

> <Gold.Version>
5.8.1

> <Gold.Id.Protein>
6NUR|6NUR_protein|mol2

> <Gold.PLP.Fitness>
58.4144

> <Gold.PLP.PLP>
-51.3626

> <Gold.PLP.part.hbond>
-3.3347

> <Gold.PLP.part.metal>
0.0000

> <Gold.PLP.part.buried>
-4.6768

> <Gold.PLP.part.nonpolar>
-42.3911

> <Gold.PLP.part.repulsive>
0.2599

> <Gold.PLP.ligand.clash>
0.0000

> <Gold.PLP.ligand.torsion>
0.7344

> <Gold.PLP.Chemscore.Hbond>
2.6938

> <Gold.PLP.Chemscore.CHOScore>
0.0000

> <Gold.PLP.Chemscore.Metal>
0.0000

> <Gold.Chemscore.Hbonds>
donor molecule, donor type, donor heavy atom, donor atom, acceptor molecule, acceptor atom, score
      L1  H    10    34       P1  7957  0.43
      P1  H  7989  7998       L1    10  0.38
      P1  H  7997  8010       L1     5  0.78
      P1  H  8011  8017       L1    10  0.91

> <Gold.PLP.Chemscore.Internal.Correction>
0.4394

> <Gold.Rescore>
     Score         DG    S(hbond)    S(metal)    S(lipo)     H(rot)  DE(clash)    DE(int)     intcor
     18.94     -22.33       2.06        0.00     135.25       2.29       1.59       1.81       ----

> <Gold.Chemscore.Fitness>
18.9365

> <Gold.Chemscore.DG>
-22.3302

> <Gold.Chemscore.ZeroCoef>
-5.4800

> <Gold.Chemscore.Hbond>
2.0621

> <Gold.Chemscore.Metal>
0.0000

> <Gold.Chemscore.Lipo>
135.2486

> <Gold.Chemscore.Internal_Hbond>
0.0000

> <Gold.Chemscore.DEClash>
1.5862

> <Gold.Chemscore.DEInternal>
1.8075

> <Gold.Chemscore.Rot>
2.2895

> <Gold.Chemscore.Internal.Correction>
   9.000000E+99

> <Gold.Chemscore.Hbonds>
donor molecule, donor type, donor heavy atom, donor atom, acceptor molecule, acceptor atom, score
      L1  H    10    34       P1  7957  0.42
      P1  H  7989  7998       L1    10  0.38
      P1  H  7997  8010       L1     5  0.22
      P1  H  8011  8017       L1    10  0.05

> <Gold.Chemscore.Hbond.Weighted>
-6.8873

> <Gold.Chemscore.Metal.Weighted>
-0.0000

> <Gold.Chemscore.Lipo.Weighted>
-15.8241

> <Gold.Chemscore.Internal_Hbond.Weighted>
0.0000

> <Gold.Chemscore.DEClash.Weighted>
1.5862

> <Gold.Chemscore.DEInternal.Weighted>
1.8075

> <Gold.Chemscore.Rot.Weighted>
5.8612

> <Gold.Chemscore.Internal.Correction.Weighted>
   9.000000E+99

> <Gold.Protein.RotatedTorsions>
[ 6907 6896 6895 6894 ] final  -31.03 input  -60.11 | X-H torsion
[ 7974 7965 7964 7962 ] final  162.91 input  175.53 | X-H torsion
[ 8008 7997 7996 7995 ] final   68.31 input   59.86 | X-H torsion
[ 10167 10162 10161 10158 ] final  173.59 input  -65.29 | X-H torsion
[ 10718 10713 10712 10709 ] final  -12.14 input   66.30 | X-H torsion
[ 10763 10752 10751 10750 ] final -178.53 input  -60.55 | X-H torsion
[ 11005 11000 10999 10996 ] final  154.54 input  -57.11 | X-H torsion

> <Gold.Protein.ActiveResidues>
 VAL166  LYS551  ARG553  GLY616  TRP617  ASP618  TYR619  PRO620  LYS621  CYS622 
 ASP623  PHE694  ASN695  SER759  ASP760  ASP761  ALA762  ILE779  LEU786  VAL792 
 PHE793  MET794  SER795  GLU796  ALA797  LYS798  CYS799  TRP800  GLU811  SER814 

> <Gold.Protein.RotatedAtoms>
  151.0975  134.9953  159.8432 H   0  0  0  0  0  0  0  0  0  0  0  0  # atno 6907 bound_to 6896
  152.5434  134.1990  159.8714 H   0  0  0  0  0  0  0  0  0  0  0  0  # atno 6908 bound_to 6896
  151.2031  133.4555  159.2630 H   0  0  0  0  0  0  0  0  0  0  0  0  # atno 6909 bound_to 6896
  144.7614  139.8108  143.6331 H   0  0  0  0  0  0  0  0  0  0  0  0  # atno 7974 bound_to 7965
  155.7063  140.3495  155.4954 H   0  0  0  0  0  0  0  0  0  0  0  0  # atno 8008 bound_to 7997
  155.9396  140.1099  157.1088 H   0  0  0  0  0  0  0  0  0  0  0  0  # atno 8009 bound_to 7997
  154.4100  140.1215  156.4896 H   0  0  0  0  0  0  0  0  0  0  0  0  # atno 8010 bound_to 7997
  139.5113  144.3243  152.0172 H   0  0  0  0  0  0  0  0  0  0  0  0  # atno 10167 bound_to 10162
  156.6490  130.4949  149.6069 H   0  0  0  0  0  0  0  0  0  0  0  0  # atno 10718 bound_to 10713
  154.5465  135.2810  155.1047 H   0  0  0  0  0  0  0  0  0  0  0  0  # atno 10763 bound_to 10752
  154.2510  135.6339  153.5244 H   0  0  0  0  0  0  0  0  0  0  0  0  # atno 10764 bound_to 10752
  152.9992  135.5582  154.6019 H   0  0  0  0  0  0  0  0  0  0  0  0  # atno 10765 bound_to 10752
  140.1499  134.8682  157.2440 H   0  0  0  0  0  0  0  0  0  0  0  0  # atno 11005 bound_to 11000
  146.1680  139.4820  142.9945 LP  0  0  0  0  0  0  0  0  0  0  0  0  # atno 17320 bound_to 7965
  145.6607  141.0241  143.1710 LP  0  0  0  0  0  0  0  0  0  0  0  0  # atno 17321 bound_to 7965
  140.2684  144.3990  150.6160 LP  0  0  0  0  0  0  0  0  0  0  0  0  # atno 17342 bound_to 10162
  140.6106  143.2169  151.6893 LP  0  0  0  0  0  0  0  0  0  0  0  0  # atno 17343 bound_to 10162
  156.2099  130.6672  151.1259 LP  0  0  0  0  0  0  0  0  0  0  0  0  # atno 17370 bound_to 10713
  157.7147  131.0716  150.6371 LP  0  0  0  0  0  0  0  0  0  0  0  0  # atno 17371 bound_to 10713
  140.2618  134.3562  155.7404 LP  0  0  0  0  0  0  0  0  0  0  0  0  # atno 17394 bound_to 11000
  141.2197  133.7373  156.9091 LP  0  0  0  0  0  0  0  0  0  0  0  0  # atno 17395 bound_to 11000

$$$$
