AV-unprocessed.smi:49|AV-procd|sdf|490|dock8
  -GOLD-   2262016353D 1   1.00000     0.00000
 Structure written by MMmdl.
 26 27  0  0  0  0  0  0  0  0  2 V2000
  150.8723  138.0956  154.2258 C   0  0  0  0  0  0  0  0  0  0  0  0
  152.2110  138.7578  154.5668 C   0  0  0  0  0  0  0  0  0  0  0  0
  152.1107  139.6534  155.7821 C   0  0  0  0  0  0  0  0  0  0  0  0
  151.3037  140.7017  155.9123 N   0  0  0  0  0  0  0  0  0  0  0  0
  151.5221  141.1816  157.1448 C   0  0  0  0  0  0  0  0  0  0  0  0
  150.7854  142.3703  157.7358 C   0  0  1  0  0  0  0  0  0  0  0  0
  151.2178  142.6468  159.1873 C   0  0  0  0  0  0  0  0  0  0  0  0
  151.9928  143.9578  159.0999 C   0  0  2  0  0  0  0  0  0  0  0  0
  151.9486  144.7052  160.2970 O   0  0  0  0  0  0  0  0  0  0  0  0
  151.2978  144.6669  157.9451 C   0  0  0  0  0  0  0  0  0  0  0  0
  151.0186  143.6091  156.9844 N   0  0  0  0  0  0  0  0  0  0  0  0
  152.4294  140.4305  157.7906 N   0  0  0  0  0  0  0  0  0  0  0  0
  152.7823  139.4924  156.9356 N   0  5  0  0  0  0  0  0  0  0  0  0
  149.7203  142.1361  157.7268 H   0  0  0  0  0  0  0  0  0  0  0  0
  153.0320  143.7557  158.8359 H   0  0  0  0  0  0  0  0  0  0  0  0
  150.9673  137.4551  153.3490 H   0  0  0  0  0  0  0  0  0  0  0  0
  150.1085  138.8439  154.0126 H   0  0  0  0  0  0  0  0  0  0  0  0
  150.5175  137.4806  155.0532 H   0  0  0  0  0  0  0  0  0  0  0  0
  152.9675  137.9951  154.7530 H   0  0  0  0  0  0  0  0  0  0  0  0
  152.5615  139.3490  153.7207 H   0  0  0  0  0  0  0  0  0  0  0  0
  150.3258  142.7843  159.8004 H   0  0  0  0  0  0  0  0  0  0  0  0
  151.7998  141.8390  159.6334 H   0  0  0  0  0  0  0  0  0  0  0  0
  152.0407  144.1086  161.0239 H   0  0  0  0  0  0  0  0  0  0  0  0
  150.3603  145.1069  158.2879 H   0  0  0  0  0  0  0  0  0  0  0  0
  151.9039  145.4628  157.5118 H   0  0  0  0  0  0  0  0  0  0  0  0
  150.1889  143.8523  156.4537 H   0  0  0  0  0  0  0  0  0  0  0  0
  1  2  1  0  0  0  0
  1 16  1  0  0  0  0
  1 17  1  0  0  0  0
  1 18  1  0  0  0  0
  2  3  1  0  0  0  0
  2 19  1  0  0  0  0
  2 20  1  0  0  0  0
  3 13  1  0  0  0  0
  3  4  2  0  0  0  0
  4  5  1  0  0  0  0
  5  6  1  0  0  0  0
  5 12  2  0  0  0  0
  6 14  1  0  0  0  0
  6 11  1  0  0  0  0
  6  7  1  0  0  0  0
  7  8  1  0  0  0  0
  7 21  1  0  0  0  0
  7 22  1  0  0  0  0
  8 15  1  0  0  0  0
  8  9  1  0  0  0  0
  8 10  1  0  0  0  0
  9 23  1  0  0  0  0
 10 11  1  0  0  0  0
 10 24  1  0  0  0  0
 10 25  1  0  0  0  0
 11 26  1  0  0  0  0
 12 13  1  0  0  0  0
M  CHG  1  13  -1
M  END
> <s_m_source_file>
AV-unprocessed.smi

> <i_m_source_file_index>
49

> <i_lp_mmshare_version>
43012

> <i_f3d_flags>
0

> <s_epik_input>
W0NIM11bQ0gyXWMxbmMobltuSF0xKVtDQEBIXTJbQ0gyXVtDQEBIXShbT0hdKVtDSDJdW05IXTI=

> <s_epik_cmdline>
J2VwaWtfcHl0aG9uJywgJy1waCcsICc3LjAnLCAnLXRuJywgJzgnLCAnLW1hJywgJzIwMCcsICctbWV0YWxfYmluZGluZycsICctaW1hZScsICc8aW5maWxlLm1hZT4nLCAnLW9tYWUnLCAnPG91dGZpbGUubWFlPic=

> <r_lp_tautomer_probability>
0.948284

> <r_epik_Ionization_Penalty>
20.726

> <r_epik_Ionization_Penalty_Charging>
17.6814

> <r_epik_Ionization_Penalty_Neutral>
3.04463

> <r_epik_State_Penalty>
7.95092

> <r_epik_Charging_Adjusted_Penalty>
25.6323

> <i_epik_Tot_Q>
-1

> <i_epik_Tot_abs_Q>
1

> <r_epik_Metal_State_Penalty>
4.146

> <b_epik_Metal_Only>
1

> <s_lp_Force_Field>
OPLS_2005

> <r_lp_Energy>
18.0563

> <b_lp_Chiralities_Consistent>
1

> <s_lp_Variant>
AV-unprocessed.smi:49-28

> <Gold.Version>
5.8.1

> <Gold.Id.Protein>
6NUR|6NUR_protein|mol2

> <Gold.PLP.Fitness>
36.4138

> <Gold.PLP.PLP>
-27.4149

> <Gold.PLP.part.hbond>
-2.6822

> <Gold.PLP.part.metal>
0.0000

> <Gold.PLP.part.buried>
-4.7538

> <Gold.PLP.part.nonpolar>
-20.3909

> <Gold.PLP.part.repulsive>
0.0089

> <Gold.PLP.ligand.clash>
0.0000

> <Gold.PLP.ligand.torsion>
0.0080

> <Gold.PLP.Chemscore.Hbond>
3.0000

> <Gold.PLP.Chemscore.CHOScore>
0.0000

> <Gold.PLP.Chemscore.Metal>
0.0000

> <Gold.Chemscore.Hbonds>
donor molecule, donor type, donor heavy atom, donor atom, acceptor molecule, acceptor atom, score
      L1  H    11    26       P1  8028  1.00
      P1  H  7997  8009       L1    13  1.60

> <Gold.PLP.Chemscore.Internal.Correction>
0.0149

> <Gold.Rescore>
     Score         DG    S(hbond)    S(metal)    S(lipo)     H(rot)  DE(clash)    DE(int)     intcor
     11.29     -11.34       1.05        0.00      60.09       1.82       0.01       0.03       ----

> <Gold.Chemscore.Fitness>
11.2899

> <Gold.Chemscore.DG>
-11.3350

> <Gold.Chemscore.ZeroCoef>
-5.4800

> <Gold.Chemscore.Hbond>
1.0451

> <Gold.Chemscore.Metal>
0.0000

> <Gold.Chemscore.Lipo>
60.0877

> <Gold.Chemscore.Internal_Hbond>
0.0000

> <Gold.Chemscore.DEClash>
0.0118

> <Gold.Chemscore.DEInternal>
0.0333

> <Gold.Chemscore.Rot>
1.8226

> <Gold.Chemscore.Internal.Correction>
   9.000000E+99

> <Gold.Chemscore.Hbonds>
donor molecule, donor type, donor heavy atom, donor atom, acceptor molecule, acceptor atom, score
      L1  H    11    26       P1  8028  1.00
      P1  H  7997  8009       L1    13  0.08

> <Gold.Chemscore.Hbond.Weighted>
-3.4906

> <Gold.Chemscore.Metal.Weighted>
-0.0000

> <Gold.Chemscore.Lipo.Weighted>
-7.0303

> <Gold.Chemscore.Internal_Hbond.Weighted>
0.0000

> <Gold.Chemscore.DEClash.Weighted>
0.0118

> <Gold.Chemscore.DEInternal.Weighted>
0.0333

> <Gold.Chemscore.Rot.Weighted>
4.6658

> <Gold.Chemscore.Internal.Correction.Weighted>
   9.000000E+99

> <Gold.Protein.RotatedTorsions>
[ 6907 6896 6895 6894 ] final   48.79 input  -60.11 | X-H torsion
[ 7974 7965 7964 7962 ] final   87.14 input  175.53 | X-H torsion
[ 8008 7997 7996 7995 ] final  175.91 input   59.86 | X-H torsion
[ 10167 10162 10161 10158 ] final -165.58 input  -65.29 | X-H torsion
[ 10718 10713 10712 10709 ] final   15.21 input   66.30 | X-H torsion
[ 10763 10752 10751 10750 ] final  100.95 input  -60.55 | X-H torsion
[ 11005 11000 10999 10996 ] final -102.69 input  -57.11 | X-H torsion

> <Gold.Protein.ActiveResidues>
 VAL166  LYS551  ARG553  GLY616  TRP617  ASP618  TYR619  PRO620  LYS621  CYS622 
 ASP623  PHE694  ASN695  SER759  ASP760  ASP761  ALA762  ILE779  LEU786  VAL792 
 PHE793  MET794  SER795  GLU796  ALA797  LYS798  CYS799  TRP800  GLU811  SER814 

> <Gold.Protein.RotatedAtoms>
  152.2835  134.7802  160.0391 H   0  0  0  0  0  0  0  0  0  0  0  0  # atno 6907 bound_to 6896
  151.8373  133.3413  159.3640 H   0  0  0  0  0  0  0  0  0  0  0  0  # atno 6908 bound_to 6896
  150.7199  134.5354  159.5765 H   0  0  0  0  0  0  0  0  0  0  0  0  # atno 6909 bound_to 6896
  145.5630  139.2306  143.2449 H   0  0  0  0  0  0  0  0  0  0  0  0  # atno 7974 bound_to 7965
  156.0821  140.1397  156.9699 H   0  0  0  0  0  0  0  0  0  0  0  0  # atno 8008 bound_to 7997
  154.4591  140.0950  156.6891 H   0  0  0  0  0  0  0  0  0  0  0  0  # atno 8009 bound_to 7997
  155.5059  140.3452  155.4381 H   0  0  0  0  0  0  0  0  0  0  0  0  # atno 8010 bound_to 7997
  139.6172  144.0696  152.1899 H   0  0  0  0  0  0  0  0  0  0  0  0  # atno 10167 bound_to 10162
  157.0503  130.6267  149.5766 H   0  0  0  0  0  0  0  0  0  0  0  0  # atno 10718 bound_to 10713
  153.3204  135.4061  155.1412 H   0  0  0  0  0  0  0  0  0  0  0  0  # atno 10763 bound_to 10752
  154.8599  135.3586  154.5603 H   0  0  0  0  0  0  0  0  0  0  0  0  # atno 10764 bound_to 10752
  153.6036  135.7070  153.5433 H   0  0  0  0  0  0  0  0  0  0  0  0  # atno 10765 bound_to 10752
  141.1178  133.8579  157.1392 H   0  0  0  0  0  0  0  0  0  0  0  0  # atno 11005 bound_to 11000
  146.1838  140.6455  142.9177 LP  0  0  0  0  0  0  0  0  0  0  0  0  # atno 17320 bound_to 7965
  144.7474  140.5103  143.6826 LP  0  0  0  0  0  0  0  0  0  0  0  0  # atno 17321 bound_to 7965
  140.0329  144.6067  150.7473 LP  0  0  0  0  0  0  0  0  0  0  0  0  # atno 17342 bound_to 10162
  140.7359  143.2746  151.3782 LP  0  0  0  0  0  0  0  0  0  0  0  0  # atno 17343 bound_to 10162
  156.0010  130.5089  150.7661 LP  0  0  0  0  0  0  0  0  0  0  0  0  # atno 17370 bound_to 10713
  157.5035  131.0920  151.0285 LP  0  0  0  0  0  0  0  0  0  0  0  0  # atno 17371 bound_to 10713
  140.0113  134.9987  157.0400 LP  0  0  0  0  0  0  0  0  0  0  0  0  # atno 17394 bound_to 11000
  140.4595  134.1499  155.7190 LP  0  0  0  0  0  0  0  0  0  0  0  0  # atno 17395 bound_to 11000

$$$$
