AV-unprocessed.smi:304|AV-procd|sdf|2278|dock4
  -GOLD-   2262022173D 1   1.00000     0.00000
 Structure written by MMmdl.
 37 39  0  0  0  0  0  0  0  0  2 V2000
  149.4727  141.1691  153.5915 O   0  0  0  0  0  0  0  0  0  0  0  0
  149.2850  141.4932  154.9547 C   0  0  2  0  0  0  0  0  0  0  0  0
  150.4404  140.8968  155.7750 C   0  0  0  0  0  0  0  0  0  0  0  0
  150.6976  141.7236  156.8972 O   0  0  0  0  0  0  0  0  0  0  0  0
  150.7911  141.0061  158.1156 C   0  0  0  0  0  0  0  0  0  0  0  0
  151.7054  141.7657  159.0257 C   0  0  0  0  0  0  0  0  0  0  0  0
  151.5601  143.0675  159.4329 C   0  0  0  0  0  0  0  0  0  0  0  0
  152.5969  143.5048  160.3087 C   0  0  0  0  0  0  0  0  0  0  0  0
  153.5224  142.5291  160.5653 C   0  0  0  0  0  0  0  0  0  0  0  0
  153.1373  141.0488  159.7329 S   0  0  0  0  0  0  0  0  0  0  0  0
  147.8907  141.0676  155.4609 C   0  0  0  0  0  0  0  0  0  0  0  0
  146.7944  141.7748  154.7846 N   0  0  0  0  0  0  0  0  0  0  0  0
  146.4781  141.8268  153.4623 C   0  0  0  0  0  0  0  0  0  0  0  0
  145.3813  142.6238  153.3330 N   0  3  0  0  0  0  0  0  0  0  0  0
  144.9908  143.0881  154.5911 C   0  0  0  0  0  0  0  0  0  0  0  0
  143.9428  143.9206  154.9703 C   0  0  0  0  0  0  0  0  0  0  0  0
  143.8186  144.1991  156.3474 C   0  0  0  0  0  0  0  0  0  0  0  0
  142.8149  145.0036  156.7706 F   0  0  0  0  0  0  0  0  0  0  0  0
  144.7169  143.6552  157.2900 C   0  0  0  0  0  0  0  0  0  0  0  0
  144.5594  143.9455  158.6031 F   0  0  0  0  0  0  0  0  0  0  0  0
  145.7763  142.8129  156.8933 C   0  0  0  0  0  0  0  0  0  0  0  0
  145.8932  142.5450  155.5295 C   0  0  0  0  0  0  0  0  0  0  0  0
  148.7700  140.5995  153.3193 H   0  0  0  0  0  0  0  0  0  0  0  0
  149.3579  142.5797  155.0164 H   0  0  0  0  0  0  0  0  0  0  0  0
  150.2123  139.8758  156.0855 H   0  0  0  0  0  0  0  0  0  0  0  0
  151.3375  140.8534  155.1558 H   0  0  0  0  0  0  0  0  0  0  0  0
  149.8052  140.9036  158.5708 H   0  0  0  0  0  0  0  0  0  0  0  0
  151.1871  140.0052  157.9396 H   0  0  0  0  0  0  0  0  0  0  0  0
  150.7510  143.7171  159.1337 H   0  0  0  0  0  0  0  0  0  0  0  0
  152.6266  144.5053  160.7145 H   0  0  0  0  0  0  0  0  0  0  0  0
  154.4016  142.5887  161.1896 H   0  0  0  0  0  0  0  0  0  0  0  0
  147.7345  139.9941  155.3553 H   0  0  0  0  0  0  0  0  0  0  0  0
  147.8046  141.2809  156.5269 H   0  0  0  0  0  0  0  0  0  0  0  0
  147.0039  141.3290  152.6601 H   0  0  0  0  0  0  0  0  0  0  0  0
  143.2522  144.3382  154.2526 H   0  0  0  0  0  0  0  0  0  0  0  0
  146.4542  142.3989  157.6253 H   0  0  0  0  0  0  0  0  0  0  0  0
  144.9355  142.8352  152.4492 H   0  0  0  0  0  0  0  0  0  0  0  0
  1  2  1  0  0  0  0
  1 23  1  0  0  0  0
  2  3  1  0  0  0  0
  2 11  1  0  0  0  0
  2 24  1  0  0  0  0
  3  4  1  0  0  0  0
  3 25  1  0  0  0  0
  3 26  1  0  0  0  0
  4  5  1  0  0  0  0
  5  6  1  0  0  0  0
  5 27  1  0  0  0  0
  5 28  1  0  0  0  0
  6 10  1  0  0  0  0
  6  7  2  0  0  0  0
  7  8  1  0  0  0  0
  7 29  1  0  0  0  0
  8  9  2  0  0  0  0
  8 30  1  0  0  0  0
  9 10  1  0  0  0  0
  9 31  1  0  0  0  0
 11 12  1  0  0  0  0
 11 32  1  0  0  0  0
 11 33  1  0  0  0  0
 12 22  1  0  0  0  0
 12 13  1  0  0  0  0
 13 14  2  0  0  0  0
 13 34  1  0  0  0  0
 14 15  1  0  0  0  0
 14 37  1  0  0  0  0
 15 22  2  0  0  0  0
 15 16  1  0  0  0  0
 16 17  2  0  0  0  0
 16 35  1  0  0  0  0
 17 18  1  0  0  0  0
 17 19  1  0  0  0  0
 19 20  1  0  0  0  0
 19 21  2  0  0  0  0
 21 22  1  0  0  0  0
 21 36  1  0  0  0  0
M  CHG  1  14   1
M  END
> <s_m_source_file>
AV-unprocessed.smi

> <i_m_source_file_index>
304

> <i_lp_mmshare_version>
43012

> <i_f3d_flags>
0

> <s_epik_input>
W2NIXTFjKEYpYyhGKVtjSF1jKGMxMiluKFtjSF1uMilbQ0gyXVtDQEhdKFtPSF0pW0NIMl1PW0NIMl1jM1tjSF1bY0hdW2NIXXMz

> <s_epik_cmdline>
J2VwaWtfcHl0aG9uJywgJy1waCcsICc3LjAnLCAnLXRuJywgJzgnLCAnLW1hJywgJzIwMCcsICctbWV0YWxfYmluZGluZycsICctaW1hZScsICc8aW5maWxlLm1hZT4nLCAnLW9tYWUnLCAnPG91dGZpbGUubWFlPic=

> <r_epik_Ionization_Penalty>
2.17745

> <r_epik_Ionization_Penalty_Charging>
2.17744

> <r_epik_Ionization_Penalty_Neutral>
1.26231e-06

> <r_epik_State_Penalty>
2.31922

> <r_epik_Charging_Adjusted_Penalty>
4.49666

> <i_epik_Tot_Q>
1

> <i_epik_Tot_abs_Q>
1

> <r_epik_Metal_State_Penalty>
6.40003

> <b_epik_Metal_Only>
0

> <s_lp_Force_Field>
OPLS_2005

> <r_lp_Energy>
12.8656

> <b_lp_Chiralities_Consistent>
1

> <s_lp_Variant>
AV-unprocessed.smi:304-3

> <Gold.Version>
5.8.1

> <Gold.Id.Protein>
6NUR|6NUR_protein|mol2

> <Gold.PLP.Fitness>
46.0314

> <Gold.PLP.PLP>
-44.0480

> <Gold.PLP.part.hbond>
-4.2053

> <Gold.PLP.part.metal>
0.0000

> <Gold.PLP.part.buried>
-5.0120

> <Gold.PLP.part.nonpolar>
-34.3776

> <Gold.PLP.part.repulsive>
0.1448

> <Gold.PLP.ligand.clash>
0.0000

> <Gold.PLP.ligand.torsion>
0.8903

> <Gold.PLP.Chemscore.Hbond>
1.2246

> <Gold.PLP.Chemscore.CHOScore>
0.0000

> <Gold.PLP.Chemscore.Metal>
0.0000

> <Gold.Chemscore.Hbonds>
donor molecule, donor type, donor heavy atom, donor atom, acceptor molecule, acceptor atom, score
      P1  H  7989  7998       L1     1  0.16
      P1  H  8011  8017       L1     1  0.98

> <Gold.PLP.Chemscore.Internal.Correction>
0.0902

> <Gold.Rescore>
     Score         DG    S(hbond)    S(metal)    S(lipo)     H(rot)  DE(clash)    DE(int)     intcor
     11.90     -12.96       0.94        0.00      96.74       2.73       0.21       0.86       ----

> <Gold.Chemscore.Fitness>
11.8969

> <Gold.Chemscore.DG>
-12.9647

> <Gold.Chemscore.ZeroCoef>
-5.4800

> <Gold.Chemscore.Hbond>
0.9412

> <Gold.Chemscore.Metal>
0.0000

> <Gold.Chemscore.Lipo>
96.7446

> <Gold.Chemscore.Internal_Hbond>
0.0000

> <Gold.Chemscore.DEClash>
0.2086

> <Gold.Chemscore.DEInternal>
0.8592

> <Gold.Chemscore.Rot>
2.7258

> <Gold.Chemscore.Internal.Correction>
   9.000000E+99

> <Gold.Chemscore.Hbonds>
donor molecule, donor type, donor heavy atom, donor atom, acceptor molecule, acceptor atom, score
      L1  H     1    23       P1  7957  0.01
      P1  H  7989  7998       L1     1  0.06
      P1  H  8011  8017       L1     1  0.73

> <Gold.Chemscore.Hbond.Weighted>
-3.1437

> <Gold.Chemscore.Metal.Weighted>
-0.0000

> <Gold.Chemscore.Lipo.Weighted>
-11.3191

> <Gold.Chemscore.Internal_Hbond.Weighted>
0.0000

> <Gold.Chemscore.DEClash.Weighted>
0.2086

> <Gold.Chemscore.DEInternal.Weighted>
0.8592

> <Gold.Chemscore.Rot.Weighted>
6.9781

> <Gold.Chemscore.Internal.Correction.Weighted>
   9.000000E+99

> <Gold.Protein.RotatedTorsions>
[ 6907 6896 6895 6894 ] final  -52.67 input  -60.11 | X-H torsion
[ 7974 7965 7964 7962 ] final   99.49 input  175.53 | X-H torsion
[ 8008 7997 7996 7995 ] final  -82.75 input   59.86 | X-H torsion
[ 10167 10162 10161 10158 ] final -141.60 input  -65.29 | X-H torsion
[ 10718 10713 10712 10709 ] final -175.13 input   66.30 | X-H torsion
[ 10763 10752 10751 10750 ] final  120.66 input  -60.55 | X-H torsion
[ 11005 11000 10999 10996 ] final -168.28 input  -57.11 | X-H torsion

> <Gold.Protein.ActiveResidues>
 VAL166  LYS551  ARG553  GLY616  TRP617  ASP618  TYR619  PRO620  LYS621  CYS622 
 ASP623  PHE694  ASN695  SER759  ASP760  ASP761  ALA762  ILE779  LEU786  VAL792 
 PHE793  MET794  SER795  GLU796  ALA797  LYS798  CYS799  TRP800  GLU811  SER814 

> <Gold.Protein.RotatedAtoms>
  150.8497  134.7817  159.6998 H   0  0  0  0  0  0  0  0  0  0  0  0  # atno 6907 bound_to 6896
  152.4565  134.5277  159.9811 H   0  0  0  0  0  0  0  0  0  0  0  0  # atno 6908 bound_to 6896
  151.5401  133.3396  159.2969 H   0  0  0  0  0  0  0  0  0  0  0  0  # atno 6909 bound_to 6896
  145.3981  139.2352  143.3315 H   0  0  0  0  0  0  0  0  0  0  0  0  # atno 7974 bound_to 7965
  154.6118  140.0628  156.9504 H   0  0  0  0  0  0  0  0  0  0  0  0  # atno 8008 bound_to 7997
  155.1960  140.3311  155.4332 H   0  0  0  0  0  0  0  0  0  0  0  0  # atno 8009 bound_to 7997
  156.2381  140.1873  156.7047 H   0  0  0  0  0  0  0  0  0  0  0  0  # atno 8010 bound_to 7997
  139.8169  143.7627  152.2665 H   0  0  0  0  0  0  0  0  0  0  0  0  # atno 10167 bound_to 10162
  156.7953  130.9533  151.3119 H   0  0  0  0  0  0  0  0  0  0  0  0  # atno 10718 bound_to 10713
  153.6020  135.3446  155.2948 H   0  0  0  0  0  0  0  0  0  0  0  0  # atno 10763 bound_to 10752
  154.8634  135.4230  154.2402 H   0  0  0  0  0  0  0  0  0  0  0  0  # atno 10764 bound_to 10752
  153.3233  135.7039  153.7083 H   0  0  0  0  0  0  0  0  0  0  0  0  # atno 10765 bound_to 10752
  140.5438  134.5496  157.5106 H   0  0  0  0  0  0  0  0  0  0  0  0  # atno 11005 bound_to 11000
  146.2765  140.4675  142.8793 LP  0  0  0  0  0  0  0  0  0  0  0  0  # atno 17320 bound_to 7965
  144.8393  140.6832  143.6240 LP  0  0  0  0  0  0  0  0  0  0  0  0  # atno 17321 bound_to 7965
  139.7793  144.7450  151.0111 LP  0  0  0  0  0  0  0  0  0  0  0  0  # atno 17342 bound_to 10162
  140.7815  143.4559  151.0346 LP  0  0  0  0  0  0  0  0  0  0  0  0  # atno 17343 bound_to 10162
  157.6580  130.8941  149.9770 LP  0  0  0  0  0  0  0  0  0  0  0  0  # atno 17370 bound_to 10713
  156.1134  130.3649  150.0010 LP  0  0  0  0  0  0  0  0  0  0  0  0  # atno 17371 bound_to 10713
  139.9490  134.7650  156.0492 LP  0  0  0  0  0  0  0  0  0  0  0  0  # atno 17394 bound_to 11000
  141.1212  133.6612  156.3219 LP  0  0  0  0  0  0  0  0  0  0  0  0  # atno 17395 bound_to 11000

$$$$
