AV-unprocessed.smi:169|AV-procd|sdf|1403|dock4
  -GOLD-   2262019153D 1   1.00000     0.00000
 Structure written by MMmdl.
 56 60  0  0  0  0  0  0  0  0  2 V2000
  146.0412  129.6656  151.6941 C   0  0  0  0  0  0  0  0  0  0  0  0
  145.9096  131.1821  151.4873 C   0  0  0  0  0  0  0  0  0  0  0  0
  147.1876  131.9191  151.6966 N   0  3  1  0  0  0  0  0  0  0  0  0
  147.1271  133.3830  151.3302 C   0  0  0  0  0  0  0  0  0  0  0  0
  146.2187  134.3139  152.2244 C   0  0  0  0  0  0  0  0  0  0  0  0
  146.7700  134.6841  153.6499 C   0  0  1  0  0  0  0  0  0  0  0  0
  145.8990  134.1862  154.8570 C   0  0  0  0  0  0  0  0  0  0  0  0
  146.4957  132.7931  155.2569 C   0  0  0  0  0  0  0  0  0  0  0  0
  147.5204  132.6285  154.1320 C   0  0  3  0  0  0  0  0  0  0  0  0
  147.8322  131.5924  153.0275 C   0  0  0  0  0  0  0  0  0  0  0  0
  148.0153  133.9637  153.8497 N   0  0  0  0  0  0  0  0  0  0  0  0
  148.9876  134.4526  154.6695 C   0  0  0  0  0  0  0  0  0  0  0  0
  150.0147  133.6439  155.0430 N   0  0  0  0  0  0  0  0  0  0  0  0
  150.9848  134.0979  155.8408 C   0  0  0  0  0  0  0  0  0  0  0  0
  151.1217  135.3100  156.3789 N   0  0  0  0  0  0  0  0  0  0  0  0
  150.0906  136.1274  156.0224 C   0  0  0  0  0  0  0  0  0  0  0  0
  148.9906  135.7830  155.1851 C   0  0  0  0  0  0  0  0  0  0  0  0
  148.1360  136.8737  155.0682 N   0  0  0  0  0  0  0  0  0  0  0  0
  148.6998  137.8059  155.7857 C   0  0  0  0  0  0  0  0  0  0  0  0
  149.8875  137.4490  156.3820 N   0  0  0  0  0  0  0  0  0  0  0  0
  150.7280  138.2816  157.2313 C   0  0  0  0  0  0  0  0  0  0  0  0
  151.3943  139.4799  156.5125 C   0  0  0  0  0  0  0  0  0  0  0  0
  152.3424  140.1637  157.5066 C   0  0  0  0  0  0  0  0  0  0  0  0
  153.4547  139.3429  157.8005 O   0  0  0  0  0  0  0  0  0  0  0  0
  151.9830  139.2183  155.1142 C   0  0  0  0  0  0  0  0  0  0  0  0
  150.8349  139.8043  154.4649 O   0  0  0  0  0  0  0  0  0  0  0  0
  150.4637  140.4124  155.7200 C   0  0  0  0  0  0  0  0  0  0  0  0
  145.0583  129.1938  151.6847 H   0  0  0  0  0  0  0  0  0  0  0  0
  146.5071  129.4344  152.6527 H   0  0  0  0  0  0  0  0  0  0  0  0
  146.6271  129.1928  150.9063 H   0  0  0  0  0  0  0  0  0  0  0  0
  145.4948  131.3964  150.5024 H   0  0  0  0  0  0  0  0  0  0  0  0
  145.1758  131.5415  152.2097 H   0  0  0  0  0  0  0  0  0  0  0  0
  148.1448  133.7737  151.2927 H   0  0  0  0  0  0  0  0  0  0  0  0
  146.7855  133.4647  150.2997 H   0  0  0  0  0  0  0  0  0  0  0  0
  146.0869  135.2515  151.6834 H   0  0  0  0  0  0  0  0  0  0  0  0
  145.2129  133.9007  152.2960 H   0  0  0  0  0  0  0  0  0  0  0  0
  146.8928  135.7663  153.6965 H   0  0  0  0  0  0  0  0  0  0  0  0
  145.9866  134.8753  155.6979 H   0  0  0  0  0  0  0  0  0  0  0  0
  144.8415  134.1251  154.5986 H   0  0  0  0  0  0  0  0  0  0  0  0
  147.0032  132.8607  156.2201 H   0  0  0  0  0  0  0  0  0  0  0  0
  145.7473  131.9984  155.3340 H   0  0  0  0  0  0  0  0  0  0  0  0
  146.5577  132.4834  153.6587 H   0  0  0  0  0  0  0  0  0  0  0  0
  147.5830  130.5838  153.3605 H   0  0  0  0  0  0  0  0  0  0  0  0
  148.9090  131.5843  152.8591 H   0  0  0  0  0  0  0  0  0  0  0  0
  151.7635  133.3889  156.0805 H   0  0  0  0  0  0  0  0  0  0  0  0
  148.2598  138.7857  155.8985 H   0  0  0  0  0  0  0  0  0  0  0  0
  150.1095  138.6306  158.0591 H   0  0  0  0  0  0  0  0  0  0  0  0
  151.4847  137.6372  157.6804 H   0  0  0  0  0  0  0  0  0  0  0  0
  152.6989  141.1182  157.1181 H   0  0  0  0  0  0  0  0  0  0  0  0
  151.8315  140.3834  158.4446 H   0  0  0  0  0  0  0  0  0  0  0  0
  153.3928  139.0641  158.7015 H   0  0  0  0  0  0  0  0  0  0  0  0
  152.8919  139.7849  154.9046 H   0  0  0  0  0  0  0  0  0  0  0  0
  152.1267  138.1695  154.8595 H   0  0  0  0  0  0  0  0  0  0  0  0
  149.4055  140.3012  155.9531 H   0  0  0  0  0  0  0  0  0  0  0  0
  150.7556  141.4635  155.7594 H   0  0  0  0  0  0  0  0  0  0  0  0
  147.8132  131.5082  151.0184 H   0  0  0  0  0  0  0  0  0  0  0  0
  1  2  1  0  0  0  0
  1 28  1  0  0  0  0
  1 29  1  0  0  0  0
  1 30  1  0  0  0  0
  2  3  1  0  0  0  0
  2 31  1  0  0  0  0
  2 32  1  0  0  0  0
  3 10  1  0  0  0  0
  3  4  1  0  0  0  0
  3 56  1  0  0  0  0
  4  5  1  0  0  0  0
  4 33  1  0  0  0  0
  4 34  1  0  0  0  0
  5  6  1  0  0  0  0
  5 35  1  0  0  0  0
  5 36  1  0  0  0  0
  6 11  1  0  0  0  0
  6  7  1  0  0  0  0
  6 37  1  0  0  0  0
  7  8  1  0  0  0  0
  7 38  1  0  0  0  0
  7 39  1  0  0  0  0
  8  9  1  0  0  0  0
  8 40  1  0  0  0  0
  8 41  1  0  0  0  0
  9 10  1  0  0  0  0
  9 11  1  0  0  0  0
  9 42  1  0  0  0  0
 10 43  1  0  0  0  0
 10 44  1  0  0  0  0
 11 12  1  0  0  0  0
 12 17  1  0  0  0  0
 12 13  2  0  0  0  0
 13 14  1  0  0  0  0
 14 15  2  0  0  0  0
 14 45  1  0  0  0  0
 15 16  1  0  0  0  0
 16 20  1  0  0  0  0
 16 17  2  0  0  0  0
 17 18  1  0  0  0  0
 18 19  2  0  0  0  0
 19 20  1  0  0  0  0
 19 46  1  0  0  0  0
 20 21  1  0  0  0  0
 21 22  1  0  0  0  0
 21 47  1  0  0  0  0
 21 48  1  0  0  0  0
 22 27  1  0  0  0  0
 22 23  1  0  0  0  0
 22 25  1  0  0  0  0
 23 24  1  0  0  0  0
 23 49  1  0  0  0  0
 23 50  1  0  0  0  0
 24 51  1  0  0  0  0
 25 26  1  0  0  0  0
 25 52  1  0  0  0  0
 25 53  1  0  0  0  0
 26 27  1  0  0  0  0
 27 54  1  0  0  0  0
 27 55  1  0  0  0  0
M  CHG  1   3   1
M  END
> <s_m_source_file>
AV-unprocessed.smi

> <i_m_source_file_index>
169

> <i_lp_mmshare_version>
43012

> <i_f3d_flags>
0

> <s_epik_input>
W0NASF0xMltDSDJdW0NIMl1OKFtDSDJdW0NIM10pW0NIMl1bQ0BIXShbQ0gyXVtDSDJdMSlOMmMobltjSF1uMyljKGMzNCluW2NIXW40W0NIMl1DNShbQ0gyXVtPSF0pW0NIMl1PW0NIMl01

> <s_epik_cmdline>
J2VwaWtfcHl0aG9uJywgJy1waCcsICc3LjAnLCAnLXRuJywgJzgnLCAnLW1hJywgJzIwMCcsICctbWV0YWxfYmluZGluZycsICctaW1hZScsICc8aW5maWxlLm1hZT4nLCAnLW9tYWUnLCAnPG91dGZpbGUubWFlPic=

> <r_lp_tautomer_probability>
1

> <r_epik_Ionization_Penalty>
0.00274162

> <r_epik_Ionization_Penalty_Charging>
0.00243722

> <r_epik_Ionization_Penalty_Neutral>
0.000304399

> <r_epik_State_Penalty>
-0

> <r_epik_Charging_Adjusted_Penalty>
0.00243722

> <i_epik_Tot_Q>
1

> <i_epik_Tot_abs_Q>
1

> <r_epik_Metal_State_Penalty>
-0

> <b_epik_Metal_Only>
0

> <s_lp_Force_Field>
OPLS_2005

> <r_lp_Energy>
131.702

> <b_lp_Chiralities_Consistent>
1

> <s_lp_Variant>
AV-unprocessed.smi:169-6

> <Gold.Version>
5.8.1

> <Gold.Id.Protein>
6NUR|6NUR_protein|mol2

> <Gold.PLP.Fitness>
41.3560

> <Gold.PLP.PLP>
-33.1755

> <Gold.PLP.part.hbond>
-3.0000

> <Gold.PLP.part.metal>
0.0000

> <Gold.PLP.part.buried>
-5.1177

> <Gold.PLP.part.nonpolar>
-25.0301

> <Gold.PLP.part.repulsive>
0.3971

> <Gold.PLP.ligand.clash>
0.0000

> <Gold.PLP.ligand.torsion>
0.6572

> <Gold.PLP.Chemscore.Hbond>
3.0000

> <Gold.PLP.Chemscore.CHOScore>
0.0000

> <Gold.PLP.Chemscore.Metal>
0.0000

> <Gold.Chemscore.Hbonds>
donor molecule, donor type, donor heavy atom, donor atom, acceptor molecule, acceptor atom, score
      L1  H     3    56       P1 10747  0.99
      P1  H  7989  7998       L1    26  0.90
      P1  H  7997  8009       L1    24  1.00

> <Gold.PLP.Chemscore.Internal.Correction>
0.4949

> <Gold.Rescore>
     Score         DG    S(hbond)    S(metal)    S(lipo)     H(rot)  DE(clash)    DE(int)     intcor
     13.52     -15.86       2.68        0.00      69.48       2.62       0.02       2.32       ----

> <Gold.Chemscore.Fitness>
13.5229

> <Gold.Chemscore.DG>
-15.8629

> <Gold.Chemscore.ZeroCoef>
-5.4800

> <Gold.Chemscore.Hbond>
2.6837

> <Gold.Chemscore.Metal>
0.0000

> <Gold.Chemscore.Lipo>
69.4839

> <Gold.Chemscore.Internal_Hbond>
0.0000

> <Gold.Chemscore.DEClash>
0.0212

> <Gold.Chemscore.DEInternal>
2.3187

> <Gold.Chemscore.Rot>
2.6212

> <Gold.Chemscore.Internal.Correction>
   9.000000E+99

> <Gold.Chemscore.Hbonds>
donor molecule, donor type, donor heavy atom, donor atom, acceptor molecule, acceptor atom, score
      L1  H     3    56       P1 10747  0.92
      P1  H  7989  7998       L1    26  0.15
      P1  H  7997  8009       L1    24  0.37

> <Gold.Chemscore.Hbond.Weighted>
-8.9635

> <Gold.Chemscore.Metal.Weighted>
-0.0000

> <Gold.Chemscore.Lipo.Weighted>
-8.1296

> <Gold.Chemscore.Internal_Hbond.Weighted>
0.0000

> <Gold.Chemscore.DEClash.Weighted>
0.0212

> <Gold.Chemscore.DEInternal.Weighted>
2.3187

> <Gold.Chemscore.Rot.Weighted>
6.7102

> <Gold.Chemscore.Internal.Correction.Weighted>
   9.000000E+99

> <Gold.Protein.RotatedTorsions>
[ 6907 6896 6895 6894 ] final  -49.97 input  -60.11 | X-H torsion
[ 7974 7965 7964 7962 ] final  169.30 input  175.53 | X-H torsion
[ 8008 7997 7996 7995 ] final  154.07 input   59.86 | X-H torsion
[ 10167 10162 10161 10158 ] final  -49.06 input  -65.29 | X-H torsion
[ 10718 10713 10712 10709 ] final  -92.57 input   66.30 | X-H torsion
[ 10763 10752 10751 10750 ] final   19.82 input  -60.55 | X-H torsion
[ 11005 11000 10999 10996 ] final  -45.80 input  -57.11 | X-H torsion

> <Gold.Protein.ActiveResidues>
 VAL166  LYS551  ARG553  GLY616  TRP617  ASP618  TYR619  PRO620  LYS621  CYS622 
 ASP623  PHE694  ASN695  SER759  ASP760  ASP761  ALA762  ILE779  LEU786  VAL792 
 PHE793  MET794  SER795  GLU796  ALA797  LYS798  CYS799  TRP800  GLU811  SER814 

> <Gold.Protein.RotatedAtoms>
  150.8753  134.8135  159.7184 H   0  0  0  0  0  0  0  0  0  0  0  0  # atno 6907 bound_to 6896
  152.4742  134.4882  159.9697 H   0  0  0  0  0  0  0  0  0  0  0  0  # atno 6908 bound_to 6896
  151.4964  133.3475  159.2897 H   0  0  0  0  0  0  0  0  0  0  0  0  # atno 6909 bound_to 6896
  144.7359  139.9034  143.6411 H   0  0  0  0  0  0  0  0  0  0  0  0  # atno 7974 bound_to 7965
  156.2550  140.1976  156.6589 H   0  0  0  0  0  0  0  0  0  0  0  0  # atno 8008 bound_to 7997
  154.6480  140.0575  156.9948 H   0  0  0  0  0  0  0  0  0  0  0  0  # atno 8009 bound_to 7997
  155.1462  140.3247  155.4444 H   0  0  0  0  0  0  0  0  0  0  0  0  # atno 8010 bound_to 7997
  140.6702  143.2713  151.4161 H   0  0  0  0  0  0  0  0  0  0  0  0  # atno 10167 bound_to 10162
  156.0003  130.4992  150.5645 H   0  0  0  0  0  0  0  0  0  0  0  0  # atno 10718 bound_to 10713
  153.1130  135.6701  153.9468 H   0  0  0  0  0  0  0  0  0  0  0  0  # atno 10763 bound_to 10752
  153.9005  135.3036  155.3450 H   0  0  0  0  0  0  0  0  0  0  0  0  # atno 10764 bound_to 10752
  154.7548  135.5017  153.9432 H   0  0  0  0  0  0  0  0  0  0  0  0  # atno 10765 bound_to 10752
  141.0539  133.6733  156.3065 H   0  0  0  0  0  0  0  0  0  0  0  0  # atno 11005 bound_to 11000
  146.1054  139.4054  143.0320 LP  0  0  0  0  0  0  0  0  0  0  0  0  # atno 17320 bound_to 7965
  145.7518  140.9969  143.1246 LP  0  0  0  0  0  0  0  0  0  0  0  0  # atno 17321 bound_to 7965
  139.5967  144.1381  152.2152 LP  0  0  0  0  0  0  0  0  0  0  0  0  # atno 17342 bound_to 10162
  140.0753  144.5746  150.7162 LP  0  0  0  0  0  0  0  0  0  0  0  0  # atno 17343 bound_to 10162
  157.3549  131.0740  151.1683 LP  0  0  0  0  0  0  0  0  0  0  0  0  # atno 17370 bound_to 10713
  157.2487  130.6604  149.5922 LP  0  0  0  0  0  0  0  0  0  0  0  0  # atno 17371 bound_to 10713
  140.6002  134.5562  157.5516 LP  0  0  0  0  0  0  0  0  0  0  0  0  # atno 17394 bound_to 11000
  139.9373  134.7851  156.0769 LP  0  0  0  0  0  0  0  0  0  0  0  0  # atno 17395 bound_to 11000

$$$$
