AV-unprocessed.smi:1639|AV-procd|sdf|6552|dock3
  -GOLD-   22720 7233D 1   1.00000     0.00000
 Structure written by MMmdl.
 38 39  0  0  0  0  0  0  0  0  2 V2000
  151.1979  145.2119  159.6576 C   0  0  0  0  0  0  0  0  0  0  0  0
  152.3569  144.8236  158.7371 C   0  0  0  0  0  0  0  0  0  0  0  0
  151.8435  144.0872  157.6396 O   0  0  0  0  0  0  0  0  0  0  0  0
  151.3486  142.8024  157.9885 C   0  0  2  0  0  0  0  0  0  0  0  0
  152.4057  142.0758  158.8372 C   0  0  0  0  0  0  0  0  0  0  0  0
  151.9771  140.6208  159.0884 C   0  0  0  0  0  0  0  0  0  0  0  0
  151.6745  139.9008  157.7629 C   0  0  0  0  0  0  0  0  0  0  0  0
  150.6915  140.6460  156.9802 N   0  0  0  0  0  0  0  0  0  0  0  0
  150.2410  139.9477  155.8519 C   0  0  0  0  0  0  0  0  0  0  0  0
  149.1013  140.3947  155.1615 C   0  0  0  0  0  0  0  0  0  0  0  0
  148.7057  139.6521  154.0321 C   0  0  0  0  0  0  0  0  0  0  0  0
  147.4996  140.0333  153.2010 C   0  0  0  0  0  0  0  0  0  0  0  0
  149.4139  138.5577  153.6564 N   0  3  0  0  0  0  0  0  0  0  0  0
  150.4908  138.1877  154.3648 C   0  0  0  0  0  0  0  0  0  0  0  0
  151.1920  137.0756  153.9642 N   0  0  0  0  0  0  0  0  0  0  0  0
  150.9181  138.8505  155.4445 N   0  0  0  0  0  0  0  0  0  0  0  0
  151.0703  142.0266  156.6897 C   0  0  0  0  0  0  0  0  0  0  0  0
  151.5556  145.7802  160.5164 H   0  0  0  0  0  0  0  0  0  0  0  0
  150.6843  144.3265  160.0332 H   0  0  0  0  0  0  0  0  0  0  0  0
  150.4672  145.8259  159.1307 H   0  0  0  0  0  0  0  0  0  0  0  0
  152.8697  145.7182  158.3804 H   0  0  0  0  0  0  0  0  0  0  0  0
  153.0806  144.2206  159.2877 H   0  0  0  0  0  0  0  0  0  0  0  0
  150.4214  142.8689  158.5623 H   0  0  0  0  0  0  0  0  0  0  0  0
  153.3659  142.0887  158.3205 H   0  0  0  0  0  0  0  0  0  0  0  0
  152.5521  142.5955  159.7846 H   0  0  0  0  0  0  0  0  0  0  0  0
  152.7576  140.0885  159.6327 H   0  0  0  0  0  0  0  0  0  0  0  0
  151.0903  140.6056  159.7233 H   0  0  0  0  0  0  0  0  0  0  0  0
  152.5926  139.7910  157.1838 H   0  0  0  0  0  0  0  0  0  0  0  0
  151.3013  138.8955  157.9634 H   0  0  0  0  0  0  0  0  0  0  0  0
  148.5567  141.2709  155.4830 H   0  0  0  0  0  0  0  0  0  0  0  0
  147.0160  140.9272  153.5961 H   0  0  0  0  0  0  0  0  0  0  0  0
  146.7690  139.2239  153.1981 H   0  0  0  0  0  0  0  0  0  0  0  0
  147.7965  140.2343  152.1713 H   0  0  0  0  0  0  0  0  0  0  0  0
  150.8977  136.5518  153.1524 H   0  0  0  0  0  0  0  0  0  0  0  0
  151.9993  136.7618  154.4830 H   0  0  0  0  0  0  0  0  0  0  0  0
  150.2741  142.5175  156.1284 H   0  0  0  0  0  0  0  0  0  0  0  0
  151.9597  142.0341  156.0577 H   0  0  0  0  0  0  0  0  0  0  0  0
  149.1190  138.0266  152.8368 H   0  0  0  0  0  0  0  0  0  0  0  0
  1  2  1  0  0  0  0
  1 18  1  0  0  0  0
  1 19  1  0  0  0  0
  1 20  1  0  0  0  0
  2  3  1  0  0  0  0
  2 21  1  0  0  0  0
  2 22  1  0  0  0  0
  3  4  1  0  0  0  0
  4 17  1  0  0  0  0
  4  5  1  0  0  0  0
  4 23  1  0  0  0  0
  5  6  1  0  0  0  0
  5 24  1  0  0  0  0
  5 25  1  0  0  0  0
  6  7  1  0  0  0  0
  6 26  1  0  0  0  0
  6 27  1  0  0  0  0
  7  8  1  0  0  0  0
  7 28  1  0  0  0  0
  7 29  1  0  0  0  0
  8  9  1  0  0  0  0
  8 17  1  0  0  0  0
  9 16  1  0  0  0  0
  9 10  2  0  0  0  0
 10 11  1  0  0  0  0
 10 30  1  0  0  0  0
 11 12  1  0  0  0  0
 11 13  2  0  0  0  0
 12 31  1  0  0  0  0
 12 32  1  0  0  0  0
 12 33  1  0  0  0  0
 13 14  1  0  0  0  0
 13 38  1  0  0  0  0
 14 15  1  0  0  0  0
 14 16  2  0  0  0  0
 15 34  1  0  0  0  0
 15 35  1  0  0  0  0
 17 36  1  0  0  0  0
 17 37  1  0  0  0  0
M  CHG  1  13   1
M  END
> <s_m_source_file>
AV-unprocessed.smi

> <i_m_source_file_index>
1639

> <i_lp_mmshare_version>
43012

> <i_f3d_flags>
0

> <s_epik_input>
W0NIM11bQ0gyXU9bQ0BASF0xW0NIMl1bQ0gyXVtDSDJdTihbQ0gyXTEpYzJbY0hdYyhbQ0gzXSluYyhuMilbTkgyXQ==

> <s_epik_cmdline>
J2VwaWtfcHl0aG9uJywgJy1waCcsICc3LjAnLCAnLXRuJywgJzgnLCAnLW1hJywgJzIwMCcsICctbWV0YWxfYmluZGluZycsICctaW1hZScsICc8aW5maWxlLm1hZT4nLCAnLW9tYWUnLCAnPG91dGZpbGUubWFlPic=

> <r_lp_tautomer_probability>
0.575011

> <r_epik_Ionization_Penalty>
2.98813

> <r_epik_Ionization_Penalty_Charging>
2.98813

> <r_epik_Ionization_Penalty_Neutral>
3.21773e-06

> <r_epik_State_Penalty>
2.17402

> <r_epik_Charging_Adjusted_Penalty>
5.16215

> <i_epik_Tot_Q>
1

> <i_epik_Tot_abs_Q>
1

> <r_epik_Metal_State_Penalty>
2.51158

> <b_epik_Metal_Only>
0

> <s_lp_Force_Field>
OPLS_2005

> <r_lp_Energy>
16.4344

> <b_lp_Chiralities_Consistent>
1

> <s_lp_Variant>
AV-unprocessed.smi:1639-5

> <Gold.Version>
5.8.1

> <Gold.Id.Protein>
6NUR|6NUR_protein|mol2

> <Gold.PLP.Fitness>
46.5672

> <Gold.PLP.PLP>
-34.8854

> <Gold.PLP.part.hbond>
-3.4852

> <Gold.PLP.part.metal>
0.0000

> <Gold.PLP.part.buried>
-5.4780

> <Gold.PLP.part.nonpolar>
-26.9527

> <Gold.PLP.part.repulsive>
0.3675

> <Gold.PLP.ligand.clash>
0.0000

> <Gold.PLP.ligand.torsion>
0.2364

> <Gold.PLP.Chemscore.Hbond>
4.0000

> <Gold.PLP.Chemscore.CHOScore>
0.0000

> <Gold.PLP.Chemscore.Metal>
0.0000

> <Gold.Chemscore.Hbonds>
donor molecule, donor type, donor heavy atom, donor atom, acceptor molecule, acceptor atom, score
      L1  H    13    38       P1  7948  1.98
      L1  H    15    34       P1  7949  1.60

> <Gold.PLP.Chemscore.Internal.Correction>
0.1545

> <Gold.Rescore>
     Score         DG    S(hbond)    S(metal)    S(lipo)     H(rot)  DE(clash)    DE(int)     intcor
     17.08     -17.44       1.79        0.00      83.01       1.46       0.08       0.28       ----

> <Gold.Chemscore.Fitness>
17.0799

> <Gold.Chemscore.DG>
-17.4382

> <Gold.Chemscore.ZeroCoef>
-5.4800

> <Gold.Chemscore.Hbond>
1.7882

> <Gold.Chemscore.Metal>
0.0000

> <Gold.Chemscore.Lipo>
83.0147

> <Gold.Chemscore.Internal_Hbond>
0.0000

> <Gold.Chemscore.DEClash>
0.0826

> <Gold.Chemscore.DEInternal>
0.2757

> <Gold.Chemscore.Rot>
1.4560

> <Gold.Chemscore.Internal.Correction>
   9.000000E+99

> <Gold.Chemscore.Hbonds>
donor molecule, donor type, donor heavy atom, donor atom, acceptor molecule, acceptor atom, score
      L1  H    13    38       P1  7948  0.88
      L1  H    15    34       P1  7949  0.11

> <Gold.Chemscore.Hbond.Weighted>
-5.9727

> <Gold.Chemscore.Metal.Weighted>
-0.0000

> <Gold.Chemscore.Lipo.Weighted>
-9.7127

> <Gold.Chemscore.Internal_Hbond.Weighted>
0.0000

> <Gold.Chemscore.DEClash.Weighted>
0.0826

> <Gold.Chemscore.DEInternal.Weighted>
0.2757

> <Gold.Chemscore.Rot.Weighted>
3.7272

> <Gold.Chemscore.Internal.Correction.Weighted>
   9.000000E+99

> <Gold.Protein.RotatedTorsions>
[ 6907 6896 6895 6894 ] final -162.10 input  -60.11 | X-H torsion
[ 7974 7965 7964 7962 ] final -110.95 input  175.53 | X-H torsion
[ 8008 7997 7996 7995 ] final   34.53 input   59.86 | X-H torsion
[ 10167 10162 10161 10158 ] final    5.40 input  -65.29 | X-H torsion
[ 10718 10713 10712 10709 ] final  -58.27 input   66.30 | X-H torsion
[ 10763 10752 10751 10750 ] final   67.12 input  -60.55 | X-H torsion
[ 11005 11000 10999 10996 ] final  -52.44 input  -57.11 | X-H torsion

> <Gold.Protein.ActiveResidues>
 VAL166  LYS551  ARG553  GLY616  TRP617  ASP618  TYR619  PRO620  LYS621  CYS622 
 ASP623  PHE694  ASN695  SER759  ASP760  ASP761  ALA762  ILE779  LEU786  VAL792 
 PHE793  MET794  SER795  GLU796  ALA797  LYS798  CYS799  TRP800  GLU811  SER814 

> <Gold.Protein.RotatedAtoms>
  151.3750  133.3841  159.2703 H   0  0  0  0  0  0  0  0  0  0  0  0  # atno 6907 bound_to 6896
  150.9621  134.9008  159.7747 H   0  0  0  0  0  0  0  0  0  0  0  0  # atno 6908 bound_to 6896
  152.5153  134.3710  159.9370 H   0  0  0  0  0  0  0  0  0  0  0  0  # atno 6909 bound_to 6896
  145.1620  140.8883  143.3585 H   0  0  0  0  0  0  0  0  0  0  0  0  # atno 7974 bound_to 7965
  155.1564  140.3279  155.4420 H   0  0  0  0  0  0  0  0  0  0  0  0  # atno 8008 bound_to 7997
  156.2557  140.1968  156.6624 H   0  0  0  0  0  0  0  0  0  0  0  0  # atno 8009 bound_to 7997
  154.6436  140.0567  156.9861 H   0  0  0  0  0  0  0  0  0  0  0  0  # atno 8010 bound_to 7997
  140.6484  143.7605  150.7535 H   0  0  0  0  0  0  0  0  0  0  0  0  # atno 10167 bound_to 10162
  156.1148  130.4171  150.0554 H   0  0  0  0  0  0  0  0  0  0  0  0  # atno 10718 bound_to 10713
  153.0171  135.5295  154.6930 H   0  0  0  0  0  0  0  0  0  0  0  0  # atno 10763 bound_to 10752
  154.6059  135.2873  155.0487 H   0  0  0  0  0  0  0  0  0  0  0  0  # atno 10764 bound_to 10752
  154.1527  135.6560  153.5019 H   0  0  0  0  0  0  0  0  0  0  0  0  # atno 10765 bound_to 10752
  141.0925  133.6630  156.4025 H   0  0  0  0  0  0  0  0  0  0  0  0  # atno 11005 bound_to 11000
  145.0321  139.3332  143.6019 LP  0  0  0  0  0  0  0  0  0  0  0  0  # atno 17320 bound_to 7965
  146.3481  139.9662  142.8711 LP  0  0  0  0  0  0  0  0  0  0  0  0  # atno 17321 bound_to 7965
  140.1251  143.4576  152.2289 LP  0  0  0  0  0  0  0  0  0  0  0  0  # atno 17342 bound_to 10162
  139.5696  144.7455  151.3926 LP  0  0  0  0  0  0  0  0  0  0  0  0  # atno 17343 bound_to 10162
  156.8508  130.9458  151.3625 LP  0  0  0  0  0  0  0  0  0  0  0  0  # atno 17370 bound_to 10713
  157.6330  130.8745  149.9309 LP  0  0  0  0  0  0  0  0  0  0  0  0  # atno 17371 bound_to 10713
  140.5219  134.6296  157.5321 LP  0  0  0  0  0  0  0  0  0  0  0  0  # atno 17394 bound_to 11000
  139.9753  134.7225  155.9961 LP  0  0  0  0  0  0  0  0  0  0  0  0  # atno 17395 bound_to 11000

$$$$
