#       Name:                AV-unprocessed.smi:1047
#       Creating user name   scv26
#       Creation time:       Fri Mar 27 03:02:53 2020


#       File generated by GOLD software.
#

@<TRIPOS>MOLECULE
AV-unprocessed.smi:1047
    62    64     1
SMALL
NO_CHARGES


@<TRIPOS>ATOM
      1 ****        -7.0265   1.1102  -1.0627 C.3            1 S1                 0.0000
      2 ****        -6.5308   1.5324   0.3277 C.3            1 S1                 0.0000
      3 ****        -5.0536   1.4587   0.4519 N.4            1 S1                 1.0000
      4 ****        -4.5408   2.2759   1.5768 C.3            1 S1                 0.0000
      5 ****        -3.0062   2.2085   1.6343 C.3            1 S1                 0.0000
      6 ****        -2.5955   0.8518   1.7410 O.3            1 S1                 0.0000
      7 ****        -2.9925   0.0768   0.6142 C.3            1 S1                 0.0000
      8 ****        -2.4226  -1.3387   0.7881 C.3            1 S1                 0.0000
      9 ****        -0.9854  -1.3529   0.5422 N.3            1 S1                 0.0000
     10 ****        -0.3681  -2.6623   0.7413 C.3            1 S1                 0.0000
     11 ****         1.1520  -2.6239   0.5004 C.3            1 S1                 0.0000
     12 ****         1.7676  -1.8565   1.5172 O.3            1 S1                 0.0000
     13 ****         1.5498  -2.1259  -0.9045 C.3            1 S1                 0.0000
     14 ****         2.9872  -2.1304  -1.1064 N.pl3          1 S1                 0.0000
     15 ****         3.7551  -3.1827  -1.4477 C.2            1 S1                 0.0000
     16 ****         5.0606  -2.9660  -1.5792 N.2            1 S1                 0.0000
     17 ****         5.1494  -1.6141  -1.2939 C.ar           1 S1                 0.0000
     18 ****         6.2700  -0.7557  -1.2599 C.ar           1 S1                 0.0000
     19 ****         6.1252   0.6131  -0.9399 C.ar           1 S1                 0.0000
     20 ****         7.3571   1.5006  -0.9182 C.3            1 S1                 0.0000
     21 ****         4.8428   1.1424  -0.6463 C.ar           1 S1                 0.0000
     22 ****         4.6625   2.6108  -0.3040 C.3            1 S1                 0.0000
     23 ****         3.7133   0.2980  -0.6720 C.ar           1 S1                 0.0000
     24 ****         3.8699  -1.0617  -0.9943 C.ar           1 S1                 0.0000
     25 ****        -4.5322   0.0720   0.5426 C.3            1 S1                 0.0000
     26 ****        -8.1031   1.2599  -1.1462 H              1 S1                 0.0000
     27 ****        -6.8312   0.0578  -1.2658 H              1 S1                 0.0000
     28 ****        -6.5504   1.6999  -1.8467 H              1 S1                 0.0000
     29 ****        -6.8502   2.5618   0.4965 H              1 S1                 0.0000
     30 ****        -7.0040   0.9304   1.1048 H              1 S1                 0.0000
     31 ****        -4.8570   3.3131   1.4587 H              1 S1                 0.0000
     32 ****        -4.9659   1.9148   2.5147 H              1 S1                 0.0000
     33 ****        -2.5606   2.6696   0.7514 H              1 S1                 0.0000
     34 ****        -2.6382   2.7582   2.5007 H              1 S1                 0.0000
     35 ****        -2.5914   0.5182  -0.3008 H              1 S1                 0.0000
     36 ****        -2.6452  -1.7080   1.7901 H              1 S1                 0.0000
     37 ****        -2.9118  -2.0174   0.0883 H              1 S1                 0.0000
     38 ****        -0.5289  -0.6745   1.1445 H              1 S1                 0.0000
     39 ****        -0.5662  -3.0209   1.7523 H              1 S1                 0.0000
     40 ****        -0.8206  -3.3870   0.0634 H              1 S1                 0.0000
     41 ****         1.5279  -3.6412   0.6174 H              1 S1                 0.0000
     42 ****         2.7039  -1.8900   1.3918 H              1 S1                 0.0000
     43 ****         1.0937  -2.7563  -1.6689 H              1 S1                 0.0000
     44 ****         1.1833  -1.1138  -1.0778 H              1 S1                 0.0000
     45 ****         3.3320  -4.1641  -1.6062 H              1 S1                 0.0000
     46 ****         7.2465  -1.1592  -1.4841 H              1 S1                 0.0000
     47 ****         7.2801   2.2772  -1.6792 H              1 S1                 0.0000
     48 ****         8.2639   0.9280  -1.1147 H              1 S1                 0.0000
     49 ****         7.4687   1.9785   0.0551 H              1 S1                 0.0000
     50 ****         3.6128   2.8549  -0.1387 H              1 S1                 0.0000
     51 ****         5.0275   3.2402  -1.1158 H              1 S1                 0.0000
     52 ****         5.2118   2.8616   0.6036 H              1 S1                 0.0000
     53 ****         2.7313   0.6872  -0.4468 H              1 S1                 0.0000
     54 ****        -4.9487  -0.4188   1.4239 H              1 S1                 0.0000
     55 ****        -4.8490  -0.5061  -0.3249 H              1 S1                 0.0000
     56 ****        -4.6711   1.8644  -0.3904 H              1 S1                 0.0000
     57 ****        -3.0038   0.4560   2.5636 LP             1 S1                 0.0000
     58 ****        -1.5987   0.8225   1.8164 LP             1 S1                 0.0000
     59 ****        -0.8633  -1.1184  -0.4222 LP             1 S1                 0.0000
     60 ****         1.5334  -2.2335   2.4133 LP             1 S1                 0.0000
     61 ****         1.4534  -0.9088   1.4619 LP             1 S1                 0.0000
     62 ****         5.7868  -3.6098  -1.8205 LP             1 S1                 0.0000
@<TRIPOS>BOND
    1    1    2 1     
    2    1   26 1     
    3    1   27 1     
    4    1   28 1     
    5    2    3 1     
    6    2   29 1     
    7    2   30 1     
    8    3   25 1     
    9    3    4 1     
   10    3   56 1     
   11    4    5 1     
   12    4   31 1     
   13    4   32 1     
   14    5    6 1     
   15    5   33 1     
   16    5   34 1     
   17    6    7 1     
   18    7    8 1     
   19    7   25 1     
   20    7   35 1     
   21    8    9 1     
   22    8   36 1     
   23    8   37 1     
   24    9   10 1     
   25    9   38 1     
   26   10   11 1     
   27   10   39 1     
   28   10   40 1     
   29   11   12 1     
   30   11   13 1     
   31   11   41 1     
   32   12   42 1     
   33   13   14 1     
   34   13   43 1     
   35   13   44 1     
   36   14   24 1     
   37   14   15 1     
   38   15   16 2     
   39   15   45 1     
   40   16   17 1     
   41   17   24 ar    
   42   17   18 ar    
   43   18   19 ar    
   44   18   46 1     
   45   19   20 1     
   46   19   21 ar    
   47   20   47 1     
   48   20   48 1     
   49   20   49 1     
   50   21   22 1     
   51   21   23 ar    
   52   22   50 1     
   53   22   51 1     
   54   22   52 1     
   55   23   24 ar    
   56   23   53 1     
   57   25   54 1     
   58   25   55 1     
   59    6   57 1     
   60    6   58 1     
   61    9   59 1     
   62   12   60 1     
   63   12   61 1     
   64   16   62 1     
@<TRIPOS>SUBSTRUCTURE
      1 S1             1
@<TRIPOS>SET
LONE_PAIRS      STATIC     ATOMS    <user>   **** ""
6 57 58 59 60 61 62
DONOR_HYDROGENS      STATIC     ATOMS    <user>   **** ""
3 56 38 42
ATOM$BLUE        STATIC     ATOMS    COLORGROUP SYSTEM
6 57 58 59 60 61 62
ATOM$RED        STATIC     ATOMS    COLORGROUP SYSTEM
3 56 38 42
