#       Name:                AV-unprocessed.smi:218
#       Creating user name   scv26
#       Creation time:       Thu Mar 26 20:06:21 2020


#       File generated by GOLD software.
#

@<TRIPOS>MOLECULE
AV-unprocessed.smi:218
    68    71     1
SMALL
NO_CHARGES


@<TRIPOS>ATOM
      1 ****        -4.8590   5.6615  -4.1568 C.3            1 S1                 0.0000
      2 ****        -4.5058   5.5390  -2.6695 C.3            1 S1                 0.0000
      3 ****        -3.5164   6.6364  -2.2406 C.3            1 S1                 0.0000
      4 ****        -3.9259   4.2459  -2.4848 O.3            1 S1                 0.0000
      5 ****        -3.8923   3.6733  -1.2277 C.ar           1 S1                 0.0000
      6 ****        -3.2755   2.4136  -1.0834 C.ar           1 S1                 0.0000
      7 ****        -3.2419   1.8141   0.1919 C.ar           1 S1                 0.0000
      8 ****        -2.5866   0.4648   0.3922 C.3            1 S1                 0.0000
      9 ****        -1.1358   0.5500   0.4815 N.pl3          1 S1                 0.0000
     10 ****        -0.4062  -0.5696   0.6746 C.ar           1 S1                 0.0000
     11 ****        -1.0049  -1.7858   0.7662 N.ar           1 S1                 0.0000
     12 ****        -0.2645  -2.8810   0.9584 C.ar           1 S1                 0.0000
     13 ****         1.0601  -2.9796   1.0847 N.ar           1 S1                 0.0000
     14 ****         1.6685  -1.7616   0.9941 C.ar           1 S1                 0.0000
     15 ****         1.0075  -0.5181   0.7887 C.ar           1 S1                 0.0000
     16 ****         1.9402   0.5094   0.7451 N.2            1 S1                 0.0000
     17 ****         3.0845  -0.0961   0.9151 C.2            1 S1                 0.0000
     18 ****         3.0156  -1.4628   1.0715 N.pl3          1 S1                 0.0000
     19 ****         4.1615  -2.4079   1.2836 C.3            1 S1                 0.0000
     20 ****         3.7779  -3.4107   2.1789 O.3            1 S1                 0.0000
     21 ****         3.8993  -4.6961   1.5718 C.3            1 S1                 0.0000
     22 ****         4.2469  -5.7331   2.6514 C.3            1 S1                 0.0000
     23 ****         4.1446  -7.0430   2.1355 O.3            1 S1                 0.0000
     24 ****         4.9743  -4.4837   0.5023 C.3            1 S1                 0.0000
     25 ****         4.9642  -5.4617  -0.5200 O.3            1 S1                 0.0000
     26 ****         4.6405  -3.0903  -0.0129 C.3            1 S1                 0.0000
     27 ****         3.6619  -3.1076  -1.0416 O.3            1 S1                 0.0000
     28 ****        -3.8204   2.5005   1.2776 C.ar           1 S1                 0.0000
     29 ****        -4.4140   3.7543   1.0359 C.ar           1 S1                 0.0000
     30 ****        -4.4546   4.3316  -0.1835 N.ar           1 S1                 0.0000
     31 ****         4.9374  -1.8003   1.7509 H              1 S1                 0.0000
     32 ****         2.9442  -4.9401   1.1044 H              1 S1                 0.0000
     33 ****         5.9600  -4.4687   0.9696 H              1 S1                 0.0000
     34 ****         5.5245  -2.5758  -0.3911 H              1 S1                 0.0000
     35 ****        -5.3151   6.6276  -4.3747 H              1 S1                 0.0000
     36 ****        -5.5667   4.8873  -4.4541 H              1 S1                 0.0000
     37 ****        -3.9726   5.5610  -4.7838 H              1 S1                 0.0000
     38 ****        -5.4368   5.6363  -2.1087 H              1 S1                 0.0000
     39 ****        -3.9369   7.6277  -2.4106 H              1 S1                 0.0000
     40 ****        -2.5854   6.5685  -2.8040 H              1 S1                 0.0000
     41 ****        -3.2671   6.5665  -1.1822 H              1 S1                 0.0000
     42 ****        -2.8381   1.9173  -1.9375 H              1 S1                 0.0000
     43 ****        -2.9816   0.0073   1.3005 H              1 S1                 0.0000
     44 ****        -2.8626  -0.1844  -0.4400 H              1 S1                 0.0000
     45 ****        -0.7362   1.4748   0.4097 H              1 S1                 0.0000
     46 ****        -0.8107  -3.8106   1.0201 H              1 S1                 0.0000
     47 ****         4.0206   0.4434   0.9301 H              1 S1                 0.0000
     48 ****         5.2491  -5.5686   3.0477 H              1 S1                 0.0000
     49 ****         3.5520  -5.6460   3.4869 H              1 S1                 0.0000
     50 ****         4.3411  -7.6557   2.8277 H              1 S1                 0.0000
     51 ****         4.1156  -5.4440  -0.9366 H              1 S1                 0.0000
     52 ****         3.4009  -2.2172  -1.2211 H              1 S1                 0.0000
     53 ****        -3.8116   2.0790   2.2722 H              1 S1                 0.0000
     54 ****        -4.8687   4.3088   1.8434 H              1 S1                 0.0000
     55 ****        -2.9784   4.3077  -2.7985 LP             1 S1                 0.0000
     56 ****        -4.4319   3.6165  -3.0745 LP             1 S1                 0.0000
     57 ****        -1.9991  -1.8611   0.6898 LP             1 S1                 0.0000
     58 ****         1.5475  -3.8409   1.2282 LP             1 S1                 0.0000
     59 ****         1.7741   1.4867   0.6139 LP             1 S1                 0.0000
     60 ****         2.8267  -3.2634   2.4501 LP             1 S1                 0.0000
     61 ****         4.3649  -3.3720   2.9876 LP             1 S1                 0.0000
     62 ****         4.7956  -7.1616   1.3857 LP             1 S1                 0.0000
     63 ****         3.2163  -7.2011   1.7991 LP             1 S1                 0.0000
     64 ****         5.1290  -6.3657  -0.1255 LP             1 S1                 0.0000
     65 ****         5.6758  -5.2565  -1.1920 LP             1 S1                 0.0000
     66 ****         2.8685  -3.6384  -0.7437 LP             1 S1                 0.0000
     67 ****         4.0475  -3.5193  -1.8673 LP             1 S1                 0.0000
     68 ****        -4.8887   5.2230  -0.3139 LP             1 S1                 0.0000
@<TRIPOS>BOND
    1    1    2 1     
    2    1   35 1     
    3    1   36 1     
    4    1   37 1     
    5    2    3 1     
    6    2    4 1     
    7    2   38 1     
    8    3   39 1     
    9    3   40 1     
   10    3   41 1     
   11    4    5 1     
   12    5   30 ar    
   13    5    6 ar    
   14    6    7 ar    
   15    6   42 1     
   16    7    8 1     
   17    7   28 ar    
   18    8    9 1     
   19    8   43 1     
   20    8   44 1     
   21    9   10 1     
   22    9   45 1     
   23   10   15 ar    
   24   10   11 ar    
   25   11   12 ar    
   26   12   13 ar    
   27   12   46 1     
   28   13   14 ar    
   29   14   18 1     
   30   14   15 ar    
   31   15   16 1     
   32   16   17 2     
   33   17   18 1     
   34   17   47 1     
   35   18   19 1     
   36   19   31 1     
   37   19   26 1     
   38   19   20 1     
   39   20   21 1     
   40   21   32 1     
   41   21   22 1     
   42   21   24 1     
   43   22   23 1     
   44   22   48 1     
   45   22   49 1     
   46   23   50 1     
   47   24   33 1     
   48   24   25 1     
   49   24   26 1     
   50   25   51 1     
   51   26   34 1     
   52   26   27 1     
   53   27   52 1     
   54   28   29 ar    
   55   28   53 1     
   56   29   30 ar    
   57   29   54 1     
   58    4   55 1     
   59    4   56 1     
   60   11   57 1     
   61   13   58 1     
   62   16   59 1     
   63   20   60 1     
   64   20   61 1     
   65   23   62 1     
   66   23   63 1     
   67   25   64 1     
   68   25   65 1     
   69   27   66 1     
   70   27   67 1     
   71   30   68 1     
@<TRIPOS>SUBSTRUCTURE
      1 S1             1
@<TRIPOS>SET
LONE_PAIRS      STATIC     ATOMS    <user>   **** ""
14 55 56 57 58 59 60 61 62 63 64 65 66 67 68
DONOR_HYDROGENS      STATIC     ATOMS    <user>   **** ""
4 45 50 51 52
ATOM$BLUE        STATIC     ATOMS    COLORGROUP SYSTEM
14 55 56 57 58 59 60 61 62 63 64 65 66 67 68
ATOM$RED        STATIC     ATOMS    COLORGROUP SYSTEM
4 45 50 51 52
