AV-unprocessed.smi:492|AV-procd|sdf|2708|dock9
  -GOLD-   2262023153D 1   1.00000     0.00000
 Structure written by MMmdl.
 46 48  0  0  0  0  0  0  0  0  1 V2000
  145.8293  135.8861  150.8877 C   0  0  0  0  0  0  0  0  0  0  0  0
  145.5740  136.3857  152.1924 O   0  0  0  0  0  0  0  0  0  0  0  0
  146.1076  137.6099  152.5343 C   0  0  0  0  0  0  0  0  0  0  0  0
  146.7217  138.4971  151.6146 C   0  0  0  0  0  0  0  0  0  0  0  0
  147.2417  139.7312  152.0515 C   0  0  0  0  0  0  0  0  0  0  0  0
  147.1520  140.1021  153.4082 C   0  0  0  0  0  0  0  0  0  0  0  0
  147.7296  141.4241  153.8771 C   0  0  0  0  0  0  0  0  0  0  0  0
  149.1223  141.3327  154.1257 O   0  0  0  0  0  0  0  0  0  0  0  0
  149.4750  140.2153  154.9251 C   0  0  0  0  0  0  0  0  0  0  0  0
  150.7635  140.5223  155.7048 C   0  0  2  0  0  0  0  0  0  0  0  0
  151.8732  140.0967  154.9389 O   0  0  0  0  0  0  0  0  0  0  0  0
  150.7804  139.9226  157.1269 C   0  0  0  0  0  0  0  0  0  0  0  0
  151.6552  140.6498  158.0355 N   0  0  0  0  0  0  0  0  0  0  0  0
  152.5155  140.1450  158.9532 C   0  0  0  0  0  0  0  0  0  0  0  0
  152.6853  138.6719  159.1501 C   0  0  0  0  0  0  0  0  0  0  0  0
  153.2003  141.0414  159.6636 N   0  0  0  0  0  0  0  0  0  0  0  0
  152.7423  142.2427  159.1568 C   0  0  0  0  0  0  0  0  0  0  0  0
  153.0830  143.5722  159.4946 C   0  0  0  0  0  0  0  0  0  0  0  0
  152.4756  144.6563  158.8276 C   0  0  0  0  0  0  0  0  0  0  0  0
  151.5198  144.4281  157.8165 C   0  0  0  0  0  0  0  0  0  0  0  0
  151.1650  143.1117  157.4654 C   0  0  0  0  0  0  0  0  0  0  0  0
  151.7750  142.0327  158.1335 C   0  0  0  0  0  0  0  0  0  0  0  0
  146.5510  139.2192  154.3285 C   0  0  0  0  0  0  0  0  0  0  0  0
  146.0315  137.9859  153.8910 C   0  0  0  0  0  0  0  0  0  0  0  0
  145.3450  134.9165  150.7732 H   0  0  0  0  0  0  0  0  0  0  0  0
  146.8972  135.7430  150.7168 H   0  0  0  0  0  0  0  0  0  0  0  0
  145.4256  136.5487  150.1209 H   0  0  0  0  0  0  0  0  0  0  0  0
  146.8082  138.2534  150.5669 H   0  0  0  0  0  0  0  0  0  0  0  0
  147.7099  140.3934  151.3379 H   0  0  0  0  0  0  0  0  0  0  0  0
  147.5359  142.1750  153.1097 H   0  0  0  0  0  0  0  0  0  0  0  0
  147.2166  141.7443  154.7854 H   0  0  0  0  0  0  0  0  0  0  0  0
  148.6645  139.9536  155.6076 H   0  0  0  0  0  0  0  0  0  0  0  0
  149.6416  139.3540  154.2763 H   0  0  0  0  0  0  0  0  0  0  0  0
  150.8542  141.6056  155.7820 H   0  0  0  0  0  0  0  0  0  0  0  0
  151.7601  139.1813  154.7333 H   0  0  0  0  0  0  0  0  0  0  0  0
  149.7726  139.9040  157.5419 H   0  0  0  0  0  0  0  0  0  0  0  0
  151.1125  138.8844  157.1003 H   0  0  0  0  0  0  0  0  0  0  0  0
  153.4156  138.4737  159.9353 H   0  0  0  0  0  0  0  0  0  0  0  0
  153.0375  138.2053  158.2301 H   0  0  0  0  0  0  0  0  0  0  0  0
  151.7396  138.2151  159.4406 H   0  0  0  0  0  0  0  0  0  0  0  0
  153.8132  143.7579  160.2681 H   0  0  0  0  0  0  0  0  0  0  0  0
  152.7435  145.6682  159.0936 H   0  0  0  0  0  0  0  0  0  0  0  0
  151.0587  145.2640  157.3112 H   0  0  0  0  0  0  0  0  0  0  0  0
  150.4317  142.9339  156.6928 H   0  0  0  0  0  0  0  0  0  0  0  0
  146.4853  139.4829  155.3741 H   0  0  0  0  0  0  0  0  0  0  0  0
  145.5706  137.3199  154.6059 H   0  0  0  0  0  0  0  0  0  0  0  0
  1  2  1  0  0  0  0
  1 25  1  0  0  0  0
  1 26  1  0  0  0  0
  1 27  1  0  0  0  0
  2  3  1  0  0  0  0
  3 24  1  0  0  0  0
  3  4  2  0  0  0  0
  4  5  1  0  0  0  0
  4 28  1  0  0  0  0
  5  6  2  0  0  0  0
  5 29  1  0  0  0  0
  6  7  1  0  0  0  0
  6 23  1  0  0  0  0
  7  8  1  0  0  0  0
  7 30  1  0  0  0  0
  7 31  1  0  0  0  0
  8  9  1  0  0  0  0
  9 10  1  0  0  0  0
  9 32  1  0  0  0  0
  9 33  1  0  0  0  0
 10 11  1  0  0  0  0
 10 12  1  0  0  0  0
 10 34  1  0  0  0  0
 11 35  1  0  0  0  0
 12 13  1  0  0  0  0
 12 36  1  0  0  0  0
 12 37  1  0  0  0  0
 13 22  1  0  0  0  0
 13 14  1  0  0  0  0
 14 15  1  0  0  0  0
 14 16  2  0  0  0  0
 15 38  1  0  0  0  0
 15 39  1  0  0  0  0
 15 40  1  0  0  0  0
 16 17  1  0  0  0  0
 17 22  2  0  0  0  0
 17 18  1  0  0  0  0
 18 19  2  0  0  0  0
 18 41  1  0  0  0  0
 19 20  1  0  0  0  0
 19 42  1  0  0  0  0
 20 21  2  0  0  0  0
 20 43  1  0  0  0  0
 21 22  1  0  0  0  0
 21 44  1  0  0  0  0
 23 24  2  0  0  0  0
 23 45  1  0  0  0  0
 24 46  1  0  0  0  0
M  END
> <s_m_source_file>
AV-unprocessed.smi

> <i_m_source_file_index>
492

> <i_lp_mmshare_version>
43012

> <i_f3d_flags>
0

> <s_epik_input>
W0NIM11PYzFbY0hdW2NIXWMoW2NIXVtjSF0xKVtDSDJdT1tDSDJdW0NASF0oW09IXSlbQ0gyXW4oYyhuMilbQ0gzXSljKGMyMylbY0hdW2NIXVtjSF1bY0hdMw==

> <s_epik_cmdline>
J2VwaWtfcHl0aG9uJywgJy1waCcsICc3LjAnLCAnLXRuJywgJzgnLCAnLW1hJywgJzIwMCcsICctbWV0YWxfYmluZGluZycsICctaW1hZScsICc8aW5maWxlLm1hZT4nLCAnLW9tYWUnLCAnPG91dGZpbGUubWFlPic=

> <r_lp_tautomer_probability>
1

> <r_epik_Ionization_Penalty>
0.132603

> <r_epik_Ionization_Penalty_Charging>
0

> <r_epik_Ionization_Penalty_Neutral>
0.132603

> <r_epik_State_Penalty>
0.121982

> <r_epik_Charging_Adjusted_Penalty>
0.121982

> <i_epik_Tot_Q>
0

> <i_epik_Tot_abs_Q>
0

> <r_epik_Metal_State_Penalty>
0.000135431

> <b_epik_Metal_Only>
0

> <s_lp_Force_Field>
OPLS_2005

> <r_lp_Energy>
19.0412

> <b_lp_Chiralities_Consistent>
1

> <s_lp_Variant>
AV-unprocessed.smi:492-1

> <Gold.Version>
5.8.1

> <Gold.Id.Protein>
6NUR|6NUR_protein|mol2

> <Gold.PLP.Fitness>
54.1454

> <Gold.PLP.PLP>
-52.6742

> <Gold.PLP.part.hbond>
-2.4842

> <Gold.PLP.part.metal>
0.0000

> <Gold.PLP.part.buried>
-1.9128

> <Gold.PLP.part.nonpolar>
-49.9790

> <Gold.PLP.part.repulsive>
0.3761

> <Gold.PLP.ligand.clash>
0.0000

> <Gold.PLP.ligand.torsion>
1.5617

> <Gold.PLP.Chemscore.Hbond>
1.4982

> <Gold.PLP.Chemscore.CHOScore>
0.0000

> <Gold.PLP.Chemscore.Metal>
0.0000

> <Gold.Chemscore.Hbonds>
donor molecule, donor type, donor heavy atom, donor atom, acceptor molecule, acceptor atom, score
      P1  H  7989  7998       L1    11  0.90
      P1  H  8011  8017       L1     8  0.37

> <Gold.PLP.Chemscore.Internal.Correction>
0.1000

> <Gold.Rescore>
     Score         DG    S(hbond)    S(metal)    S(lipo)     H(rot)  DE(clash)    DE(int)     intcor
     15.80     -17.41       0.67        0.00     135.50       2.40       0.29       1.33       ----

> <Gold.Chemscore.Fitness>
15.7950

> <Gold.Chemscore.DG>
-17.4134

> <Gold.Chemscore.ZeroCoef>
-5.4800

> <Gold.Chemscore.Hbond>
0.6652

> <Gold.Chemscore.Metal>
0.0000

> <Gold.Chemscore.Lipo>
135.4990

> <Gold.Chemscore.Internal_Hbond>
0.0000

> <Gold.Chemscore.DEClash>
0.2878

> <Gold.Chemscore.DEInternal>
1.3306

> <Gold.Chemscore.Rot>
2.3991

> <Gold.Chemscore.Internal.Correction>
   9.000000E+99

> <Gold.Chemscore.Hbonds>
donor molecule, donor type, donor heavy atom, donor atom, acceptor molecule, acceptor atom, score
      P1  H  7989  7998       L1    11  0.19
      P1  H  8011  8017       L1     8  0.06

> <Gold.Chemscore.Hbond.Weighted>
-2.2218

> <Gold.Chemscore.Metal.Weighted>
-0.0000

> <Gold.Chemscore.Lipo.Weighted>
-15.8534

> <Gold.Chemscore.Internal_Hbond.Weighted>
0.0000

> <Gold.Chemscore.DEClash.Weighted>
0.2878

> <Gold.Chemscore.DEInternal.Weighted>
1.3306

> <Gold.Chemscore.Rot.Weighted>
6.1417

> <Gold.Chemscore.Internal.Correction.Weighted>
   9.000000E+99

> <Gold.Protein.RotatedTorsions>
[ 6907 6896 6895 6894 ] final  -78.75 input  -60.11 | X-H torsion
[ 7974 7965 7964 7962 ] final -123.84 input  175.53 | X-H torsion
[ 8008 7997 7996 7995 ] final  122.85 input   59.86 | X-H torsion
[ 10167 10162 10161 10158 ] final   23.49 input  -65.29 | X-H torsion
[ 10718 10713 10712 10709 ] final -141.45 input   66.30 | X-H torsion
[ 10763 10752 10751 10750 ] final   91.43 input  -60.55 | X-H torsion
[ 11005 11000 10999 10996 ] final   82.91 input  -57.11 | X-H torsion

> <Gold.Protein.ActiveResidues>
 VAL166  LYS551  ARG553  GLY616  TRP617  ASP618  TYR619  PRO620  LYS621  CYS622 
 ASP623  PHE694  ASN695  SER759  ASP760  ASP761  ALA762  ILE779  LEU786  VAL792 
 PHE793  MET794  SER795  GLU796  ALA797  LYS798  CYS799  TRP800  GLU811  SER814 

> <Gold.Protein.RotatedAtoms>
  150.6965  134.4225  159.5210 H   0  0  0  0  0  0  0  0  0  0  0  0  # atno 6907 bound_to 6896
  152.1965  134.8623  160.0521 H   0  0  0  0  0  0  0  0  0  0  0  0  # atno 6908 bound_to 6896
  151.9559  133.3645  159.4054 H   0  0  0  0  0  0  0  0  0  0  0  0  # atno 6909 bound_to 6896
  145.0144  140.7934  143.4419 H   0  0  0  0  0  0  0  0  0  0  0  0  # atno 7974 bound_to 7965
  156.2743  140.2776  156.1533 H   0  0  0  0  0  0  0  0  0  0  0  0  # atno 8008 bound_to 7997
  155.0830  140.0388  157.2663 H   0  0  0  0  0  0  0  0  0  0  0  0  # atno 8009 bound_to 7997
  154.6949  140.2637  155.6782 H   0  0  0  0  0  0  0  0  0  0  0  0  # atno 8010 bound_to 7997
  140.5264  143.9915  150.6443 H   0  0  0  0  0  0  0  0  0  0  0  0  # atno 10167 bound_to 10162
  156.3342  130.7602  151.1726 H   0  0  0  0  0  0  0  0  0  0  0  0  # atno 10718 bound_to 10713
  153.2082  135.4398  155.0348 H   0  0  0  0  0  0  0  0  0  0  0  0  # atno 10763 bound_to 10752
  154.8185  135.3326  154.7109 H   0  0  0  0  0  0  0  0  0  0  0  0  # atno 10764 bound_to 10752
  153.7549  135.6995  153.4993 H   0  0  0  0  0  0  0  0  0  0  0  0  # atno 10765 bound_to 10752
  139.9048  134.8106  156.2238 H   0  0  0  0  0  0  0  0  0  0  0  0  # atno 11005 bound_to 11000
  145.1979  139.2267  143.5208 LP  0  0  0  0  0  0  0  0  0  0  0  0  # atno 17320 bound_to 7965
  146.3475  140.1790  142.8589 LP  0  0  0  0  0  0  0  0  0  0  0  0  # atno 17321 bound_to 7965
  140.3278  143.3096  152.0718 LP  0  0  0  0  0  0  0  0  0  0  0  0  # atno 17342 bound_to 10162
  139.4940  144.6530  151.6635 LP  0  0  0  0  0  0  0  0  0  0  0  0  # atno 17343 bound_to 10162
  157.7436  131.0473  150.4936 LP  0  0  0  0  0  0  0  0  0  0  0  0  # atno 17370 bound_to 10713
  156.5106  130.4138  149.6303 LP  0  0  0  0  0  0  0  0  0  0  0  0  # atno 17371 bound_to 10713
  141.0388  133.6948  156.1561 LP  0  0  0  0  0  0  0  0  0  0  0  0  # atno 17394 bound_to 11000
  140.6986  134.4589  157.5587 LP  0  0  0  0  0  0  0  0  0  0  0  0  # atno 17395 bound_to 11000

$$$$
