AV-unprocessed.smi:2504|AV-procd|sdf|9850|dock1
  -GOLD-   2272013483D 1   1.00000     0.00000
 Structure written by MMmdl.
 47 49  0  0  0  0  0  0  0  0  2 V2000
  151.4104  140.2019  154.9516 O   0  0  0  0  0  0  0  0  0  0  0  0
  150.3073  140.1520  155.4969 C   0  0  0  0  0  0  0  0  0  0  0  0
  150.0256  140.9540  156.7847 C   0  0  0  0  0  0  0  0  0  0  0  0
  151.1437  141.9577  157.1142 C   0  0  0  0  0  0  0  0  0  0  0  0
  152.1171  141.2444  158.0660 C   0  0  0  0  0  0  0  0  0  0  0  0
  151.4233  139.9530  158.5206 C   0  0  0  0  0  0  0  0  0  0  0  0
  149.9767  140.0544  158.0283 C   0  0  0  0  0  0  0  0  0  0  0  0
  149.2991  139.3078  155.0220 N   0  0  0  0  0  0  0  0  0  0  0  0
  149.6176  138.1333  154.2240 C   0  0  0  0  0  0  0  0  0  0  0  0
  148.3317  137.5318  154.8019 C   0  0  0  0  0  0  0  0  0  0  0  0
  148.5469  135.7844  155.3613 S   0  0  0  0  0  0  0  0  0  0  0  0
  149.9553  135.5899  155.7382 O   0  0  0  0  0  0  0  0  0  0  0  0
  147.4804  135.4234  156.3075 O   0  0  0  0  0  0  0  0  0  0  0  0
  148.2637  134.8988  153.9068 N   0  0  0  0  0  0  0  0  0  0  0  0
  147.1019  134.0096  153.8295 C   0  0  0  0  0  0  0  0  0  0  0  0
  145.9422  134.6684  153.0626 C   0  0  0  0  0  0  0  0  0  0  0  0
  145.4077  133.8126  151.9290 C   0  0  0  0  0  0  0  0  0  0  0  0
  146.1317  132.6865  151.4787 C   0  0  0  0  0  0  0  0  0  0  0  0
  145.6226  131.9185  150.4110 C   0  0  0  0  0  0  0  0  0  0  0  0
  144.4009  132.2946  149.8167 C   0  0  0  0  0  0  0  0  0  0  0  0
  143.7351  133.3772  150.2751 N   0  3  0  0  0  0  0  0  0  0  0  0
  144.1875  134.1367  151.2969 C   0  0  0  0  0  0  0  0  0  0  0  0
  148.4162  138.5790  155.9206 C   0  0  0  0  0  0  0  0  0  0  0  0
  149.0843  141.4919  156.6653 H   0  0  0  0  0  0  0  0  0  0  0  0
  151.6514  142.3373  156.2262 H   0  0  0  0  0  0  0  0  0  0  0  0
  150.7114  142.8218  157.6201 H   0  0  0  0  0  0  0  0  0  0  0  0
  153.0553  141.0114  157.5610 H   0  0  0  0  0  0  0  0  0  0  0  0
  152.3567  141.8838  158.9162 H   0  0  0  0  0  0  0  0  0  0  0  0
  151.9099  139.0951  158.0548 H   0  0  0  0  0  0  0  0  0  0  0  0
  151.4785  139.8108  159.6003 H   0  0  0  0  0  0  0  0  0  0  0  0
  149.3609  140.5305  158.7925 H   0  0  0  0  0  0  0  0  0  0  0  0
  149.5460  139.0711  157.8354 H   0  0  0  0  0  0  0  0  0  0  0  0
  149.5949  138.3084  153.1481 H   0  0  0  0  0  0  0  0  0  0  0  0
  150.5255  137.6201  154.5486 H   0  0  0  0  0  0  0  0  0  0  0  0
  147.4712  137.6453  154.1404 H   0  0  0  0  0  0  0  0  0  0  0  0
  148.3170  135.5072  153.0896 H   0  0  0  0  0  0  0  0  0  0  0  0
  147.3852  133.0632  153.3666 H   0  0  0  0  0  0  0  0  0  0  0  0
  146.7833  133.7764  154.8458 H   0  0  0  0  0  0  0  0  0  0  0  0
  145.1243  134.8773  153.7533 H   0  0  0  0  0  0  0  0  0  0  0  0
  146.2571  135.6355  152.6679 H   0  0  0  0  0  0  0  0  0  0  0  0
  147.0701  132.4169  151.9412 H   0  0  0  0  0  0  0  0  0  0  0  0
  146.1638  131.0557  150.0511 H   0  0  0  0  0  0  0  0  0  0  0  0
  143.9402  131.7671  148.9942 H   0  0  0  0  0  0  0  0  0  0  0  0
  143.5704  134.9811  151.5671 H   0  0  0  0  0  0  0  0  0  0  0  0
  148.9117  138.2323  156.8281 H   0  0  0  0  0  0  0  0  0  0  0  0
  147.4765  139.0914  156.1281 H   0  0  0  0  0  0  0  0  0  0  0  0
  142.8537  133.6327  149.8295 H   0  0  0  0  0  0  0  0  0  0  0  0
  1  2  2  0  0  0  0
  2  3  1  0  0  0  0
  2  8  1  0  0  0  0
  3  7  1  0  0  0  0
  3  4  1  0  0  0  0
  3 24  1  0  0  0  0
  4  5  1  0  0  0  0
  4 25  1  0  0  0  0
  4 26  1  0  0  0  0
  5  6  1  0  0  0  0
  5 27  1  0  0  0  0
  5 28  1  0  0  0  0
  6  7  1  0  0  0  0
  6 29  1  0  0  0  0
  6 30  1  0  0  0  0
  7 31  1  0  0  0  0
  7 32  1  0  0  0  0
  8 23  1  0  0  0  0
  8  9  1  0  0  0  0
  9 10  1  0  0  0  0
  9 33  1  0  0  0  0
  9 34  1  0  0  0  0
 10 11  1  0  0  0  0
 10 23  1  0  0  0  0
 10 35  1  0  0  0  0
 11 12  2  0  0  0  0
 11 13  2  0  0  0  0
 11 14  1  0  0  0  0
 14 15  1  0  0  0  0
 14 36  1  0  0  0  0
 15 16  1  0  0  0  0
 15 37  1  0  0  0  0
 15 38  1  0  0  0  0
 16 17  1  0  0  0  0
 16 39  1  0  0  0  0
 16 40  1  0  0  0  0
 17 22  1  0  0  0  0
 17 18  2  0  0  0  0
 18 19  1  0  0  0  0
 18 41  1  0  0  0  0
 19 20  2  0  0  0  0
 19 42  1  0  0  0  0
 20 21  1  0  0  0  0
 20 43  1  0  0  0  0
 21 22  2  0  0  0  0
 21 47  1  0  0  0  0
 22 44  1  0  0  0  0
 23 45  1  0  0  0  0
 23 46  1  0  0  0  0
M  CHG  1  21   1
M  END
> <s_m_source_file>
AV-unprocessed.smi

> <i_m_source_file_index>
2504

> <i_lp_mmshare_version>
43012

> <i_f3d_flags>
0

> <s_epik_input>
W0NIMl0xW0NIMl1bQ0gyXVtDSDJdW0NIXTFDKD1PKU4yW0NIMl1bQ0hdKFtDSDJdMilTKD1PKSg9TylbTkhdW0NIMl1bQ0gyXWMzW2NIXVtjSF1bY0hdbltjSF0z

> <s_epik_cmdline>
J2VwaWtfcHl0aG9uJywgJy1waCcsICc3LjAnLCAnLXRuJywgJzgnLCAnLW1hJywgJzIwMCcsICctbWV0YWxfYmluZGluZycsICctaW1hZScsICc8aW5maWxlLm1hZT4nLCAnLW9tYWUnLCAnPG91dGZpbGUubWFlPic=

> <r_epik_Ionization_Penalty>
2.38216

> <r_epik_Ionization_Penalty_Charging>
2.38209

> <r_epik_Ionization_Penalty_Neutral>
6.7549e-05

> <r_epik_State_Penalty>
2.53866

> <r_epik_Charging_Adjusted_Penalty>
4.92075

> <i_epik_Tot_Q>
1

> <i_epik_Tot_abs_Q>
1

> <r_epik_Metal_State_Penalty>
2.64273

> <b_epik_Metal_Only>
0

> <s_lp_Force_Field>
OPLS_2005

> <r_lp_Energy>
40.9078

> <b_lp_Chiralities_Consistent>
1

> <s_lp_Variant>
AV-unprocessed.smi:2504-2

> <Gold.Version>
5.8.1

> <Gold.Id.Protein>
6NUR|6NUR_protein|mol2

> <Gold.PLP.Fitness>
42.2079

> <Gold.PLP.PLP>
-32.5446

> <Gold.PLP.part.hbond>
-2.8889

> <Gold.PLP.part.metal>
0.0000

> <Gold.PLP.part.buried>
-5.6660

> <Gold.PLP.part.nonpolar>
-24.7960

> <Gold.PLP.part.repulsive>
0.1607

> <Gold.PLP.ligand.clash>
0.0000

> <Gold.PLP.ligand.torsion>
2.0431

> <Gold.PLP.Chemscore.Hbond>
3.9750

> <Gold.PLP.Chemscore.CHOScore>
0.0000

> <Gold.PLP.Chemscore.Metal>
0.0000

> <Gold.Chemscore.Hbonds>
donor molecule, donor type, donor heavy atom, donor atom, acceptor molecule, acceptor atom, score
      L1  H    14    36       P1  7948  1.00
      L1  H    21    47       P1 10186  2.00
      P1  H  7989  7998       L1     1  1.00

> <Gold.PLP.Chemscore.Internal.Correction>
1.8245

> <Gold.Rescore>
     Score         DG    S(hbond)    S(metal)    S(lipo)     H(rot)  DE(clash)    DE(int)     intcor
     17.08     -19.50       2.88        0.00      80.94       1.97       0.19       2.23       ----

> <Gold.Chemscore.Fitness>
17.0775

> <Gold.Chemscore.DG>
-19.4991

> <Gold.Chemscore.ZeroCoef>
-5.4800

> <Gold.Chemscore.Hbond>
2.8757

> <Gold.Chemscore.Metal>
0.0000

> <Gold.Chemscore.Lipo>
80.9397

> <Gold.Chemscore.Internal_Hbond>
0.0000

> <Gold.Chemscore.DEClash>
0.1913

> <Gold.Chemscore.DEInternal>
2.2303

> <Gold.Chemscore.Rot>
1.9749

> <Gold.Chemscore.Internal.Correction>
   9.000000E+99

> <Gold.Chemscore.Hbonds>
donor molecule, donor type, donor heavy atom, donor atom, acceptor molecule, acceptor atom, score
      L1  H    14    36       P1  7948  0.93
      L1  H    21    47       P1 10186  0.93
      P1  H  7989  7998       L1     1  0.96

> <Gold.Chemscore.Hbond.Weighted>
-9.6048

> <Gold.Chemscore.Metal.Weighted>
-0.0000

> <Gold.Chemscore.Lipo.Weighted>
-9.4700

> <Gold.Chemscore.Internal_Hbond.Weighted>
0.0000

> <Gold.Chemscore.DEClash.Weighted>
0.1913

> <Gold.Chemscore.DEInternal.Weighted>
2.2303

> <Gold.Chemscore.Rot.Weighted>
5.0556

> <Gold.Chemscore.Internal.Correction.Weighted>
   9.000000E+99

> <Gold.Protein.RotatedTorsions>
[ 6907 6896 6895 6894 ] final  127.08 input  -60.11 | X-H torsion
[ 7974 7965 7964 7962 ] final  128.49 input  175.53 | X-H torsion
[ 8008 7997 7996 7995 ] final    3.22 input   59.86 | X-H torsion
[ 10167 10162 10161 10158 ] final -159.72 input  -65.29 | X-H torsion
[ 10718 10713 10712 10709 ] final  -88.02 input   66.30 | X-H torsion
[ 10763 10752 10751 10750 ] final   78.83 input  -60.55 | X-H torsion
[ 11005 11000 10999 10996 ] final  -21.61 input  -57.11 | X-H torsion

> <Gold.Protein.ActiveResidues>
 VAL166  LYS551  ARG553  GLY616  TRP617  ASP618  TYR619  PRO620  LYS621  CYS622 
 ASP623  PHE694  ASN695  SER759  ASP760  ASP761  ALA762  ILE779  LEU786  VAL792 
 PHE793  MET794  SER795  GLU796  ALA797  LYS798  CYS799  TRP800  GLU811  SER814 

> <Gold.Protein.RotatedAtoms>
  152.3846  133.6592  159.6187 H   0  0  0  0  0  0  0  0  0  0  0  0  # atno 6907 bound_to 6896
  150.7768  133.9057  159.3363 H   0  0  0  0  0  0  0  0  0  0  0  0  # atno 6908 bound_to 6896
  151.6856  135.0956  160.0275 H   0  0  0  0  0  0  0  0  0  0  0  0  # atno 6909 bound_to 6896
  145.0390  139.3979  143.5111 H   0  0  0  0  0  0  0  0  0  0  0  0  # atno 7974 bound_to 7965
  154.7010  140.2673  155.6719 H   0  0  0  0  0  0  0  0  0  0  0  0  # atno 8008 bound_to 7997
  156.2765  140.2772  156.1544 H   0  0  0  0  0  0  0  0  0  0  0  0  # atno 8009 bound_to 7997
  155.0764  140.0372  157.2615 H   0  0  0  0  0  0  0  0  0  0  0  0  # atno 8010 bound_to 7997
  139.6594  143.9940  152.2215 H   0  0  0  0  0  0  0  0  0  0  0  0  # atno 10167 bound_to 10162
  155.9984  130.4820  150.4955 H   0  0  0  0  0  0  0  0  0  0  0  0  # atno 10718 bound_to 10713
  153.0905  135.4862  154.8680 H   0  0  0  0  0  0  0  0  0  0  0  0  # atno 10763 bound_to 10752
  154.7263  135.3050  154.8968 H   0  0  0  0  0  0  0  0  0  0  0  0  # atno 10764 bound_to 10752
  153.9617  135.6811  153.4798 H   0  0  0  0  0  0  0  0  0  0  0  0  # atno 10765 bound_to 10752
  140.8578  133.7810  156.0039 H   0  0  0  0  0  0  0  0  0  0  0  0  # atno 11005 bound_to 11000
  146.3507  139.9981  142.8679 LP  0  0  0  0  0  0  0  0  0  0  0  0  # atno 17320 bound_to 7965
  145.1672  140.9703  143.4343 LP  0  0  0  0  0  0  0  0  0  0  0  0  # atno 17321 bound_to 7965
  139.9675  144.6516  150.8020 LP  0  0  0  0  0  0  0  0  0  0  0  0  # atno 17342 bound_to 10162
  140.7573  143.3084  151.2905 LP  0  0  0  0  0  0  0  0  0  0  0  0  # atno 17343 bound_to 10162
  157.2946  131.0633  151.2111 LP  0  0  0  0  0  0  0  0  0  0  0  0  # atno 17370 bound_to 10713
  157.3111  130.6890  149.6216 LP  0  0  0  0  0  0  0  0  0  0  0  0  # atno 17371 bound_to 10713
  140.8718  134.2718  157.5187 LP  0  0  0  0  0  0  0  0  0  0  0  0  # atno 17394 bound_to 11000
  139.8706  134.9571  156.4257 LP  0  0  0  0  0  0  0  0  0  0  0  0  # atno 17395 bound_to 11000

$$$$
