AV-unprocessed.smi:1824|AV-procd|sdf|7400|dock8
  -GOLD-   22720 9 73D 1   1.00000     0.00000
 Structure written by MMmdl.
 45 47  0  0  0  0  0  0  0  0  2 V2000
  143.9529  132.7332  150.3880 C   0  0  0  0  0  0  0  0  0  0  0  0
  144.3653  134.0114  151.1263 C   0  0  1  0  0  0  0  0  0  0  0  0
  144.0944  135.2772  150.2885 C   0  0  0  0  0  0  0  0  0  0  0  0
  144.4208  136.5071  151.0501 N   0  3  2  0  0  0  0  0  0  0  0  0
  145.8782  136.8004  151.1181 C   0  0  0  0  0  0  0  0  0  0  0  0
  146.1849  138.0861  151.9113 C   0  0  2  0  0  0  0  0  0  0  0  0
  147.1481  138.8391  151.1989 O   0  0  0  0  0  0  0  0  0  0  0  0
  146.7240  137.7723  153.3206 C   0  0  0  0  0  0  0  0  0  0  0  0
  147.1990  138.9597  154.0092 N   0  0  0  0  0  0  0  0  0  0  0  0
  146.4813  140.0580  154.3144 C   0  0  0  0  0  0  0  0  0  0  0  0
  147.1126  141.0419  154.9475 N   0  0  0  0  0  0  0  0  0  0  0  0
  148.3889  140.5208  155.0731 C   0  0  0  0  0  0  0  0  0  0  0  0
  149.5505  141.0717  155.6596 C   0  0  0  0  0  0  0  0  0  0  0  0
  150.7596  140.3457  155.6699 C   0  0  0  0  0  0  0  0  0  0  0  0
  151.8631  140.8885  156.2371 F   0  0  0  0  0  0  0  0  0  0  0  0
  150.8255  139.0599  155.0929 C   0  0  0  0  0  0  0  0  0  0  0  0
  151.9906  138.3703  155.1052 F   0  0  0  0  0  0  0  0  0  0  0  0
  149.6809  138.4901  154.5026 C   0  0  0  0  0  0  0  0  0  0  0  0
  148.4764  139.2177  154.4962 C   0  0  0  0  0  0  0  0  0  0  0  0
  143.7209  136.5066  152.3602 C   0  0  0  0  0  0  0  0  0  0  0  0
  143.9738  135.1993  153.1428 C   0  0  1  0  0  0  0  0  0  0  0  0
  143.1494  135.1333  154.4329 C   0  0  0  0  0  0  0  0  0  0  0  0
  143.6110  134.0876  152.3311 O   0  0  0  0  0  0  0  0  0  0  0  0
  144.5058  132.6229  149.4547 H   0  0  0  0  0  0  0  0  0  0  0  0
  142.8892  132.7408  150.1479 H   0  0  0  0  0  0  0  0  0  0  0  0
  144.1499  131.8504  150.9966 H   0  0  0  0  0  0  0  0  0  0  0  0
  145.4272  133.9419  151.3684 H   0  0  0  0  0  0  0  0  0  0  0  0
  144.6474  135.2511  149.3487 H   0  0  0  0  0  0  0  0  0  0  0  0
  143.0381  135.3155  150.0186 H   0  0  0  0  0  0  0  0  0  0  0  0
  146.4100  135.9534  151.5512 H   0  0  0  0  0  0  0  0  0  0  0  0
  146.2761  136.9178  150.1089 H   0  0  0  0  0  0  0  0  0  0  0  0
  145.2860  138.6934  152.0130 H   0  0  0  0  0  0  0  0  0  0  0  0
  147.8323  139.0976  151.7984 H   0  0  0  0  0  0  0  0  0  0  0  0
  145.9410  137.3178  153.9294 H   0  0  0  0  0  0  0  0  0  0  0  0
  147.5372  137.0469  153.2697 H   0  0  0  0  0  0  0  0  0  0  0  0
  145.4360  140.1408  154.0541 H   0  0  0  0  0  0  0  0  0  0  0  0
  149.5121  142.0557  156.1031 H   0  0  0  0  0  0  0  0  0  0  0  0
  149.7307  137.5064  154.0601 H   0  0  0  0  0  0  0  0  0  0  0  0
  144.0039  137.3726  152.9569 H   0  0  0  0  0  0  0  0  0  0  0  0
  142.6520  136.6092  152.1673 H   0  0  0  0  0  0  0  0  0  0  0  0
  145.0276  135.1157  153.4110 H   0  0  0  0  0  0  0  0  0  0  0  0
  143.3940  135.9612  155.0987 H   0  0  0  0  0  0  0  0  0  0  0  0
  143.3439  134.2058  154.9720 H   0  0  0  0  0  0  0  0  0  0  0  0
  142.0804  135.1774  154.2216 H   0  0  0  0  0  0  0  0  0  0  0  0
  144.0322  137.2706  150.5141 H   0  0  0  0  0  0  0  0  0  0  0  0
  1  2  1  0  0  0  0
  1 24  1  0  0  0  0
  1 25  1  0  0  0  0
  1 26  1  0  0  0  0
  2 23  1  0  0  0  0
  2  3  1  0  0  0  0
  2 27  1  0  0  0  0
  3  4  1  0  0  0  0
  3 28  1  0  0  0  0
  3 29  1  0  0  0  0
  4  5  1  0  0  0  0
  4 20  1  0  0  0  0
  4 45  1  0  0  0  0
  5  6  1  0  0  0  0
  5 30  1  0  0  0  0
  5 31  1  0  0  0  0
  6  7  1  0  0  0  0
  6  8  1  0  0  0  0
  6 32  1  0  0  0  0
  7 33  1  0  0  0  0
  8  9  1  0  0  0  0
  8 34  1  0  0  0  0
  8 35  1  0  0  0  0
  9 19  1  0  0  0  0
  9 10  1  0  0  0  0
 10 11  2  0  0  0  0
 10 36  1  0  0  0  0
 11 12  1  0  0  0  0
 12 19  2  0  0  0  0
 12 13  1  0  0  0  0
 13 14  2  0  0  0  0
 13 37  1  0  0  0  0
 14 15  1  0  0  0  0
 14 16  1  0  0  0  0
 16 17  1  0  0  0  0
 16 18  2  0  0  0  0
 18 19  1  0  0  0  0
 18 38  1  0  0  0  0
 20 21  1  0  0  0  0
 20 39  1  0  0  0  0
 20 40  1  0  0  0  0
 21 22  1  0  0  0  0
 21 23  1  0  0  0  0
 21 41  1  0  0  0  0
 22 42  1  0  0  0  0
 22 43  1  0  0  0  0
 22 44  1  0  0  0  0
M  CHG  1   4   1
M  END
> <s_m_source_file>
AV-unprocessed.smi

> <i_m_source_file_index>
1824

> <i_lp_mmshare_version>
43012

> <i_f3d_flags>
0

> <s_epik_input>
W0NIM11bQ0BASF0xW0NIMl1OKFtDSDJdW0NASF0oTzEpW0NIM10pW0NIMl1bQ0BIXShbT0hdKVtDSDJdbihbY0hdbjIpYyhjMjMpW2NIXWMoRiljKEYpW2NIXTM=

> <s_epik_cmdline>
J2VwaWtfcHl0aG9uJywgJy1waCcsICc3LjAnLCAnLXRuJywgJzgnLCAnLW1hJywgJzIwMCcsICctbWV0YWxfYmluZGluZycsICctaW1hZScsICc8aW5maWxlLm1hZT4nLCAnLW9tYWUnLCAnPG91dGZpbGUubWFlPic=

> <r_epik_Ionization_Penalty>
0.61967

> <r_epik_Ionization_Penalty_Charging>
0.608065

> <r_epik_Ionization_Penalty_Neutral>
0.0116057

> <r_epik_State_Penalty>
0.664205

> <r_epik_Charging_Adjusted_Penalty>
1.27227

> <i_epik_Tot_Q>
1

> <i_epik_Tot_abs_Q>
1

> <r_epik_Metal_State_Penalty>
0.654947

> <b_epik_Metal_Only>
0

> <s_lp_Force_Field>
OPLS_2005

> <r_lp_Energy>
21.7037

> <b_lp_Chiralities_Consistent>
1

> <s_lp_Variant>
AV-unprocessed.smi:1824-8

> <Gold.Version>
5.8.1

> <Gold.Id.Protein>
6NUR|6NUR_protein|mol2

> <Gold.PLP.Fitness>
46.4731

> <Gold.PLP.PLP>
-37.6338

> <Gold.PLP.part.hbond>
-3.6474

> <Gold.PLP.part.metal>
0.0000

> <Gold.PLP.part.buried>
0.4410

> <Gold.PLP.part.nonpolar>
-34.3403

> <Gold.PLP.part.repulsive>
0.3175

> <Gold.PLP.ligand.clash>
0.0000

> <Gold.PLP.ligand.torsion>
0.6801

> <Gold.PLP.Chemscore.Hbond>
2.3879

> <Gold.PLP.Chemscore.CHOScore>
1.0000

> <Gold.PLP.Chemscore.Metal>
0.0000

> <Gold.Chemscore.Hbonds>
donor molecule, donor type, donor heavy atom, donor atom, acceptor molecule, acceptor atom, score
      L1  H     4    45       P1 10171  0.89
      L1  H     7    33       P1  7957  0.37
      P1  H  7954  7966       L1     7  0.91
      L1  C    10    36       P1 10175  1.00

> <Gold.PLP.Chemscore.Internal.Correction>
0.0357

> <Gold.Rescore>
     Score         DG    S(hbond)    S(metal)    S(lipo)     H(rot)  DE(clash)    DE(int)     intcor
     13.64     -15.30       1.65        0.00      87.78       2.33       1.01       0.65       ----

> <Gold.Chemscore.Fitness>
13.6357

> <Gold.Chemscore.DG>
-15.2990

> <Gold.Chemscore.ZeroCoef>
-5.4800

> <Gold.Chemscore.Hbond>
1.6470

> <Gold.Chemscore.Metal>
0.0000

> <Gold.Chemscore.Lipo>
87.7798

> <Gold.Chemscore.Internal_Hbond>
0.0000

> <Gold.Chemscore.DEClash>
1.0139

> <Gold.Chemscore.DEInternal>
0.6494

> <Gold.Chemscore.Rot>
2.3251

> <Gold.Chemscore.Internal.Correction>
   9.000000E+99

> <Gold.Chemscore.Hbonds>
donor molecule, donor type, donor heavy atom, donor atom, acceptor molecule, acceptor atom, score
      L1  H     4    45       P1 10171  0.87
      L1  H     7    33       P1  7957  0.35
      P1  H  7954  7966       L1     7  0.21

> <Gold.Chemscore.Hbond.Weighted>
-5.5011

> <Gold.Chemscore.Metal.Weighted>
-0.0000

> <Gold.Chemscore.Lipo.Weighted>
-10.2702

> <Gold.Chemscore.Internal_Hbond.Weighted>
0.0000

> <Gold.Chemscore.DEClash.Weighted>
1.0139

> <Gold.Chemscore.DEInternal.Weighted>
0.6494

> <Gold.Chemscore.Rot.Weighted>
5.9523

> <Gold.Chemscore.Internal.Correction.Weighted>
   9.000000E+99

> <Gold.Protein.RotatedTorsions>
[ 6907 6896 6895 6894 ] final   99.66 input  -60.11 | X-H torsion
[ 7974 7965 7964 7962 ] final   27.88 input  175.53 | X-H torsion
[ 8008 7997 7996 7995 ] final  -24.60 input   59.86 | X-H torsion
[ 10167 10162 10161 10158 ] final  -42.98 input  -65.29 | X-H torsion
[ 10718 10713 10712 10709 ] final -143.22 input   66.30 | X-H torsion
[ 10763 10752 10751 10750 ] final   23.81 input  -60.55 | X-H torsion
[ 11005 11000 10999 10996 ] final  -41.89 input  -57.11 | X-H torsion

> <Gold.Protein.ActiveResidues>
 VAL166  LYS551  ARG553  GLY616  TRP617  ASP618  TYR619  PRO620  LYS621  CYS622 
 ASP623  PHE694  ASN695  SER759  ASP760  ASP761  ALA762  ILE779  LEU786  VAL792 
 PHE793  MET794  SER795  GLU796  ALA797  LYS798  CYS799  TRP800  GLU811  SER814 

> <Gold.Protein.RotatedAtoms>
  152.5388  134.0395  159.8060 H   0  0  0  0  0  0  0  0  0  0  0  0  # atno 6907 bound_to 6896
  151.0553  133.5582  159.2646 H   0  0  0  0  0  0  0  0  0  0  0  0  # atno 6908 bound_to 6896
  151.2501  135.0627  159.9112 H   0  0  0  0  0  0  0  0  0  0  0  0  # atno 6909 bound_to 6896
  146.1760  139.7131  142.8934 H   0  0  0  0  0  0  0  0  0  0  0  0  # atno 7974 bound_to 7965
  154.4520  140.1949  156.0489 H   0  0  0  0  0  0  0  0  0  0  0  0  # atno 8008 bound_to 7997
  156.0669  140.3289  155.7501 H   0  0  0  0  0  0  0  0  0  0  0  0  # atno 8009 bound_to 7997
  155.5325  140.0579  157.2877 H   0  0  0  0  0  0  0  0  0  0  0  0  # atno 8010 bound_to 7997
  140.6950  143.3008  151.3287 H   0  0  0  0  0  0  0  0  0  0  0  0  # atno 10167 bound_to 10162
  156.3553  130.7710  151.1869 H   0  0  0  0  0  0  0  0  0  0  0  0  # atno 10718 bound_to 10713
  153.0811  135.6619  154.0044 H   0  0  0  0  0  0  0  0  0  0  0  0  # atno 10763 bound_to 10752
  153.9665  135.2969  155.3431 H   0  0  0  0  0  0  0  0  0  0  0  0  # atno 10764 bound_to 10752
  154.7210  135.5164  153.8883 H   0  0  0  0  0  0  0  0  0  0  0  0  # atno 10765 bound_to 10752
  141.0277  133.6834  156.2519 H   0  0  0  0  0  0  0  0  0  0  0  0  # atno 11005 bound_to 11000
  145.4211  141.0406  143.2963 LP  0  0  0  0  0  0  0  0  0  0  0  0  # atno 17320 bound_to 7965
  144.8236  139.5748  143.6975 LP  0  0  0  0  0  0  0  0  0  0  0  0  # atno 17321 bound_to 7965
  139.6394  144.0567  152.2542 LP  0  0  0  0  0  0  0  0  0  0  0  0  # atno 17342 bound_to 10162
  140.0068  144.6253  150.7682 LP  0  0  0  0  0  0  0  0  0  0  0  0  # atno 17343 bound_to 10162
  157.7466  131.0416  150.4652 LP  0  0  0  0  0  0  0  0  0  0  0  0  # atno 17370 bound_to 10713
  156.4854  130.4083  149.6437 LP  0  0  0  0  0  0  0  0  0  0  0  0  # atno 17371 bound_to 10713
  140.6461  134.5115  157.5574 LP  0  0  0  0  0  0  0  0  0  0  0  0  # atno 17394 bound_to 11000
  139.9187  134.8193  156.1281 LP  0  0  0  0  0  0  0  0  0  0  0  0  # atno 17395 bound_to 11000

$$$$
