AV-unprocessed.smi:1297|AV-procd|sdf|5416|dock9
  -GOLD-   22720 4573D 1   1.00000     0.00000
 Structure written by MMmdl.
 26 27  0  0  0  0  0  0  0  0  1 V2000
  150.9763  137.1889  155.5321 C   0  0  0  0  0  0  0  0  0  0  0  0
  151.4654  138.6548  154.5789 S   0  0  0  0  0  0  0  0  0  0  0  0
  151.6164  139.8412  155.8841 C   0  0  0  0  0  0  0  0  0  0  0  0
  152.5081  139.7627  156.8771 N   0  0  0  0  0  0  0  0  0  0  0  0
  152.2794  140.8608  157.6735 N   0  0  0  0  0  0  0  0  0  0  0  0
  151.2821  141.5229  157.0844 C   0  0  0  0  0  0  0  0  0  0  0  0
  150.6830  142.7766  157.6402 C   0  0  0  0  0  0  0  0  0  0  0  0
  151.4753  144.0644  157.6833 C   0  0  0  0  0  0  0  0  0  0  0  0
  151.1395  143.3497  158.9651 C   0  0  0  0  0  0  0  0  0  0  0  0
  150.8157  140.9263  155.9671 N   0  0  0  0  0  0  0  0  0  0  0  0
  149.7258  141.3420  155.0905 C   0  0  0  0  0  0  0  0  0  0  0  0
  148.6211  140.2852  155.0070 C   0  0  0  0  0  0  0  0  0  0  0  0
  148.3828  139.7351  153.8138 N   0  0  0  0  0  0  0  0  0  0  0  0
  147.9965  139.9593  156.0136 O   0  0  0  0  0  0  0  0  0  0  0  0
  150.8425  136.3388  154.8632 H   0  0  0  0  0  0  0  0  0  0  0  0
  150.0344  137.3642  156.0526 H   0  0  0  0  0  0  0  0  0  0  0  0
  151.7421  136.9301  156.2639 H   0  0  0  0  0  0  0  0  0  0  0  0
  149.6229  142.8356  157.4014 H   0  0  0  0  0  0  0  0  0  0  0  0
  152.5124  144.0345  157.3552 H   0  0  0  0  0  0  0  0  0  0  0  0
  150.9426  144.9873  157.4639 H   0  0  0  0  0  0  0  0  0  0  0  0
  150.3821  143.7965  159.6056 H   0  0  0  0  0  0  0  0  0  0  0  0
  151.9548  142.8506  159.4855 H   0  0  0  0  0  0  0  0  0  0  0  0
  149.3104  142.2856  155.4448 H   0  0  0  0  0  0  0  0  0  0  0  0
  150.1252  141.5386  154.0949 H   0  0  0  0  0  0  0  0  0  0  0  0
  147.6629  139.0334  153.7160 H   0  0  0  0  0  0  0  0  0  0  0  0
  148.9249  140.0228  153.0119 H   0  0  0  0  0  0  0  0  0  0  0  0
  1  2  1  0  0  0  0
  1 15  1  0  0  0  0
  1 16  1  0  0  0  0
  1 17  1  0  0  0  0
  2  3  1  0  0  0  0
  3 10  1  0  0  0  0
  3  4  2  0  0  0  0
  4  5  1  0  0  0  0
  5  6  2  0  0  0  0
  6  7  1  0  0  0  0
  6 10  1  0  0  0  0
  7  9  1  0  0  0  0
  7  8  1  0  0  0  0
  7 18  1  0  0  0  0
  8  9  1  0  0  0  0
  8 19  1  0  0  0  0
  8 20  1  0  0  0  0
  9 21  1  0  0  0  0
  9 22  1  0  0  0  0
 10 11  1  0  0  0  0
 11 12  1  0  0  0  0
 11 23  1  0  0  0  0
 11 24  1  0  0  0  0
 12 13  1  0  0  0  0
 12 14  2  0  0  0  0
 13 25  1  0  0  0  0
 13 26  1  0  0  0  0
M  END
> <s_m_source_file>
AV-unprocessed.smi

> <i_m_source_file_index>
1297

> <i_lp_mmshare_version>
43012

> <i_f3d_flags>
0

> <s_epik_input>
W0NIM11TYzFubmMoW0NIXTJbQ0gyXVtDSDJdMiluMVtDSDJdQyg9TylbTkgyXQ==

> <s_epik_cmdline>
J2VwaWtfcHl0aG9uJywgJy1waCcsICc3LjAnLCAnLXRuJywgJzgnLCAnLW1hJywgJzIwMCcsICctbWV0YWxfYmluZGluZycsICctaW1hZScsICc8aW5maWxlLm1hZT4nLCAnLW9tYWUnLCAnPG91dGZpbGUubWFlPic=

> <r_lp_tautomer_probability>
1

> <r_epik_Ionization_Penalty>
2.14715e-06

> <r_epik_Ionization_Penalty_Charging>
0

> <r_epik_Ionization_Penalty_Neutral>
2.14715e-06

> <r_epik_State_Penalty>
-0

> <r_epik_Charging_Adjusted_Penalty>
0

> <i_epik_Tot_Q>
0

> <i_epik_Tot_abs_Q>
0

> <r_epik_Metal_State_Penalty>
-0

> <b_epik_Metal_Only>
0

> <s_lp_Force_Field>
OPLS_2005

> <r_lp_Energy>
5.16146

> <b_lp_Chiralities_Consistent>
1

> <s_lp_Variant>
AV-unprocessed.smi:1297-1

> <Gold.Version>
5.8.1

> <Gold.Id.Protein>
6NUR|6NUR_protein|mol2

> <Gold.PLP.Fitness>
33.1321

> <Gold.PLP.PLP>
-27.3265

> <Gold.PLP.part.hbond>
-2.1769

> <Gold.PLP.part.metal>
0.0000

> <Gold.PLP.part.buried>
-1.8541

> <Gold.PLP.part.nonpolar>
-22.9183

> <Gold.PLP.part.repulsive>
0.1139

> <Gold.PLP.ligand.clash>
0.0000

> <Gold.PLP.ligand.torsion>
0.0900

> <Gold.PLP.Chemscore.Hbond>
1.9500

> <Gold.PLP.Chemscore.CHOScore>
0.0000

> <Gold.PLP.Chemscore.Metal>
0.0000

> <Gold.Chemscore.Hbonds>
donor molecule, donor type, donor heavy atom, donor atom, acceptor molecule, acceptor atom, score
      L1  H    13    26       P1  7957  1.00
      P1  H  7997  8008       L1     4  0.85

> <Gold.PLP.Chemscore.Internal.Correction>
0.1356

> <Gold.Rescore>
     Score         DG    S(hbond)    S(metal)    S(lipo)     H(rot)  DE(clash)    DE(int)     intcor
     11.21     -11.52       1.70        0.00      50.91       2.19       0.20       0.11       ----

> <Gold.Chemscore.Fitness>
11.2086

> <Gold.Chemscore.DG>
-11.5184

> <Gold.Chemscore.ZeroCoef>
-5.4800

> <Gold.Chemscore.Hbond>
1.7028

> <Gold.Chemscore.Metal>
0.0000

> <Gold.Chemscore.Lipo>
50.9121

> <Gold.Chemscore.Internal_Hbond>
0.0000

> <Gold.Chemscore.DEClash>
0.2034

> <Gold.Chemscore.DEInternal>
0.1064

> <Gold.Chemscore.Rot>
2.1897

> <Gold.Chemscore.Internal.Correction>
   9.000000E+99

> <Gold.Chemscore.Hbonds>
donor molecule, donor type, donor heavy atom, donor atom, acceptor molecule, acceptor atom, score
      L1  H    13    26       P1  7957  0.97
      P1  H  7997  8008       L1     4  0.14

> <Gold.Chemscore.Hbond.Weighted>
-5.6874

> <Gold.Chemscore.Metal.Weighted>
-0.0000

> <Gold.Chemscore.Lipo.Weighted>
-5.9567

> <Gold.Chemscore.Internal_Hbond.Weighted>
0.0000

> <Gold.Chemscore.DEClash.Weighted>
0.2034

> <Gold.Chemscore.DEInternal.Weighted>
0.1064

> <Gold.Chemscore.Rot.Weighted>
5.6057

> <Gold.Chemscore.Internal.Correction.Weighted>
   9.000000E+99

> <Gold.Protein.RotatedTorsions>
[ 6907 6896 6895 6894 ] final   -1.15 input  -60.11 | X-H torsion
[ 7974 7965 7964 7962 ] final  133.90 input  175.53 | X-H torsion
[ 8008 7997 7996 7995 ] final  -53.16 input   59.86 | X-H torsion
[ 10167 10162 10161 10158 ] final   19.47 input  -65.29 | X-H torsion
[ 10718 10713 10712 10709 ] final  136.00 input   66.30 | X-H torsion
[ 10763 10752 10751 10750 ] final  -97.52 input  -60.55 | X-H torsion
[ 11005 11000 10999 10996 ] final   -3.27 input  -57.11 | X-H torsion

> <Gold.Protein.ActiveResidues>
 VAL166  LYS551  ARG553  GLY616  TRP617  ASP618  TYR619  PRO620  LYS621  CYS622 
 ASP623  PHE694  ASN695  SER759  ASP760  ASP761  ALA762  ILE779  LEU786  VAL792 
 PHE793  MET794  SER795  GLU796  ALA797  LYS798  CYS799  TRP800  GLU811  SER814 

> <Gold.Protein.RotatedAtoms>
  151.5508  135.1067  159.9948 H   0  0  0  0  0  0  0  0  0  0  0  0  # atno 6907 bound_to 6896
  152.4492  133.7592  159.6748 H   0  0  0  0  0  0  0  0  0  0  0  0  # atno 6908 bound_to 6896
  150.8416  133.7860  159.3083 H   0  0  0  0  0  0  0  0  0  0  0  0  # atno 6909 bound_to 6896
  144.9818  139.4496  143.5382 H   0  0  0  0  0  0  0  0  0  0  0  0  # atno 7974 bound_to 7965
  154.4126  140.1206  156.5109 H   0  0  0  0  0  0  0  0  0  0  0  0  # atno 8008 bound_to 7997
  155.6799  140.3496  155.4832 H   0  0  0  0  0  0  0  0  0  0  0  0  # atno 8009 bound_to 7997
  155.9560  140.1114  157.0926 H   0  0  0  0  0  0  0  0  0  0  0  0  # atno 8010 bound_to 7997
  140.5576  143.9395  150.6620 H   0  0  0  0  0  0  0  0  0  0  0  0  # atno 10167 bound_to 10162
  157.4512  131.1066  151.0031 H   0  0  0  0  0  0  0  0  0  0  0  0  # atno 10718 bound_to 10713
  154.7335  135.5043  153.9003 H   0  0  0  0  0  0  0  0  0  0  0  0  # atno 10763 bound_to 10752
  153.0972  135.6675  153.9748 H   0  0  0  0  0  0  0  0  0  0  0  0  # atno 10764 bound_to 10752
  153.9544  135.3054  155.3416 H   0  0  0  0  0  0  0  0  0  0  0  0  # atno 10765 bound_to 10752
  140.6675  133.9266  155.8474 H   0  0  0  0  0  0  0  0  0  0  0  0  # atno 11005 bound_to 11000
  146.3410  139.9095  142.8782 LP  0  0  0  0  0  0  0  0  0  0  0  0  # atno 17320 bound_to 7965
  145.2410  141.0009  143.3936 LP  0  0  0  0  0  0  0  0  0  0  0  0  # atno 17321 bound_to 7965
  140.2838  143.3371  152.1127 LP  0  0  0  0  0  0  0  0  0  0  0  0  # atno 17342 bound_to 10162
  139.5055  144.6796  151.6041 LP  0  0  0  0  0  0  0  0  0  0  0  0  # atno 17343 bound_to 10162
  157.0860  130.5922  149.5430 LP  0  0  0  0  0  0  0  0  0  0  0  0  # atno 17370 bound_to 10713
  155.9988  130.5062  150.7584 LP  0  0  0  0  0  0  0  0  0  0  0  0  # atno 17371 bound_to 10713
  141.0418  134.0611  157.3893 LP  0  0  0  0  0  0  0  0  0  0  0  0  # atno 17394 bound_to 11000
  139.8992  135.0158  156.7186 LP  0  0  0  0  0  0  0  0  0  0  0  0  # atno 17395 bound_to 11000

$$$$
