#       Name:                AV-unprocessed.smi:1075
#       Creating user name   scv26
#       Creation time:       Fri Mar 27 03:21:34 2020


#       File generated by GOLD software.
#

@<TRIPOS>MOLECULE
AV-unprocessed.smi:1075
    53    54     1
SMALL
NO_CHARGES


@<TRIPOS>ATOM
      1 ****        -1.4569   3.1212  -2.3660 C.3            1 S1                 0.0000
      2 ****        -2.0773   1.8181  -1.9499 C.2            1 S1                 0.0000
      3 ****        -3.2422   1.8284  -1.3253 N.2            1 S1                 0.0000
      4 ****        -3.5162   0.5311  -1.0881 N.pl3          1 S1                 0.0000
      5 ****        -4.7445   0.1809  -0.4017 C.3            1 S1                 0.0000
      6 ****        -2.5206  -0.3024  -1.5603 C.2            1 S1                 0.0000
      7 ****        -2.5995  -1.7887  -1.4046 C.3            1 S1                 0.0000
      8 ****        -1.5651   0.4993  -2.1337 C.2            1 S1                 0.0000
      9 ****        -0.2563   0.1261  -2.8018 C.3            1 S1                 0.0000
     10 ****        -0.4808  -0.7582  -4.0430 C.3            1 S1                 0.0000
     11 ****         0.6946  -0.5028  -1.7692 C.2            1 S1                 0.0000
     12 ****         1.1498  -1.6337  -1.9417 O.2            1 S1                 0.0000
     13 ****         0.9738   0.2571  -0.6939 N.am           1 S1                 0.0000
     14 ****         1.7790  -0.0781   0.4866 C.3            1 S1                 0.0000
     15 ****         3.2470  -0.3224   0.0647 C.3            1 S1                 0.0000
     16 ****         1.6833   1.1531   1.4228 C.3            1 S1                 0.0000
     17 ****         2.2402   0.9073   2.8361 C.3            1 S1                 0.0000
     18 ****         1.5718  -0.3046   3.5050 C.3            1 S1                 0.0000
     19 ****         2.1258  -0.5467   4.9162 C.3            1 S1                 0.0000
     20 ****         1.7302  -1.5482   2.6156 C.3            1 S1                 0.0000
     21 ****         1.1695  -1.3155   1.2018 C.3            1 S1                 0.0000
     22 ****        -0.4636   3.2352  -1.9316 H              1 S1                 0.0000
     23 ****        -2.0556   3.9758  -2.0484 H              1 S1                 0.0000
     24 ****        -1.3541   3.1740  -3.4499 H              1 S1                 0.0000
     25 ****        -4.5115  -0.1945   0.5948 H              1 S1                 0.0000
     26 ****        -5.2712  -0.5923  -0.9613 H              1 S1                 0.0000
     27 ****        -5.3953   1.0514  -0.3085 H              1 S1                 0.0000
     28 ****        -1.6209  -2.2548  -1.5110 H              1 S1                 0.0000
     29 ****        -3.2603  -2.2192  -2.1570 H              1 S1                 0.0000
     30 ****        -2.9828  -2.0618  -0.4214 H              1 S1                 0.0000
     31 ****         0.2480   1.0268  -3.1533 H              1 S1                 0.0000
     32 ****        -0.9674  -1.7010  -3.7924 H              1 S1                 0.0000
     33 ****         0.4620  -0.9938  -4.5380 H              1 S1                 0.0000
     34 ****        -1.1103  -0.2468  -4.7716 H              1 S1                 0.0000
     35 ****         0.5423   1.1699  -0.6732 H              1 S1                 0.0000
     36 ****         3.8960  -0.4892   0.9235 H              1 S1                 0.0000
     37 ****         3.6475   0.5319  -0.4819 H              1 S1                 0.0000
     38 ****         3.3468  -1.1973  -0.5773 H              1 S1                 0.0000
     39 ****         2.1912   2.0079   0.9741 H              1 S1                 0.0000
     40 ****         0.6374   1.4490   1.5232 H              1 S1                 0.0000
     41 ****         3.3196   0.7608   2.7922 H              1 S1                 0.0000
     42 ****         2.0816   1.7982   3.4447 H              1 S1                 0.0000
     43 ****         0.5061  -0.0918   3.6019 H              1 S1                 0.0000
     44 ****         3.1927  -0.7704   4.8909 H              1 S1                 0.0000
     45 ****         1.6209  -1.3846   5.3976 H              1 S1                 0.0000
     46 ****         1.9846   0.3301   5.5488 H              1 S1                 0.0000
     47 ****         2.7820  -1.8287   2.5534 H              1 S1                 0.0000
     48 ****         1.2175  -2.3962   3.0709 H              1 S1                 0.0000
     49 ****         0.0882  -1.1898   1.2805 H              1 S1                 0.0000
     50 ****         1.3224  -2.2178   0.6095 H              1 S1                 0.0000
     51 ****        -3.7975   2.6237  -1.0824 LP             1 S1                 0.0000
     52 ****         0.9021  -2.1530  -2.7596 LP             1 S1                 0.0000
     53 ****         1.7672  -2.0330  -1.2639 LP             1 S1                 0.0000
@<TRIPOS>BOND
    1    1    2 1     
    2    1   22 1     
    3    1   23 1     
    4    1   24 1     
    5    2    8 1     
    6    2    3 2     
    7    3    4 1     
    8    4    5 1     
    9    4    6 1     
   10    5   25 1     
   11    5   26 1     
   12    5   27 1     
   13    6    7 1     
   14    6    8 2     
   15    7   28 1     
   16    7   29 1     
   17    7   30 1     
   18    8    9 1     
   19    9   10 1     
   20    9   11 1     
   21    9   31 1     
   22   10   32 1     
   23   10   33 1     
   24   10   34 1     
   25   11   12 2     
   26   11   13 am    
   27   13   14 1     
   28   13   35 1     
   29   14   21 1     
   30   14   15 1     
   31   14   16 1     
   32   15   36 1     
   33   15   37 1     
   34   15   38 1     
   35   16   17 1     
   36   16   39 1     
   37   16   40 1     
   38   17   18 1     
   39   17   41 1     
   40   17   42 1     
   41   18   19 1     
   42   18   20 1     
   43   18   43 1     
   44   19   44 1     
   45   19   45 1     
   46   19   46 1     
   47   20   21 1     
   48   20   47 1     
   49   20   48 1     
   50   21   49 1     
   51   21   50 1     
   52    3   51 1     
   53   12   52 1     
   54   12   53 1     
@<TRIPOS>SUBSTRUCTURE
      1 S1             1
@<TRIPOS>SET
LONE_PAIRS      STATIC     ATOMS    <user>   **** ""
3 51 52 53
DONOR_HYDROGENS      STATIC     ATOMS    <user>   **** ""
1 35
ATOM$BLUE        STATIC     ATOMS    COLORGROUP SYSTEM
3 51 52 53
ATOM$RED        STATIC     ATOMS    COLORGROUP SYSTEM
1 35
