AV-unprocessed.smi:1166|AV-procd|sdf|4937|dock5
  -GOLD-   22720 3523D 1   1.00000     0.00000
 Structure written by MMmdl.
 46 47  0  0  0  0  0  0  0  0  1 V2000
  152.4557  144.8405  157.9880 C   0  0  0  0  0  0  0  0  0  0  0  0
  152.0137  144.5331  159.3445 N   0  0  0  0  0  0  0  0  0  0  0  0
  150.9821  145.3480  159.9742 C   0  0  0  0  0  0  0  0  0  0  0  0
  152.6291  143.4832  160.0642 C   0  0  0  0  0  0  0  0  0  0  0  0
  153.3292  142.4436  159.4029 C   0  0  0  0  0  0  0  0  0  0  0  0
  153.9247  141.4185  160.1627 C   0  0  0  0  0  0  0  0  0  0  0  0
  153.8150  141.4559  161.5717 C   0  0  0  0  0  0  0  0  0  0  0  0
  154.3510  140.4744  162.4490 N   0  0  0  0  0  0  0  0  0  0  0  0
  154.6967  139.2036  162.1803 C   0  0  0  0  0  0  0  0  0  0  0  0
  154.6388  138.6660  161.0747 O   0  0  0  0  0  0  0  0  0  0  0  0
  155.1407  138.5818  163.2818 N   0  0  0  0  0  0  0  0  0  0  0  0
  155.5973  137.1967  163.3422 C   0  0  1  0  0  0  0  0  0  0  0  0
  156.1476  136.8635  164.7389 C   0  0  0  0  0  0  0  0  0  0  0  0
  156.5675  135.3904  164.7919 C   0  0  0  0  0  0  0  0  0  0  0  0
  155.4034  134.4623  164.4033 C   0  0  0  0  0  0  0  0  0  0  0  0
  154.8201  134.8351  163.0984 N   0  0  0  0  0  0  0  0  0  0  0  0
  155.2195  133.9194  161.6735 S   0  0  0  0  0  0  0  0  0  0  0  0
  154.5921  132.2280  162.0334 C   0  0  0  0  0  0  0  0  0  0  0  0
  154.4396  134.4690  160.5539 O   0  0  0  0  0  0  0  0  0  0  0  0
  156.6859  133.8539  161.5770 O   0  0  0  0  0  0  0  0  0  0  0  0
  154.4327  136.2550  162.9786 C   0  0  0  0  0  0  0  0  0  0  0  0
  153.0908  142.5224  162.1391 C   0  0  0  0  0  0  0  0  0  0  0  0
  152.5197  143.5070  161.4150 N   0  0  0  0  0  0  0  0  0  0  0  0
  152.3245  143.9757  157.3370 H   0  0  0  0  0  0  0  0  0  0  0  0
  153.5093  145.1218  157.9835 H   0  0  0  0  0  0  0  0  0  0  0  0
  151.8874  145.6669  157.5610 H   0  0  0  0  0  0  0  0  0  0  0  0
  151.3719  145.8374  160.8672 H   0  0  0  0  0  0  0  0  0  0  0  0
  150.1272  144.7330  160.2564 H   0  0  0  0  0  0  0  0  0  0  0  0
  150.6231  146.1258  159.2998 H   0  0  0  0  0  0  0  0  0  0  0  0
  153.4186  142.4083  158.3279 H   0  0  0  0  0  0  0  0  0  0  0  0
  154.4376  140.6227  159.6464 H   0  0  0  0  0  0  0  0  0  0  0  0
  154.5311  140.7923  163.3902 H   0  0  0  0  0  0  0  0  0  0  0  0
  155.1596  139.1034  164.1459 H   0  0  0  0  0  0  0  0  0  0  0  0
  156.3937  137.0620  162.6100 H   0  0  0  0  0  0  0  0  0  0  0  0
  157.0015  137.4991  164.9762 H   0  0  0  0  0  0  0  0  0  0  0  0
  155.3894  137.0588  165.4986 H   0  0  0  0  0  0  0  0  0  0  0  0
  157.4151  135.2284  164.1272 H   0  0  0  0  0  0  0  0  0  0  0  0
  156.9166  135.1419  165.7944 H   0  0  0  0  0  0  0  0  0  0  0  0
  155.7345  133.4242  164.3895 H   0  0  0  0  0  0  0  0  0  0  0  0
  154.6203  134.5242  165.1597 H   0  0  0  0  0  0  0  0  0  0  0  0
  154.7884  131.5864  161.1748 H   0  0  0  0  0  0  0  0  0  0  0  0
  153.5187  132.2598  162.2119 H   0  0  0  0  0  0  0  0  0  0  0  0
  155.1037  131.8181  162.9024 H   0  0  0  0  0  0  0  0  0  0  0  0
  153.5891  136.4347  163.6463 H   0  0  0  0  0  0  0  0  0  0  0  0
  154.0745  136.4631  161.9705 H   0  0  0  0  0  0  0  0  0  0  0  0
  152.9665  142.5924  163.2098 H   0  0  0  0  0  0  0  0  0  0  0  0
  1  2  1  0  0  0  0
  1 24  1  0  0  0  0
  1 25  1  0  0  0  0
  1 26  1  0  0  0  0
  2  3  1  0  0  0  0
  2  4  1  0  0  0  0
  3 27  1  0  0  0  0
  3 28  1  0  0  0  0
  3 29  1  0  0  0  0
  4 23  1  0  0  0  0
  4  5  2  0  0  0  0
  5  6  1  0  0  0  0
  5 30  1  0  0  0  0
  6  7  2  0  0  0  0
  6 31  1  0  0  0  0
  7  8  1  0  0  0  0
  7 22  1  0  0  0  0
  8  9  1  0  0  0  0
  8 32  1  0  0  0  0
  9 10  2  0  0  0  0
  9 11  1  0  0  0  0
 11 12  1  0  0  0  0
 11 33  1  0  0  0  0
 12 21  1  0  0  0  0
 12 13  1  0  0  0  0
 12 34  1  0  0  0  0
 13 14  1  0  0  0  0
 13 35  1  0  0  0  0
 13 36  1  0  0  0  0
 14 15  1  0  0  0  0
 14 37  1  0  0  0  0
 14 38  1  0  0  0  0
 15 16  1  0  0  0  0
 15 39  1  0  0  0  0
 15 40  1  0  0  0  0
 16 17  1  0  0  0  0
 16 21  1  0  0  0  0
 17 18  1  0  0  0  0
 17 19  2  0  0  0  0
 17 20  2  0  0  0  0
 18 41  1  0  0  0  0
 18 42  1  0  0  0  0
 18 43  1  0  0  0  0
 21 44  1  0  0  0  0
 21 45  1  0  0  0  0
 22 23  2  0  0  0  0
 22 46  1  0  0  0  0
M  END
> <s_m_source_file>
AV-unprocessed.smi

> <i_m_source_file_index>
1166

> <i_lp_mmshare_version>
43012

> <i_f3d_flags>
0

> <s_epik_input>
W0NIM11OKFtDSDNdKWMxW2NIXVtjSF1jKFtjSF1uMSlbTkhdQyg9TylbTkhdW0NAQEhdMltDSDJdW0NIMl1bQ0gyXU4oW0NIMl0yKVMoPU8pKD1PKVtDSDNd

> <s_epik_cmdline>
J2VwaWtfcHl0aG9uJywgJy1waCcsICc3LjAnLCAnLXRuJywgJzgnLCAnLW1hJywgJzIwMCcsICctbWV0YWxfYmluZGluZycsICctaW1hZScsICc8aW5maWxlLm1hZT4nLCAnLW9tYWUnLCAnPG91dGZpbGUubWFlPic=

> <r_lp_tautomer_probability>
1

> <r_epik_Ionization_Penalty>
0.585334

> <r_epik_Ionization_Penalty_Charging>
0

> <r_epik_Ionization_Penalty_Neutral>
0.585334

> <r_epik_State_Penalty>
0.597345

> <r_epik_Charging_Adjusted_Penalty>
0.597345

> <i_epik_Tot_Q>
0

> <i_epik_Tot_abs_Q>
0

> <r_epik_Metal_State_Penalty>
0.29678

> <b_epik_Metal_Only>
0

> <s_lp_Force_Field>
OPLS_2005

> <r_lp_Energy>
2.0747

> <b_lp_Chiralities_Consistent>
1

> <s_lp_Variant>
AV-unprocessed.smi:1166-4

> <Gold.Version>
5.8.1

> <Gold.Id.Protein>
6NUR|6NUR_protein|mol2

> <Gold.PLP.Fitness>
47.0333

> <Gold.PLP.PLP>
-44.8076

> <Gold.PLP.part.hbond>
-1.0000

> <Gold.PLP.part.metal>
0.0000

> <Gold.PLP.part.buried>
-5.7127

> <Gold.PLP.part.nonpolar>
-39.2078

> <Gold.PLP.part.repulsive>
0.1190

> <Gold.PLP.ligand.clash>
0.0000

> <Gold.PLP.ligand.torsion>
1.4051

> <Gold.PLP.Chemscore.Hbond>
0.9913

> <Gold.PLP.Chemscore.CHOScore>
0.0000

> <Gold.PLP.Chemscore.Metal>
0.0000

> <Gold.Chemscore.Hbonds>
donor molecule, donor type, donor heavy atom, donor atom, acceptor molecule, acceptor atom, score
      P1  H  6896  6908       L1    19  1.00

> <Gold.PLP.Chemscore.Internal.Correction>
2.0621

> <Gold.Rescore>
     Score         DG    S(hbond)    S(metal)    S(lipo)     H(rot)  DE(clash)    DE(int)     intcor
     15.32     -18.11       0.96        0.00     102.36       1.00       0.21       2.58       ----

> <Gold.Chemscore.Fitness>
15.3214

> <Gold.Chemscore.DG>
-18.1069

> <Gold.Chemscore.ZeroCoef>
-5.4800

> <Gold.Chemscore.Hbond>
0.9613

> <Gold.Chemscore.Metal>
0.0000

> <Gold.Chemscore.Lipo>
102.3608

> <Gold.Chemscore.Internal_Hbond>
0.0000

> <Gold.Chemscore.DEClash>
0.2089

> <Gold.Chemscore.DEInternal>
2.5766

> <Gold.Chemscore.Rot>
1.0000

> <Gold.Chemscore.Internal.Correction>
   9.000000E+99

> <Gold.Chemscore.Hbonds>
donor molecule, donor type, donor heavy atom, donor atom, acceptor molecule, acceptor atom, score
      P1  H  6896  6908       L1    19  0.98

> <Gold.Chemscore.Hbond.Weighted>
-3.2107

> <Gold.Chemscore.Metal.Weighted>
-0.0000

> <Gold.Chemscore.Lipo.Weighted>
-11.9762

> <Gold.Chemscore.Internal_Hbond.Weighted>
0.0000

> <Gold.Chemscore.DEClash.Weighted>
0.2089

> <Gold.Chemscore.DEInternal.Weighted>
2.5766

> <Gold.Chemscore.Rot.Weighted>
2.5600

> <Gold.Chemscore.Internal.Correction.Weighted>
   9.000000E+99

> <Gold.Protein.RotatedTorsions>
[ 6907 6896 6895 6894 ] final  -38.47 input  -60.11 | X-H torsion
[ 7974 7965 7964 7962 ] final  -68.00 input  175.53 | X-H torsion
[ 8008 7997 7996 7995 ] final -150.62 input   59.86 | X-H torsion
[ 10167 10162 10161 10158 ] final   11.67 input  -65.29 | X-H torsion
[ 10718 10713 10712 10709 ] final -102.00 input   66.30 | X-H torsion
[ 10763 10752 10751 10750 ] final  -18.64 input  -60.55 | X-H torsion
[ 11005 11000 10999 10996 ] final  -59.50 input  -57.11 | X-H torsion

> <Gold.Protein.ActiveResidues>
 VAL166  LYS551  ARG553  GLY616  TRP617  ASP618  TYR619  PRO620  LYS621  CYS622 
 ASP623  PHE694  ASN695  SER759  ASP760  ASP761  ALA762  ILE779  LEU786  VAL792 
 PHE793  MET794  SER795  GLU796  ALA797  LYS798  CYS799  TRP800  GLU811  SER814 

> <Gold.Protein.RotatedAtoms>
  151.0020  134.9330  159.7959 H   0  0  0  0  0  0  0  0  0  0  0  0  # atno 6907 bound_to 6896
  152.5280  134.3141  159.9134 H   0  0  0  0  0  0  0  0  0  0  0  0  # atno 6908 bound_to 6896
  151.3147  133.4024  159.2684 H   0  0  0  0  0  0  0  0  0  0  0  0  # atno 6909 bound_to 6896
  145.7221  140.9034  143.0625 H   0  0  0  0  0  0  0  0  0  0  0  0  # atno 7974 bound_to 7965
  155.6265  140.0687  157.2662 H   0  0  0  0  0  0  0  0  0  0  0  0  # atno 8008 bound_to 7997
  154.4216  140.1775  156.1475 H   0  0  0  0  0  0  0  0  0  0  0  0  # atno 8009 bound_to 7997
  155.9968  140.3340  155.6809 H   0  0  0  0  0  0  0  0  0  0  0  0  # atno 8010 bound_to 7997
  140.6117  143.8393  150.7073 H   0  0  0  0  0  0  0  0  0  0  0  0  # atno 10167 bound_to 10162
  156.0213  130.5399  150.7044 H   0  0  0  0  0  0  0  0  0  0  0  0  # atno 10718 bound_to 10713
  153.5924  135.7002  153.5418 H   0  0  0  0  0  0  0  0  0  0  0  0  # atno 10763 bound_to 10752
  153.3167  135.4085  155.1382 H   0  0  0  0  0  0  0  0  0  0  0  0  # atno 10764 bound_to 10752
  154.8598  135.3685  154.5456 H   0  0  0  0  0  0  0  0  0  0  0  0  # atno 10765 bound_to 10752
  141.1251  133.6616  156.5081 H   0  0  0  0  0  0  0  0  0  0  0  0  # atno 11005 bound_to 11000
  144.6914  139.9216  143.7468 LP  0  0  0  0  0  0  0  0  0  0  0  0  # atno 17320 bound_to 7965
  146.0616  139.3609  143.0578 LP  0  0  0  0  0  0  0  0  0  0  0  0  # atno 17321 bound_to 7965
  140.1963  143.3995  152.1825 LP  0  0  0  0  0  0  0  0  0  0  0  0  # atno 17342 bound_to 10162
  139.5366  144.7216  151.4871 LP  0  0  0  0  0  0  0  0  0  0  0  0  # atno 17343 bound_to 10162
  157.4697  131.0892  151.0656 LP  0  0  0  0  0  0  0  0  0  0  0  0  # atno 17370 bound_to 10713
  157.1120  130.6025  149.5484 LP  0  0  0  0  0  0  0  0  0  0  0  0  # atno 17371 bound_to 10713
  140.4391  134.7032  157.4982 LP  0  0  0  0  0  0  0  0  0  0  0  0  # atno 17394 bound_to 11000
  140.0241  134.6503  155.9197 LP  0  0  0  0  0  0  0  0  0  0  0  0  # atno 17395 bound_to 11000

$$$$
