AV-unprocessed.smi:3193|AV-procd|sdf|12207|dock3
  -GOLD-   2272018 43D 1   1.00000     0.00000
 Structure written by MMmdl.
 41 42  0  0  0  0  0  0  0  0  3 V2000
  152.4656  145.0314  157.7859 C   0  0  0  0  0  0  0  0  0  0  0  0
  151.2556  144.5296  158.6003 C   0  0  2  0  0  0  0  0  0  0  0  0
  151.1858  145.2047  159.9866 C   0  0  0  0  0  0  0  0  0  0  0  0
  152.2648  144.6795  160.9485 C   0  0  0  0  0  0  0  0  0  0  0  0
  152.1947  143.1513  161.0804 C   0  0  0  0  0  0  0  0  0  0  0  0
  152.2737  142.4634  159.7081 C   0  0  0  0  0  0  0  0  0  0  0  0
  151.1815  142.9857  158.7471 C   0  0  2  0  0  0  0  0  0  0  0  0
  151.2009  142.2597  157.3868 C   0  0  0  0  0  0  0  0  0  0  0  0
  149.8688  142.2600  156.7493 N   0  3  0  0  0  0  0  0  0  0  0  0
  149.8081  141.4919  155.4888 C   0  0  0  0  0  0  0  0  0  0  0  0
  148.4191  141.5733  154.8334 C   0  0  0  0  0  0  0  0  0  0  0  0
  148.1019  140.3952  154.0178 N   0  0  0  0  0  0  0  0  0  0  0  0
  146.9743  140.1842  153.2652 C   0  0  0  0  0  0  0  0  0  0  0  0
  147.1273  138.9612  152.6644 C   0  0  0  0  0  0  0  0  0  0  0  0
  148.3441  138.4809  153.0678 N   0  3  0  0  0  0  0  0  0  0  0  0
  148.9376  139.3558  153.8865 C   0  0  0  0  0  0  0  0  0  0  0  0
  153.4143  144.7207  158.2226 H   0  0  0  0  0  0  0  0  0  0  0  0
  152.4722  146.1204  157.7337 H   0  0  0  0  0  0  0  0  0  0  0  0
  152.4382  144.6668  156.7593 H   0  0  0  0  0  0  0  0  0  0  0  0
  150.3679  144.8480  158.0519 H   0  0  0  0  0  0  0  0  0  0  0  0
  151.2727  146.2870  159.8850 H   0  0  0  0  0  0  0  0  0  0  0  0
  150.2031  145.0235  160.4241 H   0  0  0  0  0  0  0  0  0  0  0  0
  153.2540  144.9734  160.5965 H   0  0  0  0  0  0  0  0  0  0  0  0
  152.1420  145.1411  161.9285 H   0  0  0  0  0  0  0  0  0  0  0  0
  153.0023  142.7969  161.7216 H   0  0  0  0  0  0  0  0  0  0  0  0
  151.2637  142.8720  161.5751 H   0  0  0  0  0  0  0  0  0  0  0  0
  153.2625  142.6193  159.2762 H   0  0  0  0  0  0  0  0  0  0  0  0
  152.1721  141.3869  159.8475 H   0  0  0  0  0  0  0  0  0  0  0  0
  150.2162  142.7682  159.2082 H   0  0  0  0  0  0  0  0  0  0  0  0
  151.9027  142.7545  156.7139 H   0  0  0  0  0  0  0  0  0  0  0  0
  151.5416  141.2304  157.5068 H   0  0  0  0  0  0  0  0  0  0  0  0
  149.2064  141.8644  157.4012 H   0  0  0  0  0  0  0  0  0  0  0  0
  150.5754  141.8518  154.8020 H   0  0  0  0  0  0  0  0  0  0  0  0
  150.0419  140.4486  155.7048 H   0  0  0  0  0  0  0  0  0  0  0  0
  147.6489  141.6486  155.6021 H   0  0  0  0  0  0  0  0  0  0  0  0
  148.3354  142.4675  154.2134 H   0  0  0  0  0  0  0  0  0  0  0  0
  146.1670  140.9008  153.2113 H   0  0  0  0  0  0  0  0  0  0  0  0
  146.4816  138.4131  151.9934 H   0  0  0  0  0  0  0  0  0  0  0  0
  149.9035  139.2429  154.3465 H   0  0  0  0  0  0  0  0  0  0  0  0
  149.6070  143.2169  156.5602 H   0  0  0  0  0  0  0  0  0  0  0  0
  148.7437  137.5954  152.7811 H   0  0  0  0  0  0  0  0  0  0  0  0
  1  2  1  0  0  0  0
  1 17  1  0  0  0  0
  1 18  1  0  0  0  0
  1 19  1  0  0  0  0
  2  7  1  0  0  0  0
  2  3  1  0  0  0  0
  2 20  1  0  0  0  0
  3  4  1  0  0  0  0
  3 21  1  0  0  0  0
  3 22  1  0  0  0  0
  4  5  1  0  0  0  0
  4 23  1  0  0  0  0
  4 24  1  0  0  0  0
  5  6  1  0  0  0  0
  5 25  1  0  0  0  0
  5 26  1  0  0  0  0
  6  7  1  0  0  0  0
  6 27  1  0  0  0  0
  6 28  1  0  0  0  0
  7  8  1  0  0  0  0
  7 29  1  0  0  0  0
  8  9  1  0  0  0  0
  8 30  1  0  0  0  0
  8 31  1  0  0  0  0
  9 10  1  0  0  0  0
  9 32  1  0  0  0  0
  9 40  1  0  0  0  0
 10 11  1  0  0  0  0
 10 33  1  0  0  0  0
 10 34  1  0  0  0  0
 11 12  1  0  0  0  0
 11 35  1  0  0  0  0
 11 36  1  0  0  0  0
 12 16  1  0  0  0  0
 12 13  1  0  0  0  0
 13 14  2  0  0  0  0
 13 37  1  0  0  0  0
 14 15  1  0  0  0  0
 14 38  1  0  0  0  0
 15 16  2  0  0  0  0
 15 41  1  0  0  0  0
 16 39  1  0  0  0  0
M  CHG  1   9   1
M  CHG  1  15   1
M  END
> <s_m_source_file>
AV-unprocessed.smi

> <i_m_source_file_index>
3193

> <i_lp_mmshare_version>
43012

> <i_f3d_flags>
0

> <s_epik_input>
W0NIM11bQ0BASF0xW0NIMl1bQ0gyXVtDSDJdW0NIMl1bQ0BIXTFbQ0gyXVtOSF1bQ0gyXVtDSDJdbjJbY0hdW2NIXW5bY0hdMg==

> <s_epik_cmdline>
J2VwaWtfcHl0aG9uJywgJy1waCcsICc3LjAnLCAnLXRuJywgJzgnLCAnLW1hJywgJzIwMCcsICctbWV0YWxfYmluZGluZycsICctaW1hZScsICc8aW5maWxlLm1hZT4nLCAnLW9tYWUnLCAnPG91dGZpbGUubWFlPic=

> <r_lp_tautomer_probability>
1

> <r_epik_Ionization_Penalty>
1.50262

> <r_epik_Ionization_Penalty_Charging>
0.00193432

> <r_epik_Ionization_Penalty_Neutral>
1.50068

> <r_epik_State_Penalty>
1.11854

> <r_epik_Charging_Adjusted_Penalty>
1.12048

> <i_epik_Tot_Q>
2

> <i_epik_Tot_abs_Q>
2

> <r_epik_Metal_State_Penalty>
5.11322

> <b_epik_Metal_Only>
0

> <s_lp_Force_Field>
OPLS_2005

> <r_lp_Energy>
29.0126

> <b_lp_Chiralities_Consistent>
1

> <s_lp_Variant>
AV-unprocessed.smi:3193-7

> <Gold.Version>
5.8.1

> <Gold.Id.Protein>
6NUR|6NUR_protein|mol2

> <Gold.PLP.Fitness>
54.8129

> <Gold.PLP.PLP>
-41.3044

> <Gold.PLP.part.hbond>
-3.0000

> <Gold.PLP.part.metal>
0.0000

> <Gold.PLP.part.buried>
-4.0191

> <Gold.PLP.part.nonpolar>
-35.7051

> <Gold.PLP.part.repulsive>
0.0789

> <Gold.PLP.ligand.clash>
0.0000

> <Gold.PLP.ligand.torsion>
0.4328

> <Gold.PLP.Chemscore.Hbond>
4.0000

> <Gold.PLP.Chemscore.CHOScore>
0.7681

> <Gold.PLP.Chemscore.Metal>
0.0000

> <Gold.Chemscore.Hbonds>
donor molecule, donor type, donor heavy atom, donor atom, acceptor molecule, acceptor atom, score
      L1  H     9    40       P1  8028  2.00
      L1  H    15    41       P1  7948  2.00
      L1  C    13    37       P1 10175  0.76

> <Gold.PLP.Chemscore.Internal.Correction>
0.0698

> <Gold.Rescore>
     Score         DG    S(hbond)    S(metal)    S(lipo)     H(rot)  DE(clash)    DE(int)     intcor
     19.93     -20.41       1.92        0.00     116.17       1.98       0.02       0.45       ----

> <Gold.Chemscore.Fitness>
19.9304

> <Gold.Chemscore.DG>
-20.4085

> <Gold.Chemscore.ZeroCoef>
-5.4800

> <Gold.Chemscore.Hbond>
1.9159

> <Gold.Chemscore.Metal>
0.0000

> <Gold.Chemscore.Lipo>
116.1681

> <Gold.Chemscore.Internal_Hbond>
0.0000

> <Gold.Chemscore.DEClash>
0.0247

> <Gold.Chemscore.DEInternal>
0.4534

> <Gold.Chemscore.Rot>
1.9774

> <Gold.Chemscore.Internal.Correction>
   9.000000E+99

> <Gold.Chemscore.Hbonds>
donor molecule, donor type, donor heavy atom, donor atom, acceptor molecule, acceptor atom, score
      L1  H     9    40       P1  8028  0.99
      L1  H    15    41       P1  7948  0.99

> <Gold.Chemscore.Hbond.Weighted>
-6.3990

> <Gold.Chemscore.Metal.Weighted>
-0.0000

> <Gold.Chemscore.Lipo.Weighted>
-13.5917

> <Gold.Chemscore.Internal_Hbond.Weighted>
0.0000

> <Gold.Chemscore.DEClash.Weighted>
0.0247

> <Gold.Chemscore.DEInternal.Weighted>
0.4534

> <Gold.Chemscore.Rot.Weighted>
5.0622

> <Gold.Chemscore.Internal.Correction.Weighted>
   9.000000E+99

> <Gold.Protein.RotatedTorsions>
[ 6907 6896 6895 6894 ] final   47.46 input  -60.11 | X-H torsion
[ 7974 7965 7964 7962 ] final   48.16 input  175.53 | X-H torsion
[ 8008 7997 7996 7995 ] final -120.50 input   59.86 | X-H torsion
[ 10167 10162 10161 10158 ] final  -11.42 input  -65.29 | X-H torsion
[ 10718 10713 10712 10709 ] final   79.36 input   66.30 | X-H torsion
[ 10763 10752 10751 10750 ] final  -12.79 input  -60.55 | X-H torsion
[ 11005 11000 10999 10996 ] final  153.08 input  -57.11 | X-H torsion

> <Gold.Protein.ActiveResidues>
 VAL166  LYS551  ARG553  GLY616  TRP617  ASP618  TYR619  PRO620  LYS621  CYS622 
 ASP623  PHE694  ASN695  SER759  ASP760  ASP761  ALA762  ILE779  LEU786  VAL792 
 PHE793  MET794  SER795  GLU796  ALA797  LYS798  CYS799  TRP800  GLU811  SER814 

> <Gold.Protein.RotatedAtoms>
  152.2683  134.7960  160.0418 H   0  0  0  0  0  0  0  0  0  0  0  0  # atno 6907 bound_to 6896
  151.8582  133.3447  159.3703 H   0  0  0  0  0  0  0  0  0  0  0  0  # atno 6908 bound_to 6896
  150.7142  134.5160  159.5675 H   0  0  0  0  0  0  0  0  0  0  0  0  # atno 6909 bound_to 6896
  146.0230  139.4673  142.9885 H   0  0  0  0  0  0  0  0  0  0  0  0  # atno 7974 bound_to 7965
  155.1329  140.0400  157.2779 H   0  0  0  0  0  0  0  0  0  0  0  0  # atno 8008 bound_to 7997
  154.6529  140.2573  155.7167 H   0  0  0  0  0  0  0  0  0  0  0  0  # atno 8009 bound_to 7997
  156.2585  140.2832  156.0971 H   0  0  0  0  0  0  0  0  0  0  0  0  # atno 8010 bound_to 7997
  140.7138  143.5641  150.9163 H   0  0  0  0  0  0  0  0  0  0  0  0  # atno 10167 bound_to 10162
  157.6774  130.9910  150.1920 H   0  0  0  0  0  0  0  0  0  0  0  0  # atno 10718 bound_to 10713
  153.5037  135.7017  153.5818 H   0  0  0  0  0  0  0  0  0  0  0  0  # atno 10763 bound_to 10752
  153.3939  135.3889  155.1942 H   0  0  0  0  0  0  0  0  0  0  0  0  # atno 10764 bound_to 10752
  154.8709  135.3865  154.4510 H   0  0  0  0  0  0  0  0  0  0  0  0  # atno 10765 bound_to 10752
  140.1365  134.8767  157.2274 H   0  0  0  0  0  0  0  0  0  0  0  0  # atno 11005 bound_to 11000
  145.7162  141.0090  143.1426 LP  0  0  0  0  0  0  0  0  0  0  0  0  # atno 17320 bound_to 7965
  144.6998  139.8816  143.7447 LP  0  0  0  0  0  0  0  0  0  0  0  0  # atno 17321 bound_to 7965
  139.9367  143.6430  152.3063 LP  0  0  0  0  0  0  0  0  0  0  0  0  # atno 17342 bound_to 10162
  139.6900  144.7648  151.1456 LP  0  0  0  0  0  0  0  0  0  0  0  0  # atno 17343 bound_to 10162
  156.2630  130.3713  149.8111 LP  0  0  0  0  0  0  0  0  0  0  0  0  # atno 17370 bound_to 10713
  156.5850  130.8482  151.3393 LP  0  0  0  0  0  0  0  0  0  0  0  0  # atno 17371 bound_to 10713
  140.2775  134.3388  155.7353 LP  0  0  0  0  0  0  0  0  0  0  0  0  # atno 17394 bound_to 11000
  141.2179  133.7459  156.9315 LP  0  0  0  0  0  0  0  0  0  0  0  0  # atno 17395 bound_to 11000

$$$$
