AV-unprocessed.smi:107|AV-procd|sdf|1024|dock6
  -GOLD-   2262018 23D 1   1.00000     0.00000
 Structure written by MMmdl.
 30 31  0  0  0  0  0  0  0  0  2 V2000
  150.5057  143.2185  158.3955 C   0  0  0  0  0  0  0  0  0  0  0  0
  150.9730  142.0380  157.5623 C   0  0  0  0  0  0  0  0  0  0  0  0
  150.4133  141.7289  156.3717 C   0  0  0  0  0  0  0  0  0  0  0  0
  150.8415  140.6517  155.6150 N   0  0  0  0  0  0  0  0  0  0  0  0
  150.1931  140.3177  154.2874 C   0  0  1  0  0  0  0  0  0  0  0  0
  149.3726  139.0308  154.4048 C   0  0  0  0  0  0  0  0  0  0  0  0
  147.9805  139.5745  154.6494 C   0  0  2  0  0  0  0  0  0  0  0  0
  146.9971  138.6445  154.2439 O   0  0  0  0  0  0  0  0  0  0  0  0
  147.9838  140.8386  153.7863 C   0  0  1  0  0  0  0  0  0  0  0  0
  146.9622  141.8950  154.2353 C   0  0  0  0  0  0  0  0  0  0  0  0
  145.7089  141.2878  154.4643 O   0  0  0  0  0  0  0  0  0  0  0  0
  149.3117  141.3440  153.9276 O   0  0  0  0  0  0  0  0  0  0  0  0
  151.8861  139.8240  156.1048 C   0  0  0  0  0  0  0  0  0  0  0  0
  152.2232  138.8537  155.4258 O   0  0  0  0  0  0  0  0  0  0  0  0
  152.4617  140.1318  157.3019 N   0  5  0  0  0  0  0  0  0  0  0  0
  152.0680  141.1959  158.0587 C   0  0  0  0  0  0  0  0  0  0  0  0
  152.5994  141.4650  159.1355 O   0  0  0  0  0  0  0  0  0  0  0  0
  149.6841  143.7462  157.9104 H   0  0  0  0  0  0  0  0  0  0  0  0
  151.3217  143.9266  158.5429 H   0  0  0  0  0  0  0  0  0  0  0  0
  150.1603  142.8819  159.3734 H   0  0  0  0  0  0  0  0  0  0  0  0
  149.6049  142.3447  156.0105 H   0  0  0  0  0  0  0  0  0  0  0  0
  151.0028  140.2623  153.5583 H   0  0  0  0  0  0  0  0  0  0  0  0
  149.4266  138.5058  153.4498 H   0  0  0  0  0  0  0  0  0  0  0  0
  149.7388  138.3698  155.1914 H   0  0  0  0  0  0  0  0  0  0  0  0
  147.8526  139.8234  155.7040 H   0  0  0  0  0  0  0  0  0  0  0  0
  147.0078  138.5906  153.3002 H   0  0  0  0  0  0  0  0  0  0  0  0
  147.8285  140.5616  152.7414 H   0  0  0  0  0  0  0  0  0  0  0  0
  147.2811  142.3493  155.1737 H   0  0  0  0  0  0  0  0  0  0  0  0
  146.8662  142.6976  153.5044 H   0  0  0  0  0  0  0  0  0  0  0  0
  145.2874  141.1526  153.6291 H   0  0  0  0  0  0  0  0  0  0  0  0
  1  2  1  0  0  0  0
  1 18  1  0  0  0  0
  1 19  1  0  0  0  0
  1 20  1  0  0  0  0
  2 16  1  0  0  0  0
  2  3  2  0  0  0  0
  3  4  1  0  0  0  0
  3 21  1  0  0  0  0
  4  5  1  0  0  0  0
  4 13  1  0  0  0  0
  5 12  1  0  0  0  0
  5  6  1  0  0  0  0
  5 22  1  0  0  0  0
  6  7  1  0  0  0  0
  6 23  1  0  0  0  0
  6 24  1  0  0  0  0
  7  8  1  0  0  0  0
  7  9  1  0  0  0  0
  7 25  1  0  0  0  0
  8 26  1  0  0  0  0
  9 10  1  0  0  0  0
  9 12  1  0  0  0  0
  9 27  1  0  0  0  0
 10 11  1  0  0  0  0
 10 28  1  0  0  0  0
 10 29  1  0  0  0  0
 11 30  1  0  0  0  0
 13 14  2  0  0  0  0
 13 15  1  0  0  0  0
 15 16  1  0  0  0  0
 16 17  2  0  0  0  0
M  CHG  1  15  -1
M  END
> <s_m_source_file>
AV-unprocessed.smi

> <i_m_source_file_index>
107

> <i_lp_mmshare_version>
43012

> <i_f3d_flags>
0

> <s_epik_input>
Tz1jMVtuSF1jKD1PKW4oW2NIXWMxW0NIM10pW0NAQEhdMltDSDJdW0NAQEhdKFtPSF0pW0NASF0oTzIpW0NIMl1bT0hd

> <s_epik_cmdline>
J2VwaWtfcHl0aG9uJywgJy1waCcsICc3LjAnLCAnLXRuJywgJzgnLCAnLW1hJywgJzIwMCcsICctbWV0YWxfYmluZGluZycsICctaW1hZScsICc8aW5maWxlLm1hZT4nLCAnLW9tYWUnLCAnPG91dGZpbGUubWFlPic=

> <r_lp_tautomer_probability>
0.999537

> <r_epik_Ionization_Penalty>
3.66603

> <r_epik_Ionization_Penalty_Charging>
1.09773e-07

> <r_epik_Ionization_Penalty_Neutral>
3.66603

> <r_epik_State_Penalty>
3.66562

> <r_epik_Charging_Adjusted_Penalty>
3.66562

> <i_epik_Tot_Q>
-1

> <i_epik_Tot_abs_Q>
1

> <r_epik_Metal_State_Penalty>
0.234536

> <b_epik_Metal_Only>
1

> <s_epik_Chemistry_Notes>
This compound contains an acetal/aminal-like group ( X-CH(R)-Y where X, Y are N, S, or O) that may be acid/base labile, releasing an aldehyde.

> <s_lp_Force_Field>
OPLS_2005

> <r_lp_Energy>
34.1834

> <b_lp_Chiralities_Consistent>
1

> <s_lp_Variant>
AV-unprocessed.smi:107-12

> <Gold.Version>
5.8.1

> <Gold.Id.Protein>
6NUR|6NUR_protein|mol2

> <Gold.PLP.Fitness>
40.9271

> <Gold.PLP.PLP>
-27.3599

> <Gold.PLP.part.hbond>
-4.0000

> <Gold.PLP.part.metal>
0.0000

> <Gold.PLP.part.buried>
0.8647

> <Gold.PLP.part.nonpolar>
-24.7346

> <Gold.PLP.part.repulsive>
0.7262

> <Gold.PLP.ligand.clash>
0.0000

> <Gold.PLP.ligand.torsion>
0.2624

> <Gold.PLP.Chemscore.Hbond>
3.6938

> <Gold.PLP.Chemscore.CHOScore>
1.0000

> <Gold.PLP.Chemscore.Metal>
0.0000

> <Gold.Chemscore.Hbonds>
donor molecule, donor type, donor heavy atom, donor atom, acceptor molecule, acceptor atom, score
      L1  H    11    30       P1 10175  0.89
      P1  H  7997  8008       L1    15  1.98
      P1  H  8011  8017       L1    12  0.78
      L1  C     3    21       P1  8028  1.00

> <Gold.PLP.Chemscore.Internal.Correction>
0.0107

> <Gold.Rescore>
     Score         DG    S(hbond)    S(metal)    S(lipo)     H(rot)  DE(clash)    DE(int)     intcor
      7.34     -10.17       1.86        0.00      45.66       2.69       1.69       1.14       ----

> <Gold.Chemscore.Fitness>
7.3397

> <Gold.Chemscore.DG>
-10.1697

> <Gold.Chemscore.ZeroCoef>
-5.4800

> <Gold.Chemscore.Hbond>
1.8643

> <Gold.Chemscore.Metal>
0.0000

> <Gold.Chemscore.Lipo>
45.6583

> <Gold.Chemscore.Internal_Hbond>
0.0000

> <Gold.Chemscore.DEClash>
1.6947

> <Gold.Chemscore.DEInternal>
1.1353

> <Gold.Chemscore.Rot>
2.6871

> <Gold.Chemscore.Internal.Correction>
   9.000000E+99

> <Gold.Chemscore.Hbonds>
donor molecule, donor type, donor heavy atom, donor atom, acceptor molecule, acceptor atom, score
      L1  H    11    30       P1 10175  0.45
      P1  H  7997  8008       L1    15  0.24
      P1  H  8011  8017       L1    12  0.53

> <Gold.Chemscore.Hbond.Weighted>
-6.2267

> <Gold.Chemscore.Metal.Weighted>
-0.0000

> <Gold.Chemscore.Lipo.Weighted>
-5.3420

> <Gold.Chemscore.Internal_Hbond.Weighted>
0.0000

> <Gold.Chemscore.DEClash.Weighted>
1.6947

> <Gold.Chemscore.DEInternal.Weighted>
1.1353

> <Gold.Chemscore.Rot.Weighted>
6.8791

> <Gold.Chemscore.Internal.Correction.Weighted>
   9.000000E+99

> <Gold.Protein.RotatedTorsions>
[ 6907 6896 6895 6894 ] final   41.26 input  -60.11 | X-H torsion
[ 7974 7965 7964 7962 ] final  -22.12 input  175.53 | X-H torsion
[ 8008 7997 7996 7995 ] final  -70.24 input   59.86 | X-H torsion
[ 10167 10162 10161 10158 ] final  -73.62 input  -65.29 | X-H torsion
[ 10718 10713 10712 10709 ] final  -27.84 input   66.30 | X-H torsion
[ 10763 10752 10751 10750 ] final   15.90 input  -60.55 | X-H torsion
[ 11005 11000 10999 10996 ] final   31.89 input  -57.11 | X-H torsion

> <Gold.Protein.ActiveResidues>
 VAL166  LYS551  ARG553  GLY616  TRP617  ASP618  TYR619  PRO620  LYS621  CYS622 
 ASP623  PHE694  ASN695  SER759  ASP760  ASP761  ALA762  ILE779  LEU786  VAL792 
 PHE793  MET794  SER795  GLU796  ALA797  LYS798  CYS799  TRP800  GLU811  SER814 

> <Gold.Protein.RotatedAtoms>
  152.1931  134.8655  160.0515 H   0  0  0  0  0  0  0  0  0  0  0  0  # atno 6907 bound_to 6896
  151.9536  133.3668  159.4017 H   0  0  0  0  0  0  0  0  0  0  0  0  # atno 6908 bound_to 6896
  150.6939  134.4238  159.5261 H   0  0  0  0  0  0  0  0  0  0  0  0  # atno 6909 bound_to 6896
  146.1694  140.4435  142.8538 H   0  0  0  0  0  0  0  0  0  0  0  0  # atno 7974 bound_to 7965
  154.4997  140.0838  156.7772 H   0  0  0  0  0  0  0  0  0  0  0  0  # atno 8008 bound_to 7997
  155.4031  140.3438  155.4240 H   0  0  0  0  0  0  0  0  0  0  0  0  # atno 8009 bound_to 7997
  156.1441  140.1538  156.8863 H   0  0  0  0  0  0  0  0  0  0  0  0  # atno 8010 bound_to 7997
  140.5095  143.2347  151.7617 H   0  0  0  0  0  0  0  0  0  0  0  0  # atno 10167 bound_to 10162
  156.4330  130.4449  149.7104 H   0  0  0  0  0  0  0  0  0  0  0  0  # atno 10718 bound_to 10713
  153.1481  135.6773  153.8924 H   0  0  0  0  0  0  0  0  0  0  0  0  # atno 10763 bound_to 10752
  153.8359  135.3111  155.3423 H   0  0  0  0  0  0  0  0  0  0  0  0  # atno 10764 bound_to 10752
  154.7841  135.4872  153.9993 H   0  0  0  0  0  0  0  0  0  0  0  0  # atno 10765 bound_to 10752
  140.2792  134.2993  155.7805 H   0  0  0  0  0  0  0  0  0  0  0  0  # atno 11005 bound_to 11000
  144.8140  140.6436  143.6396 LP  0  0  0  0  0  0  0  0  0  0  0  0  # atno 17320 bound_to 7965
  145.4381  139.1539  143.3985 LP  0  0  0  0  0  0  0  0  0  0  0  0  # atno 17321 bound_to 7965
  139.4892  144.4410  151.9764 LP  0  0  0  0  0  0  0  0  0  0  0  0  # atno 17342 bound_to 10162
  140.3502  144.3098  150.5951 LP  0  0  0  0  0  0  0  0  0  0  0  0  # atno 17343 bound_to 10162
  156.4000  130.7670  151.2677 LP  0  0  0  0  0  0  0  0  0  0  0  0  # atno 17370 bound_to 10713
  157.7508  131.0243  150.3869 LP  0  0  0  0  0  0  0  0  0  0  0  0  # atno 17371 bound_to 10713
  141.2165  133.7514  156.9454 LP  0  0  0  0  0  0  0  0  0  0  0  0  # atno 17394 bound_to 11000
  140.1300  134.9362  157.2323 LP  0  0  0  0  0  0  0  0  0  0  0  0  # atno 17395 bound_to 11000

$$$$
