AV-unprocessed.smi:3030|AV-procd|sdf|11538|dock9
  -GOLD-   2272016483D 1   1.00000     0.00000
 Structure written by MMmdl.
 52 53  0  0  0  0  0  0  0  0  1 V2000
  146.0577  143.2025  153.4400 C   0  0  0  0  0  0  0  0  0  0  0  0
  145.9399  142.2268  154.6161 C   0  0  0  0  0  0  0  0  0  0  0  0
  146.9435  141.1745  154.5466 N   0  0  0  0  0  0  0  0  0  0  0  0
  148.1850  141.3188  155.1573 C   0  0  0  0  0  0  0  0  0  0  0  0
  149.1750  140.4090  155.0783 C   0  0  0  0  0  0  0  0  0  0  0  0
  148.9614  139.1731  154.2985 C   0  0  0  0  0  0  0  0  0  0  0  0
  149.8445  138.3203  154.2059 O   0  0  0  0  0  0  0  0  0  0  0  0
  147.6361  139.0207  153.6409 C   0  0  0  0  0  0  0  0  0  0  0  0
  147.4397  137.8375  152.9099 N   0  0  0  0  0  0  0  0  0  0  0  0
  146.6837  136.7645  153.2057 C   0  0  0  0  0  0  0  0  0  0  0  0
  145.9757  136.6309  154.2034 O   0  0  0  0  0  0  0  0  0  0  0  0
  146.7926  135.8312  152.2499 N   0  0  0  0  0  0  0  0  0  0  0  0
  146.1187  134.5342  152.2446 C   0  0  1  0  0  0  0  0  0  0  0  0
  145.4024  134.3436  150.8920 C   0  0  0  0  0  0  0  0  0  0  0  0
  144.7020  132.9771  150.7963 C   0  0  1  0  0  0  0  0  0  0  0  0
  143.9924  132.8033  149.4457 C   0  0  0  0  0  0  0  0  0  0  0  0
  145.7127  131.8468  151.0523 C   0  0  0  0  0  0  0  0  0  0  0  0
  146.4165  132.0183  152.4068 C   0  0  0  0  0  0  0  0  0  0  0  0
  147.1295  133.3869  152.5189 C   0  0  2  0  0  0  0  0  0  0  0  0
  147.9320  133.5566  153.8443 C   0  0  0  0  0  0  0  0  0  0  0  0
  149.0390  132.4997  154.0001 C   0  0  0  0  0  0  0  0  0  0  0  0
  147.0544  133.6151  155.1084 C   0  0  0  0  0  0  0  0  0  0  0  0
  146.7262  140.0150  153.8049 C   0  0  0  0  0  0  0  0  0  0  0  0
  145.2993  143.9825  153.5067 H   0  0  0  0  0  0  0  0  0  0  0  0
  145.9247  142.6889  152.4874 H   0  0  0  0  0  0  0  0  0  0  0  0
  147.0343  143.6874  153.4268 H   0  0  0  0  0  0  0  0  0  0  0  0
  146.0439  142.7673  155.5577 H   0  0  0  0  0  0  0  0  0  0  0  0
  144.9448  141.7807  154.6290 H   0  0  0  0  0  0  0  0  0  0  0  0
  148.3008  142.2338  155.7202 H   0  0  0  0  0  0  0  0  0  0  0  0
  150.1230  140.5628  155.5726 H   0  0  0  0  0  0  0  0  0  0  0  0
  147.9387  137.8033  152.0327 H   0  0  0  0  0  0  0  0  0  0  0  0
  147.3954  136.0282  151.4644 H   0  0  0  0  0  0  0  0  0  0  0  0
  145.3597  134.5155  153.0281 H   0  0  0  0  0  0  0  0  0  0  0  0
  144.6689  135.1388  150.7499 H   0  0  0  0  0  0  0  0  0  0  0  0
  146.1225  134.4422  150.0781 H   0  0  0  0  0  0  0  0  0  0  0  0
  143.9402  132.9326  151.5761 H   0  0  0  0  0  0  0  0  0  0  0  0
  144.7006  132.8419  148.6174 H   0  0  0  0  0  0  0  0  0  0  0  0
  143.2526  133.5883  149.2876 H   0  0  0  0  0  0  0  0  0  0  0  0
  143.4724  131.8463  149.3952 H   0  0  0  0  0  0  0  0  0  0  0  0
  145.2066  130.8811  151.0247 H   0  0  0  0  0  0  0  0  0  0  0  0
  146.4572  131.8271  150.2551 H   0  0  0  0  0  0  0  0  0  0  0  0
  145.6802  131.9111  153.2036 H   0  0  0  0  0  0  0  0  0  0  0  0
  147.1279  131.2030  152.5324 H   0  0  0  0  0  0  0  0  0  0  0  0
  147.8628  133.4229  151.7113 H   0  0  0  0  0  0  0  0  0  0  0  0
  148.4573  134.5102  153.7897 H   0  0  0  0  0  0  0  0  0  0  0  0
  148.6306  131.5042  154.1733 H   0  0  0  0  0  0  0  0  0  0  0  0
  149.6839  132.7359  154.8471 H   0  0  0  0  0  0  0  0  0  0  0  0
  149.6710  132.4543  153.1128 H   0  0  0  0  0  0  0  0  0  0  0  0
  146.5149  132.6825  155.2717 H   0  0  0  0  0  0  0  0  0  0  0  0
  146.3244  134.4224  155.0577 H   0  0  0  0  0  0  0  0  0  0  0  0
  147.6649  133.7945  155.9937 H   0  0  0  0  0  0  0  0  0  0  0  0
  145.7361  139.9827  153.3796 H   0  0  0  0  0  0  0  0  0  0  0  0
  1  2  1  0  0  0  0
  1 24  1  0  0  0  0
  1 25  1  0  0  0  0
  1 26  1  0  0  0  0
  2  3  1  0  0  0  0
  2 27  1  0  0  0  0
  2 28  1  0  0  0  0
  3 23  1  0  0  0  0
  3  4  1  0  0  0  0
  4  5  2  0  0  0  0
  4 29  1  0  0  0  0
  5  6  1  0  0  0  0
  5 30  1  0  0  0  0
  6  7  2  0  0  0  0
  6  8  1  0  0  0  0
  8  9  1  0  0  0  0
  8 23  2  0  0  0  0
  9 10  1  0  0  0  0
  9 31  1  0  0  0  0
 10 11  2  0  0  0  0
 10 12  1  0  0  0  0
 12 13  1  0  0  0  0
 12 32  1  0  0  0  0
 13 19  1  0  0  0  0
 13 14  1  0  0  0  0
 13 33  1  0  0  0  0
 14 15  1  0  0  0  0
 14 34  1  0  0  0  0
 14 35  1  0  0  0  0
 15 16  1  0  0  0  0
 15 17  1  0  0  0  0
 15 36  1  0  0  0  0
 16 37  1  0  0  0  0
 16 38  1  0  0  0  0
 16 39  1  0  0  0  0
 17 18  1  0  0  0  0
 17 40  1  0  0  0  0
 17 41  1  0  0  0  0
 18 19  1  0  0  0  0
 18 42  1  0  0  0  0
 18 43  1  0  0  0  0
 19 20  1  0  0  0  0
 19 44  1  0  0  0  0
 20 21  1  0  0  0  0
 20 22  1  0  0  0  0
 20 45  1  0  0  0  0
 21 46  1  0  0  0  0
 21 47  1  0  0  0  0
 21 48  1  0  0  0  0
 22 49  1  0  0  0  0
 22 50  1  0  0  0  0
 22 51  1  0  0  0  0
 23 52  1  0  0  0  0
M  END
> <s_m_source_file>
AV-unprocessed.smi

> <i_m_source_file_index>
3030

> <i_lp_mmshare_version>
43012

> <i_f3d_flags>
0

> <s_epik_input>
W0NIM11bQ0gyXW4xW2NIXVtjSF1jKD1PKWMoW2NIXTEpW05IXUMoPU8pW05IXVtDQEBIXTJbQ0gyXVtDQEBIXShbQ0gzXSlbQ0gyXVtDSDJdW0NASF0yW0NIXShbQ0gzXSlbQ0gzXQ==

> <s_epik_cmdline>
J2VwaWtfcHl0aG9uJywgJy1waCcsICc3LjAnLCAnLXRuJywgJzgnLCAnLW1hJywgJzIwMCcsICctbWV0YWxfYmluZGluZycsICctaW1hZScsICc8aW5maWxlLm1hZT4nLCAnLW9tYWUnLCAnPG91dGZpbGUubWFlPic=

> <r_lp_tautomer_probability>
1

> <r_epik_Ionization_Penalty>
0.00147933

> <r_epik_Ionization_Penalty_Charging>
0.00145753

> <r_epik_Ionization_Penalty_Neutral>
2.17987e-05

> <r_epik_State_Penalty>
0.00097457

> <r_epik_Charging_Adjusted_Penalty>
0.0024321

> <i_epik_Tot_Q>
0

> <i_epik_Tot_abs_Q>
0

> <r_epik_Metal_State_Penalty>
-0

> <b_epik_Metal_Only>
0

> <s_lp_Force_Field>
OPLS_2005

> <r_lp_Energy>
9.50568

> <b_lp_Chiralities_Consistent>
1

> <s_lp_Variant>
AV-unprocessed.smi:3030-6

> <Gold.Version>
5.8.1

> <Gold.Id.Protein>
6NUR|6NUR_protein|mol2

> <Gold.PLP.Fitness>
42.3363

> <Gold.PLP.PLP>
-37.2715

> <Gold.PLP.part.hbond>
-0.6699

> <Gold.PLP.part.metal>
0.0000

> <Gold.PLP.part.buried>
-3.4241

> <Gold.PLP.part.nonpolar>
-34.3313

> <Gold.PLP.part.repulsive>
0.4193

> <Gold.PLP.ligand.clash>
0.0000

> <Gold.PLP.ligand.torsion>
1.1742

> <Gold.PLP.Chemscore.Hbond>
0.4480

> <Gold.PLP.Chemscore.CHOScore>
2.0000

> <Gold.PLP.Chemscore.Metal>
0.0000

> <Gold.Chemscore.Hbonds>
donor molecule, donor type, donor heavy atom, donor atom, acceptor molecule, acceptor atom, score
      L1  H     9    31       P1  7948  0.27
      L1  H    12    32       P1  7948  0.32
      L1  C     4    29       P1  8028  0.97
      L1  C    23    52       P1 10175  1.00

> <Gold.PLP.Chemscore.Internal.Correction>
0.0691

> <Gold.Rescore>
     Score         DG    S(hbond)    S(metal)    S(lipo)     H(rot)  DE(clash)    DE(int)     intcor
     16.35     -17.44       1.82        0.00      78.12       1.27       0.01       1.08       ----

> <Gold.Chemscore.Fitness>
16.3490

> <Gold.Chemscore.DG>
-17.4418

> <Gold.Chemscore.ZeroCoef>
-5.4800

> <Gold.Chemscore.Hbond>
1.8172

> <Gold.Chemscore.Metal>
0.0000

> <Gold.Chemscore.Lipo>
78.1189

> <Gold.Chemscore.Internal_Hbond>
0.0000

> <Gold.Chemscore.DEClash>
0.0149

> <Gold.Chemscore.DEInternal>
1.0779

> <Gold.Chemscore.Rot>
1.2685

> <Gold.Chemscore.Internal.Correction>
   9.000000E+99

> <Gold.Chemscore.Hbonds>
donor molecule, donor type, donor heavy atom, donor atom, acceptor molecule, acceptor atom, score
      L1  H     9    31       P1  7948  0.28
      L1  H    12    32       P1  7948  0.31

> <Gold.Chemscore.Hbond.Weighted>
-6.0693

> <Gold.Chemscore.Metal.Weighted>
-0.0000

> <Gold.Chemscore.Lipo.Weighted>
-9.1399

> <Gold.Chemscore.Internal_Hbond.Weighted>
0.0000

> <Gold.Chemscore.DEClash.Weighted>
0.0149

> <Gold.Chemscore.DEInternal.Weighted>
1.0779

> <Gold.Chemscore.Rot.Weighted>
3.2474

> <Gold.Chemscore.Internal.Correction.Weighted>
   9.000000E+99

> <Gold.Protein.RotatedTorsions>
[ 6907 6896 6895 6894 ] final  121.15 input  -60.11 | X-H torsion
[ 7974 7965 7964 7962 ] final  127.18 input  175.53 | X-H torsion
[ 8008 7997 7996 7995 ] final -174.60 input   59.86 | X-H torsion
[ 10167 10162 10161 10158 ] final  -87.72 input  -65.29 | X-H torsion
[ 10718 10713 10712 10709 ] final  141.84 input   66.30 | X-H torsion
[ 10763 10752 10751 10750 ] final -172.49 input  -60.55 | X-H torsion
[ 11005 11000 10999 10996 ] final   82.58 input  -57.11 | X-H torsion

> <Gold.Protein.ActiveResidues>
 VAL166  LYS551  ARG553  GLY616  TRP617  ASP618  TYR619  PRO620  LYS621  CYS622 
 ASP623  PHE694  ASN695  SER759  ASP760  ASP761  ALA762  ILE779  LEU786  VAL792 
 PHE793  MET794  SER795  GLU796  ALA797  LYS798  CYS799  TRP800  GLU811  SER814 

> <Gold.Protein.RotatedAtoms>
  152.4344  133.7334  159.6599 H   0  0  0  0  0  0  0  0  0  0  0  0  # atno 6907 bound_to 6896
  150.8226  133.8216  159.3138 H   0  0  0  0  0  0  0  0  0  0  0  0  # atno 6908 bound_to 6896
  151.5894  135.1056  160.0087 H   0  0  0  0  0  0  0  0  0  0  0  0  # atno 6909 bound_to 6896
  145.0534  139.3864  143.5042 H   0  0  0  0  0  0  0  0  0  0  0  0  # atno 7974 bound_to 7965
  155.9722  140.1165  157.0802 H   0  0  0  0  0  0  0  0  0  0  0  0  # atno 8008 bound_to 7997
  154.4159  140.1161  156.5389 H   0  0  0  0  0  0  0  0  0  0  0  0  # atno 8009 bound_to 7997
  155.6582  140.3473  155.4775 H   0  0  0  0  0  0  0  0  0  0  0  0  # atno 8010 bound_to 7997
  140.3817  143.2746  151.9376 H   0  0  0  0  0  0  0  0  0  0  0  0  # atno 10167 bound_to 10162
  157.3874  131.1000  151.0679 H   0  0  0  0  0  0  0  0  0  0  0  0  # atno 10718 bound_to 10713
  154.6186  135.2872  155.0351 H   0  0  0  0  0  0  0  0  0  0  0  0  # atno 10763 bound_to 10752
  154.1554  135.6496  153.4977 H   0  0  0  0  0  0  0  0  0  0  0  0  # atno 10764 bound_to 10752
  153.0226  135.5365  154.6968 H   0  0  0  0  0  0  0  0  0  0  0  0  # atno 10765 bound_to 10752
  139.9059  134.8082  156.2194 H   0  0  0  0  0  0  0  0  0  0  0  0  # atno 11005 bound_to 11000
  146.3519  140.0196  142.8660 LP  0  0  0  0  0  0  0  0  0  0  0  0  # atno 17320 bound_to 7965
  145.1498  140.9617  143.4439 LP  0  0  0  0  0  0  0  0  0  0  0  0  # atno 17321 bound_to 7965
  139.4795  144.5812  151.7929 LP  0  0  0  0  0  0  0  0  0  0  0  0  # atno 17342 bound_to 10162
  140.4931  144.1281  150.5954 LP  0  0  0  0  0  0  0  0  0  0  0  0  # atno 17343 bound_to 10162
  157.1726  130.6274  149.5645 LP  0  0  0  0  0  0  0  0  0  0  0  0  # atno 17370 bound_to 10713
  155.9790  130.4780  150.6689 LP  0  0  0  0  0  0  0  0  0  0  0  0  # atno 17371 bound_to 10713
  141.0415  133.6935  156.1606 LP  0  0  0  0  0  0  0  0  0  0  0  0  # atno 17394 bound_to 11000
  140.6948  134.4627  157.5588 LP  0  0  0  0  0  0  0  0  0  0  0  0  # atno 17395 bound_to 11000

$$$$
