AV-unprocessed.smi:137|AV-procd|sdf|1175|dock4
  -GOLD-   2262018323D 1   1.00000     0.00000
 Structure written by MMmdl.
 51 54  0  0  0  0  0  0  0  0  1 V2000
  154.1214  141.0179  160.9776 C   0  0  0  0  0  0  0  0  0  0  0  0
  153.0853  141.8049  160.1596 C   0  0  2  0  0  0  0  0  0  0  0  0
  152.5200  140.8976  159.0471 C   0  0  0  0  0  0  0  0  0  0  0  0
  151.6217  141.5541  158.0920 N   0  0  0  0  0  0  0  0  0  0  0  0
  151.3212  140.8934  156.9352 C   0  0  0  0  0  0  0  0  0  0  0  0
  152.3090  140.2052  156.2995 N   0  0  0  0  0  0  0  0  0  0  0  0
  152.0615  139.5266  155.1767 C   0  0  0  0  0  0  0  0  0  0  0  0
  150.9118  139.4038  154.5150 N   0  0  0  0  0  0  0  0  0  0  0  0
  149.9139  140.1004  155.1285 C   0  0  0  0  0  0  0  0  0  0  0  0
  150.0266  140.8616  156.3293 C   0  0  0  0  0  0  0  0  0  0  0  0
  148.7895  141.4195  156.6367 N   0  0  0  0  0  0  0  0  0  0  0  0
  147.9950  140.9994  155.6915 C   0  0  0  0  0  0  0  0  0  0  0  0
  148.5943  140.2222  154.7284 N   0  0  0  0  0  0  0  0  0  0  0  0
  147.9507  139.5924  153.6129 C   0  0  0  0  0  0  0  0  0  0  0  0
  146.4806  139.8628  153.2837 C   0  0  0  0  0  0  0  0  0  0  0  0
  146.3477  138.4230  152.7401 C   0  0  0  0  0  0  0  0  0  0  0  0
  145.0394  137.7023  153.1044 C   0  0  0  0  0  0  0  0  0  0  0  0
  143.9947  138.0613  152.2229 O   0  0  0  0  0  0  0  0  0  0  0  0
  146.6061  138.2658  151.2276 C   0  0  0  0  0  0  0  0  0  0  0  0
  146.1476  137.0160  150.7541 O   0  0  0  0  0  0  0  0  0  0  0  0
  147.5571  138.1140  153.6523 C   0  0  0  0  0  0  0  0  0  0  0  0
  150.7195  142.6165  158.5338 C   0  0  0  0  0  0  0  0  0  0  0  0
  151.3179  144.0142  158.2974 C   0  0  0  0  0  0  0  0  0  0  0  0
  152.4509  144.4971  159.6878 S   0  0  1  0  0  0  0  0  0  0  0  0
  151.6622  144.3856  160.9943 O   0  0  0  0  0  0  0  0  0  0  0  0
  153.6994  143.1183  159.6227 C   0  0  0  0  0  0  0  0  0  0  0  0
  154.9850  140.7460  160.3696 H   0  0  0  0  0  0  0  0  0  0  0  0
  153.6919  140.0985  161.3766 H   0  0  0  0  0  0  0  0  0  0  0  0
  154.4810  141.6027  161.8250 H   0  0  0  0  0  0  0  0  0  0  0  0
  152.2807  142.0347  160.8567 H   0  0  0  0  0  0  0  0  0  0  0  0
  153.3624  140.4820  158.4915 H   0  0  0  0  0  0  0  0  0  0  0  0
  151.9968  140.0538  159.4993 H   0  0  0  0  0  0  0  0  0  0  0  0
  152.9057  139.0066  154.7484 H   0  0  0  0  0  0  0  0  0  0  0  0
  146.9447  141.2515  155.6703 H   0  0  0  0  0  0  0  0  0  0  0  0
  148.5836  139.7995  152.7485 H   0  0  0  0  0  0  0  0  0  0  0  0
  145.8796  140.0390  154.1780 H   0  0  0  0  0  0  0  0  0  0  0  0
  146.3198  140.6489  152.5451 H   0  0  0  0  0  0  0  0  0  0  0  0
  145.1593  136.6188  153.0890 H   0  0  0  0  0  0  0  0  0  0  0  0
  144.7234  137.9594  154.1157 H   0  0  0  0  0  0  0  0  0  0  0  0
  143.6693  138.9119  152.4748 H   0  0  0  0  0  0  0  0  0  0  0  0
  146.1222  139.0566  150.6543 H   0  0  0  0  0  0  0  0  0  0  0  0
  147.6695  138.3368  150.9984 H   0  0  0  0  0  0  0  0  0  0  0  0
  145.3436  137.1528  150.2764 H   0  0  0  0  0  0  0  0  0  0  0  0
  148.3006  137.4399  153.2258 H   0  0  0  0  0  0  0  0  0  0  0  0
  147.2638  137.7866  154.6516 H   0  0  0  0  0  0  0  0  0  0  0  0
  149.7678  142.5350  158.0086 H   0  0  0  0  0  0  0  0  0  0  0  0
  150.4621  142.4821  159.5842 H   0  0  0  0  0  0  0  0  0  0  0  0
  151.8553  144.0682  157.3508 H   0  0  0  0  0  0  0  0  0  0  0  0
  150.5183  144.7536  158.2549 H   0  0  0  0  0  0  0  0  0  0  0  0
  154.5307  143.4304  160.2555 H   0  0  0  0  0  0  0  0  0  0  0  0
  154.0982  143.0051  158.6139 H   0  0  0  0  0  0  0  0  0  0  0  0
  1  2  1  0  0  0  0
  1 27  1  0  0  0  0
  1 28  1  0  0  0  0
  1 29  1  0  0  0  0
  2 26  1  0  0  0  0
  2  3  1  0  0  0  0
  2 30  1  0  0  0  0
  3  4  1  0  0  0  0
  3 31  1  0  0  0  0
  3 32  1  0  0  0  0
  4  5  1  0  0  0  0
  4 22  1  0  0  0  0
  5 10  1  0  0  0  0
  5  6  2  0  0  0  0
  6  7  1  0  0  0  0
  7  8  2  0  0  0  0
  7 33  1  0  0  0  0
  8  9  1  0  0  0  0
  9 13  1  0  0  0  0
  9 10  2  0  0  0  0
 10 11  1  0  0  0  0
 11 12  2  0  0  0  0
 12 13  1  0  0  0  0
 12 34  1  0  0  0  0
 13 14  1  0  0  0  0
 14 21  1  0  0  0  0
 14 15  1  0  0  0  0
 14 35  1  0  0  0  0
 15 16  1  0  0  0  0
 15 36  1  0  0  0  0
 15 37  1  0  0  0  0
 16 17  1  0  0  0  0
 16 19  1  0  0  0  0
 16 21  1  0  0  0  0
 17 18  1  0  0  0  0
 17 38  1  0  0  0  0
 17 39  1  0  0  0  0
 18 40  1  0  0  0  0
 19 20  1  0  0  0  0
 19 41  1  0  0  0  0
 19 42  1  0  0  0  0
 20 43  1  0  0  0  0
 21 44  1  0  0  0  0
 21 45  1  0  0  0  0
 22 23  1  0  0  0  0
 22 46  1  0  0  0  0
 22 47  1  0  0  0  0
 23 24  1  0  0  0  0
 23 48  1  0  0  0  0
 23 49  1  0  0  0  0
 24 25  2  0  0  0  0
 24 26  1  0  0  0  0
 26 50  1  0  0  0  0
 26 51  1  0  0  0  0
M  END
> <s_m_source_file>
AV-unprocessed.smi

> <i_m_source_file_index>
137

> <i_lp_mmshare_version>
43012

> <i_f3d_flags>
0

> <s_epik_input>
Tz1bU0BAXShbQ0gyXTEpW0NIMl1bQ0gyXU4oW0NIMl1bQ0BIXTFbQ0gzXSljKG5bY0hdbjIpYyhjMjMpbltjSF1uM1tDSF0oW0NIMl00KVtDSDJdQzQoW0NIMl1bT0hdKVtDSDJdW09IXQ==

> <s_epik_cmdline>
J2VwaWtfcHl0aG9uJywgJy1waCcsICc3LjAnLCAnLXRuJywgJzgnLCAnLW1hJywgJzIwMCcsICctbWV0YWxfYmluZGluZycsICctaW1hZScsICc8aW5maWxlLm1hZT4nLCAnLW9tYWUnLCAnPG91dGZpbGUubWFlPic=

> <r_lp_tautomer_probability>
1

> <r_epik_Ionization_Penalty>
0.000811024

> <r_epik_Ionization_Penalty_Charging>
0

> <r_epik_Ionization_Penalty_Neutral>
0.000811024

> <r_epik_State_Penalty>
0.000429598

> <r_epik_Charging_Adjusted_Penalty>
0.000429598

> <i_epik_Tot_Q>
0

> <i_epik_Tot_abs_Q>
0

> <r_epik_Metal_State_Penalty>
-0

> <b_epik_Metal_Only>
0

> <s_lp_Force_Field>
OPLS_2005

> <r_lp_Energy>
41.7942

> <b_lp_Chiralities_Consistent>
1

> <s_lp_Variant>
AV-unprocessed.smi:137-1

> <Gold.Version>
5.8.1

> <Gold.Id.Protein>
6NUR|6NUR_protein|mol2

> <Gold.PLP.Fitness>
47.6785

> <Gold.PLP.PLP>
-43.3388

> <Gold.PLP.part.hbond>
-5.5735

> <Gold.PLP.part.metal>
0.0000

> <Gold.PLP.part.buried>
4.1762

> <Gold.PLP.part.nonpolar>
-41.6861

> <Gold.PLP.part.repulsive>
0.3774

> <Gold.PLP.ligand.clash>
2.2445

> <Gold.PLP.ligand.torsion>
1.2813

> <Gold.PLP.Chemscore.Hbond>
2.8500

> <Gold.PLP.Chemscore.CHOScore>
0.0000

> <Gold.PLP.Chemscore.Metal>
0.0000

> <Gold.Chemscore.Hbonds>
donor molecule, donor type, donor heavy atom, donor atom, acceptor molecule, acceptor atom, score
      L1  H    18    40       P1 10175  0.98
      L1  H    20    43       P1 10171  0.73
      P1  H  7989  7998       L1     8  0.14
      P1  H  7997  8010       L1     6  1.00

> <Gold.PLP.Chemscore.Internal.Correction>
0.5967

> <Gold.Rescore>
     Score         DG    S(hbond)    S(metal)    S(lipo)     H(rot)  DE(clash)    DE(int)     intcor
     12.72     -16.17       1.85        0.00     101.49       2.87       0.91       2.54       ----

> <Gold.Chemscore.Fitness>
12.7184

> <Gold.Chemscore.DG>
-16.1686

> <Gold.Chemscore.ZeroCoef>
-5.4800

> <Gold.Chemscore.Hbond>
1.8468

> <Gold.Chemscore.Metal>
0.0000

> <Gold.Chemscore.Lipo>
101.4860

> <Gold.Chemscore.Internal_Hbond>
0.0000

> <Gold.Chemscore.DEClash>
0.9089

> <Gold.Chemscore.DEInternal>
2.5413

> <Gold.Chemscore.Rot>
2.8725

> <Gold.Chemscore.Internal.Correction>
   9.000000E+99

> <Gold.Chemscore.Hbonds>
donor molecule, donor type, donor heavy atom, donor atom, acceptor molecule, acceptor atom, score
      L1  H    18    40       P1 10175  0.89
      L1  H    20    43       P1 10171  0.71
      P1  H  7997  8010       L1     6  0.28

> <Gold.Chemscore.Hbond.Weighted>
-6.1683

> <Gold.Chemscore.Metal.Weighted>
-0.0000

> <Gold.Chemscore.Lipo.Weighted>
-11.8739

> <Gold.Chemscore.Internal_Hbond.Weighted>
0.0000

> <Gold.Chemscore.DEClash.Weighted>
0.9089

> <Gold.Chemscore.DEInternal.Weighted>
2.5413

> <Gold.Chemscore.Rot.Weighted>
7.3535

> <Gold.Chemscore.Internal.Correction.Weighted>
   9.000000E+99

> <Gold.Protein.RotatedTorsions>
[ 6907 6896 6895 6894 ] final  -22.84 input  -60.11 | X-H torsion
[ 7974 7965 7964 7962 ] final  153.37 input  175.53 | X-H torsion
[ 8008 7997 7996 7995 ] final   78.15 input   59.86 | X-H torsion
[ 10167 10162 10161 10158 ] final  -70.35 input  -65.29 | X-H torsion
[ 10718 10713 10712 10709 ] final   80.13 input   66.30 | X-H torsion
[ 10763 10752 10751 10750 ] final -169.45 input  -60.55 | X-H torsion
[ 11005 11000 10999 10996 ] final -137.44 input  -57.11 | X-H torsion

> <Gold.Protein.ActiveResidues>
 VAL166  LYS551  ARG553  GLY616  TRP617  ASP618  TYR619  PRO620  LYS621  CYS622 
 ASP623  PHE694  ASN695  SER759  ASP760  ASP761  ALA762  ILE779  LEU786  VAL792 
 PHE793  MET794  SER795  GLU796  ALA797  LYS798  CYS799  TRP800  GLU811  SER814 

> <Gold.Protein.RotatedAtoms>
  151.2127  135.0488  159.8917 H   0  0  0  0  0  0  0  0  0  0  0  0  # atno 6907 bound_to 6896
  152.5423  134.0727  159.8211 H   0  0  0  0  0  0  0  0  0  0  0  0  # atno 6908 bound_to 6896
  151.0882  133.5288  159.2648 H   0  0  0  0  0  0  0  0  0  0  0  0  # atno 6909 bound_to 6896
  144.8159  139.6792  143.6121 H   0  0  0  0  0  0  0  0  0  0  0  0  # atno 7974 bound_to 7965
  155.8517  140.3458  155.5698 H   0  0  0  0  0  0  0  0  0  0  0  0  # atno 8008 bound_to 7997
  155.8030  140.0888  157.1966 H   0  0  0  0  0  0  0  0  0  0  0  0  # atno 8009 bound_to 7997
  154.4008  140.1462  156.3284 H   0  0  0  0  0  0  0  0  0  0  0  0  # atno 8010 bound_to 7997
  140.5359  143.2318  151.7178 H   0  0  0  0  0  0  0  0  0  0  0  0  # atno 10167 bound_to 10162
  157.6797  130.9945  150.2034 H   0  0  0  0  0  0  0  0  0  0  0  0  # atno 10718 bound_to 10713
  154.6521  135.2913  154.9973 H   0  0  0  0  0  0  0  0  0  0  0  0  # atno 10763 bound_to 10752
  154.1063  135.6569  153.4881 H   0  0  0  0  0  0  0  0  0  0  0  0  # atno 10764 bound_to 10752
  153.0382  135.5254  154.7434 H   0  0  0  0  0  0  0  0  0  0  0  0  # atno 10765 bound_to 10752
  140.8710  134.2050  157.4651 H   0  0  0  0  0  0  0  0  0  0  0  0  # atno 11005 bound_to 11000
  146.2462  139.6103  142.9458 LP  0  0  0  0  0  0  0  0  0  0  0  0  # atno 17320 bound_to 7965
  145.5216  141.0431  143.2432 LP  0  0  0  0  0  0  0  0  0  0  0  0  # atno 17321 bound_to 7965
  139.4971  144.4043  152.0148 LP  0  0  0  0  0  0  0  0  0  0  0  0  # atno 17342 bound_to 10162
  140.3148  144.3496  150.6024 LP  0  0  0  0  0  0  0  0  0  0  0  0  # atno 17343 bound_to 10162
  156.2720  130.3723  149.8022 LP  0  0  0  0  0  0  0  0  0  0  0  0  # atno 17370 bound_to 10713
  156.5736  130.8435  151.3363 LP  0  0  0  0  0  0  0  0  0  0  0  0  # atno 17371 bound_to 10713
  139.8712  134.9774  156.4958 LP  0  0  0  0  0  0  0  0  0  0  0  0  # atno 17394 bound_to 11000
  140.8573  133.8086  155.9229 LP  0  0  0  0  0  0  0  0  0  0  0  0  # atno 17395 bound_to 11000

$$$$
