AV-unprocessed.smi:148|AV-procd|sdf|1231|dock8
  -GOLD-   2262018433D 1   1.00000     0.00000
 Structure written by MMmdl.
 63 67  0  0  0  0  0  0  0  0  1 V2000
  148.3468  132.0215  152.8775 O   0  0  0  0  0  0  0  0  0  0  0  0
  147.0497  132.0492  153.4375 C   0  0  0  0  0  0  0  0  0  0  0  0
  146.2941  133.3499  153.0556 C   0  0  1  0  0  0  0  0  0  0  0  0
  146.9312  134.6016  153.7187 C   0  0  0  0  0  0  0  0  0  0  0  0
  146.7745  134.6404  155.1620 N   0  0  0  0  0  0  0  0  0  0  0  0
  145.5984  134.5313  155.8681 C   0  0  0  0  0  0  0  0  0  0  0  0
  145.7224  134.5982  157.1654 N   0  0  0  0  0  0  0  0  0  0  0  0
  147.0873  134.7659  157.3690 C   0  0  0  0  0  0  0  0  0  0  0  0
  147.9142  134.9217  158.5187 C   0  0  0  0  0  0  0  0  0  0  0  0
  147.4750  134.9398  159.7992 N   0  0  0  0  0  0  0  0  0  0  0  0
  147.7446  136.2551  160.3830 C   0  0  0  0  0  0  0  0  0  0  0  0
  147.0525  136.4261  161.7416 C   0  0  0  0  0  0  0  0  0  0  0  0
  147.4430  135.2850  162.6856 C   0  0  0  0  0  0  0  0  0  0  0  0
  147.1083  133.9390  162.0313 C   0  0  0  0  0  0  0  0  0  0  0  0
  147.8063  133.7836  160.6546 C   0  0  1  0  0  0  0  0  0  0  0  0
  147.5284  132.4000  159.9805 C   0  0  1  0  0  0  0  0  0  0  0  0
  148.5613  131.9921  158.9125 C   0  0  0  0  0  0  0  0  0  0  0  0
  148.6058  130.4553  158.9095 C   0  0  0  0  0  0  0  0  0  0  0  0
  147.5660  129.9939  159.9345 C   0  0  0  0  0  0  0  0  0  0  0  0
  147.4323  131.1706  160.9005 C   0  0  2  0  0  0  0  0  0  0  0  0
  146.2089  131.1069  161.6024 O   0  0  0  0  0  0  0  0  0  0  0  0
  149.2516  135.0392  158.3269 N   0  0  0  0  0  0  0  0  0  0  0  0
  149.7537  135.0327  157.0885 C   0  0  0  0  0  0  0  0  0  0  0  0
  149.1081  134.9146  155.9264 N   0  0  0  0  0  0  0  0  0  0  0  0
  147.7646  134.7804  156.1176 C   0  0  0  0  0  0  0  0  0  0  0  0
  146.1308  133.5267  151.5139 C   0  0  1  0  0  0  0  0  0  0  0  0
  145.3607  132.4078  150.8195 C   0  0  0  0  0  0  0  0  0  0  0  0
  143.8975  132.8055  151.0139 C   0  0  0  0  0  0  0  0  0  0  0  0
  143.9013  134.2149  151.2146 O   0  0  0  0  0  0  0  0  0  0  0  0
  145.2318  134.7020  151.1034 C   0  0  0  0  0  0  0  0  0  0  0  0
  148.3154  131.5259  152.0732 H   0  0  0  0  0  0  0  0  0  0  0  0
  146.5105  131.1604  153.1170 H   0  0  0  0  0  0  0  0  0  0  0  0
  147.1369  131.9463  154.5191 H   0  0  0  0  0  0  0  0  0  0  0  0
  145.2933  133.2506  153.4779 H   0  0  0  0  0  0  0  0  0  0  0  0
  147.9963  134.6454  153.4878 H   0  0  0  0  0  0  0  0  0  0  0  0
  146.4926  135.5194  153.3311 H   0  0  0  0  0  0  0  0  0  0  0  0
  144.6388  134.4068  155.3875 H   0  0  0  0  0  0  0  0  0  0  0  0
  148.8222  136.3792  160.5014 H   0  0  0  0  0  0  0  0  0  0  0  0
  147.4082  137.0439  159.7080 H   0  0  0  0  0  0  0  0  0  0  0  0
  147.3220  137.3870  162.1806 H   0  0  0  0  0  0  0  0  0  0  0  0
  145.9703  136.4378  161.6041 H   0  0  0  0  0  0  0  0  0  0  0  0
  148.5090  135.3346  162.9106 H   0  0  0  0  0  0  0  0  0  0  0  0
  146.9153  135.3851  163.6344 H   0  0  0  0  0  0  0  0  0  0  0  0
  147.3917  133.1371  162.7108 H   0  0  0  0  0  0  0  0  0  0  0  0
  146.0261  133.8800  161.9179 H   0  0  0  0  0  0  0  0  0  0  0  0
  148.8782  133.8353  160.8449 H   0  0  0  0  0  0  0  0  0  0  0  0
  146.5882  132.4503  159.4309 H   0  0  0  0  0  0  0  0  0  0  0  0
  148.2799  132.3847  157.9347 H   0  0  0  0  0  0  0  0  0  0  0  0
  149.5554  132.3798  159.1296 H   0  0  0  0  0  0  0  0  0  0  0  0
  148.4061  130.0403  157.9212 H   0  0  0  0  0  0  0  0  0  0  0  0
  149.5984  130.1176  159.2102 H   0  0  0  0  0  0  0  0  0  0  0  0
  146.6160  129.8168  159.4274 H   0  0  0  0  0  0  0  0  0  0  0  0
  147.8508  129.0682  160.4355 H   0  0  0  0  0  0  0  0  0  0  0  0
  148.2592  131.1353  161.6082 H   0  0  0  0  0  0  0  0  0  0  0  0
  145.8481  131.9792  161.6569 H   0  0  0  0  0  0  0  0  0  0  0  0
  150.8261  135.1394  157.0185 H   0  0  0  0  0  0  0  0  0  0  0  0
  147.1193  133.6403  151.0666 H   0  0  0  0  0  0  0  0  0  0  0  0
  145.5954  132.4239  149.7539 H   0  0  0  0  0  0  0  0  0  0  0  0
  145.5753  131.4001  151.1683 H   0  0  0  0  0  0  0  0  0  0  0  0
  143.2829  132.5301  150.1563 H   0  0  0  0  0  0  0  0  0  0  0  0
  143.4777  132.3276  151.8997 H   0  0  0  0  0  0  0  0  0  0  0  0
  145.3719  135.6163  151.6759 H   0  0  0  0  0  0  0  0  0  0  0  0
  145.4123  134.9568  150.0577 H   0  0  0  0  0  0  0  0  0  0  0  0
  1  2  1  0  0  0  0
  1 31  1  0  0  0  0
  2  3  1  0  0  0  0
  2 32  1  0  0  0  0
  2 33  1  0  0  0  0
  3  4  1  0  0  0  0
  3 26  1  0  0  0  0
  3 34  1  0  0  0  0
  4  5  1  0  0  0  0
  4 35  1  0  0  0  0
  4 36  1  0  0  0  0
  5 25  1  0  0  0  0
  5  6  1  0  0  0  0
  6  7  2  0  0  0  0
  6 37  1  0  0  0  0
  7  8  1  0  0  0  0
  8 25  2  0  0  0  0
  8  9  1  0  0  0  0
  9 10  1  0  0  0  0
  9 22  2  0  0  0  0
 10 15  1  0  0  0  0
 10 11  1  0  0  0  0
 11 12  1  0  0  0  0
 11 38  1  0  0  0  0
 11 39  1  0  0  0  0
 12 13  1  0  0  0  0
 12 40  1  0  0  0  0
 12 41  1  0  0  0  0
 13 14  1  0  0  0  0
 13 42  1  0  0  0  0
 13 43  1  0  0  0  0
 14 15  1  0  0  0  0
 14 44  1  0  0  0  0
 14 45  1  0  0  0  0
 15 16  1  0  0  0  0
 15 46  1  0  0  0  0
 16 20  1  0  0  0  0
 16 17  1  0  0  0  0
 16 47  1  0  0  0  0
 17 18  1  0  0  0  0
 17 48  1  0  0  0  0
 17 49  1  0  0  0  0
 18 19  1  0  0  0  0
 18 50  1  0  0  0  0
 18 51  1  0  0  0  0
 19 20  1  0  0  0  0
 19 52  1  0  0  0  0
 19 53  1  0  0  0  0
 20 21  1  0  0  0  0
 20 54  1  0  0  0  0
 21 55  1  0  0  0  0
 22 23  1  0  0  0  0
 23 24  2  0  0  0  0
 23 56  1  0  0  0  0
 24 25  1  0  0  0  0
 26 30  1  0  0  0  0
 26 27  1  0  0  0  0
 26 57  1  0  0  0  0
 27 28  1  0  0  0  0
 27 58  1  0  0  0  0
 27 59  1  0  0  0  0
 28 29  1  0  0  0  0
 28 60  1  0  0  0  0
 28 61  1  0  0  0  0
 29 30  1  0  0  0  0
 30 62  1  0  0  0  0
 30 63  1  0  0  0  0
M  END
> <s_m_source_file>
AV-unprocessed.smi

> <i_m_source_file_index>
148

> <i_lp_mmshare_version>
43012

> <i_f3d_flags>
0

> <s_epik_input>
W0NIMl0xT1tDSDJdW0NIMl1bQ0BIXTFbQ0BIXShbQ0gyXVtPSF0pW0NIMl1uKFtjSF1uMiljKGMyMyluW2NIXW5jM040W0NIMl1bQ0gyXVtDSDJdW0NIMl1bQ0BIXTRbQ0BASF01W0NIMl1bQ0gyXVtDSDJdW0NASF01W09IXQ==

> <s_epik_cmdline>
J2VwaWtfcHl0aG9uJywgJy1waCcsICc3LjAnLCAnLXRuJywgJzgnLCAnLW1hJywgJzIwMCcsICctbWV0YWxfYmluZGluZycsICctaW1hZScsICc8aW5maWxlLm1hZT4nLCAnLW9tYWUnLCAnPG91dGZpbGUubWFlPic=

> <r_lp_tautomer_probability>
1

> <r_epik_Ionization_Penalty>
0.00556303

> <r_epik_Ionization_Penalty_Charging>
0

> <r_epik_Ionization_Penalty_Neutral>
0.00556303

> <r_epik_State_Penalty>
0.00401767

> <r_epik_Charging_Adjusted_Penalty>
0.00401767

> <i_epik_Tot_Q>
0

> <i_epik_Tot_abs_Q>
0

> <r_epik_Metal_State_Penalty>
-0

> <b_epik_Metal_Only>
0

> <s_lp_Force_Field>
OPLS_2005

> <r_lp_Energy>
69.9352

> <b_lp_Chiralities_Consistent>
1

> <s_lp_Variant>
AV-unprocessed.smi:148-30

> <Gold.Version>
5.8.1

> <Gold.Id.Protein>
6NUR|6NUR_protein|mol2

> <Gold.PLP.Fitness>
42.2530

> <Gold.PLP.PLP>
-37.0488

> <Gold.PLP.part.hbond>
-2.0000

> <Gold.PLP.part.metal>
0.0000

> <Gold.PLP.part.buried>
-5.9426

> <Gold.PLP.part.nonpolar>
-29.1115

> <Gold.PLP.part.repulsive>
0.2043

> <Gold.PLP.ligand.clash>
0.0000

> <Gold.PLP.ligand.torsion>
0.6326

> <Gold.PLP.Chemscore.Hbond>
2.0000

> <Gold.PLP.Chemscore.CHOScore>
0.0000

> <Gold.PLP.Chemscore.Metal>
0.0000

> <Gold.Chemscore.Hbonds>
donor molecule, donor type, donor heavy atom, donor atom, acceptor molecule, acceptor atom, score
      L1  H     1    31       P1 10747  1.00
      P1  H  6896  6907       L1    22  1.00

> <Gold.PLP.Chemscore.Internal.Correction>
0.4693

> <Gold.Rescore>
     Score         DG    S(hbond)    S(metal)    S(lipo)     H(rot)  DE(clash)    DE(int)     intcor
     12.20     -14.09       1.87        0.00      92.93       3.32       0.02       1.88       ----

> <Gold.Chemscore.Fitness>
12.1994

> <Gold.Chemscore.DG>
-14.0949

> <Gold.Chemscore.ZeroCoef>
-5.4800

> <Gold.Chemscore.Hbond>
1.8688

> <Gold.Chemscore.Metal>
0.0000

> <Gold.Chemscore.Lipo>
92.9335

> <Gold.Chemscore.Internal_Hbond>
0.0000

> <Gold.Chemscore.DEClash>
0.0202

> <Gold.Chemscore.DEInternal>
1.8752

> <Gold.Chemscore.Rot>
3.3203

> <Gold.Chemscore.Internal.Correction>
   9.000000E+99

> <Gold.Chemscore.Hbonds>
donor molecule, donor type, donor heavy atom, donor atom, acceptor molecule, acceptor atom, score
      L1  H     1    31       P1 10747  0.93
      P1  H  6896  6907       L1    22  0.60

> <Gold.Chemscore.Hbond.Weighted>
-6.2416

> <Gold.Chemscore.Metal.Weighted>
-0.0000

> <Gold.Chemscore.Lipo.Weighted>
-10.8732

> <Gold.Chemscore.Internal_Hbond.Weighted>
0.0000

> <Gold.Chemscore.DEClash.Weighted>
0.0202

> <Gold.Chemscore.DEInternal.Weighted>
1.8752

> <Gold.Chemscore.Rot.Weighted>
8.5000

> <Gold.Chemscore.Internal.Correction.Weighted>
   9.000000E+99

> <Gold.Protein.RotatedTorsions>
[ 6907 6896 6895 6894 ] final  -72.27 input  -60.11 | X-H torsion
[ 7974 7965 7964 7962 ] final  -50.84 input  175.53 | X-H torsion
[ 8008 7997 7996 7995 ] final  118.40 input   59.86 | X-H torsion
[ 10167 10162 10161 10158 ] final  133.00 input  -65.29 | X-H torsion
[ 10718 10713 10712 10709 ] final  111.97 input   66.30 | X-H torsion
[ 10763 10752 10751 10750 ] final   38.39 input  -60.55 | X-H torsion
[ 11005 11000 10999 10996 ] final -119.62 input  -57.11 | X-H torsion

> <Gold.Protein.ActiveResidues>
 VAL166  LYS551  ARG553  GLY616  TRP617  ASP618  TYR619  PRO620  LYS621  CYS622 
 ASP623  PHE694  ASN695  SER759  ASP760  ASP761  ALA762  ILE779  LEU786  VAL792 
 PHE793  MET794  SER795  GLU796  ALA797  LYS798  CYS799  TRP800  GLU811  SER814 

> <Gold.Protein.RotatedAtoms>
  150.7177  134.5187  159.5642 H   0  0  0  0  0  0  0  0  0  0  0  0  # atno 6907 bound_to 6896
  152.2747  134.7892  160.0417 H   0  0  0  0  0  0  0  0  0  0  0  0  # atno 6908 bound_to 6896
  151.8559  133.3413  159.3725 H   0  0  0  0  0  0  0  0  0  0  0  0  # atno 6909 bound_to 6896
  145.9255  140.7796  142.9626 H   0  0  0  0  0  0  0  0  0  0  0  0  # atno 7974 bound_to 7965
  156.2544  140.2875  156.0829 H   0  0  0  0  0  0  0  0  0  0  0  0  # atno 8008 bound_to 7997
  155.1546  140.0398  157.2846 H   0  0  0  0  0  0  0  0  0  0  0  0  # atno 8009 bound_to 7997
  154.6436  140.2528  155.7300 H   0  0  0  0  0  0  0  0  0  0  0  0  # atno 8010 bound_to 7997
  139.5315  144.6636  151.4933 H   0  0  0  0  0  0  0  0  0  0  0  0  # atno 10167 bound_to 10162
  157.6417  131.0960  150.6827 H   0  0  0  0  0  0  0  0  0  0  0  0  # atno 10718 bound_to 10713
  153.0003  135.6251  154.2296 H   0  0  0  0  0  0  0  0  0  0  0  0  # atno 10763 bound_to 10752
  154.2039  135.2803  155.2983 H   0  0  0  0  0  0  0  0  0  0  0  0  # atno 10764 bound_to 10752
  154.5662  135.5690  153.7111 H   0  0  0  0  0  0  0  0  0  0  0  0  # atno 10765 bound_to 10752
  141.0202  134.0135  157.3293 H   0  0  0  0  0  0  0  0  0  0  0  0  # atno 11005 bound_to 11000
  144.6758  140.2044  143.7383 LP  0  0  0  0  0  0  0  0  0  0  0  0  # atno 17320 bound_to 7965
  145.8494  139.2168  143.1781 LP  0  0  0  0  0  0  0  0  0  0  0  0  # atno 17321 bound_to 7965
  140.6496  143.8723  150.6772 LP  0  0  0  0  0  0  0  0  0  0  0  0  # atno 17342 bound_to 10162
  140.2084  143.3903  152.1737 LP  0  0  0  0  0  0  0  0  0  0  0  0  # atno 17343 bound_to 10162
  156.7149  130.4663  149.5537 LP  0  0  0  0  0  0  0  0  0  0  0  0  # atno 17370 bound_to 10713
  156.1704  130.6433  151.0830 LP  0  0  0  0  0  0  0  0  0  0  0  0  # atno 17371 bound_to 10713
  139.9141  135.0194  156.7812 LP  0  0  0  0  0  0  0  0  0  0  0  0  # atno 17394 bound_to 11000
  140.6586  133.9666  155.7792 LP  0  0  0  0  0  0  0  0  0  0  0  0  # atno 17395 bound_to 11000

$$$$
