AV-unprocessed.smi:240|AV-procd|sdf|1826|dock9
  -GOLD-   2262020423D 1   1.00000     0.00000
 Structure written by MMmdl.
 55 59  0  0  0  0  0  0  0  0  1 V2000
  152.4190  139.9294  155.1167 O   0  0  0  0  0  0  0  0  0  0  0  0
  151.3126  139.1041  155.4175 C   0  0  2  0  0  0  0  0  0  0  0  0
  150.6240  138.6721  154.1090 C   0  0  0  0  0  0  0  0  0  0  0  0
  149.1225  138.8309  154.3536 C   0  0  0  0  0  0  0  0  0  0  0  0
  149.0328  140.0063  155.3234 C   0  0  0  0  0  0  0  0  0  0  0  0
  150.2112  139.7763  156.2791 C   0  0  2  0  0  0  0  0  0  0  0  0
  150.5869  140.9725  157.2118 C   0  0  2  0  0  0  0  0  0  0  0  0
  150.7073  142.3378  156.4843 C   0  0  0  0  0  0  0  0  0  0  0  0
  151.0291  143.3676  157.4120 O   0  0  0  0  0  0  0  0  0  0  0  0
  152.2762  143.1361  158.0519 C   0  0  0  0  0  0  0  0  0  0  0  0
  152.1798  141.8402  158.8661 C   0  0  0  0  0  0  0  0  0  0  0  0
  151.8012  140.7274  158.0037 N   0  0  0  0  0  0  0  0  0  0  0  0
  151.8838  139.5558  158.6735 C   0  0  0  0  0  0  0  0  0  0  0  0
  150.7353  138.8500  158.8155 N   0  0  0  0  0  0  0  0  0  0  0  0
  150.7454  137.6820  159.4643 C   0  0  0  0  0  0  0  0  0  0  0  0
  151.7757  137.0505  160.0310 N   0  0  0  0  0  0  0  0  0  0  0  0
  152.9341  137.7556  159.8830 C   0  0  0  0  0  0  0  0  0  0  0  0
  153.0791  139.0053  159.2176 C   0  0  0  0  0  0  0  0  0  0  0  0
  154.4083  139.4089  159.2537 N   0  0  0  0  0  0  0  0  0  0  0  0
  155.0128  138.4559  159.9087 C   0  0  0  0  0  0  0  0  0  0  0  0
  154.2015  137.4277  160.3326 N   0  0  0  0  0  0  0  0  0  0  0  0
  154.6068  136.2449  161.0771 C   0  0  0  0  0  0  0  0  0  0  0  0
  154.6127  136.4480  162.6108 C   0  0  1  0  0  0  0  0  0  0  0  0
  155.7153  137.2637  162.9675 O   0  0  0  0  0  0  0  0  0  0  0  0
  153.3409  137.1104  163.1243 C   0  0  0  0  0  0  0  0  0  0  0  0
  153.2334  136.5737  164.5450 C   0  0  0  0  0  0  0  0  0  0  0  0
  153.6395  135.2226  164.4064 O   0  0  0  0  0  0  0  0  0  0  0  0
  154.6810  135.1469  163.4367 C   0  0  0  0  0  0  0  0  0  0  0  0
  153.1523  139.6484  155.6431 H   0  0  0  0  0  0  0  0  0  0  0  0
  151.6924  138.2275  155.9439 H   0  0  0  0  0  0  0  0  0  0  0  0
  150.9151  139.3304  153.2884 H   0  0  0  0  0  0  0  0  0  0  0  0
  150.8896  137.6558  153.8164 H   0  0  0  0  0  0  0  0  0  0  0  0
  148.5633  139.0018  153.4334 H   0  0  0  0  0  0  0  0  0  0  0  0
  148.7258  137.9304  154.8244 H   0  0  0  0  0  0  0  0  0  0  0  0
  149.1506  140.9305  154.7593 H   0  0  0  0  0  0  0  0  0  0  0  0
  148.0747  140.0482  155.8422 H   0  0  0  0  0  0  0  0  0  0  0  0
  149.8529  138.9832  156.9371 H   0  0  0  0  0  0  0  0  0  0  0  0
  149.7649  141.0902  157.9179 H   0  0  0  0  0  0  0  0  0  0  0  0
  151.4541  142.3238  155.6917 H   0  0  0  0  0  0  0  0  0  0  0  0
  149.7614  142.6131  156.0208 H   0  0  0  0  0  0  0  0  0  0  0  0
  153.0784  143.0788  157.3142 H   0  0  0  0  0  0  0  0  0  0  0  0
  152.5019  143.9766  158.7079 H   0  0  0  0  0  0  0  0  0  0  0  0
  153.1382  141.6350  159.3454 H   0  0  0  0  0  0  0  0  0  0  0  0
  151.4404  141.9553  159.6603 H   0  0  0  0  0  0  0  0  0  0  0  0
  149.7915  137.1814  159.5407 H   0  0  0  0  0  0  0  0  0  0  0  0
  156.0755  138.4790  160.1010 H   0  0  0  0  0  0  0  0  0  0  0  0
  153.9393  135.4251  160.8087 H   0  0  0  0  0  0  0  0  0  0  0  0
  155.6004  135.9539  160.7338 H   0  0  0  0  0  0  0  0  0  0  0  0
  155.5234  137.6846  163.7915 H   0  0  0  0  0  0  0  0  0  0  0  0
  153.3622  138.2002  163.0767 H   0  0  0  0  0  0  0  0  0  0  0  0
  152.4779  136.7705  162.5498 H   0  0  0  0  0  0  0  0  0  0  0  0
  153.9184  137.0962  165.2144 H   0  0  0  0  0  0  0  0  0  0  0  0
  152.2252  136.6515  164.9520 H   0  0  0  0  0  0  0  0  0  0  0  0
  154.5027  134.2617  162.8270 H   0  0  0  0  0  0  0  0  0  0  0  0
  155.6471  135.0165  163.9266 H   0  0  0  0  0  0  0  0  0  0  0  0
  1  2  1  0  0  0  0
  1 29  1  0  0  0  0
  2  6  1  0  0  0  0
  2  3  1  0  0  0  0
  2 30  1  0  0  0  0
  3  4  1  0  0  0  0
  3 31  1  0  0  0  0
  3 32  1  0  0  0  0
  4  5  1  0  0  0  0
  4 33  1  0  0  0  0
  4 34  1  0  0  0  0
  5  6  1  0  0  0  0
  5 35  1  0  0  0  0
  5 36  1  0  0  0  0
  6  7  1  0  0  0  0
  6 37  1  0  0  0  0
  7 12  1  0  0  0  0
  7  8  1  0  0  0  0
  7 38  1  0  0  0  0
  8  9  1  0  0  0  0
  8 39  1  0  0  0  0
  8 40  1  0  0  0  0
  9 10  1  0  0  0  0
 10 11  1  0  0  0  0
 10 41  1  0  0  0  0
 10 42  1  0  0  0  0
 11 12  1  0  0  0  0
 11 43  1  0  0  0  0
 11 44  1  0  0  0  0
 12 13  1  0  0  0  0
 13 18  1  0  0  0  0
 13 14  2  0  0  0  0
 14 15  1  0  0  0  0
 15 16  2  0  0  0  0
 15 45  1  0  0  0  0
 16 17  1  0  0  0  0
 17 21  1  0  0  0  0
 17 18  2  0  0  0  0
 18 19  1  0  0  0  0
 19 20  2  0  0  0  0
 20 21  1  0  0  0  0
 20 46  1  0  0  0  0
 21 22  1  0  0  0  0
 22 23  1  0  0  0  0
 22 47  1  0  0  0  0
 22 48  1  0  0  0  0
 23 28  1  0  0  0  0
 23 24  1  0  0  0  0
 23 25  1  0  0  0  0
 24 49  1  0  0  0  0
 25 26  1  0  0  0  0
 25 50  1  0  0  0  0
 25 51  1  0  0  0  0
 26 27  1  0  0  0  0
 26 52  1  0  0  0  0
 26 53  1  0  0  0  0
 27 28  1  0  0  0  0
 28 54  1  0  0  0  0
 28 55  1  0  0  0  0
M  END
> <s_m_source_file>
AV-unprocessed.smi

> <i_m_source_file_index>
240

> <i_lp_mmshare_version>
43012

> <i_f3d_flags>
0

> <s_epik_input>
W09IXVtDQEBIXTFbQ0gyXVtDSDJdW0NIMl1bQ0BIXTFbQ0BASF0yW0NIMl1PW0NIMl1bQ0gyXU4yYyhuW2NIXW4zKWMoYzM0KW5bY0hdbjRbQ0gyXVtDQEBdNShbT0hdKVtDSDJdW0NIMl1PW0NIMl01

> <s_epik_cmdline>
J2VwaWtfcHl0aG9uJywgJy1waCcsICc3LjAnLCAnLXRuJywgJzgnLCAnLW1hJywgJzIwMCcsICctbWV0YWxfYmluZGluZycsICctaW1hZScsICc8aW5maWxlLm1hZT4nLCAnLW9tYWUnLCAnPG91dGZpbGUubWFlPic=

> <r_lp_tautomer_probability>
1

> <r_epik_Ionization_Penalty>
0.000130618

> <r_epik_Ionization_Penalty_Charging>
0

> <r_epik_Ionization_Penalty_Neutral>
0.000130618

> <r_epik_State_Penalty>
-0

> <r_epik_Charging_Adjusted_Penalty>
0

> <i_epik_Tot_Q>
0

> <i_epik_Tot_abs_Q>
0

> <r_epik_Metal_State_Penalty>
-0

> <b_epik_Metal_Only>
0

> <s_lp_Force_Field>
OPLS_2005

> <r_lp_Energy>
64.3211

> <b_lp_Chiralities_Consistent>
1

> <s_lp_Variant>
AV-unprocessed.smi:240-3

> <Gold.Version>
5.8.1

> <Gold.Id.Protein>
6NUR|6NUR_protein|mol2

> <Gold.PLP.Fitness>
46.7308

> <Gold.PLP.PLP>
-40.5648

> <Gold.PLP.part.hbond>
-3.7565

> <Gold.PLP.part.metal>
0.0000

> <Gold.PLP.part.buried>
-6.4658

> <Gold.PLP.part.nonpolar>
-32.3160

> <Gold.PLP.part.repulsive>
0.5165

> <Gold.PLP.ligand.clash>
0.0000

> <Gold.PLP.ligand.torsion>
0.8809

> <Gold.PLP.Chemscore.Hbond>
2.5624

> <Gold.PLP.Chemscore.CHOScore>
0.0000

> <Gold.PLP.Chemscore.Metal>
0.0000

> <Gold.Chemscore.Hbonds>
donor molecule, donor type, donor heavy atom, donor atom, acceptor molecule, acceptor atom, score
      P1  H  6896  6908       L1    16  1.00
      P1  H  7989  7998       L1     1  0.61
      P1  H  7997  8009       L1    19  0.71

> <Gold.PLP.Chemscore.Internal.Correction>
0.2406

> <Gold.Rescore>
     Score         DG    S(hbond)    S(metal)    S(lipo)     H(rot)  DE(clash)    DE(int)     intcor
     14.96     -17.40       2.55        0.00      94.83       3.00       0.33       2.12       ----

> <Gold.Chemscore.Fitness>
14.9593

> <Gold.Chemscore.DG>
-17.4030

> <Gold.Chemscore.ZeroCoef>
-5.4800

> <Gold.Chemscore.Hbond>
2.5503

> <Gold.Chemscore.Metal>
0.0000

> <Gold.Chemscore.Lipo>
94.8289

> <Gold.Chemscore.Internal_Hbond>
0.0000

> <Gold.Chemscore.DEClash>
0.3265

> <Gold.Chemscore.DEInternal>
2.1172

> <Gold.Chemscore.Rot>
3.0039

> <Gold.Chemscore.Internal.Correction>
   9.000000E+99

> <Gold.Chemscore.Hbonds>
donor molecule, donor type, donor heavy atom, donor atom, acceptor molecule, acceptor atom, score
      P1  H  6896  6908       L1    16  0.82
      P1  H  7989  7998       L1     1  0.13
      P1  H  7997  8009       L1    19  0.62

> <Gold.Chemscore.Hbond.Weighted>
-8.5180

> <Gold.Chemscore.Metal.Weighted>
-0.0000

> <Gold.Chemscore.Lipo.Weighted>
-11.0950

> <Gold.Chemscore.Internal_Hbond.Weighted>
0.0000

> <Gold.Chemscore.DEClash.Weighted>
0.3265

> <Gold.Chemscore.DEInternal.Weighted>
2.1172

> <Gold.Chemscore.Rot.Weighted>
7.6899

> <Gold.Chemscore.Internal.Correction.Weighted>
   9.000000E+99

> <Gold.Protein.RotatedTorsions>
[ 6907 6896 6895 6894 ] final -121.60 input  -60.11 | X-H torsion
[ 7974 7965 7964 7962 ] final   23.29 input  175.53 | X-H torsion
[ 8008 7997 7996 7995 ] final  113.23 input   59.86 | X-H torsion
[ 10167 10162 10161 10158 ] final   68.75 input  -65.29 | X-H torsion
[ 10718 10713 10712 10709 ] final  162.64 input   66.30 | X-H torsion
[ 10763 10752 10751 10750 ] final  -16.78 input  -60.55 | X-H torsion
[ 11005 11000 10999 10996 ] final  102.42 input  -57.11 | X-H torsion

> <Gold.Protein.ActiveResidues>
 VAL166  LYS551  ARG553  GLY616  TRP617  ASP618  TYR619  PRO620  LYS621  CYS622 
 ASP623  PHE694  ASN695  SER759  ASP760  ASP761  ALA762  ILE779  LEU786  VAL792 
 PHE793  MET794  SER795  GLU796  ALA797  LYS798  CYS799  TRP800  GLU811  SER814 

> <Gold.Protein.RotatedAtoms>
  150.8499  133.7804  159.3029 H   0  0  0  0  0  0  0  0  0  0  0  0  # atno 6907 bound_to 6896
  151.5479  135.1066  159.9952 H   0  0  0  0  0  0  0  0  0  0  0  0  # atno 6908 bound_to 6896
  152.4544  133.7650  159.6823 H   0  0  0  0  0  0  0  0  0  0  0  0  # atno 6909 bound_to 6896
  146.1991  139.7765  142.8775 H   0  0  0  0  0  0  0  0  0  0  0  0  # atno 7974 bound_to 7965
  156.2245  140.2983  156.0032 H   0  0  0  0  0  0  0  0  0  0  0  0  # atno 8008 bound_to 7997
  155.2394  140.0422  157.2990 H   0  0  0  0  0  0  0  0  0  0  0  0  # atno 8009 bound_to 7997
  154.5892  140.2397  155.7952 H   0  0  0  0  0  0  0  0  0  0  0  0  # atno 8010 bound_to 7997
  140.0752  144.5118  150.7199 H   0  0  0  0  0  0  0  0  0  0  0  0  # atno 10167 bound_to 10162
  157.1197  131.0489  151.2420 H   0  0  0  0  0  0  0  0  0  0  0  0  # atno 10718 bound_to 10713
  153.5638  135.7009  153.5535 H   0  0  0  0  0  0  0  0  0  0  0  0  # atno 10763 bound_to 10752
  153.3406  135.4022  155.1568 H   0  0  0  0  0  0  0  0  0  0  0  0  # atno 10764 bound_to 10752
  154.8644  135.3741  154.5156 H   0  0  0  0  0  0  0  0  0  0  0  0  # atno 10765 bound_to 10752
  139.8777  134.9223  156.5055 H   0  0  0  0  0  0  0  0  0  0  0  0  # atno 11005 bound_to 11000
  145.3546  141.0314  143.3319 LP  0  0  0  0  0  0  0  0  0  0  0  0  # atno 17320 bound_to 7965
  144.8643  139.5131  143.6797 LP  0  0  0  0  0  0  0  0  0  0  0  0  # atno 17321 bound_to 7965
  140.7105  143.2501  151.4594 LP  0  0  0  0  0  0  0  0  0  0  0  0  # atno 17342 bound_to 10162
  139.5812  144.1706  152.1970 LP  0  0  0  0  0  0  0  0  0  0  0  0  # atno 17343 bound_to 10162
  157.4487  130.7586  149.7132 LP  0  0  0  0  0  0  0  0  0  0  0  0  # atno 17370 bound_to 10713
  155.9831  130.4003  150.3380 LP  0  0  0  0  0  0  0  0  0  0  0  0  # atno 17371 bound_to 10713
  140.8558  133.8097  155.9215 LP  0  0  0  0  0  0  0  0  0  0  0  0  # atno 17394 bound_to 11000
  140.9099  134.2274  157.4992 LP  0  0  0  0  0  0  0  0  0  0  0  0  # atno 17395 bound_to 11000

$$$$
