#       Name:                AV-unprocessed.smi:3136
#       Creating user name   scv26
#       Creation time:       Fri Mar 27 17:34:49 2020


#       File generated by GOLD software.
#

@<TRIPOS>MOLECULE
AV-unprocessed.smi:3136
    43    43     1
SMALL
NO_CHARGES


@<TRIPOS>ATOM
      1 ****        -5.1268   2.4204  -2.5044 C.3            1 S1                 0.0000
      2 ****        -4.5741   3.3699  -1.4330 C.3            1 S1                 0.0000
      3 ****        -3.1638   3.1138  -1.1635 N.am           1 S1                 0.0000
      4 ****        -2.6945   2.1263  -0.3850 C.2            1 S1                 0.0000
      5 ****        -3.4224   1.3269   0.2036 O.2            1 S1                 0.0000
      6 ****        -1.1721   2.0287  -0.2496 C.3            1 S1                 0.0000
      7 ****        -0.6753   0.5736  -0.2070 C.3            1 S1                 0.0000
      8 ****         0.7965   0.5174  -0.0969 N.4            1 S1                 1.0000
      9 ****         1.3630  -0.8493  -0.0413 C.3            1 S1                 0.0000
     10 ****         2.3204  -1.0386  -1.2320 C.3            1 S1                 0.0000
     11 ****         2.0382  -1.0987   1.3342 C.3            1 S1                 0.0000
     12 ****         1.0371  -1.0527   2.5045 C.3            1 S1                 0.0000
     13 ****         2.7812  -2.3525   1.3631 N.pl3          1 S1                 0.0000
     14 ****         4.1326  -2.5405   1.5701 C.2            1 S1                 0.0000
     15 ****         4.3719  -3.8835   1.5129 C.2            1 S1                 0.0000
     16 ****         3.0887  -4.4457   1.2667 C.2            1 S1                 0.0000
     17 ****         2.1392  -3.5285   1.1789 N.2            1 S1                 0.0000
     18 ****        -6.1697   2.6499  -2.7231 H              1 S1                 0.0000
     19 ****        -5.0791   1.3808  -2.1786 H              1 S1                 0.0000
     20 ****        -4.5660   2.5067  -3.4356 H              1 S1                 0.0000
     21 ****        -4.6729   4.4017  -1.7710 H              1 S1                 0.0000
     22 ****        -5.1569   3.2873  -0.5143 H              1 S1                 0.0000
     23 ****        -2.4981   3.7320  -1.6046 H              1 S1                 0.0000
     24 ****        -0.6993   2.5542  -1.0812 H              1 S1                 0.0000
     25 ****        -0.8768   2.5510   0.6612 H              1 S1                 0.0000
     26 ****        -1.1123   0.0469   0.6429 H              1 S1                 0.0000
     27 ****        -0.9845   0.0448  -1.1101 H              1 S1                 0.0000
     28 ****         1.1924   0.9912  -0.8961 H              1 S1                 0.0000
     29 ****         0.5566  -1.5750  -0.1627 H              1 S1                 0.0000
     30 ****         2.6808  -2.0649  -1.3047 H              1 S1                 0.0000
     31 ****         3.1899  -0.3853  -1.1495 H              1 S1                 0.0000
     32 ****         1.8214  -0.8103  -2.1744 H              1 S1                 0.0000
     33 ****         2.7681  -0.3038   1.4968 H              1 S1                 0.0000
     34 ****         0.5680  -0.0729   2.5929 H              1 S1                 0.0000
     35 ****         1.5352  -1.2578   3.4528 H              1 S1                 0.0000
     36 ****         0.2427  -1.7899   2.3815 H              1 S1                 0.0000
     37 ****         4.8056  -1.7125   1.7383 H              1 S1                 0.0000
     38 ****         5.3195  -4.3882   1.6302 H              1 S1                 0.0000
     39 ****         2.8207  -5.4856   1.1500 H              1 S1                 0.0000
     40 ****         1.0754   1.0113   0.7389 H              1 S1                 0.0000
     41 ****        -4.4160   1.3954   0.1135 LP             1 S1                 0.0000
     42 ****        -3.0201   0.6091   0.7718 LP             1 S1                 0.0000
     43 ****         1.1636  -3.6727   1.0131 LP             1 S1                 0.0000
@<TRIPOS>BOND
    1    1    2 1     
    2    1   18 1     
    3    1   19 1     
    4    1   20 1     
    5    2    3 1     
    6    2   21 1     
    7    2   22 1     
    8    3    4 am    
    9    3   23 1     
   10    4    5 2     
   11    4    6 1     
   12    6    7 1     
   13    6   24 1     
   14    6   25 1     
   15    7    8 1     
   16    7   26 1     
   17    7   27 1     
   18    8    9 1     
   19    8   28 1     
   20    8   40 1     
   21    9   10 1     
   22    9   11 1     
   23    9   29 1     
   24   10   30 1     
   25   10   31 1     
   26   10   32 1     
   27   11   12 1     
   28   11   13 1     
   29   11   33 1     
   30   12   34 1     
   31   12   35 1     
   32   12   36 1     
   33   13   17 1     
   34   13   14 1     
   35   14   15 2     
   36   14   37 1     
   37   15   16 1     
   38   15   38 1     
   39   16   17 2     
   40   16   39 1     
   41    5   41 1     
   42    5   42 1     
   43   17   43 1     
@<TRIPOS>SUBSTRUCTURE
      1 S1             1
@<TRIPOS>SET
LONE_PAIRS      STATIC     ATOMS    <user>   **** ""
3 41 42 43
DONOR_HYDROGENS      STATIC     ATOMS    <user>   **** ""
3 23 28 40
ATOM$BLUE        STATIC     ATOMS    COLORGROUP SYSTEM
3 41 42 43
ATOM$RED        STATIC     ATOMS    COLORGROUP SYSTEM
3 23 28 40
