#       Name:                AV-unprocessed.smi:694
#       Creating user name   scv26
#       Creation time:       Fri Mar 27 00:35:54 2020


#       File generated by GOLD software.
#

@<TRIPOS>MOLECULE
AV-unprocessed.smi:694
    47    48     1
SMALL
NO_CHARGES


@<TRIPOS>ATOM
      1 ****        -6.1931   0.1778   0.8276 C.3            1 S1                 0.0000
      2 ****        -5.4573  -0.9987   1.2771 N.pl3          1 S1                 0.0000
      3 ****        -6.1691  -2.1452   1.8269 C.3            1 S1                 0.0000
      4 ****        -4.0460  -0.9990   1.2425 C.ar           1 S1                 0.0000
      5 ****        -3.2588  -2.0847   1.6977 C.ar           1 S1                 0.0000
      6 ****        -1.8525  -2.0086   1.6293 C.ar           1 S1                 0.0000
      7 ****        -1.2335  -0.8517   1.1116 C.ar           1 S1                 0.0000
      8 ****         0.1879  -0.8358   1.0566 N.am           1 S1                 0.0000
      9 ****         1.0144   0.1836   0.7637 C.2            1 S1                 0.0000
     10 ****         0.6652   1.3379   0.5200 O.2            1 S1                 0.0000
     11 ****         2.2947  -0.2144   0.7760 N.am           1 S1                 0.0000
     12 ****         3.4483   0.6337   0.4905 C.3            1 S1                 0.0000
     13 ****         3.9046   0.5061  -0.9787 C.3            1 S1                 0.0000
     14 ****         2.9006   0.9948  -2.0323 C.3            1 S1                 0.0000
     15 ****         3.7287   1.2859  -3.2928 C.3            1 S1                 0.0000
     16 ****         5.2042   1.2655  -2.8619 C.3            1 S1                 0.0000
     17 ****         5.1981   1.2562  -1.3293 C.3            1 S1                 0.0000
     18 ****         5.1648   2.5921  -0.8617 O.3            1 S1                 0.0000
     19 ****        -2.0638   0.2036   0.6632 C.ar           1 S1                 0.0000
     20 ****        -3.4066   0.0888   0.7475 N.pl3          1 S1                 1.0000
     21 ****        -5.9682   0.3951  -0.2170 H              1 S1                 0.0000
     22 ****        -5.9281   1.0481   1.4289 H              1 S1                 0.0000
     23 ****        -7.2698   0.0287   0.9121 H              1 S1                 0.0000
     24 ****        -5.8865  -2.3094   2.8671 H              1 S1                 0.0000
     25 ****        -5.9423  -3.0464   1.2566 H              1 S1                 0.0000
     26 ****        -7.2483  -1.9949   1.7950 H              1 S1                 0.0000
     27 ****        -3.7102  -2.9796   2.0990 H              1 S1                 0.0000
     28 ****        -1.2551  -2.8392   1.9760 H              1 S1                 0.0000
     29 ****         0.6364  -1.7119   1.2809 H              1 S1                 0.0000
     30 ****         2.4895  -1.1810   0.9923 H              1 S1                 0.0000
     31 ****         3.2336   1.6727   0.7459 H              1 S1                 0.0000
     32 ****         4.2583   0.3206   1.1496 H              1 S1                 0.0000
     33 ****         4.0907  -0.5510  -1.1774 H              1 S1                 0.0000
     34 ****         2.1096   0.2679  -2.2180 H              1 S1                 0.0000
     35 ****         2.4247   1.9160  -1.6931 H              1 S1                 0.0000
     36 ****         3.5470   0.5375  -4.0650 H              1 S1                 0.0000
     37 ****         3.4558   2.2562  -3.7095 H              1 S1                 0.0000
     38 ****         5.6651   0.3448  -3.2218 H              1 S1                 0.0000
     39 ****         5.7767   2.0941  -3.2811 H              1 S1                 0.0000
     40 ****         6.0809   0.7623  -0.9220 H              1 S1                 0.0000
     41 ****         5.1061   2.5797   0.0813 H              1 S1                 0.0000
     42 ****        -1.7220   1.1320   0.2326 H              1 S1                 0.0000
     43 ****        -3.9735   0.8691   0.4154 H              1 S1                 0.0000
     44 ****        -0.3051   1.5795   0.5304 LP             1 S1                 0.0000
     45 ****         1.3517   2.0345   0.3115 LP             1 S1                 0.0000
     46 ****         4.3690   3.0628  -1.2427 LP             1 S1                 0.0000
     47 ****         5.9988   3.0679  -1.1412 LP             1 S1                 0.0000
@<TRIPOS>BOND
    1    1    2 1     
    2    1   21 1     
    3    1   22 1     
    4    1   23 1     
    5    2    3 1     
    6    2    4 1     
    7    3   24 1     
    8    3   25 1     
    9    3   26 1     
   10    4   20 ar    
   11    4    5 ar    
   12    5    6 ar    
   13    5   27 1     
   14    6    7 ar    
   15    6   28 1     
   16    7    8 1     
   17    7   19 ar    
   18    8    9 am    
   19    8   29 1     
   20    9   10 2     
   21    9   11 am    
   22   11   12 1     
   23   11   30 1     
   24   12   13 1     
   25   12   31 1     
   26   12   32 1     
   27   13   17 1     
   28   13   14 1     
   29   13   33 1     
   30   14   15 1     
   31   14   34 1     
   32   14   35 1     
   33   15   16 1     
   34   15   36 1     
   35   15   37 1     
   36   16   17 1     
   37   16   38 1     
   38   16   39 1     
   39   17   18 1     
   40   17   40 1     
   41   18   41 1     
   42   19   20 ar    
   43   19   42 1     
   44   20   43 1     
   45   10   44 1     
   46   10   45 1     
   47   18   46 1     
   48   18   47 1     
@<TRIPOS>SUBSTRUCTURE
      1 S1             1
@<TRIPOS>SET
LONE_PAIRS      STATIC     ATOMS    <user>   **** ""
4 44 45 46 47
DONOR_HYDROGENS      STATIC     ATOMS    <user>   **** ""
4 29 30 41 43
ATOM$BLUE        STATIC     ATOMS    COLORGROUP SYSTEM
4 44 45 46 47
ATOM$RED        STATIC     ATOMS    COLORGROUP SYSTEM
4 29 30 41 43
