AV-unprocessed.smi:2499|AV-procd|sdf|9838|dock3
  -GOLD-   2272013463D 1   1.00000     0.00000
 Structure written by MMmdl.
 27 28  0  0  0  0  0  0  0  0  1 V2000
  151.3824  141.1709  158.2032 C   0  0  0  0  0  0  0  0  0  0  0  0
  151.4472  142.4178  157.3109 C   0  0  1  0  0  0  0  0  0  0  0  0
  150.3355  142.3725  156.3661 N   0  0  0  0  0  0  0  0  0  0  0  0
  150.1368  141.4332  155.4291 C   0  0  0  0  0  0  0  0  0  0  0  0
  150.9078  140.4779  155.2921 O   0  0  0  0  0  0  0  0  0  0  0  0
  148.9738  141.7022  154.7228 N   0  0  0  0  0  0  0  0  0  0  0  0
  148.3614  140.7388  154.1052 C   0  0  0  0  0  0  0  0  0  0  0  0
  148.6113  139.3733  153.9946 N   0  0  0  0  0  0  0  0  0  0  0  0
  147.6274  138.8214  153.2230 C   0  0  0  0  0  0  0  0  0  0  0  0
  146.7940  139.7922  152.8617 C   0  0  0  0  0  0  0  0  0  0  0  0
  147.2170  140.9764  153.3866 O   0  0  0  0  0  0  0  0  0  0  0  0
  151.4745  143.6840  158.1505 C   0  0  0  0  0  0  0  0  0  0  0  0
  152.5702  144.7117  157.9912 C   0  0  0  0  0  0  0  0  0  0  0  0
  152.5007  143.8683  159.2434 C   0  0  0  0  0  0  0  0  0  0  0  0
  152.2280  141.1352  158.8907 H   0  0  0  0  0  0  0  0  0  0  0  0
  151.4076  140.2581  157.6070 H   0  0  0  0  0  0  0  0  0  0  0  0
  150.4688  141.1551  158.7988 H   0  0  0  0  0  0  0  0  0  0  0  0
  152.3828  142.3630  156.7508 H   0  0  0  0  0  0  0  0  0  0  0  0
  149.6601  143.1211  156.4271 H   0  0  0  0  0  0  0  0  0  0  0  0
  149.3707  138.8421  154.3961 H   0  0  0  0  0  0  0  0  0  0  0  0
  147.6291  137.7627  153.0095 H   0  0  0  0  0  0  0  0  0  0  0  0
  145.8957  139.8029  152.2622 H   0  0  0  0  0  0  0  0  0  0  0  0
  150.4843  144.0787  158.3709 H   0  0  0  0  0  0  0  0  0  0  0  0
  153.3722  144.4970  157.2879 H   0  0  0  0  0  0  0  0  0  0  0  0
  152.2895  145.7599  158.0725 H   0  0  0  0  0  0  0  0  0  0  0  0
  152.1752  144.3541  160.1611 H   0  0  0  0  0  0  0  0  0  0  0  0
  153.2546  143.0934  159.3679 H   0  0  0  0  0  0  0  0  0  0  0  0
  1  2  1  0  0  0  0
  1 15  1  0  0  0  0
  1 16  1  0  0  0  0
  1 17  1  0  0  0  0
  2  3  1  0  0  0  0
  2 12  1  0  0  0  0
  2 18  1  0  0  0  0
  3 19  1  0  0  0  0
  3  4  1  0  0  0  0
  4  6  1  0  0  0  0
  4  5  2  0  0  0  0
  6  7  2  0  0  0  0
  7 11  1  0  0  0  0
  7  8  1  0  0  0  0
  8 20  1  0  0  0  0
  8  9  1  0  0  0  0
  9 21  1  0  0  0  0
  9 10  2  0  0  0  0
 10 22  1  0  0  0  0
 10 11  1  0  0  0  0
 12 14  1  0  0  0  0
 12 13  1  0  0  0  0
 12 23  1  0  0  0  0
 13 14  1  0  0  0  0
 13 24  1  0  0  0  0
 13 25  1  0  0  0  0
 14 26  1  0  0  0  0
 14 27  1  0  0  0  0
M  END
> <s_m_source_file>
AV-unprocessed.smi

> <i_m_source_file_index>
2499

> <i_lp_mmshare_version>
43012

> <i_f3d_flags>
0

> <s_epik_input>
W0NIMl0xW0NIMl1bQ0hdMVtDQEhdKFtDSDNdKVtOSF1DKD1PKVtOSF1jMm5bY0hdW2NIXW8y

> <s_epik_cmdline>
J2VwaWtfcHl0aG9uJywgJy1waCcsICc3LjAnLCAnLXRuJywgJzgnLCAnLW1hJywgJzIwMCcsICctbWV0YWxfYmluZGluZycsICctaW1hZScsICc8aW5maWxlLm1hZT4nLCAnLW9tYWUnLCAnPG91dGZpbGUubWFlPic=

> <r_lp_tautomer_probability>
0.107061

> <r_epik_Ionization_Penalty>
1.51515

> <r_epik_Ionization_Penalty_Charging>
1.51478

> <r_epik_Ionization_Penalty_Neutral>
0.000369309

> <r_epik_State_Penalty>
2.62718

> <r_epik_Charging_Adjusted_Penalty>
4.14196

> <i_epik_Tot_Q>
0

> <i_epik_Tot_abs_Q>
0

> <r_epik_Metal_State_Penalty>
3.5378

> <b_epik_Metal_Only>
0

> <s_lp_Force_Field>
OPLS_2005

> <r_lp_Energy>
36.8038

> <b_lp_Chiralities_Consistent>
1

> <s_lp_Variant>
AV-unprocessed.smi:2499-8

> <Gold.Version>
5.8.1

> <Gold.Id.Protein>
6NUR|6NUR_protein|mol2

> <Gold.PLP.Fitness>
39.7644

> <Gold.PLP.PLP>
-28.5396

> <Gold.PLP.part.hbond>
-3.0424

> <Gold.PLP.part.metal>
0.0000

> <Gold.PLP.part.buried>
-1.8774

> <Gold.PLP.part.nonpolar>
-23.6764

> <Gold.PLP.part.repulsive>
0.5138

> <Gold.PLP.ligand.clash>
0.0000

> <Gold.PLP.ligand.torsion>
0.8703

> <Gold.PLP.Chemscore.Hbond>
1.9680

> <Gold.PLP.Chemscore.CHOScore>
2.0000

> <Gold.PLP.Chemscore.Metal>
0.0000

> <Gold.Chemscore.Hbonds>
donor molecule, donor type, donor heavy atom, donor atom, acceptor molecule, acceptor atom, score
      L1  H     3    19       P1  8028  0.98
      P1  H  7989  7998       L1     5  0.99
      L1  C     9    21       P1  7948  1.00
      L1  C    10    22       P1 10175  1.00

> <Gold.PLP.Chemscore.Internal.Correction>
1.0615

> <Gold.Rescore>
     Score         DG    S(hbond)    S(metal)    S(lipo)     H(rot)  DE(clash)    DE(int)     intcor
     13.23     -14.28       1.17        0.00      69.97       1.29       0.10       0.96       ----

> <Gold.Chemscore.Fitness>
13.2293

> <Gold.Chemscore.DG>
-14.2813

> <Gold.Chemscore.ZeroCoef>
-5.4800

> <Gold.Chemscore.Hbond>
1.1740

> <Gold.Chemscore.Metal>
0.0000

> <Gold.Chemscore.Lipo>
69.9690

> <Gold.Chemscore.Internal_Hbond>
0.0000

> <Gold.Chemscore.DEClash>
0.0955

> <Gold.Chemscore.DEInternal>
0.9565

> <Gold.Chemscore.Rot>
1.2915

> <Gold.Chemscore.Internal.Correction>
   9.000000E+99

> <Gold.Chemscore.Hbonds>
donor molecule, donor type, donor heavy atom, donor atom, acceptor molecule, acceptor atom, score
      L1  H     3    19       P1  8028  0.93
      P1  H  7989  7998       L1     5  0.23

> <Gold.Chemscore.Hbond.Weighted>
-3.9212

> <Gold.Chemscore.Metal.Weighted>
-0.0000

> <Gold.Chemscore.Lipo.Weighted>
-8.1864

> <Gold.Chemscore.Internal_Hbond.Weighted>
0.0000

> <Gold.Chemscore.DEClash.Weighted>
0.0955

> <Gold.Chemscore.DEInternal.Weighted>
0.9565

> <Gold.Chemscore.Rot.Weighted>
3.3062

> <Gold.Chemscore.Internal.Correction.Weighted>
   9.000000E+99

> <Gold.Protein.RotatedTorsions>
[ 6907 6896 6895 6894 ] final   48.04 input  -60.11 | X-H torsion
[ 7974 7965 7964 7962 ] final  -45.99 input  175.53 | X-H torsion
[ 8008 7997 7996 7995 ] final  -20.07 input   59.86 | X-H torsion
[ 10167 10162 10161 10158 ] final  -74.27 input  -65.29 | X-H torsion
[ 10718 10713 10712 10709 ] final  130.48 input   66.30 | X-H torsion
[ 10763 10752 10751 10750 ] final   59.52 input  -60.55 | X-H torsion
[ 11005 11000 10999 10996 ] final  136.86 input  -57.11 | X-H torsion

> <Gold.Protein.ActiveResidues>
 VAL166  LYS551  ARG553  GLY616  TRP617  ASP618  TYR619  PRO620  LYS621  CYS622 
 ASP623  PHE694  ASN695  SER759  ASP760  ASP761  ALA762  ILE779  LEU786  VAL792 
 PHE793  MET794  SER795  GLU796  ALA797  LYS798  CYS799  TRP800  GLU811  SER814 

> <Gold.Protein.RotatedAtoms>
  152.2750  134.7892  160.0407 H   0  0  0  0  0  0  0  0  0  0  0  0  # atno 6907 bound_to 6896
  151.8491  133.3431  159.3675 H   0  0  0  0  0  0  0  0  0  0  0  0  # atno 6908 bound_to 6896
  150.7166  134.5245  159.5714 H   0  0  0  0  0  0  0  0  0  0  0  0  # atno 6909 bound_to 6896
  145.9765  140.7329  142.9384 H   0  0  0  0  0  0  0  0  0  0  0  0  # atno 7974 bound_to 7965
  154.4794  140.2072  155.9799 H   0  0  0  0  0  0  0  0  0  0  0  0  # atno 8008 bound_to 7997
  156.1141  140.3224  155.8084 H   0  0  0  0  0  0  0  0  0  0  0  0  # atno 8009 bound_to 7997
  155.4583  140.0522  157.2984 H   0  0  0  0  0  0  0  0  0  0  0  0  # atno 8010 bound_to 7997
  140.5041  143.2356  151.7703 H   0  0  0  0  0  0  0  0  0  0  0  0  # atno 10167 bound_to 10162
  157.5058  131.1095  150.9363 H   0  0  0  0  0  0  0  0  0  0  0  0  # atno 10718 bound_to 10713
  152.9896  135.5569  154.5726 H   0  0  0  0  0  0  0  0  0  0  0  0  # atno 10763 bound_to 10752
  154.5123  135.2803  155.1334 H   0  0  0  0  0  0  0  0  0  0  0  0  # atno 10764 bound_to 10752
  154.2721  135.6361  153.5367 H   0  0  0  0  0  0  0  0  0  0  0  0  # atno 10765 bound_to 10752
  140.0075  134.9453  157.0206 H   0  0  0  0  0  0  0  0  0  0  0  0  # atno 11005 bound_to 11000
  144.6850  140.2836  143.7288 LP  0  0  0  0  0  0  0  0  0  0  0  0  # atno 17320 bound_to 7965
  145.7831  139.1899  143.2146 LP  0  0  0  0  0  0  0  0  0  0  0  0  # atno 17321 bound_to 7965
  139.4879  144.4481  151.9686 LP  0  0  0  0  0  0  0  0  0  0  0  0  # atno 17342 bound_to 10162
  140.3571  144.3018  150.5939 LP  0  0  0  0  0  0  0  0  0  0  0  0  # atno 17343 bound_to 10162
  157.0019  130.5603  149.5312 LP  0  0  0  0  0  0  0  0  0  0  0  0  # atno 17370 bound_to 10713
  156.0257  130.5351  150.8400 LP  0  0  0  0  0  0  0  0  0  0  0  0  # atno 17371 bound_to 10713
  140.4615  134.1479  155.7192 LP  0  0  0  0  0  0  0  0  0  0  0  0  # atno 17394 bound_to 11000
  141.1687  133.8652  157.1636 LP  0  0  0  0  0  0  0  0  0  0  0  0  # atno 17395 bound_to 11000

$$$$
