AV-unprocessed.smi:1941|AV-procd|sdf|7846|dock8
  -GOLD-   22720 9593D 1   1.00000     0.00000
 Structure written by MMmdl.
 40 41  0  0  0  0  0  0  0  0  1 V2000
  151.7015  144.2412  159.4254 C   0  0  0  0  0  0  0  0  0  0  0  0
  152.2269  143.0671  160.1770 C   0  0  0  0  0  0  0  0  0  0  0  0
  152.9452  142.0926  159.6141 N   0  0  0  0  0  0  0  0  0  0  0  0
  153.3020  141.0931  160.5243 C   0  0  0  0  0  0  0  0  0  0  0  0
  154.0790  139.8975  160.0550 C   0  0  0  0  0  0  0  0  0  0  0  0
  153.2272  138.6201  159.9169 C   0  0  0  0  0  0  0  0  0  0  0  0
  152.1402  138.7763  158.9527 N   0  0  0  0  0  0  0  0  0  0  0  0
  152.2840  139.1527  157.6736 C   0  0  0  0  0  0  0  0  0  0  0  0
  153.3683  139.3873  157.1397 O   0  0  0  0  0  0  0  0  0  0  0  0
  151.1001  139.2632  157.0546 N   0  0  0  0  0  0  0  0  0  0  0  0
  150.9018  139.7238  155.6822 C   0  0  1  0  0  0  0  0  0  0  0  0
  150.4736  138.5263  154.8197 C   0  0  0  0  0  0  0  0  0  0  0  0
  149.8631  140.8647  155.6601 C   0  0  2  0  0  0  0  0  0  0  0  0
  148.5254  140.5216  156.3181 C   0  0  0  0  0  0  0  0  0  0  0  0
  147.5912  141.4979  155.6421 C   0  0  0  0  0  0  0  0  0  0  0  0
  148.1285  141.5024  154.2153 C   0  0  0  0  0  0  0  0  0  0  0  0
  149.5197  141.2129  154.3194 O   0  0  0  0  0  0  0  0  0  0  0  0
  152.8590  141.3397  161.8003 C   0  0  0  0  0  0  0  0  0  0  0  0
  151.9631  142.8297  161.8997 S   0  0  0  0  0  0  0  0  0  0  0  0
  151.7065  144.0422  158.3534 H   0  0  0  0  0  0  0  0  0  0  0  0
  152.3199  145.1167  159.6231 H   0  0  0  0  0  0  0  0  0  0  0  0
  150.6782  144.4550  159.7349 H   0  0  0  0  0  0  0  0  0  0  0  0
  154.5471  140.1168  159.0946 H   0  0  0  0  0  0  0  0  0  0  0  0
  154.9022  139.7013  160.7430 H   0  0  0  0  0  0  0  0  0  0  0  0
  153.8620  137.7742  159.6475 H   0  0  0  0  0  0  0  0  0  0  0  0
  152.7867  138.3711  160.8825 H   0  0  0  0  0  0  0  0  0  0  0  0
  151.2049  138.6107  159.2945 H   0  0  0  0  0  0  0  0  0  0  0  0
  150.2678  139.0512  157.5844 H   0  0  0  0  0  0  0  0  0  0  0  0
  151.8445  140.0997  155.2800 H   0  0  0  0  0  0  0  0  0  0  0  0
  150.3727  138.8069  153.7712 H   0  0  0  0  0  0  0  0  0  0  0  0
  149.5165  138.1206  155.1493 H   0  0  0  0  0  0  0  0  0  0  0  0
  151.2110  137.7246  154.8694 H   0  0  0  0  0  0  0  0  0  0  0  0
  150.2737  141.7572  156.1356 H   0  0  0  0  0  0  0  0  0  0  0  0
  148.2296  139.4985  156.0811 H   0  0  0  0  0  0  0  0  0  0  0  0
  148.5424  140.6317  157.4025 H   0  0  0  0  0  0  0  0  0  0  0  0
  146.5425  141.2054  155.7029 H   0  0  0  0  0  0  0  0  0  0  0  0
  147.6983  142.4878  156.0879 H   0  0  0  0  0  0  0  0  0  0  0  0
  147.6568  140.7162  153.6250 H   0  0  0  0  0  0  0  0  0  0  0  0
  147.9564  142.4536  153.7113 H   0  0  0  0  0  0  0  0  0  0  0  0
  152.9938  140.7306  162.6818 H   0  0  0  0  0  0  0  0  0  0  0  0
  1  2  1  0  0  0  0
  1 20  1  0  0  0  0
  1 21  1  0  0  0  0
  1 22  1  0  0  0  0
  2 19  1  0  0  0  0
  2  3  2  0  0  0  0
  3  4  1  0  0  0  0
  4  5  1  0  0  0  0
  4 18  2  0  0  0  0
  5  6  1  0  0  0  0
  5 23  1  0  0  0  0
  5 24  1  0  0  0  0
  6  7  1  0  0  0  0
  6 25  1  0  0  0  0
  6 26  1  0  0  0  0
  7  8  1  0  0  0  0
  7 27  1  0  0  0  0
  8  9  2  0  0  0  0
  8 10  1  0  0  0  0
 10 11  1  0  0  0  0
 10 28  1  0  0  0  0
 11 12  1  0  0  0  0
 11 13  1  0  0  0  0
 11 29  1  0  0  0  0
 12 30  1  0  0  0  0
 12 31  1  0  0  0  0
 12 32  1  0  0  0  0
 13 17  1  0  0  0  0
 13 14  1  0  0  0  0
 13 33  1  0  0  0  0
 14 15  1  0  0  0  0
 14 34  1  0  0  0  0
 14 35  1  0  0  0  0
 15 16  1  0  0  0  0
 15 36  1  0  0  0  0
 15 37  1  0  0  0  0
 16 17  1  0  0  0  0
 16 38  1  0  0  0  0
 16 39  1  0  0  0  0
 18 19  1  0  0  0  0
 18 40  1  0  0  0  0
M  END
> <s_m_source_file>
AV-unprocessed.smi

> <i_m_source_file_index>
1941

> <i_lp_mmshare_version>
43012

> <i_f3d_flags>
0

> <s_epik_input>
W0NIM11jMW5jKFtjSF1zMSlbQ0gyXVtDSDJdW05IXUMoPU8pW05IXVtDQEhdKFtDSDNdKVtDQEBIXTJbQ0gyXVtDSDJdW0NIMl1PMg==

> <s_epik_cmdline>
J2VwaWtfcHl0aG9uJywgJy1waCcsICc3LjAnLCAnLXRuJywgJzgnLCAnLW1hJywgJzIwMCcsICctbWV0YWxfYmluZGluZycsICctaW1hZScsICc8aW5maWxlLm1hZT4nLCAnLW9tYWUnLCAnPG91dGZpbGUubWFlPic=

> <r_epik_Ionization_Penalty>
0.00195486

> <r_epik_Ionization_Penalty_Charging>
0

> <r_epik_Ionization_Penalty_Neutral>
0.00195486

> <r_epik_State_Penalty>
0.00129472

> <r_epik_Charging_Adjusted_Penalty>
0.00129472

> <i_epik_Tot_Q>
0

> <i_epik_Tot_abs_Q>
0

> <r_epik_Metal_State_Penalty>
-0

> <b_epik_Metal_Only>
0

> <s_lp_Force_Field>
OPLS_2005

> <r_lp_Energy>
10.9889

> <b_lp_Chiralities_Consistent>
1

> <s_lp_Variant>
AV-unprocessed.smi:1941-2

> <Gold.Version>
5.8.1

> <Gold.Id.Protein>
6NUR|6NUR_protein|mol2

> <Gold.PLP.Fitness>
42.9726

> <Gold.PLP.PLP>
-40.1641

> <Gold.PLP.part.hbond>
-2.2783

> <Gold.PLP.part.metal>
0.0000

> <Gold.PLP.part.buried>
-3.5171

> <Gold.PLP.part.nonpolar>
-34.8784

> <Gold.PLP.part.repulsive>
0.4456

> <Gold.PLP.ligand.clash>
0.0000

> <Gold.PLP.ligand.torsion>
0.3405

> <Gold.PLP.Chemscore.Hbond>
1.1558

> <Gold.PLP.Chemscore.CHOScore>
0.0000

> <Gold.PLP.Chemscore.Metal>
0.0000

> <Gold.Chemscore.Hbonds>
donor molecule, donor type, donor heavy atom, donor atom, acceptor molecule, acceptor atom, score
      P1  H  7989  7998       L1    17  0.14
      P1  H  7997  8009       L1     9  0.62
      P1  H  8011  8017       L1    17  0.06

> <Gold.PLP.Chemscore.Internal.Correction>
0.0221

> <Gold.Rescore>
     Score         DG    S(hbond)    S(metal)    S(lipo)     H(rot)  DE(clash)    DE(int)     intcor
     18.16     -18.82       1.74        0.00     101.46       1.69       0.18       0.48       ----

> <Gold.Chemscore.Fitness>
18.1644

> <Gold.Chemscore.DG>
-18.8169

> <Gold.Chemscore.ZeroCoef>
-5.4800

> <Gold.Chemscore.Hbond>
1.7360

> <Gold.Chemscore.Metal>
0.0000

> <Gold.Chemscore.Lipo>
101.4607

> <Gold.Chemscore.Internal_Hbond>
0.0000

> <Gold.Chemscore.DEClash>
0.1770

> <Gold.Chemscore.DEInternal>
0.4755

> <Gold.Chemscore.Rot>
1.6923

> <Gold.Chemscore.Internal.Correction>
   9.000000E+99

> <Gold.Chemscore.Hbonds>
donor molecule, donor type, donor heavy atom, donor atom, acceptor molecule, acceptor atom, score
      P1  H  7989  7998       L1    17  0.02
      P1  H  7997  8009       L1     9  0.60

> <Gold.Chemscore.Hbond.Weighted>
-5.7983

> <Gold.Chemscore.Metal.Weighted>
-0.0000

> <Gold.Chemscore.Lipo.Weighted>
-11.8709

> <Gold.Chemscore.Internal_Hbond.Weighted>
0.0000

> <Gold.Chemscore.DEClash.Weighted>
0.1770

> <Gold.Chemscore.DEInternal.Weighted>
0.4755

> <Gold.Chemscore.Rot.Weighted>
4.3323

> <Gold.Chemscore.Internal.Correction.Weighted>
   9.000000E+99

> <Gold.Protein.RotatedTorsions>
[ 6907 6896 6895 6894 ] final -104.69 input  -60.11 | X-H torsion
[ 7974 7965 7964 7962 ] final   11.58 input  175.53 | X-H torsion
[ 8008 7997 7996 7995 ] final -168.95 input   59.86 | X-H torsion
[ 10167 10162 10161 10158 ] final  -37.86 input  -65.29 | X-H torsion
[ 10718 10713 10712 10709 ] final -175.13 input   66.30 | X-H torsion
[ 10763 10752 10751 10750 ] final  -33.27 input  -60.55 | X-H torsion
[ 11005 11000 10999 10996 ] final   81.37 input  -57.11 | X-H torsion

> <Gold.Protein.ActiveResidues>
 VAL166  LYS551  ARG553  GLY616  TRP617  ASP618  TYR619  PRO620  LYS621  CYS622 
 ASP623  PHE694  ASN695  SER759  ASP760  ASP761  ALA762  ILE779  LEU786  VAL792 
 PHE793  MET794  SER795  GLU796  ALA797  LYS798  CYS799  TRP800  GLU811  SER814 

> <Gold.Protein.RotatedAtoms>
  150.7300  134.0239  159.3710 H   0  0  0  0  0  0  0  0  0  0  0  0  # atno 6907 bound_to 6896
  151.8205  135.0651  160.0434 H   0  0  0  0  0  0  0  0  0  0  0  0  # atno 6908 bound_to 6896
  152.3007  133.5616  159.5653 H   0  0  0  0  0  0  0  0  0  0  0  0  # atno 6909 bound_to 6896
  146.2368  139.9464  142.8476 H   0  0  0  0  0  0  0  0  0  0  0  0  # atno 7974 bound_to 7965
  155.8984  140.1037  157.1368 H   0  0  0  0  0  0  0  0  0  0  0  0  # atno 8008 bound_to 7997
  154.4023  140.1297  156.4469 H   0  0  0  0  0  0  0  0  0  0  0  0  # atno 8009 bound_to 7997
  155.7452  140.3466  155.5125 H   0  0  0  0  0  0  0  0  0  0  0  0  # atno 8010 bound_to 7997
  140.7107  143.3314  151.2560 H   0  0  0  0  0  0  0  0  0  0  0  0  # atno 10167 bound_to 10162
  156.7954  130.9533  151.3119 H   0  0  0  0  0  0  0  0  0  0  0  0  # atno 10718 bound_to 10713
  153.8274  135.6869  153.4819 H   0  0  0  0  0  0  0  0  0  0  0  0  # atno 10763 bound_to 10752
  153.1532  135.4610  154.9664 H   0  0  0  0  0  0  0  0  0  0  0  0  # atno 10764 bound_to 10752
  154.7901  135.3299  154.7741 H   0  0  0  0  0  0  0  0  0  0  0  0  # atno 10765 bound_to 10752
  139.9100  134.7992  156.2033 H   0  0  0  0  0  0  0  0  0  0  0  0  # atno 11005 bound_to 11000
  145.1904  140.9809  143.4214 LP  0  0  0  0  0  0  0  0  0  0  0  0  # atno 17320 bound_to 7965
  144.9863  139.3734  143.6237 LP  0  0  0  0  0  0  0  0  0  0  0  0  # atno 17321 bound_to 7965
  139.6798  143.9875  152.2802 LP  0  0  0  0  0  0  0  0  0  0  0  0  # atno 17342 bound_to 10162
  139.9501  144.6626  150.8180 LP  0  0  0  0  0  0  0  0  0  0  0  0  # atno 17343 bound_to 10162
  157.6580  130.8941  149.9770 LP  0  0  0  0  0  0  0  0  0  0  0  0  # atno 17370 bound_to 10713
  156.1134  130.3649  150.0010 LP  0  0  0  0  0  0  0  0  0  0  0  0  # atno 17371 bound_to 10713
  141.0511  133.6888  156.1774 LP  0  0  0  0  0  0  0  0  0  0  0  0  # atno 17394 bound_to 11000
  140.6808  134.4769  157.5589 LP  0  0  0  0  0  0  0  0  0  0  0  0  # atno 17395 bound_to 11000

$$$$
