AV-unprocessed.smi:2010|AV-procd|sdf|8150|dock3
  -GOLD-   2272010393D 1   1.00000     0.00000
 Structure written by MMmdl.
 41 42  0  0  0  0  0  0  0  0  1 V2000
  152.1128  144.8559  159.9753 C   0  0  0  0  0  0  0  0  0  0  0  0
  151.6120  143.5990  159.2502 C   0  0  0  0  0  0  0  0  0  0  0  0
  152.5276  142.3931  159.5016 C   0  0  0  0  0  0  0  0  0  0  0  0
  152.0187  141.1350  158.7785 C   0  0  0  0  0  0  0  0  0  0  0  0
  151.8232  141.3789  157.3354 N   0  0  0  0  0  0  0  0  0  0  0  0
  151.6898  140.0014  156.2917 S   0  0  0  0  0  0  0  0  0  0  0  0
  150.8916  140.3690  155.1120 O   0  0  0  0  0  0  0  0  0  0  0  0
  153.0101  139.3692  156.1481 O   0  0  0  0  0  0  0  0  0  0  0  0
  150.7206  139.0004  157.3035 N   0  0  0  0  0  0  0  0  0  0  0  0
  150.2556  137.7033  156.8082 C   0  0  1  0  0  0  0  0  0  0  0  0
  149.3011  137.9194  155.6241 C   0  0  0  0  0  0  0  0  0  0  0  0
  151.4662  136.7989  156.4949 C   0  0  0  0  0  0  0  0  0  0  0  0
  151.0959  135.4688  156.0388 N   0  0  0  0  0  0  0  0  0  0  0  0
  150.3571  135.1218  154.9270 C   0  0  0  0  0  0  0  0  0  0  0  0
  150.2644  133.7598  154.9083 C   0  0  0  0  0  0  0  0  0  0  0  0
  150.9931  133.3563  156.0619 C   0  0  0  0  0  0  0  0  0  0  0  0
  151.4911  134.3807  156.7355 N   0  0  0  0  0  0  0  0  0  0  0  0
  150.9976  142.5608  157.0161 C   0  0  0  0  0  0  0  0  0  0  0  0
  151.5082  143.8197  157.7351 C   0  0  0  0  0  0  0  0  0  0  0  0
  153.1077  145.1418  159.6321 H   0  0  0  0  0  0  0  0  0  0  0  0
  152.1654  144.6924  161.0520 H   0  0  0  0  0  0  0  0  0  0  0  0
  151.4452  145.7004  159.8025 H   0  0  0  0  0  0  0  0  0  0  0  0
  150.6182  143.3641  159.6339 H   0  0  0  0  0  0  0  0  0  0  0  0
  153.5398  142.6206  159.1641 H   0  0  0  0  0  0  0  0  0  0  0  0
  152.5982  142.1938  160.5713 H   0  0  0  0  0  0  0  0  0  0  0  0
  152.7331  140.3243  158.9211 H   0  0  0  0  0  0  0  0  0  0  0  0
  151.0746  140.8052  159.2134 H   0  0  0  0  0  0  0  0  0  0  0  0
  151.0608  138.9655  158.2640 H   0  0  0  0  0  0  0  0  0  0  0  0
  149.6891  137.2200  157.6053 H   0  0  0  0  0  0  0  0  0  0  0  0
  148.9441  136.9664  155.2330 H   0  0  0  0  0  0  0  0  0  0  0  0
  149.7841  138.4550  154.8065 H   0  0  0  0  0  0  0  0  0  0  0  0
  148.4286  138.4984  155.9278 H   0  0  0  0  0  0  0  0  0  0  0  0
  152.0938  137.2611  155.7316 H   0  0  0  0  0  0  0  0  0  0  0  0
  152.0920  136.6999  157.3832 H   0  0  0  0  0  0  0  0  0  0  0  0
  149.9608  135.8662  154.2522 H   0  0  0  0  0  0  0  0  0  0  0  0
  149.7550  133.1454  154.1810 H   0  0  0  0  0  0  0  0  0  0  0  0
  151.1746  132.3562  156.4272 H   0  0  0  0  0  0  0  0  0  0  0  0
  151.0019  142.7337  155.9399 H   0  0  0  0  0  0  0  0  0  0  0  0
  149.9639  142.3577  157.2990 H   0  0  0  0  0  0  0  0  0  0  0  0
  150.8402  144.6552  157.5233 H   0  0  0  0  0  0  0  0  0  0  0  0
  152.4840  144.0966  157.3332 H   0  0  0  0  0  0  0  0  0  0  0  0
  1  2  1  0  0  0  0
  1 20  1  0  0  0  0
  1 21  1  0  0  0  0
  1 22  1  0  0  0  0
  2 19  1  0  0  0  0
  2  3  1  0  0  0  0
  2 23  1  0  0  0  0
  3  4  1  0  0  0  0
  3 24  1  0  0  0  0
  3 25  1  0  0  0  0
  4  5  1  0  0  0  0
  4 26  1  0  0  0  0
  4 27  1  0  0  0  0
  5  6  1  0  0  0  0
  5 18  1  0  0  0  0
  6  7  2  0  0  0  0
  6  8  2  0  0  0  0
  6  9  1  0  0  0  0
  9 10  1  0  0  0  0
  9 28  1  0  0  0  0
 10 11  1  0  0  0  0
 10 12  1  0  0  0  0
 10 29  1  0  0  0  0
 11 30  1  0  0  0  0
 11 31  1  0  0  0  0
 11 32  1  0  0  0  0
 12 13  1  0  0  0  0
 12 33  1  0  0  0  0
 12 34  1  0  0  0  0
 13 17  1  0  0  0  0
 13 14  1  0  0  0  0
 14 15  2  0  0  0  0
 14 35  1  0  0  0  0
 15 16  1  0  0  0  0
 15 36  1  0  0  0  0
 16 17  2  0  0  0  0
 16 37  1  0  0  0  0
 18 19  1  0  0  0  0
 18 38  1  0  0  0  0
 18 39  1  0  0  0  0
 19 40  1  0  0  0  0
 19 41  1  0  0  0  0
M  END
> <s_m_source_file>
AV-unprocessed.smi

> <i_m_source_file_index>
2010

> <i_lp_mmshare_version>
43012

> <i_f3d_flags>
0

> <s_epik_input>
W0NIM11bQ0hdMVtDSDJdW0NIMl1OKFtDSDJdW0NIMl0xKVMoPU8pKD1PKVtOSF1bQ0BIXShbQ0gzXSlbQ0gyXW4yW2NIXVtjSF1bY0hdbjI=

> <s_epik_cmdline>
J2VwaWtfcHl0aG9uJywgJy1waCcsICc3LjAnLCAnLXRuJywgJzgnLCAnLW1hJywgJzIwMCcsICctbWV0YWxfYmluZGluZycsICctaW1hZScsICc8aW5maWxlLm1hZT4nLCAnLW9tYWUnLCAnPG91dGZpbGUubWFlPic=

> <r_lp_tautomer_probability>
1

> <r_epik_Ionization_Penalty>
0.0313937

> <r_epik_Ionization_Penalty_Charging>
0

> <r_epik_Ionization_Penalty_Neutral>
0.0313937

> <r_epik_State_Penalty>
0.0259441

> <r_epik_Charging_Adjusted_Penalty>
0.0259441

> <i_epik_Tot_Q>
0

> <i_epik_Tot_abs_Q>
0

> <r_epik_Metal_State_Penalty>
0.365037

> <b_epik_Metal_Only>
0

> <s_lp_Force_Field>
OPLS_2005

> <r_lp_Energy>
7.16397

> <b_lp_Chiralities_Consistent>
1

> <s_lp_Variant>
AV-unprocessed.smi:2010-2

> <Gold.Version>
5.8.1

> <Gold.Id.Protein>
6NUR|6NUR_protein|mol2

> <Gold.PLP.Fitness>
44.2461

> <Gold.PLP.PLP>
-35.4042

> <Gold.PLP.part.hbond>
-2.6932

> <Gold.PLP.part.metal>
0.0000

> <Gold.PLP.part.buried>
-5.9360

> <Gold.PLP.part.nonpolar>
-26.8954

> <Gold.PLP.part.repulsive>
0.0497

> <Gold.PLP.ligand.clash>
0.0000

> <Gold.PLP.ligand.torsion>
1.1375

> <Gold.PLP.Chemscore.Hbond>
2.0000

> <Gold.PLP.Chemscore.CHOScore>
1.0000

> <Gold.PLP.Chemscore.Metal>
0.0000

> <Gold.Chemscore.Hbonds>
donor molecule, donor type, donor heavy atom, donor atom, acceptor molecule, acceptor atom, score
      P1  H  7989  7998       L1     7  1.00
      P1  H  7997  8010       L1     8  1.00
      L1  C    14    35       P1  7948  0.81

> <Gold.PLP.Chemscore.Internal.Correction>
2.1168

> <Gold.Rescore>
     Score         DG    S(hbond)    S(metal)    S(lipo)     H(rot)  DE(clash)    DE(int)     intcor
     17.43     -20.08       2.69        0.00      82.75       1.59       0.00       2.65       ----

> <Gold.Chemscore.Fitness>
17.4308

> <Gold.Chemscore.DG>
-20.0798

> <Gold.Chemscore.ZeroCoef>
-5.4800

> <Gold.Chemscore.Hbond>
2.6911

> <Gold.Chemscore.Metal>
0.0000

> <Gold.Chemscore.Lipo>
82.7545

> <Gold.Chemscore.Internal_Hbond>
0.0000

> <Gold.Chemscore.DEClash>
0.0000

> <Gold.Chemscore.DEInternal>
2.6490

> <Gold.Chemscore.Rot>
1.5901

> <Gold.Chemscore.Internal.Correction>
   9.000000E+99

> <Gold.Chemscore.Hbonds>
donor molecule, donor type, donor heavy atom, donor atom, acceptor molecule, acceptor atom, score
      P1  H  7989  7998       L1     7  0.97
      P1  H  7997  8010       L1     8  0.95

> <Gold.Chemscore.Hbond.Weighted>
-8.9882

> <Gold.Chemscore.Metal.Weighted>
-0.0000

> <Gold.Chemscore.Lipo.Weighted>
-9.6823

> <Gold.Chemscore.Internal_Hbond.Weighted>
0.0000

> <Gold.Chemscore.DEClash.Weighted>
0.0000

> <Gold.Chemscore.DEInternal.Weighted>
2.6490

> <Gold.Chemscore.Rot.Weighted>
4.0707

> <Gold.Chemscore.Internal.Correction.Weighted>
   9.000000E+99

> <Gold.Protein.RotatedTorsions>
[ 6907 6896 6895 6894 ] final   12.00 input  -60.11 | X-H torsion
[ 7974 7965 7964 7962 ] final  136.16 input  175.53 | X-H torsion
[ 8008 7997 7996 7995 ] final   88.68 input   59.86 | X-H torsion
[ 10167 10162 10161 10158 ] final  162.60 input  -65.29 | X-H torsion
[ 10718 10713 10712 10709 ] final  -17.96 input   66.30 | X-H torsion
[ 10763 10752 10751 10750 ] final  -41.48 input  -60.55 | X-H torsion
[ 11005 11000 10999 10996 ] final  171.07 input  -57.11 | X-H torsion

> <Gold.Protein.ActiveResidues>
 VAL166  LYS551  ARG553  GLY616  TRP617  ASP618  TYR619  PRO620  LYS621  CYS622 
 ASP623  PHE694  ASN695  SER759  ASP760  ASP761  ALA762  ILE779  LEU786  VAL792 
 PHE793  MET794  SER795  GLU796  ALA797  LYS798  CYS799  TRP800  GLU811  SER814 

> <Gold.Protein.RotatedAtoms>
  151.7633  135.0804  160.0348 H   0  0  0  0  0  0  0  0  0  0  0  0  # atno 6907 bound_to 6896
  152.3338  133.5984  159.5836 H   0  0  0  0  0  0  0  0  0  0  0  0  # atno 6908 bound_to 6896
  150.7438  133.9743  159.3597 H   0  0  0  0  0  0  0  0  0  0  0  0  # atno 6909 bound_to 6896
  144.9592  139.4729  143.5487 H   0  0  0  0  0  0  0  0  0  0  0  0  # atno 7974 bound_to 7965
  155.9907  140.3369  155.6750 H   0  0  0  0  0  0  0  0  0  0  0  0  # atno 8008 bound_to 7997
  155.6424  140.0696  157.2632 H   0  0  0  0  0  0  0  0  0  0  0  0  # atno 8009 bound_to 7997
  154.4218  140.1740  156.1575 H   0  0  0  0  0  0  0  0  0  0  0  0  # atno 8010 bound_to 7997
  139.4863  144.4421  151.8939 H   0  0  0  0  0  0  0  0  0  0  0  0  # atno 10167 bound_to 10162
  156.5663  130.4738  149.6383 H   0  0  0  0  0  0  0  0  0  0  0  0  # atno 10718 bound_to 10713
  153.9632  135.6737  153.4745 H   0  0  0  0  0  0  0  0  0  0  0  0  # atno 10763 bound_to 10752
  153.0828  135.4914  154.8534 H   0  0  0  0  0  0  0  0  0  0  0  0  # atno 10764 bound_to 10752
  154.7261  135.3127  154.8929 H   0  0  0  0  0  0  0  0  0  0  0  0  # atno 10765 bound_to 10752
  140.3150  134.7485  157.4021 H   0  0  0  0  0  0  0  0  0  0  0  0  # atno 11005 bound_to 11000
  146.3347  139.8731  142.8836 LP  0  0  0  0  0  0  0  0  0  0  0  0  # atno 17320 bound_to 7965
  145.2725  141.0113  143.3764 LP  0  0  0  0  0  0  0  0  0  0  0  0  # atno 17321 bound_to 7965
  140.3873  144.2660  150.5903 LP  0  0  0  0  0  0  0  0  0  0  0  0  # atno 17342 bound_to 10162
  140.5178  143.2273  151.8435 LP  0  0  0  0  0  0  0  0  0  0  0  0  # atno 17343 bound_to 10162
  156.2754  130.7041  151.1850 LP  0  0  0  0  0  0  0  0  0  0  0  0  # atno 17370 bound_to 10713
  157.7358  131.0569  150.5450 LP  0  0  0  0  0  0  0  0  0  0  0  0  # atno 17371 bound_to 10713
  140.0991  134.5497  155.8370 LP  0  0  0  0  0  0  0  0  0  0  0  0  # atno 17394 bound_to 11000
  141.2099  133.6689  156.6475 LP  0  0  0  0  0  0  0  0  0  0  0  0  # atno 17395 bound_to 11000

$$$$
