AV-unprocessed.smi:1525|AV-procd|sdf|6144|dock10
  -GOLD-   22720 6293D 1   1.00000     0.00000
 Structure written by MMmdl.
 50 52  0  0  0  0  0  0  0  0  3 V2000
  149.9267  133.6096  155.3894 O   0  0  0  0  0  0  0  0  0  0  0  0
  149.4383  134.2846  154.4835 C   0  0  0  0  0  0  0  0  0  0  0  0
  149.6520  135.6009  154.3461 N   0  0  0  0  0  0  0  0  0  0  0  0
  150.4808  136.4075  155.2348 C   0  0  0  0  0  0  0  0  0  0  0  0
  150.5331  137.8787  154.7788 C   0  0  0  0  0  0  0  0  0  0  0  0
  150.6674  138.8240  155.9154 N   0  3  0  0  0  0  0  0  0  0  0  0
  151.8789  138.5957  156.7422 C   0  0  0  0  0  0  0  0  0  0  0  0
  151.9281  139.5935  157.9121 C   0  0  0  0  0  0  0  0  0  0  0  0
  151.8881  140.9233  157.4100 O   0  0  0  0  0  0  0  0  0  0  0  0
  150.6891  141.1833  156.6913 C   0  0  0  0  0  0  0  0  0  0  0  0
  150.6006  140.2399  155.4799 C   0  0  0  0  0  0  0  0  0  0  0  0
  148.6470  133.8116  153.5059 N   0  0  0  0  0  0  0  0  0  0  0  0
  148.2203  132.4689  153.2962 C   0  0  0  0  0  0  0  0  0  0  0  0
  148.9481  131.3623  153.8044 C   0  0  0  0  0  0  0  0  0  0  0  0
  148.4637  130.0549  153.6077 C   0  0  0  0  0  0  0  0  0  0  0  0
  147.2541  129.8728  152.9145 C   0  0  0  0  0  0  0  0  0  0  0  0
  146.5776  130.9466  152.4567 N   0  3  0  0  0  0  0  0  0  0  0  0
  146.9938  132.2271  152.6179 C   0  0  0  0  0  0  0  0  0  0  0  0
  146.2130  133.2707  152.0767 N   0  0  0  0  0  0  0  0  0  0  0  0
  146.1125  133.2520  150.6196 C   0  0  0  0  0  0  0  0  0  0  0  0
  144.7037  133.7407  150.2768 C   0  0  0  0  0  0  0  0  0  0  0  0
  143.8950  133.3532  151.5085 C   0  0  0  0  0  0  0  0  0  0  0  0
  144.8969  133.5654  152.6419 C   0  0  0  0  0  0  0  0  0  0  0  0
  149.2163  136.0791  153.5709 H   0  0  0  0  0  0  0  0  0  0  0  0
  150.1103  136.3363  156.2591 H   0  0  0  0  0  0  0  0  0  0  0  0
  151.4766  135.9653  155.2334 H   0  0  0  0  0  0  0  0  0  0  0  0
  151.3472  138.0353  154.0692 H   0  0  0  0  0  0  0  0  0  0  0  0
  149.6099  138.1077  154.2442 H   0  0  0  0  0  0  0  0  0  0  0  0
  151.8862  137.5818  157.1400 H   0  0  0  0  0  0  0  0  0  0  0  0
  152.7712  138.7040  156.1235 H   0  0  0  0  0  0  0  0  0  0  0  0
  151.0993  139.4265  158.6019 H   0  0  0  0  0  0  0  0  0  0  0  0
  152.8480  139.4587  158.4816 H   0  0  0  0  0  0  0  0  0  0  0  0
  149.8239  141.0617  157.3450 H   0  0  0  0  0  0  0  0  0  0  0  0
  150.6939  142.2218  156.3595 H   0  0  0  0  0  0  0  0  0  0  0  0
  151.4153  140.4479  154.7843 H   0  0  0  0  0  0  0  0  0  0  0  0
  149.6675  140.4209  154.9447 H   0  0  0  0  0  0  0  0  0  0  0  0
  148.3973  134.4658  152.7786 H   0  0  0  0  0  0  0  0  0  0  0  0
  149.8643  131.4944  154.3593 H   0  0  0  0  0  0  0  0  0  0  0  0
  149.0100  129.2048  153.9898 H   0  0  0  0  0  0  0  0  0  0  0  0
  146.8076  128.9090  152.7172 H   0  0  0  0  0  0  0  0  0  0  0  0
  146.8717  133.8862  150.1618 H   0  0  0  0  0  0  0  0  0  0  0  0
  146.2560  132.2362  150.2470 H   0  0  0  0  0  0  0  0  0  0  0  0
  144.7043  134.8258  150.1643 H   0  0  0  0  0  0  0  0  0  0  0  0
  144.3157  133.3064  149.3550 H   0  0  0  0  0  0  0  0  0  0  0  0
  142.9864  133.9439  151.6279 H   0  0  0  0  0  0  0  0  0  0  0  0
  143.6123  132.3011  151.4521 H   0  0  0  0  0  0  0  0  0  0  0  0
  144.6360  132.9814  153.5240 H   0  0  0  0  0  0  0  0  0  0  0  0
  144.8954  134.6125  152.9461 H   0  0  0  0  0  0  0  0  0  0  0  0
  149.8674  138.6745  156.5135 H   0  0  0  0  0  0  0  0  0  0  0  0
  145.7031  130.7843  151.9569 H   0  0  0  0  0  0  0  0  0  0  0  0
  1  2  2  0  0  0  0
  2  3  1  0  0  0  0
  2 12  1  0  0  0  0
  3  4  1  0  0  0  0
  3 24  1  0  0  0  0
  4  5  1  0  0  0  0
  4 25  1  0  0  0  0
  4 26  1  0  0  0  0
  5  6  1  0  0  0  0
  5 27  1  0  0  0  0
  5 28  1  0  0  0  0
  6 11  1  0  0  0  0
  6  7  1  0  0  0  0
  6 49  1  0  0  0  0
  7  8  1  0  0  0  0
  7 29  1  0  0  0  0
  7 30  1  0  0  0  0
  8  9  1  0  0  0  0
  8 31  1  0  0  0  0
  8 32  1  0  0  0  0
  9 10  1  0  0  0  0
 10 11  1  0  0  0  0
 10 33  1  0  0  0  0
 10 34  1  0  0  0  0
 11 35  1  0  0  0  0
 11 36  1  0  0  0  0
 12 13  1  0  0  0  0
 12 37  1  0  0  0  0
 13 18  1  0  0  0  0
 13 14  2  0  0  0  0
 14 15  1  0  0  0  0
 14 38  1  0  0  0  0
 15 16  2  0  0  0  0
 15 39  1  0  0  0  0
 16 17  1  0  0  0  0
 16 40  1  0  0  0  0
 17 18  2  0  0  0  0
 17 50  1  0  0  0  0
 18 19  1  0  0  0  0
 19 23  1  0  0  0  0
 19 20  1  0  0  0  0
 20 21  1  0  0  0  0
 20 41  1  0  0  0  0
 20 42  1  0  0  0  0
 21 22  1  0  0  0  0
 21 43  1  0  0  0  0
 21 44  1  0  0  0  0
 22 23  1  0  0  0  0
 22 45  1  0  0  0  0
 22 46  1  0  0  0  0
 23 47  1  0  0  0  0
 23 48  1  0  0  0  0
M  CHG  1   6   1
M  CHG  1  17   1
M  END
> <s_m_source_file>
AV-unprocessed.smi

> <i_m_source_file_index>
1525

> <i_lp_mmshare_version>
43012

> <i_f3d_flags>
0

> <s_epik_input>
W0NIMl0xW0NIMl1PW0NIMl1bQ0gyXU4xW0NIMl1bQ0gyXVtOSF1DKD1PKVtOSF1jMltjSF1bY0hdW2NIXW5jMk4zW0NIMl1bQ0gyXVtDSDJdW0NIMl0z

> <s_epik_cmdline>
J2VwaWtfcHl0aG9uJywgJy1waCcsICc3LjAnLCAnLXRuJywgJzgnLCAnLW1hJywgJzIwMCcsICctbWV0YWxfYmluZGluZycsICctaW1hZScsICc8aW5maWxlLm1hZT4nLCAnLW9tYWUnLCAnPG91dGZpbGUubWFlPic=

> <r_lp_tautomer_probability>
0.999994

> <r_epik_Ionization_Penalty>
1.81601

> <r_epik_Ionization_Penalty_Charging>
1.81599

> <r_epik_Ionization_Penalty_Neutral>
2.02981e-05

> <r_epik_State_Penalty>
1.85672

> <r_epik_Charging_Adjusted_Penalty>
3.6727

> <i_epik_Tot_Q>
2

> <i_epik_Tot_abs_Q>
2

> <r_epik_Metal_State_Penalty>
1.93796

> <b_epik_Metal_Only>
0

> <s_lp_Force_Field>
OPLS_2005

> <r_lp_Energy>
52.6706

> <b_lp_Chiralities_Consistent>
1

> <s_lp_Variant>
AV-unprocessed.smi:1525-4

> <Gold.Version>
5.8.1

> <Gold.Id.Protein>
6NUR|6NUR_protein|mol2

> <Gold.PLP.Fitness>
40.1956

> <Gold.PLP.PLP>
-35.3759

> <Gold.PLP.part.hbond>
-2.6448

> <Gold.PLP.part.metal>
0.0000

> <Gold.PLP.part.buried>
-2.9993

> <Gold.PLP.part.nonpolar>
-29.2742

> <Gold.PLP.part.repulsive>
0.2429

> <Gold.PLP.ligand.clash>
0.0000

> <Gold.PLP.ligand.torsion>
0.4278

> <Gold.PLP.Chemscore.Hbond>
1.8280

> <Gold.PLP.Chemscore.CHOScore>
0.0000

> <Gold.PLP.Chemscore.Metal>
0.0000

> <Gold.Chemscore.Hbonds>
donor molecule, donor type, donor heavy atom, donor atom, acceptor molecule, acceptor atom, score
      L1  H     3    24       P1  7948  0.96
      L1  H    12    37       P1  7948  0.84

> <Gold.PLP.Chemscore.Internal.Correction>
0.1914

> <Gold.Rescore>
     Score         DG    S(hbond)    S(metal)    S(lipo)     H(rot)  DE(clash)    DE(int)     intcor
     13.15     -14.83       1.35        0.00      78.52       1.70       0.03       1.64       ----

> <Gold.Chemscore.Fitness>
13.1522

> <Gold.Chemscore.DG>
-14.8316

> <Gold.Chemscore.ZeroCoef>
-5.4800

> <Gold.Chemscore.Hbond>
1.3487

> <Gold.Chemscore.Metal>
0.0000

> <Gold.Chemscore.Lipo>
78.5183

> <Gold.Chemscore.Internal_Hbond>
0.0000

> <Gold.Chemscore.DEClash>
0.0346

> <Gold.Chemscore.DEInternal>
1.6449

> <Gold.Chemscore.Rot>
1.6952

> <Gold.Chemscore.Internal.Correction>
   9.000000E+99

> <Gold.Chemscore.Hbonds>
donor molecule, donor type, donor heavy atom, donor atom, acceptor molecule, acceptor atom, score
      L1  H     3    24       P1  7948  0.79
      L1  H    12    37       P1  7948  0.18

> <Gold.Chemscore.Hbond.Weighted>
-4.5046

> <Gold.Chemscore.Metal.Weighted>
-0.0000

> <Gold.Chemscore.Lipo.Weighted>
-9.1866

> <Gold.Chemscore.Internal_Hbond.Weighted>
0.0000

> <Gold.Chemscore.DEClash.Weighted>
0.0346

> <Gold.Chemscore.DEInternal.Weighted>
1.6449

> <Gold.Chemscore.Rot.Weighted>
4.3397

> <Gold.Chemscore.Internal.Correction.Weighted>
   9.000000E+99

> <Gold.Protein.RotatedTorsions>
[ 6907 6896 6895 6894 ] final  -80.61 input  -60.11 | X-H torsion
[ 7974 7965 7964 7962 ] final -111.21 input  175.53 | X-H torsion
[ 8008 7997 7996 7995 ] final -132.29 input   59.86 | X-H torsion
[ 10167 10162 10161 10158 ] final -132.33 input  -65.29 | X-H torsion
[ 10718 10713 10712 10709 ] final   19.86 input   66.30 | X-H torsion
[ 10763 10752 10751 10750 ] final   37.99 input  -60.55 | X-H torsion
[ 11005 11000 10999 10996 ] final -112.53 input  -57.11 | X-H torsion

> <Gold.Protein.ActiveResidues>
 VAL166  LYS551  ARG553  GLY616  TRP617  ASP618  TYR619  PRO620  LYS621  CYS622 
 ASP623  PHE694  ASN695  SER759  ASP760  ASP761  ALA762  ILE779  LEU786  VAL792 
 PHE793  MET794  SER795  GLU796  ALA797  LYS798  CYS799  TRP800  GLU811  SER814 

> <Gold.Protein.RotatedAtoms>
  150.6926  134.3943  159.5089 H   0  0  0  0  0  0  0  0  0  0  0  0  # atno 6907 bound_to 6896
  152.1726  134.8818  160.0542 H   0  0  0  0  0  0  0  0  0  0  0  0  # atno 6908 bound_to 6896
  151.9839  133.3732  159.4155 H   0  0  0  0  0  0  0  0  0  0  0  0  # atno 6909 bound_to 6896
  145.1589  140.8868  143.3602 H   0  0  0  0  0  0  0  0  0  0  0  0  # atno 7974 bound_to 7965
  155.3264  140.0465  157.3041 H   0  0  0  0  0  0  0  0  0  0  0  0  # atno 8008 bound_to 7997
  154.5352  140.2270  155.8701 H   0  0  0  0  0  0  0  0  0  0  0  0  # atno 8009 bound_to 7997
  156.1828  140.3070  155.9187 H   0  0  0  0  0  0  0  0  0  0  0  0  # atno 8010 bound_to 7997
  139.9096  143.6509  152.2578 H   0  0  0  0  0  0  0  0  0  0  0  0  # atno 10167 bound_to 10162
  157.1164  130.6531  149.5911 H   0  0  0  0  0  0  0  0  0  0  0  0  # atno 10718 bound_to 10713
  153.0017  135.6262  154.2232 H   0  0  0  0  0  0  0  0  0  0  0  0  # atno 10763 bound_to 10752
  154.1975  135.2805  155.3003 H   0  0  0  0  0  0  0  0  0  0  0  0  # atno 10764 bound_to 10752
  154.5710  135.5676  153.7154 H   0  0  0  0  0  0  0  0  0  0  0  0  # atno 10765 bound_to 10752
  141.0669  133.9443  157.2560 H   0  0  0  0  0  0  0  0  0  0  0  0  # atno 11005 bound_to 11000
  145.0352  139.3307  143.6004 LP  0  0  0  0  0  0  0  0  0  0  0  0  # atno 17320 bound_to 7965
  146.3485  139.9704  142.8707 LP  0  0  0  0  0  0  0  0  0  0  0  0  # atno 17321 bound_to 7965
  139.6954  144.7642  151.1366 LP  0  0  0  0  0  0  0  0  0  0  0  0  # atno 17342 bound_to 10162
  140.7688  143.5531  150.9182 LP  0  0  0  0  0  0  0  0  0  0  0  0  # atno 17343 bound_to 10162
  155.9838  130.4860  150.6953 LP  0  0  0  0  0  0  0  0  0  0  0  0  # atno 17370 bound_to 10713
  157.4514  131.0873  151.0842 LP  0  0  0  0  0  0  0  0  0  0  0  0  # atno 17371 bound_to 10713
  139.9485  135.0180  156.8925 LP  0  0  0  0  0  0  0  0  0  0  0  0  # atno 17394 bound_to 11000
  140.5754  134.0403  155.7445 LP  0  0  0  0  0  0  0  0  0  0  0  0  # atno 17395 bound_to 11000

$$$$
