AV-unprocessed.smi:3200|AV-procd|sdf|12236|dock5
  -GOLD-   2272018 73D 1   1.00000     0.00000
 Structure written by MMmdl.
 38 39  0  0  0  0  0  0  0  0  2 V2000
  150.8908  136.5101  156.2132 C   0  0  0  0  0  0  0  0  0  0  0  0
  150.7029  137.8524  155.5925 C   0  0  0  0  0  0  0  0  0  0  0  0
  150.9420  138.0564  154.3027 N   0  0  0  0  0  0  0  0  0  0  0  0
  150.6445  139.4156  154.1290 O   0  0  0  0  0  0  0  0  0  0  0  0
  150.2798  139.8720  155.3510 C   0  0  0  0  0  0  0  0  0  0  0  0
  149.8467  141.2927  155.4902 C   0  0  0  0  0  0  0  0  0  0  0  0
  150.7789  142.0984  156.4031 C   0  0  0  0  0  0  0  0  0  0  0  0
  150.0159  142.7957  157.4579 N   0  3  0  0  0  0  0  0  0  0  0  0
  150.6967  142.8696  158.7701 C   0  0  1  0  0  0  0  0  0  0  0  0
  151.6969  141.7282  159.0050 C   0  0  0  0  0  0  0  0  0  0  0  0
  152.7298  142.2840  159.9941 C   0  0  0  0  0  0  0  0  0  0  0  0
  152.4097  143.7769  160.1592 C   0  0  0  0  0  0  0  0  0  0  0  0
  151.5136  144.1645  158.9691 C   0  0  0  0  0  0  0  0  0  0  0  0
  152.3907  144.5162  157.7447 C   0  0  0  0  0  0  0  0  0  0  0  0
  150.6129  145.3637  159.3196 C   0  0  0  0  0  0  0  0  0  0  0  0
  150.2793  138.9372  156.2977 N   0  0  0  0  0  0  0  0  0  0  0  0
  150.8448  135.7240  155.4587 H   0  0  0  0  0  0  0  0  0  0  0  0
  150.1123  136.3204  156.9527 H   0  0  0  0  0  0  0  0  0  0  0  0
  151.8602  136.4584  156.7095 H   0  0  0  0  0  0  0  0  0  0  0  0
  149.8100  141.7430  154.4974 H   0  0  0  0  0  0  0  0  0  0  0  0
  148.8281  141.3090  155.8803 H   0  0  0  0  0  0  0  0  0  0  0  0
  151.5107  141.4351  156.8667 H   0  0  0  0  0  0  0  0  0  0  0  0
  151.3333  142.8273  155.8108 H   0  0  0  0  0  0  0  0  0  0  0  0
  149.8093  143.7352  157.1495 H   0  0  0  0  0  0  0  0  0  0  0  0
  149.9366  142.8213  159.5526 H   0  0  0  0  0  0  0  0  0  0  0  0
  151.2096  140.8300  159.3859 H   0  0  0  0  0  0  0  0  0  0  0  0
  152.1962  141.4570  158.0737 H   0  0  0  0  0  0  0  0  0  0  0  0
  152.6852  141.7687  160.9542 H   0  0  0  0  0  0  0  0  0  0  0  0
  153.7368  142.1476  159.5983 H   0  0  0  0  0  0  0  0  0  0  0  0
  151.8631  143.9124  161.0937 H   0  0  0  0  0  0  0  0  0  0  0  0
  153.3100  144.3883  160.2300 H   0  0  0  0  0  0  0  0  0  0  0  0
  153.0402  145.3652  157.9604 H   0  0  0  0  0  0  0  0  0  0  0  0
  151.7852  144.7903  156.8804 H   0  0  0  0  0  0  0  0  0  0  0  0
  153.0326  143.6870  157.4469 H   0  0  0  0  0  0  0  0  0  0  0  0
  151.2082  146.2478  159.5507 H   0  0  0  0  0  0  0  0  0  0  0  0
  149.9852  145.1567  160.1871 H   0  0  0  0  0  0  0  0  0  0  0  0
  149.9525  145.6186  158.4902 H   0  0  0  0  0  0  0  0  0  0  0  0
  149.1445  142.3019  157.5882 H   0  0  0  0  0  0  0  0  0  0  0  0
  1  2  1  0  0  0  0
  1 17  1  0  0  0  0
  1 18  1  0  0  0  0
  1 19  1  0  0  0  0
  2 16  1  0  0  0  0
  2  3  2  0  0  0  0
  3  4  1  0  0  0  0
  4  5  1  0  0  0  0
  5  6  1  0  0  0  0
  5 16  2  0  0  0  0
  6  7  1  0  0  0  0
  6 20  1  0  0  0  0
  6 21  1  0  0  0  0
  7  8  1  0  0  0  0
  7 22  1  0  0  0  0
  7 23  1  0  0  0  0
  8  9  1  0  0  0  0
  8 24  1  0  0  0  0
  8 38  1  0  0  0  0
  9 13  1  0  0  0  0
  9 10  1  0  0  0  0
  9 25  1  0  0  0  0
 10 11  1  0  0  0  0
 10 26  1  0  0  0  0
 10 27  1  0  0  0  0
 11 12  1  0  0  0  0
 11 28  1  0  0  0  0
 11 29  1  0  0  0  0
 12 13  1  0  0  0  0
 12 30  1  0  0  0  0
 12 31  1  0  0  0  0
 13 14  1  0  0  0  0
 13 15  1  0  0  0  0
 14 32  1  0  0  0  0
 14 33  1  0  0  0  0
 14 34  1  0  0  0  0
 15 35  1  0  0  0  0
 15 36  1  0  0  0  0
 15 37  1  0  0  0  0
M  CHG  1   8   1
M  END
> <s_m_source_file>
AV-unprocessed.smi

> <i_m_source_file_index>
3200

> <i_lp_mmshare_version>
43012

> <i_f3d_flags>
0

> <s_epik_input>
W0NIM11jMW5vYyhuMSlbQ0gyXVtDSDJdW05IXVtDQEBIXShDMihbQ0gzXSlbQ0gzXSlbQ0gyXVtDSDJdW0NIMl0y

> <s_epik_cmdline>
J2VwaWtfcHl0aG9uJywgJy1waCcsICc3LjAnLCAnLXRuJywgJzgnLCAnLW1hJywgJzIwMCcsICctbWV0YWxfYmluZGluZycsICctaW1hZScsICc8aW5maWxlLm1hZT4nLCAnLW9tYWUnLCAnPG91dGZpbGUubWFlPic=

> <r_lp_tautomer_probability>
1

> <r_epik_Ionization_Penalty>
0.000953161

> <r_epik_Ionization_Penalty_Charging>
0.000953161

> <r_epik_Ionization_Penalty_Neutral>
4.23223e-13

> <r_epik_State_Penalty>
0.000619331

> <r_epik_Charging_Adjusted_Penalty>
0.00157249

> <i_epik_Tot_Q>
1

> <i_epik_Tot_abs_Q>
1

> <r_epik_Metal_State_Penalty>
-0

> <b_epik_Metal_Only>
0

> <s_lp_Force_Field>
OPLS_2005

> <r_lp_Energy>
25.6419

> <b_lp_Chiralities_Consistent>
1

> <s_lp_Variant>
AV-unprocessed.smi:3200-2

> <Gold.Version>
5.8.1

> <Gold.Id.Protein>
6NUR|6NUR_protein|mol2

> <Gold.PLP.Fitness>
40.5555

> <Gold.PLP.PLP>
-34.6576

> <Gold.PLP.part.hbond>
-2.0000

> <Gold.PLP.part.metal>
0.0000

> <Gold.PLP.part.buried>
-5.0983

> <Gold.PLP.part.nonpolar>
-28.7380

> <Gold.PLP.part.repulsive>
0.4285

> <Gold.PLP.ligand.clash>
0.0000

> <Gold.PLP.ligand.torsion>
1.0794

> <Gold.PLP.Chemscore.Hbond>
2.6812

> <Gold.PLP.Chemscore.CHOScore>
0.0000

> <Gold.PLP.Chemscore.Metal>
0.0000

> <Gold.Chemscore.Hbonds>
donor molecule, donor type, donor heavy atom, donor atom, acceptor molecule, acceptor atom, score
      L1  H     8    24       P1  8028  1.70
      P1  H  7989  7998       L1     4  1.00

> <Gold.PLP.Chemscore.Internal.Correction>
0.0132

> <Gold.Rescore>
     Score         DG    S(hbond)    S(metal)    S(lipo)     H(rot)  DE(clash)    DE(int)     intcor
     15.75     -17.14       1.52        0.00      95.29       1.79       0.09       1.29       ----

> <Gold.Chemscore.Fitness>
15.7520

> <Gold.Chemscore.DG>
-17.1383

> <Gold.Chemscore.ZeroCoef>
-5.4800

> <Gold.Chemscore.Hbond>
1.5223

> <Gold.Chemscore.Metal>
0.0000

> <Gold.Chemscore.Lipo>
95.2917

> <Gold.Chemscore.Internal_Hbond>
0.0000

> <Gold.Chemscore.DEClash>
0.0939

> <Gold.Chemscore.DEInternal>
1.2925

> <Gold.Chemscore.Rot>
1.7872

> <Gold.Chemscore.Internal.Correction>
   9.000000E+99

> <Gold.Chemscore.Hbonds>
donor molecule, donor type, donor heavy atom, donor atom, acceptor molecule, acceptor atom, score
      L1  H     8    24       P1  8028  0.73
      P1  H  7989  7998       L1     4  0.35

> <Gold.Chemscore.Hbond.Weighted>
-5.0845

> <Gold.Chemscore.Metal.Weighted>
-0.0000

> <Gold.Chemscore.Lipo.Weighted>
-11.1491

> <Gold.Chemscore.Internal_Hbond.Weighted>
0.0000

> <Gold.Chemscore.DEClash.Weighted>
0.0939

> <Gold.Chemscore.DEInternal.Weighted>
1.2925

> <Gold.Chemscore.Rot.Weighted>
4.5753

> <Gold.Chemscore.Internal.Correction.Weighted>
   9.000000E+99

> <Gold.Protein.RotatedTorsions>
[ 6907 6896 6895 6894 ] final   48.43 input  -60.11 | X-H torsion
[ 7974 7965 7964 7962 ] final  -41.94 input  175.53 | X-H torsion
[ 8008 7997 7996 7995 ] final -143.44 input   59.86 | X-H torsion
[ 10167 10162 10161 10158 ] final   59.86 input  -65.29 | X-H torsion
[ 10718 10713 10712 10709 ] final -145.05 input   66.30 | X-H torsion
[ 10763 10752 10751 10750 ] final  169.67 input  -60.55 | X-H torsion
[ 11005 11000 10999 10996 ] final  143.79 input  -57.11 | X-H torsion

> <Gold.Protein.ActiveResidues>
 VAL166  LYS551  ARG553  GLY616  TRP617  ASP618  TYR619  PRO620  LYS621  CYS622 
 ASP623  PHE694  ASN695  SER759  ASP760  ASP761  ALA762  ILE779  LEU786  VAL792 
 PHE793  MET794  SER795  GLU796  ALA797  LYS798  CYS799  TRP800  GLU811  SER814 

> <Gold.Protein.RotatedAtoms>
  152.2794  134.7846  160.0399 H   0  0  0  0  0  0  0  0  0  0  0  0  # atno 6907 bound_to 6896
  151.8430  133.3421  159.3657 H   0  0  0  0  0  0  0  0  0  0  0  0  # atno 6908 bound_to 6896
  150.7183  134.5301  159.5740 H   0  0  0  0  0  0  0  0  0  0  0  0  # atno 6909 bound_to 6896
  146.0163  140.6904  142.9200 H   0  0  0  0  0  0  0  0  0  0  0  0  # atno 7974 bound_to 7965
  155.5107  140.0583  157.2924 H   0  0  0  0  0  0  0  0  0  0  0  0  # atno 8008 bound_to 7997
  154.4553  140.1969  156.0346 H   0  0  0  0  0  0  0  0  0  0  0  0  # atno 8009 bound_to 7997
  156.0786  140.3250  155.7670 H   0  0  0  0  0  0  0  0  0  0  0  0  # atno 8010 bound_to 7997
  140.1719  144.4268  150.6657 H   0  0  0  0  0  0  0  0  0  0  0  0  # atno 10167 bound_to 10162
  156.3777  130.7820  151.2009 H   0  0  0  0  0  0  0  0  0  0  0  0  # atno 10718 bound_to 10713
  154.3865  135.2753  155.2180 H   0  0  0  0  0  0  0  0  0  0  0  0  # atno 10763 bound_to 10752
  154.4265  135.5987  153.6045 H   0  0  0  0  0  0  0  0  0  0  0  0  # atno 10764 bound_to 10752
  152.9833  135.5985  154.4114 H   0  0  0  0  0  0  0  0  0  0  0  0  # atno 10765 bound_to 10752
  140.0581  134.9219  157.1137 H   0  0  0  0  0  0  0  0  0  0  0  0  # atno 11005 bound_to 11000
  144.6972  140.3487  143.7186 LP  0  0  0  0  0  0  0  0  0  0  0  0  # atno 17320 bound_to 7965
  145.7264  139.1724  143.2455 LP  0  0  0  0  0  0  0  0  0  0  0  0  # atno 17321 bound_to 7965
  140.6576  143.2242  151.5931 LP  0  0  0  0  0  0  0  0  0  0  0  0  # atno 17342 bound_to 10162
  139.5334  144.2850  152.1198 LP  0  0  0  0  0  0  0  0  0  0  0  0  # atno 17343 bound_to 10162
  157.7489  131.0353  150.4359 LP  0  0  0  0  0  0  0  0  0  0  0  0  # atno 17370 bound_to 10713
  156.4597  130.4029  149.6584 LP  0  0  0  0  0  0  0  0  0  0  0  0  # atno 17371 bound_to 10713
  140.3812  134.2285  155.7171 LP  0  0  0  0  0  0  0  0  0  0  0  0  # atno 17394 bound_to 11000
  141.1961  133.8090  157.0685 LP  0  0  0  0  0  0  0  0  0  0  0  0  # atno 17395 bound_to 11000

$$$$
