#       Name:                AV-unprocessed.smi:21
#       Creating user name   scv26
#       Creation time:       Thu Mar 26 15:30:53 2020


#       File generated by GOLD software.
#

@<TRIPOS>MOLECULE
AV-unprocessed.smi:21
    71    74     1
SMALL
NO_CHARGES


@<TRIPOS>ATOM
      1 ****        -3.6841  -0.3608   4.1307 C.3            1 S1                 0.0000
      2 ****        -3.2826   0.0640   2.8380 O.3            1 S1                 0.0000
      3 ****        -4.3673   0.3135   1.9534 C.3            1 S1                 0.0000
      4 ****        -3.8633   1.1366   0.7748 C.3            1 S1                 0.0000
      5 ****        -3.2165   0.1057  -0.1610 C.3            1 S1                 0.0000
      6 ****        -3.2078   0.5424  -1.6490 C.3            1 S1                 0.0000
      7 ****        -2.4269   1.7566  -1.8853 N.pl3          1 S1                 0.0000
      8 ****        -3.1364   3.0355  -1.9062 C.3            1 S1                 0.0000
      9 ****        -1.0672   1.7567  -1.7443 C.ar           1 S1                 0.0000
     10 ****        -0.4412   2.9522  -1.5653 N.ar           1 S1                 0.0000
     11 ****         0.8823   3.0220  -1.4058 C.ar           1 S1                 0.0000
     12 ****         1.7711   2.0302  -1.3902 N.ar           1 S1                 0.0000
     13 ****         1.1639   0.8248  -1.5755 C.ar           1 S1                 0.0000
     14 ****        -0.2312   0.5949  -1.7641 C.ar           1 S1                 0.0000
     15 ****        -0.4485  -0.7710  -1.9297 N.2            1 S1                 0.0000
     16 ****         0.7355  -1.3098  -1.8367 C.2            1 S1                 0.0000
     17 ****         1.7603  -0.4224  -1.6117 N.pl3          1 S1                 0.0000
     18 ****         3.1694  -0.7354  -1.4583 C.3            1 S1                 0.0000
     19 ****         3.6914  -0.5791  -0.0048 C.3            1 S1                 0.0000
     20 ****         2.9406  -1.4995   0.9918 C.3            1 S1                 0.0000
     21 ****         1.6533  -1.0092   1.3073 O.3            1 S1                 0.0000
     22 ****         5.2223  -0.8269   0.0458 C.3            1 S1                 0.0000
     23 ****         5.8786  -0.5434   1.3880 C.3            1 S1                 0.0000
     24 ****         7.3494  -0.3991   1.0134 C.3            1 S1                 0.0000
     25 ****         7.3621   0.1338  -0.3051 O.3            1 S1                 0.0000
     26 ****         6.0501   0.0973  -0.8563 C.3            1 S1                 0.0000
     27 ****        -3.8956  -1.1900   0.1328 N.4            1 S1                 1.0000
     28 ****        -4.5083  -1.9255  -0.9980 C.3            1 S1                 0.0000
     29 ****        -4.8226  -0.9773   1.2671 C.3            1 S1                 0.0000
     30 ****        -5.1813   0.8256   2.4699 H              1 S1                 0.0000
     31 ****        -2.1887  -0.0408   0.1718 H              1 S1                 0.0000
     32 ****        -2.8015  -0.5462   4.7423 H              1 S1                 0.0000
     33 ****        -4.2643  -1.2828   4.0941 H              1 S1                 0.0000
     34 ****        -4.2794   0.4062   4.6277 H              1 S1                 0.0000
     35 ****        -4.7138   1.6071   0.2793 H              1 S1                 0.0000
     36 ****        -3.1756   1.9288   1.0731 H              1 S1                 0.0000
     37 ****        -2.8383  -0.2452  -2.3017 H              1 S1                 0.0000
     38 ****        -4.2322   0.7182  -1.9782 H              1 S1                 0.0000
     39 ****        -2.7580   3.6734  -2.7058 H              1 S1                 0.0000
     40 ****        -3.0162   3.5602  -0.9577 H              1 S1                 0.0000
     41 ****        -4.2039   2.8963  -2.0771 H              1 S1                 0.0000
     42 ****         1.2857   4.0145  -1.2689 H              1 S1                 0.0000
     43 ****         0.8934  -2.3753  -1.9201 H              1 S1                 0.0000
     44 ****         3.3401  -1.7533  -1.8108 H              1 S1                 0.0000
     45 ****         3.7135  -0.0806  -2.1386 H              1 S1                 0.0000
     46 ****         3.5266   0.4538   0.3065 H              1 S1                 0.0000
     47 ****         2.8598  -2.5132   0.5984 H              1 S1                 0.0000
     48 ****         3.4727  -1.5739   1.9385 H              1 S1                 0.0000
     49 ****         1.2687  -1.5760   1.9585 H              1 S1                 0.0000
     50 ****         5.4327  -1.8613  -0.2311 H              1 S1                 0.0000
     51 ****         5.5057   0.3938   1.8043 H              1 S1                 0.0000
     52 ****         5.7234  -1.3307   2.1256 H              1 S1                 0.0000
     53 ****         7.8952   0.2398   1.7079 H              1 S1                 0.0000
     54 ****         7.8356  -1.3753   0.9968 H              1 S1                 0.0000
     55 ****         6.0770  -0.2422  -1.8919 H              1 S1                 0.0000
     56 ****         5.6475   1.1112  -0.8441 H              1 S1                 0.0000
     57 ****        -5.2913  -1.3392  -1.4807 H              1 S1                 0.0000
     58 ****        -4.9568  -2.8527  -0.6404 H              1 S1                 0.0000
     59 ****        -3.7587  -2.1967  -1.7415 H              1 S1                 0.0000
     60 ****        -4.8496  -1.8419   1.9293 H              1 S1                 0.0000
     61 ****        -5.8329  -0.8299   0.8818 H              1 S1                 0.0000
     62 ****        -3.1639  -1.7894   0.4872 H              1 S1                 0.0000
     63 ****        -2.7062  -0.6480   2.4371 LP             1 S1                 0.0000
     64 ****        -2.7533   0.9070   2.9334 LP             1 S1                 0.0000
     65 ****        -0.9824   3.7930  -1.5531 LP             1 S1                 0.0000
     66 ****         2.7547   2.1541  -1.2596 LP             1 S1                 0.0000
     67 ****        -1.3201  -1.2359  -2.0855 LP             1 S1                 0.0000
     68 ****         1.0834  -1.0038   0.4856 LP             1 S1                 0.0000
     69 ****         1.7254  -0.0797   1.6690 LP             1 S1                 0.0000
     70 ****         7.9768  -0.4100  -0.8764 LP             1 S1                 0.0000
     71 ****         7.6834   1.0803  -0.2769 LP             1 S1                 0.0000
@<TRIPOS>BOND
    1    1    2 1     
    2    1   32 1     
    3    1   33 1     
    4    1   34 1     
    5    2    3 1     
    6    3   30 1     
    7    3   29 1     
    8    3    4 1     
    9    4    5 1     
   10    4   35 1     
   11    4   36 1     
   12    5   31 1     
   13    5    6 1     
   14    5   27 1     
   15    6    7 1     
   16    6   37 1     
   17    6   38 1     
   18    7    8 1     
   19    7    9 1     
   20    8   39 1     
   21    8   40 1     
   22    8   41 1     
   23    9   14 ar    
   24    9   10 ar    
   25   10   11 ar    
   26   11   12 ar    
   27   11   42 1     
   28   12   13 ar    
   29   13   17 1     
   30   13   14 ar    
   31   14   15 1     
   32   15   16 2     
   33   16   17 1     
   34   16   43 1     
   35   17   18 1     
   36   18   19 1     
   37   18   44 1     
   38   18   45 1     
   39   19   20 1     
   40   19   22 1     
   41   19   46 1     
   42   20   21 1     
   43   20   47 1     
   44   20   48 1     
   45   21   49 1     
   46   22   26 1     
   47   22   23 1     
   48   22   50 1     
   49   23   24 1     
   50   23   51 1     
   51   23   52 1     
   52   24   25 1     
   53   24   53 1     
   54   24   54 1     
   55   25   26 1     
   56   26   55 1     
   57   26   56 1     
   58   27   28 1     
   59   27   29 1     
   60   27   62 1     
   61   28   57 1     
   62   28   58 1     
   63   28   59 1     
   64   29   60 1     
   65   29   61 1     
   66    2   63 1     
   67    2   64 1     
   68   10   65 1     
   69   12   66 1     
   70   15   67 1     
   71   21   68 1     
   72   21   69 1     
   73   25   70 1     
   74   25   71 1     
@<TRIPOS>SUBSTRUCTURE
      1 S1             1
@<TRIPOS>SET
LONE_PAIRS      STATIC     ATOMS    <user>   **** ""
9 63 64 65 66 67 68 69 70 71
DONOR_HYDROGENS      STATIC     ATOMS    <user>   **** ""
2 49 62
ATOM$BLUE        STATIC     ATOMS    COLORGROUP SYSTEM
9 63 64 65 66 67 68 69 70 71
ATOM$RED        STATIC     ATOMS    COLORGROUP SYSTEM
2 49 62
