AV-unprocessed.smi:3161|AV-procd|sdf|12060|dock4
  -GOLD-   2272017483D 1   1.00000     0.00000
 Structure written by MMmdl.
 40 41  0  0  0  0  0  0  0  0  1 V2000
  146.0584  142.9983  154.3078 C   0  0  0  0  0  0  0  0  0  0  0  0
  147.0288  141.8544  154.2450 C   0  0  0  0  0  0  0  0  0  0  0  0
  146.7584  140.4944  153.9229 C   0  0  0  0  0  0  0  0  0  0  0  0
  147.8402  139.7338  153.9534 N   0  0  0  0  0  0  0  0  0  0  0  0
  148.8351  140.5730  154.3137 N   0  0  0  0  0  0  0  0  0  0  0  0
  150.1993  140.0822  154.4244 C   0  0  0  0  0  0  0  0  0  0  0  0
  150.5012  139.3280  155.7447 C   0  0  1  0  0  0  0  0  0  0  0  0
  151.2754  138.0340  155.4548 C   0  0  0  0  0  0  0  0  0  0  0  0
  151.2724  140.1282  156.7044 N   0  0  0  0  0  0  0  0  0  0  0  0
  150.8605  141.5225  156.8590 C   0  0  0  0  0  0  0  0  0  0  0  0
  151.8417  142.2991  157.7490 C   0  0  2  0  0  0  0  0  0  0  0  0
  151.7969  141.8435  159.2224 C   0  0  0  0  0  0  0  0  0  0  0  0
  152.7202  142.7127  160.0835 C   0  0  0  0  0  0  0  0  0  0  0  0
  152.3795  144.1920  159.8753 C   0  0  0  0  0  0  0  0  0  0  0  0
  152.3831  144.5342  158.3771 C   0  0  0  0  0  0  0  0  0  0  0  0
  151.4828  143.6776  157.6807 O   0  0  0  0  0  0  0  0  0  0  0  0
  148.3751  141.8632  154.4769 C   0  0  0  0  0  0  0  0  0  0  0  0
  145.1352  142.7760  153.7720 H   0  0  0  0  0  0  0  0  0  0  0  0
  146.4742  143.9048  153.8673 H   0  0  0  0  0  0  0  0  0  0  0  0
  145.7843  143.2358  155.3358 H   0  0  0  0  0  0  0  0  0  0  0  0
  145.8129  140.0412  153.6638 H   0  0  0  0  0  0  0  0  0  0  0  0
  150.3603  139.4180  153.5742 H   0  0  0  0  0  0  0  0  0  0  0  0
  150.8913  140.9151  154.2916 H   0  0  0  0  0  0  0  0  0  0  0  0
  149.5610  139.0277  156.2085 H   0  0  0  0  0  0  0  0  0  0  0  0
  150.7070  137.3749  154.7981 H   0  0  0  0  0  0  0  0  0  0  0  0
  151.4781  137.4811  156.3726 H   0  0  0  0  0  0  0  0  0  0  0  0
  152.2312  138.2414  154.9718 H   0  0  0  0  0  0  0  0  0  0  0  0
  151.2519  139.6720  157.6109 H   0  0  0  0  0  0  0  0  0  0  0  0
  150.8314  142.0059  155.8844 H   0  0  0  0  0  0  0  0  0  0  0  0
  149.8535  141.5836  157.2738 H   0  0  0  0  0  0  0  0  0  0  0  0
  152.8518  142.1835  157.3506 H   0  0  0  0  0  0  0  0  0  0  0  0
  150.7754  141.9126  159.5991 H   0  0  0  0  0  0  0  0  0  0  0  0
  152.0910  140.7971  159.3079 H   0  0  0  0  0  0  0  0  0  0  0  0
  152.6256  142.4437  161.1358 H   0  0  0  0  0  0  0  0  0  0  0  0
  153.7591  142.5324  159.8043 H   0  0  0  0  0  0  0  0  0  0  0  0
  151.3954  144.4045  160.2947 H   0  0  0  0  0  0  0  0  0  0  0  0
  153.0908  144.8223  160.4096 H   0  0  0  0  0  0  0  0  0  0  0  0
  152.0712  145.5680  158.2283 H   0  0  0  0  0  0  0  0  0  0  0  0
  153.3866  144.4417  157.9593 H   0  0  0  0  0  0  0  0  0  0  0  0
  149.0374  142.6719  154.7490 H   0  0  0  0  0  0  0  0  0  0  0  0
  1  2  1  0  0  0  0
  1 18  1  0  0  0  0
  1 19  1  0  0  0  0
  1 20  1  0  0  0  0
  2 17  2  0  0  0  0
  2  3  1  0  0  0  0
  3  4  2  0  0  0  0
  3 21  1  0  0  0  0
  4  5  1  0  0  0  0
  5  6  1  0  0  0  0
  5 17  1  0  0  0  0
  6  7  1  0  0  0  0
  6 22  1  0  0  0  0
  6 23  1  0  0  0  0
  7  8  1  0  0  0  0
  7  9  1  0  0  0  0
  7 24  1  0  0  0  0
  8 25  1  0  0  0  0
  8 26  1  0  0  0  0
  8 27  1  0  0  0  0
  9 10  1  0  0  0  0
  9 28  1  0  0  0  0
 10 11  1  0  0  0  0
 10 29  1  0  0  0  0
 10 30  1  0  0  0  0
 11 16  1  0  0  0  0
 11 12  1  0  0  0  0
 11 31  1  0  0  0  0
 12 13  1  0  0  0  0
 12 32  1  0  0  0  0
 12 33  1  0  0  0  0
 13 14  1  0  0  0  0
 13 34  1  0  0  0  0
 13 35  1  0  0  0  0
 14 15  1  0  0  0  0
 14 36  1  0  0  0  0
 14 37  1  0  0  0  0
 15 16  1  0  0  0  0
 15 38  1  0  0  0  0
 15 39  1  0  0  0  0
 17 40  1  0  0  0  0
M  END
> <s_m_source_file>
AV-unprocessed.smi

> <i_m_source_file_index>
3161

> <i_lp_mmshare_version>
43012

> <i_f3d_flags>
0

> <s_epik_input>
W0NIM11jMVtjSF1ubihbY0hdMSlbQ0gyXVtDQEhdKFtDSDNdKVtOSF1bQ0gyXVtDQEBIXTJbQ0gyXVtDSDJdW0NIMl1bQ0gyXU8y

> <s_epik_cmdline>
J2VwaWtfcHl0aG9uJywgJy1waCcsICc3LjAnLCAnLXRuJywgJzgnLCAnLW1hJywgJzIwMCcsICctbWV0YWxfYmluZGluZycsICctaW1hZScsICc8aW5maWxlLm1hZT4nLCAnLW9tYWUnLCAnPG91dGZpbGUubWFlPic=

> <r_lp_tautomer_probability>
1

> <r_epik_Ionization_Penalty>
2.51986

> <r_epik_Ionization_Penalty_Charging>
0

> <r_epik_Ionization_Penalty_Neutral>
2.51986

> <r_epik_State_Penalty>
2.68614

> <r_epik_Charging_Adjusted_Penalty>
2.68614

> <i_epik_Tot_Q>
0

> <i_epik_Tot_abs_Q>
0

> <r_epik_Metal_State_Penalty>
2.68606

> <b_epik_Metal_Only>
0

> <s_lp_Force_Field>
OPLS_2005

> <r_lp_Energy>
14.6841

> <b_lp_Chiralities_Consistent>
1

> <s_lp_Variant>
AV-unprocessed.smi:3161-6

> <Gold.Version>
5.8.1

> <Gold.Id.Protein>
6NUR|6NUR_protein|mol2

> <Gold.PLP.Fitness>
41.9168

> <Gold.PLP.PLP>
-37.9576

> <Gold.PLP.part.hbond>
0.0000

> <Gold.PLP.part.metal>
0.0000

> <Gold.PLP.part.buried>
-1.4610

> <Gold.PLP.part.nonpolar>
-36.6329

> <Gold.PLP.part.repulsive>
0.3006

> <Gold.PLP.ligand.clash>
0.0000

> <Gold.PLP.ligand.torsion>
1.0490

> <Gold.PLP.Chemscore.Hbond>
0.0000

> <Gold.PLP.Chemscore.CHOScore>
2.0000

> <Gold.PLP.Chemscore.Metal>
0.0000

> <Gold.Chemscore.Hbonds>
donor molecule, donor type, donor heavy atom, donor atom, acceptor molecule, acceptor atom, score
      L1  C     3    21       P1 10175  1.00
      L1  C    17    40       P1  8028  1.00

> <Gold.PLP.Chemscore.Internal.Correction>
0.0573

> <Gold.Rescore>
     Score         DG    S(hbond)    S(metal)    S(lipo)     H(rot)  DE(clash)    DE(int)     intcor
     13.02     -14.38       0.00        0.00     109.00       1.50       0.44       0.92       ----

> <Gold.Chemscore.Fitness>
13.0210

> <Gold.Chemscore.DG>
-14.3849

> <Gold.Chemscore.ZeroCoef>
-5.4800

> <Gold.Chemscore.Hbond>
0.0000

> <Gold.Chemscore.Metal>
0.0000

> <Gold.Chemscore.Lipo>
108.9971

> <Gold.Chemscore.Internal_Hbond>
0.0000

> <Gold.Chemscore.DEClash>
0.4400

> <Gold.Chemscore.DEInternal>
0.9239

> <Gold.Chemscore.Rot>
1.5030

> <Gold.Chemscore.Internal.Correction>
   9.000000E+99

> <Gold.Chemscore.Hbond.Weighted>
-0.0000

> <Gold.Chemscore.Metal.Weighted>
-0.0000

> <Gold.Chemscore.Lipo.Weighted>
-12.7527

> <Gold.Chemscore.Internal_Hbond.Weighted>
0.0000

> <Gold.Chemscore.DEClash.Weighted>
0.4400

> <Gold.Chemscore.DEInternal.Weighted>
0.9239

> <Gold.Chemscore.Rot.Weighted>
3.8477

> <Gold.Chemscore.Internal.Correction.Weighted>
   9.000000E+99

> <Gold.Protein.RotatedTorsions>
[ 6907 6896 6895 6894 ] final   73.50 input  -60.11 | X-H torsion
[ 7974 7965 7964 7962 ] final  -54.30 input  175.53 | X-H torsion
[ 8008 7997 7996 7995 ] final -106.57 input   59.86 | X-H torsion
[ 10167 10162 10161 10158 ] final  -88.35 input  -65.29 | X-H torsion
[ 10718 10713 10712 10709 ] final  -48.35 input   66.30 | X-H torsion
[ 10763 10752 10751 10750 ] final  158.23 input  -60.55 | X-H torsion
[ 11005 11000 10999 10996 ] final  -62.61 input  -57.11 | X-H torsion

> <Gold.Protein.ActiveResidues>
 VAL166  LYS551  ARG553  GLY616  TRP617  ASP618  TYR619  PRO620  LYS621  CYS622 
 ASP623  PHE694  ASN695  SER759  ASP760  ASP761  ALA762  ILE779  LEU786  VAL792 
 PHE793  MET794  SER795  GLU796  ALA797  LYS798  CYS799  TRP800  GLU811  SER814 

> <Gold.Protein.RotatedAtoms>
  152.4926  134.4413  159.9544 H   0  0  0  0  0  0  0  0  0  0  0  0  # atno 6907 bound_to 6896
  151.4397  133.3641  159.2788 H   0  0  0  0  0  0  0  0  0  0  0  0  # atno 6908 bound_to 6896
  150.9096  134.8536  159.7476 H   0  0  0  0  0  0  0  0  0  0  0  0  # atno 6909 bound_to 6896
  145.8871  140.8100  142.9810 H   0  0  0  0  0  0  0  0  0  0  0  0  # atno 7974 bound_to 7965
  154.9164  140.0408  157.1974 H   0  0  0  0  0  0  0  0  0  0  0  0  # atno 8008 bound_to 7997
  154.8297  140.2897  155.5709 H   0  0  0  0  0  0  0  0  0  0  0  0  # atno 8009 bound_to 7997
  156.2986  140.2503  156.3219 H   0  0  0  0  0  0  0  0  0  0  0  0  # atno 8010 bound_to 7997
  140.3755  143.2773  151.9448 H   0  0  0  0  0  0  0  0  0  0  0  0  # atno 10167 bound_to 10162
  156.1996  130.4155  149.9259 H   0  0  0  0  0  0  0  0  0  0  0  0  # atno 10718 bound_to 10713
  154.2127  135.2785  155.2952 H   0  0  0  0  0  0  0  0  0  0  0  0  # atno 10763 bound_to 10752
  154.5765  135.5602  153.7148 H   0  0  0  0  0  0  0  0  0  0  0  0  # atno 10764 bound_to 10752
  153.0060  135.6334  154.2267 H   0  0  0  0  0  0  0  0  0  0  0  0  # atno 10765 bound_to 10752
  141.1365  133.6642  156.5553 H   0  0  0  0  0  0  0  0  0  0  0  0  # atno 11005 bound_to 11000
  144.6729  140.1472  143.7432 LP  0  0  0  0  0  0  0  0  0  0  0  0  # atno 17320 bound_to 7965
  145.8954  139.2399  143.1525 LP  0  0  0  0  0  0  0  0  0  0  0  0  # atno 17321 bound_to 7965
  139.4800  144.5867  151.7841 LP  0  0  0  0  0  0  0  0  0  0  0  0  # atno 17342 bound_to 10162
  140.4990  144.1197  150.5967 LP  0  0  0  0  0  0  0  0  0  0  0  0  # atno 17343 bound_to 10162
  156.6973  130.8919  151.3595 LP  0  0  0  0  0  0  0  0  0  0  0  0  # atno 17370 bound_to 10713
  157.6978  130.9300  150.0695 LP  0  0  0  0  0  0  0  0  0  0  0  0  # atno 17371 bound_to 10713
  140.4031  134.7339  157.4791 LP  0  0  0  0  0  0  0  0  0  0  0  0  # atno 17394 bound_to 11000
  140.0482  134.6169  155.8895 LP  0  0  0  0  0  0  0  0  0  0  0  0  # atno 17395 bound_to 11000

$$$$
