AV-unprocessed.smi:259|AV-procd|sdf|1973|dock7
  -GOLD-   2262021143D 1   1.00000     0.00000
 Structure written by MMmdl.
 54 57  0  0  0  0  0  0  0  0  1 V2000
  148.3797  127.6011  151.5742 C   0  0  0  0  0  0  0  0  0  0  0  0
  147.1481  128.3556  151.3996 N   0  0  0  0  0  0  0  0  0  0  0  0
  146.7708  129.3754  152.1840 C   0  0  0  0  0  0  0  0  0  0  0  0
  147.4422  129.7690  153.1377 O   0  0  0  0  0  0  0  0  0  0  0  0
  145.4249  130.0362  151.8438 C   0  0  0  0  0  0  0  0  0  0  0  0
  145.4826  131.5301  151.4206 C   0  0  1  0  0  0  0  0  0  0  0  0
  146.4661  131.6626  150.4089 O   0  0  0  0  0  0  0  0  0  0  0  0
  144.1160  132.0544  150.9057 C   0  0  0  0  0  0  0  0  0  0  0  0
  144.1130  133.5777  150.6970 C   0  0  0  0  0  0  0  0  0  0  0  0
  144.5824  134.3053  151.9629 C   0  0  0  0  0  0  0  0  0  0  0  0
  145.8900  133.8074  152.3671 N   0  0  0  0  0  0  0  0  0  0  0  0
  146.4957  134.5828  153.2898 C   0  0  0  0  0  0  0  0  0  0  0  0
  147.3203  133.9646  154.1700 N   0  0  0  0  0  0  0  0  0  0  0  0
  147.9483  134.6777  155.1098 C   0  0  0  0  0  0  0  0  0  0  0  0
  147.8952  135.9923  155.3354 N   0  0  0  0  0  0  0  0  0  0  0  0
  147.0742  136.6168  154.4426 C   0  0  0  0  0  0  0  0  0  0  0  0
  146.3418  135.9940  153.3936 C   0  0  0  0  0  0  0  0  0  0  0  0
  145.6234  136.9499  152.6857 N   0  0  0  0  0  0  0  0  0  0  0  0
  145.9091  138.0727  153.2863 C   0  0  0  0  0  0  0  0  0  0  0  0
  146.7802  137.9662  154.3473 N   0  0  0  0  0  0  0  0  0  0  0  0
  147.2684  139.0481  155.1887 C   0  0  0  0  0  0  0  0  0  0  0  0
  148.2242  140.0163  154.4670 C   0  0  0  0  0  0  0  0  0  0  0  0
  147.4646  140.6858  153.3032 C   0  0  0  0  0  0  0  0  0  0  0  0
  146.2601  141.2958  153.7222 O   0  0  0  0  0  0  0  0  0  0  0  0
  149.0428  140.9536  155.3667 C   0  0  0  0  0  0  0  0  0  0  0  0
  150.2932  140.5076  154.7969 O   0  0  0  0  0  0  0  0  0  0  0  0
  149.6019  139.4283  154.1299 C   0  0  0  0  0  0  0  0  0  0  0  0
  145.9710  132.3707  152.6246 C   0  0  0  0  0  0  0  0  0  0  0  0
  148.4709  126.8520  150.7879 H   0  0  0  0  0  0  0  0  0  0  0  0
  148.3868  127.0881  152.5369 H   0  0  0  0  0  0  0  0  0  0  0  0
  149.2492  128.2576  151.5224 H   0  0  0  0  0  0  0  0  0  0  0  0
  146.5431  128.0835  150.6383 H   0  0  0  0  0  0  0  0  0  0  0  0
  144.9578  129.4627  151.0414 H   0  0  0  0  0  0  0  0  0  0  0  0
  144.7684  129.9211  152.7075 H   0  0  0  0  0  0  0  0  0  0  0  0
  147.2867  131.3359  150.7454 H   0  0  0  0  0  0  0  0  0  0  0  0
  143.8354  131.5632  149.9734 H   0  0  0  0  0  0  0  0  0  0  0  0
  143.3401  131.8010  151.6295 H   0  0  0  0  0  0  0  0  0  0  0  0
  144.7669  133.8368  149.8633 H   0  0  0  0  0  0  0  0  0  0  0  0
  143.1136  133.9154  150.4216 H   0  0  0  0  0  0  0  0  0  0  0  0
  144.6303  135.3794  151.7770 H   0  0  0  0  0  0  0  0  0  0  0  0
  143.8683  134.1507  152.7730 H   0  0  0  0  0  0  0  0  0  0  0  0
  148.5843  134.1142  155.7764 H   0  0  0  0  0  0  0  0  0  0  0  0
  145.4894  139.0155  152.9671 H   0  0  0  0  0  0  0  0  0  0  0  0
  146.3988  139.5842  155.5711 H   0  0  0  0  0  0  0  0  0  0  0  0
  147.7532  138.6144  156.0641 H   0  0  0  0  0  0  0  0  0  0  0  0
  148.0809  141.4480  152.8253 H   0  0  0  0  0  0  0  0  0  0  0  0
  147.2036  139.9601  152.5329 H   0  0  0  0  0  0  0  0  0  0  0  0
  145.5658  141.0196  153.1437 H   0  0  0  0  0  0  0  0  0  0  0  0
  148.8574  142.0146  155.1948 H   0  0  0  0  0  0  0  0  0  0  0  0
  148.9825  140.7174  156.4295 H   0  0  0  0  0  0  0  0  0  0  0  0
  149.8017  138.4670  154.6059 H   0  0  0  0  0  0  0  0  0  0  0  0
  149.8246  139.3814  153.0634 H   0  0  0  0  0  0  0  0  0  0  0  0
  145.3508  132.1389  153.4908 H   0  0  0  0  0  0  0  0  0  0  0  0
  146.9942  132.0983  152.8901 H   0  0  0  0  0  0  0  0  0  0  0  0
  1  2  1  0  0  0  0
  1 29  1  0  0  0  0
  1 30  1  0  0  0  0
  1 31  1  0  0  0  0
  2  3  1  0  0  0  0
  2 32  1  0  0  0  0
  3  4  2  0  0  0  0
  3  5  1  0  0  0  0
  5  6  1  0  0  0  0
  5 33  1  0  0  0  0
  5 34  1  0  0  0  0
  6 28  1  0  0  0  0
  6  7  1  0  0  0  0
  6  8  1  0  0  0  0
  7 35  1  0  0  0  0
  8  9  1  0  0  0  0
  8 36  1  0  0  0  0
  8 37  1  0  0  0  0
  9 10  1  0  0  0  0
  9 38  1  0  0  0  0
  9 39  1  0  0  0  0
 10 11  1  0  0  0  0
 10 40  1  0  0  0  0
 10 41  1  0  0  0  0
 11 12  1  0  0  0  0
 11 28  1  0  0  0  0
 12 17  1  0  0  0  0
 12 13  2  0  0  0  0
 13 14  1  0  0  0  0
 14 15  2  0  0  0  0
 14 42  1  0  0  0  0
 15 16  1  0  0  0  0
 16 20  1  0  0  0  0
 16 17  2  0  0  0  0
 17 18  1  0  0  0  0
 18 19  2  0  0  0  0
 19 20  1  0  0  0  0
 19 43  1  0  0  0  0
 20 21  1  0  0  0  0
 21 22  1  0  0  0  0
 21 44  1  0  0  0  0
 21 45  1  0  0  0  0
 22 27  1  0  0  0  0
 22 23  1  0  0  0  0
 22 25  1  0  0  0  0
 23 24  1  0  0  0  0
 23 46  1  0  0  0  0
 23 47  1  0  0  0  0
 24 48  1  0  0  0  0
 25 26  1  0  0  0  0
 25 49  1  0  0  0  0
 25 50  1  0  0  0  0
 26 27  1  0  0  0  0
 27 51  1  0  0  0  0
 27 52  1  0  0  0  0
 28 53  1  0  0  0  0
 28 54  1  0  0  0  0
M  END
> <s_m_source_file>
AV-unprocessed.smi

> <i_m_source_file_index>
259

> <i_lp_mmshare_version>
43012

> <i_f3d_flags>
0

> <s_epik_input>
W0NIM11bTkhdQyg9TylbQ0gyXVtDQEBdMShbT0hdKVtDSDJdW0NIMl1bQ0gyXU4oW0NIMl0xKWMobltjSF1uMiljKGMyMyluW2NIXW4zW0NIMl1DNChbQ0gyXVtPSF0pW0NIMl1PW0NIMl00

> <s_epik_cmdline>
J2VwaWtfcHl0aG9uJywgJy1waCcsICc3LjAnLCAnLXRuJywgJzgnLCAnLW1hJywgJzIwMCcsICctbWV0YWxfYmluZGluZycsICctaW1hZScsICc8aW5maWxlLm1hZT4nLCAnLW9tYWUnLCAnPG91dGZpbGUubWFlPic=

> <r_lp_tautomer_probability>
1

> <r_epik_Ionization_Penalty>
0.00366363

> <r_epik_Ionization_Penalty_Charging>
0

> <r_epik_Ionization_Penalty_Neutral>
0.00366363

> <r_epik_State_Penalty>
0.00243014

> <r_epik_Charging_Adjusted_Penalty>
0.00243014

> <i_epik_Tot_Q>
0

> <i_epik_Tot_abs_Q>
0

> <r_epik_Metal_State_Penalty>
-0

> <b_epik_Metal_Only>
0

> <s_lp_Force_Field>
OPLS_2005

> <r_lp_Energy>
40.2539

> <b_lp_Chiralities_Consistent>
1

> <s_lp_Variant>
AV-unprocessed.smi:259-1

> <Gold.Version>
5.8.1

> <Gold.Id.Protein>
6NUR|6NUR_protein|mol2

> <Gold.PLP.Fitness>
48.1760

> <Gold.PLP.PLP>
-37.2588

> <Gold.PLP.part.hbond>
-3.3912

> <Gold.PLP.part.metal>
0.0000

> <Gold.PLP.part.buried>
-4.0851

> <Gold.PLP.part.nonpolar>
-30.1661

> <Gold.PLP.part.repulsive>
0.7860

> <Gold.PLP.ligand.clash>
0.0000

> <Gold.PLP.ligand.torsion>
0.8392

> <Gold.PLP.Chemscore.Hbond>
2.9840

> <Gold.PLP.Chemscore.CHOScore>
1.0000

> <Gold.PLP.Chemscore.Metal>
0.0000

> <Gold.Chemscore.Hbonds>
donor molecule, donor type, donor heavy atom, donor atom, acceptor molecule, acceptor atom, score
      L1  H     7    35       P1 10747  0.86
      L1  H    24    48       P1 10175  0.93
      P1  H  7989  7998       L1    26  0.98
      L1  C    19    43       P1 10175  1.00

> <Gold.PLP.Chemscore.Internal.Correction>
0.6436

> <Gold.Rescore>
     Score         DG    S(hbond)    S(metal)    S(lipo)     H(rot)  DE(clash)    DE(int)     intcor
     10.91     -14.51       2.83        0.00      85.78       4.09       0.36       3.23       ----

> <Gold.Chemscore.Fitness>
10.9140

> <Gold.Chemscore.DG>
-14.5078

> <Gold.Chemscore.ZeroCoef>
-5.4800

> <Gold.Chemscore.Hbond>
2.8332

> <Gold.Chemscore.Metal>
0.0000

> <Gold.Chemscore.Lipo>
85.7842

> <Gold.Chemscore.Internal_Hbond>
0.0000

> <Gold.Chemscore.DEClash>
0.3620

> <Gold.Chemscore.DEInternal>
3.2318

> <Gold.Chemscore.Rot>
4.0906

> <Gold.Chemscore.Internal.Correction>
   9.000000E+99

> <Gold.Chemscore.Hbonds>
donor molecule, donor type, donor heavy atom, donor atom, acceptor molecule, acceptor atom, score
      L1  H     7    35       P1 10747  0.85
      L1  H    24    48       P1 10175  0.35
      P1  H  7989  7998       L1    26  0.24

> <Gold.Chemscore.Hbond.Weighted>
-9.4630

> <Gold.Chemscore.Metal.Weighted>
-0.0000

> <Gold.Chemscore.Lipo.Weighted>
-10.0368

> <Gold.Chemscore.Internal_Hbond.Weighted>
0.0000

> <Gold.Chemscore.DEClash.Weighted>
0.3620

> <Gold.Chemscore.DEInternal.Weighted>
3.2318

> <Gold.Chemscore.Rot.Weighted>
10.4719

> <Gold.Chemscore.Internal.Correction.Weighted>
   9.000000E+99

> <Gold.Protein.RotatedTorsions>
[ 6907 6896 6895 6894 ] final  -19.62 input  -60.11 | X-H torsion
[ 7974 7965 7964 7962 ] final  134.56 input  175.53 | X-H torsion
[ 8008 7997 7996 7995 ] final  115.20 input   59.86 | X-H torsion
[ 10167 10162 10161 10158 ] final -175.46 input  -65.29 | X-H torsion
[ 10718 10713 10712 10709 ] final  -38.38 input   66.30 | X-H torsion
[ 10763 10752 10751 10750 ] final  160.36 input  -60.55 | X-H torsion
[ 11005 11000 10999 10996 ] final  -17.15 input  -57.11 | X-H torsion

> <Gold.Protein.ActiveResidues>
 VAL166  LYS551  ARG553  GLY616  TRP617  ASP618  TYR619  PRO620  LYS621  CYS622 
 ASP623  PHE694  ASN695  SER759  ASP760  ASP761  ALA762  ILE779  LEU786  VAL792 
 PHE793  MET794  SER795  GLU796  ALA797  LYS798  CYS799  TRP800  GLU811  SER814 

> <Gold.Protein.RotatedAtoms>
  151.2605  135.0652  159.9095 H   0  0  0  0  0  0  0  0  0  0  0  0  # atno 6907 bound_to 6896
  152.5366  134.0236  159.8003 H   0  0  0  0  0  0  0  0  0  0  0  0  # atno 6908 bound_to 6896
  151.0459  133.5616  159.2678 H   0  0  0  0  0  0  0  0  0  0  0  0  # atno 6909 bound_to 6896
  144.9751  139.4564  143.5414 H   0  0  0  0  0  0  0  0  0  0  0  0  # atno 7974 bound_to 7965
  156.2367  140.2943  156.0332 H   0  0  0  0  0  0  0  0  0  0  0  0  # atno 8008 bound_to 7997
  155.2070  140.0411  157.2944 H   0  0  0  0  0  0  0  0  0  0  0  0  # atno 8009 bound_to 7997
  154.6092  140.2447  155.7698 H   0  0  0  0  0  0  0  0  0  0  0  0  # atno 8010 bound_to 7997
  139.5580  144.1941  152.1191 H   0  0  0  0  0  0  0  0  0  0  0  0  # atno 10167 bound_to 10162
  156.3044  130.4244  149.8111 H   0  0  0  0  0  0  0  0  0  0  0  0  # atno 10718 bound_to 10713
  154.2462  135.2773  155.2834 H   0  0  0  0  0  0  0  0  0  0  0  0  # atno 10763 bound_to 10752
  154.5503  135.5677  153.6920 H   0  0  0  0  0  0  0  0  0  0  0  0  # atno 10764 bound_to 10752
  152.9989  135.6273  154.2607 H   0  0  0  0  0  0  0  0  0  0  0  0  # atno 10765 bound_to 10752
  140.8139  133.8120  155.9591 H   0  0  0  0  0  0  0  0  0  0  0  0  # atno 11005 bound_to 11000
  146.3393  139.8988  142.8797 LP  0  0  0  0  0  0  0  0  0  0  0  0  # atno 17320 bound_to 7965
  145.2502  141.0041  143.3885 LP  0  0  0  0  0  0  0  0  0  0  0  0  # atno 17321 bound_to 7965
  140.1449  144.5168  150.6722 LP  0  0  0  0  0  0  0  0  0  0  0  0  # atno 17342 bound_to 10162
  140.6856  143.2348  151.5270 LP  0  0  0  0  0  0  0  0  0  0  0  0  # atno 17343 bound_to 10162
  156.5477  130.8328  151.3290 LP  0  0  0  0  0  0  0  0  0  0  0  0  # atno 17370 bound_to 10713
  157.7376  130.9798  150.2202 LP  0  0  0  0  0  0  0  0  0  0  0  0  # atno 17371 bound_to 10713
  140.9169  134.2190  157.4951 LP  0  0  0  0  0  0  0  0  0  0  0  0  # atno 17394 bound_to 11000
  139.8712  134.9775  156.4962 LP  0  0  0  0  0  0  0  0  0  0  0  0  # atno 17395 bound_to 11000

$$$$
