AV-unprocessed.smi:1209|AV-procd|sdf|5076|dock4
  -GOLD-   22720 4123D 1   1.00000     0.00000
 Structure written by MMmdl.
 49 51  0  0  0  0  0  0  0  0  2 V2000
  144.7095  145.6947  152.0972 C   0  0  0  0  0  0  0  0  0  0  0  0
  144.8110  144.6382  153.1433 C   0  0  0  0  0  0  0  0  0  0  0  0
  145.6881  143.6116  153.3497 C   0  0  0  0  0  0  0  0  0  0  0  0
  145.2011  142.9865  154.5306 C   0  0  0  0  0  0  0  0  0  0  0  0
  145.7601  141.7952  155.2592 C   0  0  0  0  0  0  0  0  0  0  0  0
  146.0399  140.6621  154.3401 N   0  3  2  0  0  0  0  0  0  0  0  0
  146.0789  139.3540  155.0412 C   0  0  0  0  0  0  0  0  0  0  0  0
  147.2469  140.9021  153.5070 C   0  0  0  0  0  0  0  0  0  0  0  0
  148.5631  140.6400  154.2732 C   0  0  1  0  0  0  0  0  0  0  0  0
  149.6508  140.8508  153.3960 O   0  0  0  0  0  0  0  0  0  0  0  0
  148.7611  141.5605  155.4938 C   0  0  0  0  0  0  0  0  0  0  0  0
  149.6481  140.9836  156.4870 N   0  0  0  0  0  0  0  0  0  0  0  0
  149.7561  139.6827  156.8187 C   0  0  0  0  0  0  0  0  0  0  0  0
  150.6269  139.3690  157.7735 N   0  0  0  0  0  0  0  0  0  0  0  0
  151.1499  140.6099  158.0948 C   0  0  0  0  0  0  0  0  0  0  0  0
  152.1266  140.9763  159.0463 C   0  0  0  0  0  0  0  0  0  0  0  0
  152.5067  142.3274  159.2115 C   0  0  0  0  0  0  0  0  0  0  0  0
  153.5623  142.6767  160.2460 C   0  0  0  0  0  0  0  0  0  0  0  0
  151.9064  143.3367  158.4169 C   0  0  0  0  0  0  0  0  0  0  0  0
  152.2948  144.7955  158.5797 C   0  0  0  0  0  0  0  0  0  0  0  0
  150.9317  142.9878  157.4596 C   0  0  0  0  0  0  0  0  0  0  0  0
  150.5610  141.6404  157.3054 C   0  0  0  0  0  0  0  0  0  0  0  0
  144.1226  143.5929  154.9983 N   0  0  0  0  0  0  0  0  0  0  0  0
  143.8650  144.6489  154.1172 O   0  0  0  0  0  0  0  0  0  0  0  0
  145.5120  145.5977  151.3656 H   0  0  0  0  0  0  0  0  0  0  0  0
  144.7759  146.6876  152.5422 H   0  0  0  0  0  0  0  0  0  0  0  0
  143.7596  145.6236  151.5673 H   0  0  0  0  0  0  0  0  0  0  0  0
  146.5453  143.3483  152.7480 H   0  0  0  0  0  0  0  0  0  0  0  0
  146.6796  142.0968  155.7631 H   0  0  0  0  0  0  0  0  0  0  0  0
  145.0764  141.4681  156.0439 H   0  0  0  0  0  0  0  0  0  0  0  0
  146.8889  139.3274  155.7714 H   0  0  0  0  0  0  0  0  0  0  0  0
  146.2260  138.5298  154.3450 H   0  0  0  0  0  0  0  0  0  0  0  0
  145.1442  139.1570  155.5661 H   0  0  0  0  0  0  0  0  0  0  0  0
  147.2345  140.2569  152.6275 H   0  0  0  0  0  0  0  0  0  0  0  0
  147.2043  141.9245  153.1307 H   0  0  0  0  0  0  0  0  0  0  0  0
  148.6045  139.6067  154.6160 H   0  0  0  0  0  0  0  0  0  0  0  0
  149.5991  140.2239  152.6901 H   0  0  0  0  0  0  0  0  0  0  0  0
  149.1767  142.5195  155.1811 H   0  0  0  0  0  0  0  0  0  0  0  0
  147.8038  141.7780  155.9695 H   0  0  0  0  0  0  0  0  0  0  0  0
  149.1565  138.9242  156.3366 H   0  0  0  0  0  0  0  0  0  0  0  0
  152.5833  140.2075  159.6521 H   0  0  0  0  0  0  0  0  0  0  0  0
  154.4352  143.1181  159.7647 H   0  0  0  0  0  0  0  0  0  0  0  0
  153.8926  141.7931  160.7930 H   0  0  0  0  0  0  0  0  0  0  0  0
  153.1684  143.3894  160.9707 H   0  0  0  0  0  0  0  0  0  0  0  0
  151.7412  145.4338  157.8905 H   0  0  0  0  0  0  0  0  0  0  0  0
  153.3581  144.9326  158.3820 H   0  0  0  0  0  0  0  0  0  0  0  0
  152.0831  145.1363  159.5933 H   0  0  0  0  0  0  0  0  0  0  0  0
  150.4675  143.7473  156.8484 H   0  0  0  0  0  0  0  0  0  0  0  0
  145.2606  140.6318  153.6975 H   0  0  0  0  0  0  0  0  0  0  0  0
  1  2  1  0  0  0  0
  1 25  1  0  0  0  0
  1 26  1  0  0  0  0
  1 27  1  0  0  0  0
  2 24  1  0  0  0  0
  2  3  2  0  0  0  0
  3  4  1  0  0  0  0
  3 28  1  0  0  0  0
  4  5  1  0  0  0  0
  4 23  2  0  0  0  0
  5  6  1  0  0  0  0
  5 29  1  0  0  0  0
  5 30  1  0  0  0  0
  6  7  1  0  0  0  0
  6  8  1  0  0  0  0
  6 49  1  0  0  0  0
  7 31  1  0  0  0  0
  7 32  1  0  0  0  0
  7 33  1  0  0  0  0
  8  9  1  0  0  0  0
  8 34  1  0  0  0  0
  8 35  1  0  0  0  0
  9 10  1  0  0  0  0
  9 11  1  0  0  0  0
  9 36  1  0  0  0  0
 10 37  1  0  0  0  0
 11 12  1  0  0  0  0
 11 38  1  0  0  0  0
 11 39  1  0  0  0  0
 12 22  1  0  0  0  0
 12 13  1  0  0  0  0
 13 14  2  0  0  0  0
 13 40  1  0  0  0  0
 14 15  1  0  0  0  0
 15 22  2  0  0  0  0
 15 16  1  0  0  0  0
 16 17  2  0  0  0  0
 16 41  1  0  0  0  0
 17 18  1  0  0  0  0
 17 19  1  0  0  0  0
 18 42  1  0  0  0  0
 18 43  1  0  0  0  0
 18 44  1  0  0  0  0
 19 20  1  0  0  0  0
 19 21  2  0  0  0  0
 20 45  1  0  0  0  0
 20 46  1  0  0  0  0
 20 47  1  0  0  0  0
 21 22  1  0  0  0  0
 21 48  1  0  0  0  0
 23 24  1  0  0  0  0
M  CHG  1   6   1
M  END
> <s_m_source_file>
AV-unprocessed.smi

> <i_m_source_file_index>
1209

> <i_lp_mmshare_version>
43012

> <i_f3d_flags>
0

> <s_epik_input>
W0NIM11jMVtjSF1jKG5vMSlbQ0gyXU4oW0NIM10pW0NIMl1bQ0BIXShbT0hdKVtDSDJdbihbY0hdbjIpYyhjMjMpW2NIXWMoW0NIM10pYyhbY0hdMylbQ0gzXQ==

> <s_epik_cmdline>
J2VwaWtfcHl0aG9uJywgJy1waCcsICc3LjAnLCAnLXRuJywgJzgnLCAnLW1hJywgJzIwMCcsICctbWV0YWxfYmluZGluZycsICctaW1hZScsICc8aW5maWxlLm1hZT4nLCAnLW9tYWUnLCAnPG91dGZpbGUubWFlPic=

> <r_epik_Ionization_Penalty>
2.05249

> <r_epik_Ionization_Penalty_Charging>
1.96618

> <r_epik_Ionization_Penalty_Neutral>
0.0863156

> <r_epik_State_Penalty>
2.19215

> <r_epik_Charging_Adjusted_Penalty>
4.15833

> <i_epik_Tot_Q>
1

> <i_epik_Tot_abs_Q>
1

> <r_epik_Metal_State_Penalty>
2.17654

> <b_epik_Metal_Only>
0

> <s_lp_Force_Field>
OPLS_2005

> <r_lp_Energy>
8.03996

> <b_lp_Chiralities_Consistent>
1

> <s_lp_Variant>
AV-unprocessed.smi:1209-8

> <Gold.Version>
5.8.1

> <Gold.Id.Protein>
6NUR|6NUR_protein|mol2

> <Gold.PLP.Fitness>
59.6406

> <Gold.PLP.PLP>
-49.2327

> <Gold.PLP.part.hbond>
-3.3873

> <Gold.PLP.part.metal>
0.0000

> <Gold.PLP.part.buried>
-2.6745

> <Gold.PLP.part.nonpolar>
-42.9000

> <Gold.PLP.part.repulsive>
0.2517

> <Gold.PLP.ligand.clash>
0.0000

> <Gold.PLP.ligand.torsion>
0.9985

> <Gold.PLP.Chemscore.Hbond>
4.1048

> <Gold.PLP.Chemscore.CHOScore>
0.0000

> <Gold.PLP.Chemscore.Metal>
0.0000

> <Gold.Chemscore.Hbonds>
donor molecule, donor type, donor heavy atom, donor atom, acceptor molecule, acceptor atom, score
      L1  H     6    49       P1 10175  2.00
      L1  H    10    37       P1  7957  0.90
      P1  H  7989  7998       L1    10  0.22
      P1  H  8011  8017       L1    10  0.85

> <Gold.PLP.Chemscore.Internal.Correction>
0.0906

> <Gold.Rescore>
     Score         DG    S(hbond)    S(metal)    S(lipo)     H(rot)  DE(clash)    DE(int)     intcor
     20.11     -22.50       2.18        0.00     138.72       2.53       0.72       1.67       ----

> <Gold.Chemscore.Fitness>
20.1129

> <Gold.Chemscore.DG>
-22.5045

> <Gold.Chemscore.ZeroCoef>
-5.4800

> <Gold.Chemscore.Hbond>
2.1793

> <Gold.Chemscore.Metal>
0.0000

> <Gold.Chemscore.Lipo>
138.7237

> <Gold.Chemscore.Internal_Hbond>
0.0000

> <Gold.Chemscore.DEClash>
0.7174

> <Gold.Chemscore.DEInternal>
1.6743

> <Gold.Chemscore.Rot>
2.5332

> <Gold.Chemscore.Internal.Correction>
   9.000000E+99

> <Gold.Chemscore.Hbonds>
donor molecule, donor type, donor heavy atom, donor atom, acceptor molecule, acceptor atom, score
      L1  H     6    49       P1 10175  0.95
      L1  H    10    37       P1  7957  0.83
      P1  H  7989  7998       L1    10  0.03
      P1  H  8011  8017       L1    10  0.14

> <Gold.Chemscore.Hbond.Weighted>
-7.2790

> <Gold.Chemscore.Metal.Weighted>
-0.0000

> <Gold.Chemscore.Lipo.Weighted>
-16.2307

> <Gold.Chemscore.Internal_Hbond.Weighted>
0.0000

> <Gold.Chemscore.DEClash.Weighted>
0.7174

> <Gold.Chemscore.DEInternal.Weighted>
1.6743

> <Gold.Chemscore.Rot.Weighted>
6.4851

> <Gold.Chemscore.Internal.Correction.Weighted>
   9.000000E+99

> <Gold.Protein.RotatedTorsions>
[ 6907 6896 6895 6894 ] final  168.12 input  -60.11 | X-H torsion
[ 7974 7965 7964 7962 ] final   94.41 input  175.53 | X-H torsion
[ 8008 7997 7996 7995 ] final  113.41 input   59.86 | X-H torsion
[ 10167 10162 10161 10158 ] final   28.26 input  -65.29 | X-H torsion
[ 10718 10713 10712 10709 ] final   31.42 input   66.30 | X-H torsion
[ 10763 10752 10751 10750 ] final   96.88 input  -60.55 | X-H torsion
[ 11005 11000 10999 10996 ] final  -96.42 input  -57.11 | X-H torsion

> <Gold.Protein.ActiveResidues>
 VAL166  LYS551  ARG553  GLY616  TRP617  ASP618  TYR619  PRO620  LYS621  CYS622 
 ASP623  PHE694  ASN695  SER759  ASP760  ASP761  ALA762  ILE779  LEU786  VAL792 
 PHE793  MET794  SER795  GLU796  ALA797  LYS798  CYS799  TRP800  GLU811  SER814 

> <Gold.Protein.RotatedAtoms>
  151.8527  133.3443  159.3678 H   0  0  0  0  0  0  0  0  0  0  0  0  # atno 6907 bound_to 6896
  150.7202  134.5283  159.5697 H   0  0  0  0  0  0  0  0  0  0  0  0  # atno 6908 bound_to 6896
  152.2780  134.7860  160.0453 H   0  0  0  0  0  0  0  0  0  0  0  0  # atno 6909 bound_to 6896
  145.4660  139.2284  143.2961 H   0  0  0  0  0  0  0  0  0  0  0  0  # atno 7974 bound_to 7965
  156.2256  140.2980  156.0060 H   0  0  0  0  0  0  0  0  0  0  0  0  # atno 8008 bound_to 7997
  155.2364  140.0421  157.2986 H   0  0  0  0  0  0  0  0  0  0  0  0  # atno 8009 bound_to 7997
  154.5911  140.2401  155.7928 H   0  0  0  0  0  0  0  0  0  0  0  0  # atno 8010 bound_to 7997
  140.4867  144.0530  150.6283 H   0  0  0  0  0  0  0  0  0  0  0  0  # atno 10167 bound_to 10162
  157.2722  130.7214  149.6511 H   0  0  0  0  0  0  0  0  0  0  0  0  # atno 10718 bound_to 10713
  153.2702  135.4203  155.0980 H   0  0  0  0  0  0  0  0  0  0  0  0  # atno 10763 bound_to 10752
  154.8453  135.3470  154.6254 H   0  0  0  0  0  0  0  0  0  0  0  0  # atno 10764 bound_to 10752
  153.6674  135.7045  153.5215 H   0  0  0  0  0  0  0  0  0  0  0  0  # atno 10765 bound_to 10752
  141.1412  133.8096  157.0569 H   0  0  0  0  0  0  0  0  0  0  0  0  # atno 11005 bound_to 11000
  146.2424  140.5433  142.8928 LP  0  0  0  0  0  0  0  0  0  0  0  0  # atno 17320 bound_to 7965
  144.7974  140.6149  143.6501 LP  0  0  0  0  0  0  0  0  0  0  0  0  # atno 17321 bound_to 7965
  140.3788  143.2814  152.0194 LP  0  0  0  0  0  0  0  0  0  0  0  0  # atno 17342 bound_to 10162
  139.4843  144.6171  151.7325 LP  0  0  0  0  0  0  0  0  0  0  0  0  # atno 17343 bound_to 10162
  155.9663  130.4364  150.5131 LP  0  0  0  0  0  0  0  0  0  0  0  0  # atno 17370 bound_to 10713
  157.3058  131.0654  151.2036 LP  0  0  0  0  0  0  0  0  0  0  0  0  # atno 17371 bound_to 10713
  140.0596  134.9762  157.1282 LP  0  0  0  0  0  0  0  0  0  0  0  0  # atno 17394 bound_to 11000
  140.3868  134.2228  155.7168 LP  0  0  0  0  0  0  0  0  0  0  0  0  # atno 17395 bound_to 11000

$$$$
