AV-unprocessed.smi:103|AV-procd|sdf|991|dock8
  -GOLD-   2262017573D 1   1.00000     0.00000
 Structure written by MMmdl.
 53 55  0  0  0  0  0  0  0  0  1 V2000
  146.7972  135.4639  161.6550 C   0  0  0  0  0  0  0  0  0  0  0  0
  147.6863  135.3138  160.4279 C   0  0  0  0  0  0  0  0  0  0  0  0
  148.4830  134.3809  160.3218 O   0  0  0  0  0  0  0  0  0  0  0  0
  147.4839  136.2883  159.5274 O   0  0  0  0  0  0  0  0  0  0  0  0
  148.4079  136.4728  158.4667 C   0  0  0  0  0  0  0  0  0  0  0  0
  149.8405  136.4105  159.0246 C   0  0  2  0  0  0  0  0  0  0  0  0
  150.0949  137.6384  159.7123 O   0  0  0  0  0  0  0  0  0  0  0  0
  151.1292  138.3459  159.0992 C   0  0  2  0  0  0  0  0  0  0  0  0
  150.8216  139.8144  159.1228 N   0  0  0  0  0  0  0  0  0  0  0  0
  151.5600  140.8454  159.6678 C   0  0  0  0  0  0  0  0  0  0  0  0
  153.0816  140.6857  160.5931 S   0  0  0  0  0  0  0  0  0  0  0  0
  152.7338  141.7331  162.0631 C   0  0  0  0  0  0  0  0  0  0  0  0
  153.1922  139.2817  161.0169 O   0  0  0  0  0  0  0  0  0  0  0  0
  154.1422  141.3094  159.7864 O   0  0  0  0  0  0  0  0  0  0  0  0
  151.0428  142.0414  159.5955 N   0  0  0  0  0  0  0  0  0  0  0  0
  149.8784  141.8354  158.8702 C   0  0  0  0  0  0  0  0  0  0  0  0
  148.8524  142.6898  158.3936 C   0  0  0  0  0  0  0  0  0  0  0  0
  148.8483  144.0138  158.6015 N   0  0  0  0  0  0  0  0  0  0  0  0
  147.8300  142.1458  157.6934 N   0  0  0  0  0  0  0  0  0  0  0  0
  147.8113  140.8279  157.4729 C   0  0  0  0  0  0  0  0  0  0  0  0
  148.6953  139.9053  157.8598 N   0  0  0  0  0  0  0  0  0  0  0  0
  149.7285  140.4519  158.5650 C   0  0  0  0  0  0  0  0  0  0  0  0
  151.2821  137.7815  157.6811 C   0  0  2  0  0  0  0  0  0  0  0  0
  150.3615  138.3843  156.7719 O   0  0  0  0  0  0  0  0  0  0  0  0
  150.4457  138.1534  155.4498 C   0  0  0  0  0  0  0  0  0  0  0  0
  149.5339  139.0705  154.6468 C   0  0  0  0  0  0  0  0  0  0  0  0
  151.1749  137.3275  154.9011 O   0  0  0  0  0  0  0  0  0  0  0  0
  150.9375  136.3289  157.9478 C   0  0  2  0  0  0  0  0  0  0  0  0
  150.5779  135.6431  156.7532 O   0  0  0  0  0  0  0  0  0  0  0  0
  151.0007  134.3856  156.5421 C   0  0  0  0  0  0  0  0  0  0  0  0
  150.8738  133.9682  155.0832 C   0  0  0  0  0  0  0  0  0  0  0  0
  151.4399  133.6158  157.3964 O   0  0  0  0  0  0  0  0  0  0  0  0
  145.7668  135.6583  161.3565 H   0  0  0  0  0  0  0  0  0  0  0  0
  147.1424  136.2934  162.2724 H   0  0  0  0  0  0  0  0  0  0  0  0
  146.8163  134.5534  162.2548 H   0  0  0  0  0  0  0  0  0  0  0  0
  148.2472  135.6807  157.7350 H   0  0  0  0  0  0  0  0  0  0  0  0
  148.2408  137.4216  157.9570 H   0  0  0  0  0  0  0  0  0  0  0  0
  149.9313  135.5683  159.7114 H   0  0  0  0  0  0  0  0  0  0  0  0
  152.0264  138.2242  159.7051 H   0  0  0  0  0  0  0  0  0  0  0  0
  153.5979  141.7255  162.7267 H   0  0  0  0  0  0  0  0  0  0  0  0
  151.8646  141.3432  162.5924 H   0  0  0  0  0  0  0  0  0  0  0  0
  152.5327  142.7546  161.7406 H   0  0  0  0  0  0  0  0  0  0  0  0
  149.6014  144.4438  159.1193 H   0  0  0  0  0  0  0  0  0  0  0  0
  148.0947  144.5788  158.2380 H   0  0  0  0  0  0  0  0  0  0  0  0
  146.9683  140.4587  156.9074 H   0  0  0  0  0  0  0  0  0  0  0  0
  152.3129  137.8834  157.3408 H   0  0  0  0  0  0  0  0  0  0  0  0
  149.7295  140.1129  154.9005 H   0  0  0  0  0  0  0  0  0  0  0  0
  148.4886  138.8499  154.8646 H   0  0  0  0  0  0  0  0  0  0  0  0
  149.7015  138.9377  153.5777 H   0  0  0  0  0  0  0  0  0  0  0  0
  151.8219  135.8655  158.3891 H   0  0  0  0  0  0  0  0  0  0  0  0
  151.2862  134.7369  154.4294 H   0  0  0  0  0  0  0  0  0  0  0  0
  149.8256  133.8176  154.8244 H   0  0  0  0  0  0  0  0  0  0  0  0
  151.4123  133.0376  154.9032 H   0  0  0  0  0  0  0  0  0  0  0  0
  1  2  1  0  0  0  0
  1 33  1  0  0  0  0
  1 34  1  0  0  0  0
  1 35  1  0  0  0  0
  2  3  2  0  0  0  0
  2  4  1  0  0  0  0
  4  5  1  0  0  0  0
  5  6  1  0  0  0  0
  5 36  1  0  0  0  0
  5 37  1  0  0  0  0
  6 28  1  0  0  0  0
  6  7  1  0  0  0  0
  6 38  1  0  0  0  0
  7  8  1  0  0  0  0
  8  9  1  0  0  0  0
  8 23  1  0  0  0  0
  8 39  1  0  0  0  0
  9 22  1  0  0  0  0
  9 10  1  0  0  0  0
 10 11  1  0  0  0  0
 10 15  2  0  0  0  0
 11 12  1  0  0  0  0
 11 13  2  0  0  0  0
 11 14  2  0  0  0  0
 12 40  1  0  0  0  0
 12 41  1  0  0  0  0
 12 42  1  0  0  0  0
 15 16  1  0  0  0  0
 16 22  2  0  0  0  0
 16 17  1  0  0  0  0
 17 18  1  0  0  0  0
 17 19  2  0  0  0  0
 18 43  1  0  0  0  0
 18 44  1  0  0  0  0
 19 20  1  0  0  0  0
 20 21  2  0  0  0  0
 20 45  1  0  0  0  0
 21 22  1  0  0  0  0
 23 24  1  0  0  0  0
 23 28  1  0  0  0  0
 23 46  1  0  0  0  0
 24 25  1  0  0  0  0
 25 26  1  0  0  0  0
 25 27  2  0  0  0  0
 26 47  1  0  0  0  0
 26 48  1  0  0  0  0
 26 49  1  0  0  0  0
 28 29  1  0  0  0  0
 28 50  1  0  0  0  0
 29 30  1  0  0  0  0
 30 31  1  0  0  0  0
 30 32  2  0  0  0  0
 31 51  1  0  0  0  0
 31 52  1  0  0  0  0
 31 53  1  0  0  0  0
M  END
> <s_m_source_file>
AV-unprocessed.smi

> <i_m_source_file_index>
103

> <i_lp_mmshare_version>
43012

> <i_f3d_flags>
0

> <s_epik_input>
W0NIM11DKD1PKU9bQ0gyXVtDQEBIXTFPW0NASF0oW0NAQEhdKE9DKD1PKVtDSDNdKVtDQEhdMU9DKD1PKVtDSDNdKW4oYyhuMilTKD1PKSg9TylbQ0gzXSljKGMyMyluW2NIXW5jM1tOSDJd

> <s_epik_cmdline>
J2VwaWtfcHl0aG9uJywgJy1waCcsICc3LjAnLCAnLXRuJywgJzgnLCAnLW1hJywgJzIwMCcsICctbWV0YWxfYmluZGluZycsICctaW1hZScsICc8aW5maWxlLm1hZT4nLCAnLW9tYWUnLCAnPG91dGZpbGUubWFlPic=

> <r_lp_tautomer_probability>
1

> <r_epik_Ionization_Penalty>
1.51338e-05

> <r_epik_Ionization_Penalty_Charging>
0

> <r_epik_Ionization_Penalty_Neutral>
1.51338e-05

> <r_epik_State_Penalty>
-0

> <r_epik_Charging_Adjusted_Penalty>
0

> <i_epik_Tot_Q>
0

> <i_epik_Tot_abs_Q>
0

> <r_epik_Metal_State_Penalty>
-0

> <b_epik_Metal_Only>
0

> <s_epik_Chemistry_Notes>
This compound has an ester and may undergo hydrolysis at high or low pH. This compound contains an acetal/aminal-like group ( X-CH(R)-Y where X, Y are N, S, or O) that may be acid/base labile, releasing an aldehyde.

> <s_lp_Force_Field>
OPLS_2005

> <r_lp_Energy>
16.3317

> <b_lp_Chiralities_Consistent>
1

> <s_lp_Variant>
AV-unprocessed.smi:103-15

> <Gold.Version>
5.8.1

> <Gold.Id.Protein>
6NUR|6NUR_protein|mol2

> <Gold.PLP.Fitness>
39.1392

> <Gold.PLP.PLP>
-35.5679

> <Gold.PLP.part.hbond>
-4.2508

> <Gold.PLP.part.metal>
0.0000

> <Gold.PLP.part.buried>
-5.7208

> <Gold.PLP.part.nonpolar>
-27.5255

> <Gold.PLP.part.repulsive>
1.2975

> <Gold.PLP.ligand.clash>
0.0000

> <Gold.PLP.ligand.torsion>
2.4080

> <Gold.PLP.Chemscore.Hbond>
1.9833

> <Gold.PLP.Chemscore.CHOScore>
0.0000

> <Gold.PLP.Chemscore.Metal>
0.0000

> <Gold.Chemscore.Hbonds>
donor molecule, donor type, donor heavy atom, donor atom, acceptor molecule, acceptor atom, score
      L1  H    18    44       P1  8029  0.78
      P1  H  6896  6909       L1    32  0.35

> <Gold.PLP.Chemscore.Internal.Correction>
2.4374

> <Gold.Rescore>
     Score         DG    S(hbond)    S(metal)    S(lipo)     H(rot)  DE(clash)    DE(int)     intcor
     -3.28      -6.08       1.85        0.00      45.31       4.25       0.52       8.83       ----

> <Gold.Chemscore.Fitness>
-3.2783

> <Gold.Chemscore.DG>
-6.0777

> <Gold.Chemscore.ZeroCoef>
-5.4800

> <Gold.Chemscore.Hbond>
1.8458

> <Gold.Chemscore.Metal>
0.0000

> <Gold.Chemscore.Lipo>
45.3095

> <Gold.Chemscore.Internal_Hbond>
0.0000

> <Gold.Chemscore.DEClash>
0.5222

> <Gold.Chemscore.DEInternal>
8.8337

> <Gold.Chemscore.Rot>
4.2456

> <Gold.Chemscore.Internal.Correction>
   9.000000E+99

> <Gold.Chemscore.Hbonds>
donor molecule, donor type, donor heavy atom, donor atom, acceptor molecule, acceptor atom, score
      L1  H    18    44       P1  8029  0.54
      P1  H  6896  6909       L1    32  0.35
      P1  H 10752 10764       L1    27  0.01

> <Gold.Chemscore.Hbond.Weighted>
-6.1651

> <Gold.Chemscore.Metal.Weighted>
-0.0000

> <Gold.Chemscore.Lipo.Weighted>
-5.3012

> <Gold.Chemscore.Internal_Hbond.Weighted>
0.0000

> <Gold.Chemscore.DEClash.Weighted>
0.5222

> <Gold.Chemscore.DEInternal.Weighted>
8.8337

> <Gold.Chemscore.Rot.Weighted>
10.8687

> <Gold.Chemscore.Internal.Correction.Weighted>
   9.000000E+99

> <Gold.Protein.RotatedTorsions>
[ 6907 6896 6895 6894 ] final   -4.83 input  -60.11 | X-H torsion
[ 7974 7965 7964 7962 ] final  123.41 input  175.53 | X-H torsion
[ 8008 7997 7996 7995 ] final   -7.28 input   59.86 | X-H torsion
[ 10167 10162 10161 10158 ] final  -24.25 input  -65.29 | X-H torsion
[ 10718 10713 10712 10709 ] final   79.17 input   66.30 | X-H torsion
[ 10763 10752 10751 10750 ] final  -51.27 input  -60.55 | X-H torsion
[ 11005 11000 10999 10996 ] final  -11.02 input  -57.11 | X-H torsion

> <Gold.Protein.ActiveResidues>
 VAL166  LYS551  ARG553  GLY616  TRP617  ASP618  TYR619  PRO620  LYS621  CYS622 
 ASP623  PHE694  ASN695  SER759  ASP760  ASP761  ALA762  ILE779  LEU786  VAL792 
 PHE793  MET794  SER795  GLU796  ALA797  LYS798  CYS799  TRP800  GLU811  SER814 

> <Gold.Protein.RotatedAtoms>
  151.4914  135.1057  159.9804 H   0  0  0  0  0  0  0  0  0  0  0  0  # atno 6907 bound_to 6896
  152.4739  133.8089  159.7003 H   0  0  0  0  0  0  0  0  0  0  0  0  # atno 6908 bound_to 6896
  150.8765  133.7369  159.2971 H   0  0  0  0  0  0  0  0  0  0  0  0  # atno 6909 bound_to 6896
  145.0963  139.3551  143.4835 H   0  0  0  0  0  0  0  0  0  0  0  0  # atno 7974 bound_to 7965
  154.5854  140.2411  155.7995 H   0  0  0  0  0  0  0  0  0  0  0  0  # atno 8008 bound_to 7997
  156.2209  140.2998  155.9906 H   0  0  0  0  0  0  0  0  0  0  0  0  # atno 8009 bound_to 7997
  155.2468  140.0409  157.2972 H   0  0  0  0  0  0  0  0  0  0  0  0  # atno 8010 bound_to 7997
  140.7288  143.4370  151.0714 H   0  0  0  0  0  0  0  0  0  0  0  0  # atno 10167 bound_to 10162
  157.6768  130.9902  150.1893 H   0  0  0  0  0  0  0  0  0  0  0  0  # atno 10718 bound_to 10713
  154.1238  135.6530  153.4908 H   0  0  0  0  0  0  0  0  0  0  0  0  # atno 10763 bound_to 10752
  153.0217  135.5276  154.7070 H   0  0  0  0  0  0  0  0  0  0  0  0  # atno 10764 bound_to 10752
  154.6285  135.2973  155.0214 H   0  0  0  0  0  0  0  0  0  0  0  0  # atno 10765 bound_to 10752
  140.7509  133.8593  155.9044 H   0  0  0  0  0  0  0  0  0  0  0  0  # atno 11005 bound_to 11000
  146.3530  140.0819  142.8617 LP  0  0  0  0  0  0  0  0  0  0  0  0  # atno 17320 bound_to 7965
  145.1008  140.9344  143.4714 LP  0  0  0  0  0  0  0  0  0  0  0  0  # atno 17321 bound_to 7965
  139.8033  143.8053  152.3165 LP  0  0  0  0  0  0  0  0  0  0  0  0  # atno 17342 bound_to 10162
  139.8077  144.7348  150.9739 LP  0  0  0  0  0  0  0  0  0  0  0  0  # atno 17343 bound_to 10162
  156.2608  130.3710  149.8133 LP  0  0  0  0  0  0  0  0  0  0  0  0  # atno 17370 bound_to 10713
  156.5878  130.8493  151.3400 LP  0  0  0  0  0  0  0  0  0  0  0  0  # atno 17371 bound_to 10713
  140.9752  134.1479  157.4542 LP  0  0  0  0  0  0  0  0  0  0  0  0  # atno 17394 bound_to 11000
  139.8788  134.9992  156.5941 LP  0  0  0  0  0  0  0  0  0  0  0  0  # atno 17395 bound_to 11000

$$$$
