#       Name:                AV-unprocessed.smi:1422
#       Creating user name   scv26
#       Creation time:       Fri Mar 27 05:44:17 2020


#       File generated by GOLD software.
#

@<TRIPOS>MOLECULE
AV-unprocessed.smi:1422
    38    39     1
SMALL
NO_CHARGES


@<TRIPOS>ATOM
      1 ****        -5.8343  -2.1996   0.8026 C.3            1 S1                 0.0000
      2 ****        -4.5216  -1.4955   0.7618 C.2            1 S1                 0.0000
      3 ****        -3.2457  -1.8896   1.0513 C.2            1 S1                 0.0000
      4 ****        -2.4833  -0.7187   0.7958 C.2            1 S1                 0.0000
      5 ****        -1.0770  -0.7119   0.9783 N.am           1 S1                 0.0000
      6 ****        -0.2317   0.3158   0.7908 C.2            1 S1                 0.0000
      7 ****        -0.5586   1.4444   0.4222 O.2            1 S1                 0.0000
      8 ****         1.0337  -0.0410   1.0551 N.am           1 S1                 0.0000
      9 ****         2.1986   0.8327   0.9514 C.3            1 S1                 0.0000
     10 ****         2.9205   0.6709  -0.3995 C.3            1 S1                 0.0000
     11 ****         2.1380   1.1361  -1.6128 C.3            1 S1                 0.0000
     12 ****         3.2399   1.3118  -2.6538 C.3            1 S1                 0.0000
     13 ****         4.4146   1.6607  -1.9267 O.3            1 S1                 0.0000
     14 ****         4.1812   1.5247  -0.5284 C.3            1 S1                 0.0000
     15 ****        -3.2267   0.2983   0.3876 N.2            1 S1                 0.0000
     16 ****        -4.5369  -0.1942   0.3642 O.3            1 S1                 0.0000
     17 ****        -5.6956  -3.2803   0.8384 H              1 S1                 0.0000
     18 ****        -6.4281  -1.9655  -0.0813 H              1 S1                 0.0000
     19 ****        -6.4043  -1.9018   1.6828 H              1 S1                 0.0000
     20 ****        -2.9151  -2.8597   1.3913 H              1 S1                 0.0000
     21 ****        -0.6710  -1.5833   1.2852 H              1 S1                 0.0000
     22 ****         1.2068  -0.9904   1.3515 H              1 S1                 0.0000
     23 ****         1.9199   1.8747   1.1181 H              1 S1                 0.0000
     24 ****         2.8809   0.5690   1.7597 H              1 S1                 0.0000
     25 ****         3.1959  -0.3757  -0.5412 H              1 S1                 0.0000
     26 ****         1.3683   0.4307  -1.9275 H              1 S1                 0.0000
     27 ****         1.6590   2.0955  -1.4110 H              1 S1                 0.0000
     28 ****         3.4238   0.3720  -3.1755 H              1 S1                 0.0000
     29 ****         2.9911   2.0690  -3.3976 H              1 S1                 0.0000
     30 ****         4.0185   2.5190  -0.1098 H              1 S1                 0.0000
     31 ****         5.0398   1.0823  -0.0228 H              1 S1                 0.0000
     32 ****        -1.5194   1.6514   0.2378 LP             1 S1                 0.0000
     33 ****         0.1367   2.1538   0.3073 LP             1 S1                 0.0000
     34 ****         4.6609   2.6082  -2.1306 LP             1 S1                 0.0000
     35 ****         5.1635   1.0559  -2.1977 LP             1 S1                 0.0000
     36 ****        -2.9188   1.2190   0.1479 LP             1 S1                 0.0000
     37 ****        -5.1086   0.3409   0.9862 LP             1 S1                 0.0000
     38 ****        -4.9038  -0.1303  -0.5639 LP             1 S1                 0.0000
@<TRIPOS>BOND
    1    1    2 1     
    2    1   17 1     
    3    1   18 1     
    4    1   19 1     
    5    2   16 1     
    6    2    3 2     
    7    3    4 1     
    8    3   20 1     
    9    4    5 1     
   10    4   15 2     
   11    5    6 am    
   12    5   21 1     
   13    6    7 2     
   14    6    8 am    
   15    8    9 1     
   16    8   22 1     
   17    9   10 1     
   18    9   23 1     
   19    9   24 1     
   20   10   14 1     
   21   10   11 1     
   22   10   25 1     
   23   11   12 1     
   24   11   26 1     
   25   11   27 1     
   26   12   13 1     
   27   12   28 1     
   28   12   29 1     
   29   13   14 1     
   30   14   30 1     
   31   14   31 1     
   32   15   16 1     
   33    7   32 1     
   34    7   33 1     
   35   13   34 1     
   36   13   35 1     
   37   15   36 1     
   38   16   37 1     
   39   16   38 1     
@<TRIPOS>SUBSTRUCTURE
      1 S1             1
@<TRIPOS>SET
LONE_PAIRS      STATIC     ATOMS    <user>   **** ""
7 32 33 34 35 36 37 38
DONOR_HYDROGENS      STATIC     ATOMS    <user>   **** ""
2 21 22
ATOM$BLUE        STATIC     ATOMS    COLORGROUP SYSTEM
7 32 33 34 35 36 37 38
ATOM$RED        STATIC     ATOMS    COLORGROUP SYSTEM
2 21 22
