AV-unprocessed.smi:3191|AV-procd|sdf|12197|dock4
  -GOLD-   2272018 33D 1   1.00000     0.00000
 Structure written by MMmdl.
 36 37  0  0  0  0  0  0  0  0  2 V2000
  146.5075  141.7424  154.0237 C   0  0  0  0  0  0  0  0  0  0  0  0
  147.2712  140.4957  153.9355 N   0  0  0  0  0  0  0  0  0  0  0  0
  147.0120  139.5664  153.0071 C   0  0  0  0  0  0  0  0  0  0  0  0
  147.8805  138.5722  153.2028 N   0  3  0  0  0  0  0  0  0  0  0  0
  148.6987  138.8657  154.2587 C   0  0  0  0  0  0  0  0  0  0  0  0
  148.3175  140.0974  154.7361 C   0  0  0  0  0  0  0  0  0  0  0  0
  148.8352  140.9367  155.8639 C   0  0  0  0  0  0  0  0  0  0  0  0
  150.3148  141.3262  155.6928 C   0  0  0  0  0  0  0  0  0  0  0  0
  150.6187  142.5838  156.3654 N   0  0  0  0  0  0  0  0  0  0  0  0
  151.3210  142.6999  157.5031 C   0  0  0  0  0  0  0  0  0  0  0  0
  151.7882  141.7278  158.0980 O   0  0  0  0  0  0  0  0  0  0  0  0
  151.4892  144.1150  157.9640 C   0  0  2  0  0  0  0  0  0  0  0  0
  152.8797  144.7147  157.9199 C   0  0  0  0  0  0  0  0  0  0  0  0
  152.2375  144.4264  159.2587 C   0  0  0  0  0  0  0  0  0  0  0  0
  151.7327  145.5776  160.1107 C   0  0  0  0  0  0  0  0  0  0  0  0
  152.8305  143.3459  160.1547 C   0  0  0  0  0  0  0  0  0  0  0  0
  150.6628  144.7827  157.7234 H   0  0  0  0  0  0  0  0  0  0  0  0
  145.7103  141.7508  153.2792 H   0  0  0  0  0  0  0  0  0  0  0  0
  147.1773  142.5841  153.8456 H   0  0  0  0  0  0  0  0  0  0  0  0
  146.0718  141.8261  155.0196 H   0  0  0  0  0  0  0  0  0  0  0  0
  146.2519  139.6093  152.2473 H   0  0  0  0  0  0  0  0  0  0  0  0
  149.4766  138.1909  154.5853 H   0  0  0  0  0  0  0  0  0  0  0  0
  148.2181  141.8330  155.9370 H   0  0  0  0  0  0  0  0  0  0  0  0
  148.7033  140.3868  156.7965 H   0  0  0  0  0  0  0  0  0  0  0  0
  150.9571  140.5548  156.1185 H   0  0  0  0  0  0  0  0  0  0  0  0
  150.5741  141.4021  154.6353 H   0  0  0  0  0  0  0  0  0  0  0  0
  150.2675  143.4286  155.9374 H   0  0  0  0  0  0  0  0  0  0  0  0
  153.7110  144.0831  157.6114 H   0  0  0  0  0  0  0  0  0  0  0  0
  152.9567  145.7519  157.6004 H   0  0  0  0  0  0  0  0  0  0  0  0
  152.5506  146.0147  160.6842 H   0  0  0  0  0  0  0  0  0  0  0  0
  150.9669  145.2288  160.8042 H   0  0  0  0  0  0  0  0  0  0  0  0
  151.2991  146.3602  159.4874 H   0  0  0  0  0  0  0  0  0  0  0  0
  153.5078  143.7875  160.8862 H   0  0  0  0  0  0  0  0  0  0  0  0
  153.4035  142.6175  159.5824 H   0  0  0  0  0  0  0  0  0  0  0  0
  152.0378  142.8228  160.6901 H   0  0  0  0  0  0  0  0  0  0  0  0
  147.9255  137.7266  152.6479 H   0  0  0  0  0  0  0  0  0  0  0  0
  1  2  1  0  0  0  0
  1 18  1  0  0  0  0
  1 19  1  0  0  0  0
  1 20  1  0  0  0  0
  2  6  1  0  0  0  0
  2  3  1  0  0  0  0
  3  4  2  0  0  0  0
  3 21  1  0  0  0  0
  4  5  1  0  0  0  0
  4 36  1  0  0  0  0
  5  6  2  0  0  0  0
  5 22  1  0  0  0  0
  6  7  1  0  0  0  0
  7  8  1  0  0  0  0
  7 23  1  0  0  0  0
  7 24  1  0  0  0  0
  8  9  1  0  0  0  0
  8 25  1  0  0  0  0
  8 26  1  0  0  0  0
  9 10  1  0  0  0  0
  9 27  1  0  0  0  0
 10 11  2  0  0  0  0
 10 12  1  0  0  0  0
 12 17  1  0  0  0  0
 12 14  1  0  0  0  0
 12 13  1  0  0  0  0
 13 14  1  0  0  0  0
 13 28  1  0  0  0  0
 13 29  1  0  0  0  0
 14 15  1  0  0  0  0
 14 16  1  0  0  0  0
 15 30  1  0  0  0  0
 15 31  1  0  0  0  0
 15 32  1  0  0  0  0
 16 33  1  0  0  0  0
 16 34  1  0  0  0  0
 16 35  1  0  0  0  0
M  CHG  1   4   1
M  END
> <s_m_source_file>
AV-unprocessed.smi

> <i_m_source_file_index>
3191

> <i_lp_mmshare_version>
43012

> <i_f3d_flags>
0

> <s_epik_input>
W0NIM11uMVtjSF1uW2NIXWMxW0NIMl1bQ0gyXVtOSF1DKD1PKVtDQEBIXShbQ0gyXTIpQzIoW0NIM10pW0NIM10=

> <s_epik_cmdline>
J2VwaWtfcHl0aG9uJywgJy1waCcsICc3LjAnLCAnLXRuJywgJzgnLCAnLW1hJywgJzIwMCcsICctbWV0YWxfYmluZGluZycsICctaW1hZScsICc8aW5maWxlLm1hZT4nLCAnLW9tYWUnLCAnPG91dGZpbGUubWFlPic=

> <r_lp_tautomer_probability>
1

> <r_epik_Ionization_Penalty>
0.153817

> <r_epik_Ionization_Penalty_Charging>
0

> <r_epik_Ionization_Penalty_Neutral>
0.153817

> <r_epik_State_Penalty>
0.14311

> <r_epik_Charging_Adjusted_Penalty>
0.14311

> <i_epik_Tot_Q>
1

> <i_epik_Tot_abs_Q>
1

> <r_epik_Metal_State_Penalty>
0.464688

> <b_epik_Metal_Only>
0

> <s_lp_Force_Field>
OPLS_2005

> <r_lp_Energy>
13.3662

> <b_lp_Chiralities_Consistent>
1

> <s_lp_Variant>
AV-unprocessed.smi:3191-2

> <Gold.Version>
5.8.1

> <Gold.Id.Protein>
6NUR|6NUR_protein|mol2

> <Gold.PLP.Fitness>
52.8942

> <Gold.PLP.PLP>
-42.9002

> <Gold.PLP.part.hbond>
-3.0000

> <Gold.PLP.part.metal>
0.0000

> <Gold.PLP.part.buried>
-4.4644

> <Gold.PLP.part.nonpolar>
-36.4802

> <Gold.PLP.part.repulsive>
0.1516

> <Gold.PLP.ligand.clash>
0.0000

> <Gold.PLP.ligand.torsion>
0.3020

> <Gold.PLP.Chemscore.Hbond>
2.9840

> <Gold.PLP.Chemscore.CHOScore>
0.5172

> <Gold.PLP.Chemscore.Metal>
0.0000

> <Gold.Chemscore.Hbonds>
donor molecule, donor type, donor heavy atom, donor atom, acceptor molecule, acceptor atom, score
      L1  H     4    36       P1  7948  2.00
      L1  H     9    27       P1  8028  1.00
      L1  C     3    21       P1 10175  0.54

> <Gold.PLP.Chemscore.Internal.Correction>
0.0944

> <Gold.Rescore>
     Score         DG    S(hbond)    S(metal)    S(lipo)     H(rot)  DE(clash)    DE(int)     intcor
     17.00     -18.73       1.97        0.00      95.43       1.76       0.07       1.66       ----

> <Gold.Chemscore.Fitness>
16.9983

> <Gold.Chemscore.DG>
-18.7262

> <Gold.Chemscore.ZeroCoef>
-5.4800

> <Gold.Chemscore.Hbond>
1.9692

> <Gold.Chemscore.Metal>
0.0000

> <Gold.Chemscore.Lipo>
95.4254

> <Gold.Chemscore.Internal_Hbond>
0.0000

> <Gold.Chemscore.DEClash>
0.0690

> <Gold.Chemscore.DEInternal>
1.6589

> <Gold.Chemscore.Rot>
1.7561

> <Gold.Chemscore.Internal.Correction>
   9.000000E+99

> <Gold.Chemscore.Hbonds>
donor molecule, donor type, donor heavy atom, donor atom, acceptor molecule, acceptor atom, score
      L1  H     4    36       P1  7948  0.94
      L1  H     9    27       P1  8028  0.96

> <Gold.Chemscore.Hbond.Weighted>
-6.5770

> <Gold.Chemscore.Metal.Weighted>
-0.0000

> <Gold.Chemscore.Lipo.Weighted>
-11.1648

> <Gold.Chemscore.Internal_Hbond.Weighted>
0.0000

> <Gold.Chemscore.DEClash.Weighted>
0.0690

> <Gold.Chemscore.DEInternal.Weighted>
1.6589

> <Gold.Chemscore.Rot.Weighted>
4.4956

> <Gold.Chemscore.Internal.Correction.Weighted>
   9.000000E+99

> <Gold.Protein.RotatedTorsions>
[ 6907 6896 6895 6894 ] final -151.84 input  -60.11 | X-H torsion
[ 7974 7965 7964 7962 ] final  161.55 input  175.53 | X-H torsion
[ 8008 7997 7996 7995 ] final -172.30 input   59.86 | X-H torsion
[ 10167 10162 10161 10158 ] final  -62.39 input  -65.29 | X-H torsion
[ 10718 10713 10712 10709 ] final   35.18 input   66.30 | X-H torsion
[ 10763 10752 10751 10750 ] final  -53.09 input  -60.55 | X-H torsion
[ 11005 11000 10999 10996 ] final  174.59 input  -57.11 | X-H torsion

> <Gold.Protein.ActiveResidues>
 VAL166  LYS551  ARG553  GLY616  TRP617  ASP618  TYR619  PRO620  LYS621  CYS622 
 ASP623  PHE694  ASN695  SER759  ASP760  ASP761  ALA762  ILE779  LEU786  VAL792 
 PHE793  MET794  SER795  GLU796  ALA797  LYS798  CYS799  TRP800  GLU811  SER814 

> <Gold.Protein.RotatedAtoms>
  151.2190  133.4513  159.2599 H   0  0  0  0  0  0  0  0  0  0  0  0  # atno 6907 bound_to 6896
  151.0903  134.9912  159.8410 H   0  0  0  0  0  0  0  0  0  0  0  0  # atno 6908 bound_to 6896
  152.5434  134.2123  159.8808 H   0  0  0  0  0  0  0  0  0  0  0  0  # atno 6909 bound_to 6896
  144.7680  139.7913  143.6308 H   0  0  0  0  0  0  0  0  0  0  0  0  # atno 7974 bound_to 7965
  155.9428  140.1112  157.1041 H   0  0  0  0  0  0  0  0  0  0  0  0  # atno 8008 bound_to 7997
  154.4093  140.1215  156.5016 H   0  0  0  0  0  0  0  0  0  0  0  0  # atno 8009 bound_to 7997
  155.6940  140.3472  155.4907 H   0  0  0  0  0  0  0  0  0  0  0  0  # atno 8010 bound_to 7997
  140.5942  143.2347  151.6072 H   0  0  0  0  0  0  0  0  0  0  0  0  # atno 10167 bound_to 10162
  157.3195  130.7441  149.6776 H   0  0  0  0  0  0  0  0  0  0  0  0  # atno 10718 bound_to 10713
  154.1532  135.6486  153.4968 H   0  0  0  0  0  0  0  0  0  0  0  0  # atno 10763 bound_to 10752
  153.0132  135.5343  154.6787 H   0  0  0  0  0  0  0  0  0  0  0  0  # atno 10764 bound_to 10752
  154.6080  135.2951  155.0435 H   0  0  0  0  0  0  0  0  0  0  0  0  # atno 10765 bound_to 10752
  140.3530  134.7178  157.4281 H   0  0  0  0  0  0  0  0  0  0  0  0  # atno 11005 bound_to 11000
  146.1804  139.4994  142.9870 LP  0  0  0  0  0  0  0  0  0  0  0  0  # atno 17320 bound_to 7965
  145.6409  141.0284  143.1812 LP  0  0  0  0  0  0  0  0  0  0  0  0  # atno 17321 bound_to 7965
  139.5247  144.3095  152.1005 LP  0  0  0  0  0  0  0  0  0  0  0  0  # atno 17342 bound_to 10162
  140.2264  144.4413  150.6319 LP  0  0  0  0  0  0  0  0  0  0  0  0  # atno 17343 bound_to 10162
  155.9684  130.4227  150.4529 LP  0  0  0  0  0  0  0  0  0  0  0  0  # atno 17370 bound_to 10713
  157.2542  131.0553  151.2360 LP  0  0  0  0  0  0  0  0  0  0  0  0  # atno 17371 bound_to 10713
  140.0687  134.5892  155.8666 LP  0  0  0  0  0  0  0  0  0  0  0  0  # atno 17394 bound_to 11000
  141.2006  133.6614  156.5908 LP  0  0  0  0  0  0  0  0  0  0  0  0  # atno 17395 bound_to 11000

$$$$
