AV-unprocessed.smi:107|AV-procd|sdf|1026|dock4
  -GOLD-   2262018 23D 1   1.00000     0.00000
 Structure written by MMmdl.
 30 31  0  0  0  0  0  0  0  0  2 V2000
  150.6347  142.9900  159.0169 C   0  0  0  0  0  0  0  0  0  0  0  0
  150.7247  141.7593  158.1318 C   0  0  0  0  0  0  0  0  0  0  0  0
  150.1453  141.7039  156.9121 C   0  0  0  0  0  0  0  0  0  0  0  0
  150.2273  140.5798  156.1098 N   0  0  0  0  0  0  0  0  0  0  0  0
  149.5575  140.5586  154.7543 C   0  0  1  0  0  0  0  0  0  0  0  0
  148.4001  139.5576  154.7359 C   0  0  0  0  0  0  0  0  0  0  0  0
  147.3741  140.2952  153.9010 C   0  0  1  0  0  0  0  0  0  0  0  0
  146.0665  139.8555  154.2068 O   0  0  0  0  0  0  0  0  0  0  0  0
  147.6170  141.7495  154.3157 C   0  0  2  0  0  0  0  0  0  0  0  0
  147.1759  142.7975  153.2823 C   0  0  0  0  0  0  0  0  0  0  0  0
  145.7776  142.9881  153.3313 O   0  0  0  0  0  0  0  0  0  0  0  0
  149.0304  141.8262  154.4864 O   0  0  0  0  0  0  0  0  0  0  0  0
  150.9178  139.4315  156.5791 C   0  0  0  0  0  0  0  0  0  0  0  0
  150.9432  138.4314  155.8616 O   0  0  0  0  0  0  0  0  0  0  0  0
  151.5136  139.4813  157.8048 N   0  5  0  0  0  0  0  0  0  0  0  0
  151.4604  140.5821  158.6086 C   0  0  0  0  0  0  0  0  0  0  0  0
  152.0056  140.6137  159.7114 O   0  0  0  0  0  0  0  0  0  0  0  0
  150.0630  143.7835  158.5351 H   0  0  0  0  0  0  0  0  0  0  0  0
  151.6308  143.3760  159.2351 H   0  0  0  0  0  0  0  0  0  0  0  0
  150.1454  142.7459  159.9604 H   0  0  0  0  0  0  0  0  0  0  0  0
  149.5974  142.5638  156.5586 H   0  0  0  0  0  0  0  0  0  0  0  0
  150.3221  140.3562  154.0039 H   0  0  0  0  0  0  0  0  0  0  0  0
  148.7102  138.6001  154.3164 H   0  0  0  0  0  0  0  0  0  0  0  0
  148.0330  139.3995  155.7517 H   0  0  0  0  0  0  0  0  0  0  0  0
  147.5838  140.1541  152.8398 H   0  0  0  0  0  0  0  0  0  0  0  0
  145.8147  139.2057  153.5680 H   0  0  0  0  0  0  0  0  0  0  0  0
  147.1552  141.9497  155.2842 H   0  0  0  0  0  0  0  0  0  0  0  0
  147.6571  143.7528  153.4928 H   0  0  0  0  0  0  0  0  0  0  0  0
  147.4720  142.5031  152.2753 H   0  0  0  0  0  0  0  0  0  0  0  0
  145.3577  142.2207  152.9732 H   0  0  0  0  0  0  0  0  0  0  0  0
  1  2  1  0  0  0  0
  1 18  1  0  0  0  0
  1 19  1  0  0  0  0
  1 20  1  0  0  0  0
  2 16  1  0  0  0  0
  2  3  2  0  0  0  0
  3  4  1  0  0  0  0
  3 21  1  0  0  0  0
  4  5  1  0  0  0  0
  4 13  1  0  0  0  0
  5 12  1  0  0  0  0
  5  6  1  0  0  0  0
  5 22  1  0  0  0  0
  6  7  1  0  0  0  0
  6 23  1  0  0  0  0
  6 24  1  0  0  0  0
  7  8  1  0  0  0  0
  7  9  1  0  0  0  0
  7 25  1  0  0  0  0
  8 26  1  0  0  0  0
  9 10  1  0  0  0  0
  9 12  1  0  0  0  0
  9 27  1  0  0  0  0
 10 11  1  0  0  0  0
 10 28  1  0  0  0  0
 10 29  1  0  0  0  0
 11 30  1  0  0  0  0
 13 14  2  0  0  0  0
 13 15  1  0  0  0  0
 15 16  1  0  0  0  0
 16 17  2  0  0  0  0
M  CHG  1  15  -1
M  END
> <s_m_source_file>
AV-unprocessed.smi

> <i_m_source_file_index>
107

> <i_lp_mmshare_version>
43012

> <i_f3d_flags>
0

> <s_epik_input>
Tz1jMVtuSF1jKD1PKW4oW2NIXWMxW0NIM10pW0NAQEhdMltDSDJdW0NAQEhdKFtPSF0pW0NASF0oTzIpW0NIMl1bT0hd

> <s_epik_cmdline>
J2VwaWtfcHl0aG9uJywgJy1waCcsICc3LjAnLCAnLXRuJywgJzgnLCAnLW1hJywgJzIwMCcsICctbWV0YWxfYmluZGluZycsICctaW1hZScsICc8aW5maWxlLm1hZT4nLCAnLW9tYWUnLCAnPG91dGZpbGUubWFlPic=

> <r_lp_tautomer_probability>
0.999537

> <r_epik_Ionization_Penalty>
3.66603

> <r_epik_Ionization_Penalty_Charging>
1.09773e-07

> <r_epik_Ionization_Penalty_Neutral>
3.66603

> <r_epik_State_Penalty>
3.66562

> <r_epik_Charging_Adjusted_Penalty>
3.66562

> <i_epik_Tot_Q>
-1

> <i_epik_Tot_abs_Q>
1

> <r_epik_Metal_State_Penalty>
0.234536

> <b_epik_Metal_Only>
1

> <s_epik_Chemistry_Notes>
This compound contains an acetal/aminal-like group ( X-CH(R)-Y where X, Y are N, S, or O) that may be acid/base labile, releasing an aldehyde.

> <s_lp_Force_Field>
OPLS_2005

> <r_lp_Energy>
34.2111

> <b_lp_Chiralities_Consistent>
1

> <s_lp_Variant>
AV-unprocessed.smi:107-14

> <Gold.Version>
5.8.1

> <Gold.Id.Protein>
6NUR|6NUR_protein|mol2

> <Gold.PLP.Fitness>
40.5901

> <Gold.PLP.PLP>
-27.0313

> <Gold.PLP.part.hbond>
-3.8953

> <Gold.PLP.part.metal>
0.0000

> <Gold.PLP.part.buried>
-1.6333

> <Gold.PLP.part.nonpolar>
-23.3946

> <Gold.PLP.part.repulsive>
2.3459

> <Gold.PLP.ligand.clash>
0.0000

> <Gold.PLP.ligand.torsion>
0.1999

> <Gold.PLP.Chemscore.Hbond>
3.6500

> <Gold.PLP.Chemscore.CHOScore>
1.0000

> <Gold.PLP.Chemscore.Metal>
0.0000

> <Gold.Chemscore.Hbonds>
donor molecule, donor type, donor heavy atom, donor atom, acceptor molecule, acceptor atom, score
      P1  H  8011  8017       L1    12  0.08
      L1  C     3    21       P1  8028  1.00

> <Gold.PLP.Chemscore.Internal.Correction>
0.0086

> <Gold.Rescore>
     Score         DG    S(hbond)    S(metal)    S(lipo)     H(rot)  DE(clash)    DE(int)     intcor
      7.27      -7.93       1.34        0.00      41.59       2.69       0.34       0.31       ----

> <Gold.Chemscore.Fitness>
7.2738

> <Gold.Chemscore.DG>
-7.9275

> <Gold.Chemscore.ZeroCoef>
-5.4800

> <Gold.Chemscore.Hbond>
1.3354

> <Gold.Chemscore.Metal>
0.0000

> <Gold.Chemscore.Lipo>
41.5919

> <Gold.Chemscore.Internal_Hbond>
0.0000

> <Gold.Chemscore.DEClash>
0.3391

> <Gold.Chemscore.DEInternal>
0.3147

> <Gold.Chemscore.Rot>
2.6871

> <Gold.Chemscore.Internal.Correction>
   9.000000E+99

> <Gold.Chemscore.Hbonds>
donor molecule, donor type, donor heavy atom, donor atom, acceptor molecule, acceptor atom, score
      P1  H  8011  8017       L1    12  0.02

> <Gold.Chemscore.Hbond.Weighted>
-4.4603

> <Gold.Chemscore.Metal.Weighted>
-0.0000

> <Gold.Chemscore.Lipo.Weighted>
-4.8663

> <Gold.Chemscore.Internal_Hbond.Weighted>
0.0000

> <Gold.Chemscore.DEClash.Weighted>
0.3391

> <Gold.Chemscore.DEInternal.Weighted>
0.3147

> <Gold.Chemscore.Rot.Weighted>
6.8791

> <Gold.Chemscore.Internal.Correction.Weighted>
   9.000000E+99

> <Gold.Protein.RotatedTorsions>
[ 6907 6896 6895 6894 ] final  -66.44 input  -60.11 | X-H torsion
[ 7974 7965 7964 7962 ] final -145.67 input  175.53 | X-H torsion
[ 8008 7997 7996 7995 ] final   57.35 input   59.86 | X-H torsion
[ 10167 10162 10161 10158 ] final -133.88 input  -65.29 | X-H torsion
[ 10718 10713 10712 10709 ] final  -57.59 input   66.30 | X-H torsion
[ 10763 10752 10751 10750 ] final  176.22 input  -60.55 | X-H torsion
[ 11005 11000 10999 10996 ] final   66.18 input  -57.11 | X-H torsion

> <Gold.Protein.ActiveResidues>
 VAL166  LYS551  ARG553  GLY616  TRP617  ASP618  TYR619  PRO620  LYS621  CYS622 
 ASP623  PHE694  ASN695  SER759  ASP760  ASP761  ALA762  ILE779  LEU786  VAL792 
 PHE793  MET794  SER795  GLU796  ALA797  LYS798  CYS799  TRP800  GLU811  SER814 

> <Gold.Protein.RotatedAtoms>
  150.7465  134.6021  159.6041 H   0  0  0  0  0  0  0  0  0  0  0  0  # atno 6907 bound_to 6896
  152.3379  134.7170  160.0281 H   0  0  0  0  0  0  0  0  0  0  0  0  # atno 6908 bound_to 6896
  151.7632  133.3299  159.3460 H   0  0  0  0  0  0  0  0  0  0  0  0  # atno 6909 bound_to 6896
  144.8211  140.5554  143.5577 H   0  0  0  0  0  0  0  0  0  0  0  0  # atno 7974 bound_to 7965
  155.5323  140.3482  155.4429 H   0  0  0  0  0  0  0  0  0  0  0  0  # atno 8008 bound_to 7997
  156.0709  140.1363  156.9856 H   0  0  0  0  0  0  0  0  0  0  0  0  # atno 8009 bound_to 7997
  154.4528  140.0966  156.6643 H   0  0  0  0  0  0  0  0  0  0  0  0  # atno 8010 bound_to 7997
  139.8938  143.6691  152.2607 H   0  0  0  0  0  0  0  0  0  0  0  0  # atno 10167 bound_to 10162
  156.1199  130.4167  150.0461 H   0  0  0  0  0  0  0  0  0  0  0  0  # atno 10718 bound_to 10713
  154.4782  135.2774  155.1591 H   0  0  0  0  0  0  0  0  0  0  0  0  # atno 10763 bound_to 10752
  154.3312  135.6189  153.5556 H   0  0  0  0  0  0  0  0  0  0  0  0  # atno 10764 bound_to 10752
  152.9872  135.5766  154.5177 H   0  0  0  0  0  0  0  0  0  0  0  0  # atno 10765 bound_to 10752
  139.9848  134.6686  156.0196 H   0  0  0  0  0  0  0  0  0  0  0  0  # atno 11005 bound_to 11000
  145.5102  139.1479  143.3609 LP  0  0  0  0  0  0  0  0  0  0  0  0  # atno 17320 bound_to 7965
  146.2517  140.5243  142.8891 LP  0  0  0  0  0  0  0  0  0  0  0  0  # atno 17321 bound_to 7965
  139.7086  144.7624  151.1150 LP  0  0  0  0  0  0  0  0  0  0  0  0  # atno 17342 bound_to 10162
  140.7721  143.5361  150.9367 LP  0  0  0  0  0  0  0  0  0  0  0  0  # atno 17343 bound_to 10162
  156.8402  130.9423  151.3632 LP  0  0  0  0  0  0  0  0  0  0  0  0  # atno 17370 bound_to 10713
  157.6383  130.8784  149.9400 LP  0  0  0  0  0  0  0  0  0  0  0  0  # atno 17371 bound_to 10713
  141.1515  133.6548  156.4027 LP  0  0  0  0  0  0  0  0  0  0  0  0  # atno 17394 bound_to 11000
  140.5024  134.6473  157.5253 LP  0  0  0  0  0  0  0  0  0  0  0  0  # atno 17395 bound_to 11000

$$$$
