AV-unprocessed.smi:2656|AV-procd|sdf|10305|dock2
  -GOLD-   2272014323D 1   1.00000     0.00000
 Structure written by MMmdl.
 43 44  0  0  0  0  0  0  0  0  1 V2000
  146.3442  142.2301  155.8743 C   0  0  0  0  0  0  0  0  0  0  0  0
  146.6966  141.1900  154.9008 N   0  0  0  0  0  0  0  0  0  0  0  0
  146.8189  141.6940  153.5305 C   0  0  0  0  0  0  0  0  0  0  0  0
  146.8646  139.9063  155.3196 C   0  0  0  0  0  0  0  0  0  0  0  0
  146.6463  139.6166  156.4986 O   0  0  0  0  0  0  0  0  0  0  0  0
  147.3554  138.7661  154.3592 C   0  0  0  0  0  0  0  0  0  0  0  0
  146.3926  138.5029  153.1576 C   0  0  0  0  0  0  0  0  0  0  0  0
  146.6380  137.2334  152.4719 N   0  0  0  0  0  0  0  0  0  0  0  0
  145.6994  136.3669  152.0651 C   0  0  0  0  0  0  0  0  0  0  0  0
  144.4925  136.5549  152.2135 O   0  0  0  0  0  0  0  0  0  0  0  0
  146.2582  135.2809  151.5032 N   0  0  0  0  0  0  0  0  0  0  0  0
  145.6273  134.1323  150.9517 C   0  0  0  0  0  0  0  0  0  0  0  0
  146.4535  133.0540  150.5731 C   0  0  0  0  0  0  0  0  0  0  0  0
  145.8594  131.9066  150.0108 C   0  0  0  0  0  0  0  0  0  0  0  0
  144.5312  131.7838  149.8064 N   0  0  0  0  0  0  0  0  0  0  0  0
  143.7426  132.8216  150.1570 C   0  0  0  0  0  0  0  0  0  0  0  0
  144.2344  134.0137  150.7255 C   0  0  0  0  0  0  0  0  0  0  0  0
  148.7699  139.0880  153.7979 C   0  0  0  0  0  0  0  0  0  0  0  0
  149.7962  138.6787  154.8621 C   0  0  0  0  0  0  0  0  0  0  0  0
  149.0775  137.6718  155.7629 C   0  0  0  0  0  0  0  0  0  0  0  0
  147.6831  137.4801  155.1537 C   0  0  0  0  0  0  0  0  0  0  0  0
  145.3113  142.1077  156.2019 H   0  0  0  0  0  0  0  0  0  0  0  0
  146.4472  143.2367  155.4668 H   0  0  0  0  0  0  0  0  0  0  0  0
  146.9888  142.1845  156.7536 H   0  0  0  0  0  0  0  0  0  0  0  0
  146.5431  140.9685  152.7708 H   0  0  0  0  0  0  0  0  0  0  0  0
  147.8412  142.0225  153.3419 H   0  0  0  0  0  0  0  0  0  0  0  0
  146.1646  142.5506  153.3655 H   0  0  0  0  0  0  0  0  0  0  0  0
  145.3539  138.5411  153.4902 H   0  0  0  0  0  0  0  0  0  0  0  0
  146.4463  139.2980  152.4184 H   0  0  0  0  0  0  0  0  0  0  0  0
  147.6042  136.9922  152.3059 H   0  0  0  0  0  0  0  0  0  0  0  0
  147.2669  135.2491  151.5173 H   0  0  0  0  0  0  0  0  0  0  0  0
  147.5237  133.0981  150.7135 H   0  0  0  0  0  0  0  0  0  0  0  0
  146.4687  131.0652  149.7163 H   0  0  0  0  0  0  0  0  0  0  0  0
  142.6852  132.7011  149.9738 H   0  0  0  0  0  0  0  0  0  0  0  0
  143.5391  134.8036  150.9622 H   0  0  0  0  0  0  0  0  0  0  0  0
  148.9627  138.4901  152.9062 H   0  0  0  0  0  0  0  0  0  0  0  0
  148.8939  140.1267  153.4878 H   0  0  0  0  0  0  0  0  0  0  0  0
  150.6885  138.2506  154.4046 H   0  0  0  0  0  0  0  0  0  0  0  0
  150.1134  139.5438  155.4457 H   0  0  0  0  0  0  0  0  0  0  0  0
  149.6171  136.7270  155.8357 H   0  0  0  0  0  0  0  0  0  0  0  0
  148.9925  138.0774  156.7719 H   0  0  0  0  0  0  0  0  0  0  0  0
  146.9634  137.2381  155.9335 H   0  0  0  0  0  0  0  0  0  0  0  0
  147.7060  136.6268  154.4740 H   0  0  0  0  0  0  0  0  0  0  0  0
  1  2  1  0  0  0  0
  1 22  1  0  0  0  0
  1 23  1  0  0  0  0
  1 24  1  0  0  0  0
  2  3  1  0  0  0  0
  2  4  1  0  0  0  0
  3 25  1  0  0  0  0
  3 26  1  0  0  0  0
  3 27  1  0  0  0  0
  4  5  2  0  0  0  0
  4  6  1  0  0  0  0
  6 21  1  0  0  0  0
  6  7  1  0  0  0  0
  6 18  1  0  0  0  0
  7  8  1  0  0  0  0
  7 28  1  0  0  0  0
  7 29  1  0  0  0  0
  8  9  1  0  0  0  0
  8 30  1  0  0  0  0
  9 10  2  0  0  0  0
  9 11  1  0  0  0  0
 11 12  1  0  0  0  0
 11 31  1  0  0  0  0
 12 17  1  0  0  0  0
 12 13  2  0  0  0  0
 13 14  1  0  0  0  0
 13 32  1  0  0  0  0
 14 15  2  0  0  0  0
 14 33  1  0  0  0  0
 15 16  1  0  0  0  0
 16 17  2  0  0  0  0
 16 34  1  0  0  0  0
 17 35  1  0  0  0  0
 18 19  1  0  0  0  0
 18 36  1  0  0  0  0
 18 37  1  0  0  0  0
 19 20  1  0  0  0  0
 19 38  1  0  0  0  0
 19 39  1  0  0  0  0
 20 21  1  0  0  0  0
 20 40  1  0  0  0  0
 20 41  1  0  0  0  0
 21 42  1  0  0  0  0
 21 43  1  0  0  0  0
M  END
> <s_m_source_file>
AV-unprocessed.smi

> <i_m_source_file_index>
2656

> <i_lp_mmshare_version>
43012

> <i_f3d_flags>
0

> <s_epik_input>
W0NIMl0xW0NIMl1bQ0gyXVtDSDJdQzEoQyg9TylOKFtDSDNdKVtDSDNdKVtDSDJdW05IXUMoPU8pW05IXWMyW2NIXVtjSF1uW2NIXVtjSF0y

> <s_epik_cmdline>
J2VwaWtfcHl0aG9uJywgJy1waCcsICc3LjAnLCAnLXRuJywgJzgnLCAnLW1hJywgJzIwMCcsICctbWV0YWxfYmluZGluZycsICctaW1hZScsICc8aW5maWxlLm1hZT4nLCAnLW9tYWUnLCAnPG91dGZpbGUubWFlPic=

> <r_epik_Ionization_Penalty>
0.108834

> <r_epik_Ionization_Penalty_Charging>
0

> <r_epik_Ionization_Penalty_Neutral>
0.108834

> <r_epik_State_Penalty>
0.0985887

> <r_epik_Charging_Adjusted_Penalty>
0.0985887

> <i_epik_Tot_Q>
0

> <i_epik_Tot_abs_Q>
0

> <r_epik_Metal_State_Penalty>
0.0831677

> <b_epik_Metal_Only>
0

> <s_lp_Force_Field>
OPLS_2005

> <r_lp_Energy>
40.4263

> <b_lp_Chiralities_Consistent>
1

> <s_lp_Variant>
AV-unprocessed.smi:2656-1

> <Gold.Version>
5.8.1

> <Gold.Id.Protein>
6NUR|6NUR_protein|mol2

> <Gold.PLP.Fitness>
40.9202

> <Gold.PLP.PLP>
-29.7840

> <Gold.PLP.part.hbond>
-2.8982

> <Gold.PLP.part.metal>
0.0000

> <Gold.PLP.part.buried>
-3.9965

> <Gold.PLP.part.nonpolar>
-24.5876

> <Gold.PLP.part.repulsive>
0.4557

> <Gold.PLP.ligand.clash>
0.0000

> <Gold.PLP.ligand.torsion>
0.4269

> <Gold.PLP.Chemscore.Hbond>
2.0566

> <Gold.PLP.Chemscore.CHOScore>
1.8790

> <Gold.PLP.Chemscore.Metal>
0.0000

> <Gold.Chemscore.Hbonds>
donor molecule, donor type, donor heavy atom, donor atom, acceptor molecule, acceptor atom, score
      L1  H     8    30       P1  7948  1.00
      L1  H    11    31       P1  7948  0.96
      P1  H 10785 10796       L1    15  0.10
      L1  C    14    33       P1 10747  0.83
      L1  C    16    34       P1 10186  0.98

> <Gold.PLP.Chemscore.Internal.Correction>
0.1830

> <Gold.Rescore>
     Score         DG    S(hbond)    S(metal)    S(lipo)     H(rot)  DE(clash)    DE(int)     intcor
     15.11     -16.75       1.94        0.00      73.95       1.51       0.05       1.59       ----

> <Gold.Chemscore.Fitness>
15.1068

> <Gold.Chemscore.DG>
-16.7521

> <Gold.Chemscore.ZeroCoef>
-5.4800

> <Gold.Chemscore.Hbond>
1.9425

> <Gold.Chemscore.Metal>
0.0000

> <Gold.Chemscore.Lipo>
73.9538

> <Gold.Chemscore.Internal_Hbond>
0.0000

> <Gold.Chemscore.DEClash>
0.0543

> <Gold.Chemscore.DEInternal>
1.5910

> <Gold.Chemscore.Rot>
1.5112

> <Gold.Chemscore.Internal.Correction>
   9.000000E+99

> <Gold.Chemscore.Hbonds>
donor molecule, donor type, donor heavy atom, donor atom, acceptor molecule, acceptor atom, score
      L1  H     8    30       P1  7948  0.98
      L1  H    11    31       P1  7948  0.83
      P1  H 10785 10796       L1    15  0.07

> <Gold.Chemscore.Hbond.Weighted>
-6.4881

> <Gold.Chemscore.Metal.Weighted>
-0.0000

> <Gold.Chemscore.Lipo.Weighted>
-8.6526

> <Gold.Chemscore.Internal_Hbond.Weighted>
0.0000

> <Gold.Chemscore.DEClash.Weighted>
0.0543

> <Gold.Chemscore.DEInternal.Weighted>
1.5910

> <Gold.Chemscore.Rot.Weighted>
3.8686

> <Gold.Chemscore.Internal.Correction.Weighted>
   9.000000E+99

> <Gold.Protein.RotatedTorsions>
[ 6907 6896 6895 6894 ] final -149.69 input  -60.11 | X-H torsion
[ 7974 7965 7964 7962 ] final -164.74 input  175.53 | X-H torsion
[ 8008 7997 7996 7995 ] final -128.28 input   59.86 | X-H torsion
[ 10167 10162 10161 10158 ] final  -97.99 input  -65.29 | X-H torsion
[ 10718 10713 10712 10709 ] final -127.23 input   66.30 | X-H torsion
[ 10763 10752 10751 10750 ] final -108.02 input  -60.55 | X-H torsion
[ 11005 11000 10999 10996 ] final  -61.93 input  -57.11 | X-H torsion

> <Gold.Protein.ActiveResidues>
 VAL166  LYS551  ARG553  GLY616  TRP617  ASP618  TYR619  PRO620  LYS621  CYS622 
 ASP623  PHE694  ASN695  SER759  ASP760  ASP761  ALA762  ILE779  LEU786  VAL792 
 PHE793  MET794  SER795  GLU796  ALA797  LYS798  CYS799  TRP800  GLU811  SER814 

> <Gold.Protein.RotatedAtoms>
  151.1877  133.4686  159.2594 H   0  0  0  0  0  0  0  0  0  0  0  0  # atno 6907 bound_to 6896
  151.1195  135.0071  159.8542 H   0  0  0  0  0  0  0  0  0  0  0  0  # atno 6908 bound_to 6896
  152.5455  134.1790  159.8680 H   0  0  0  0  0  0  0  0  0  0  0  0  # atno 6909 bound_to 6896
  144.7288  140.2917  143.6219 H   0  0  0  0  0  0  0  0  0  0  0  0  # atno 7974 bound_to 7965
  155.2600  140.0435  157.2996 H   0  0  0  0  0  0  0  0  0  0  0  0  # atno 8008 bound_to 7997
  154.5716  140.2375  155.8152 H   0  0  0  0  0  0  0  0  0  0  0  0  # atno 8009 bound_to 7997
  156.2127  140.2994  155.9776 H   0  0  0  0  0  0  0  0  0  0  0  0  # atno 8010 bound_to 7997
  140.2777  143.3302  152.0472 H   0  0  0  0  0  0  0  0  0  0  0  0  # atno 10167 bound_to 10162
  156.1837  130.6749  151.0338 H   0  0  0  0  0  0  0  0  0  0  0  0  # atno 10718 bound_to 10713
  154.8110  135.4653  154.0517 H   0  0  0  0  0  0  0  0  0  0  0  0  # atno 10763 bound_to 10752
  153.1948  135.6860  153.8313 H   0  0  0  0  0  0  0  0  0  0  0  0  # atno 10764 bound_to 10752
  153.7819  135.3255  155.3344 H   0  0  0  0  0  0  0  0  0  0  0  0  # atno 10765 bound_to 10752
  141.1342  133.6635  156.5451 H   0  0  0  0  0  0  0  0  0  0  0  0  # atno 11005 bound_to 11000
  145.7849  139.1905  143.2136 LP  0  0  0  0  0  0  0  0  0  0  0  0  # atno 17320 bound_to 7965
  146.0804  140.7771  142.9644 LP  0  0  0  0  0  0  0  0  0  0  0  0  # atno 17321 bound_to 7965
  139.4971  144.6613  151.6457 LP  0  0  0  0  0  0  0  0  0  0  0  0  # atno 17342 bound_to 10162
  140.5838  143.9900  150.6283 LP  0  0  0  0  0  0  0  0  0  0  0  0  # atno 17343 bound_to 10162
  157.6885  131.0817  150.7175 LP  0  0  0  0  0  0  0  0  0  0  0  0  # atno 17370 bound_to 10713
  156.7231  130.4687  149.5518 LP  0  0  0  0  0  0  0  0  0  0  0  0  # atno 17371 bound_to 10713
  140.4109  134.7273  157.4835 LP  0  0  0  0  0  0  0  0  0  0  0  0  # atno 17394 bound_to 11000
  140.0428  134.6242  155.8959 LP  0  0  0  0  0  0  0  0  0  0  0  0  # atno 17395 bound_to 11000

$$$$
