AV-unprocessed.smi:1047|AV-procd|sdf|4573|dock6
  -GOLD-   22720 3 33D 1   1.00000     0.00000
 Structure written by MMmdl.
 56 58  0  0  0  0  0  0  0  0  2 V2000
  144.6210  131.4417  151.4321 C   0  0  0  0  0  0  0  0  0  0  0  0
  145.1785  132.4833  152.4125 C   0  0  0  0  0  0  0  0  0  0  0  0
  144.1761  133.5203  152.7750 N   0  3  2  0  0  0  0  0  0  0  0  0
  143.3231  133.9402  151.6367 C   0  0  0  0  0  0  0  0  0  0  0  0
  144.0745  134.9107  150.7079 C   0  0  0  0  0  0  0  0  0  0  0  0
  144.5271  136.0309  151.4590 O   0  0  0  0  0  0  0  0  0  0  0  0
  145.4432  135.6681  152.4870 C   0  0  1  0  0  0  0  0  0  0  0  0
  145.9106  136.9629  153.1692 C   0  0  0  0  0  0  0  0  0  0  0  0
  145.8964  138.0893  152.2407 N   0  0  0  0  0  0  0  0  0  0  0  0
  147.0502  138.9722  152.3809 C   0  0  0  0  0  0  0  0  0  0  0  0
  146.9842  139.7780  153.6920 C   0  0  2  0  0  0  0  0  0  0  0  0
  145.7991  140.5491  153.6831 O   0  0  0  0  0  0  0  0  0  0  0  0
  148.1905  140.7217  153.8901 C   0  0  0  0  0  0  0  0  0  0  0  0
  149.3286  140.0896  154.5396 N   0  0  0  0  0  0  0  0  0  0  0  0
  149.9587  138.9621  154.1561 C   0  0  0  0  0  0  0  0  0  0  0  0
  150.9844  138.5540  154.8972 N   0  0  0  0  0  0  0  0  0  0  0  0
  151.0194  139.5249  155.8831 C   0  0  0  0  0  0  0  0  0  0  0  0
  151.8816  139.6745  156.9913 C   0  0  0  0  0  0  0  0  0  0  0  0
  151.7310  140.7582  157.8855 C   0  0  0  0  0  0  0  0  0  0  0  0
  152.6802  140.8800  159.0646 C   0  0  0  0  0  0  0  0  0  0  0  0
  150.7045  141.7139  157.6767 C   0  0  0  0  0  0  0  0  0  0  0  0
  150.5230  142.8864  158.6242 C   0  0  0  0  0  0  0  0  0  0  0  0
  149.8349  141.5797  156.5742 C   0  0  0  0  0  0  0  0  0  0  0  0
  149.9951  140.4977  155.6906 C   0  0  0  0  0  0  0  0  0  0  0  0
  144.7307  134.7101  153.4701 C   0  0  0  0  0  0  0  0  0  0  0  0
  145.4094  130.7620  151.1087 H   0  0  0  0  0  0  0  0  0  0  0  0
  144.2114  131.9177  150.5410 H   0  0  0  0  0  0  0  0  0  0  0  0
  143.8369  130.8326  151.8809 H   0  0  0  0  0  0  0  0  0  0  0  0
  145.5744  131.9933  153.3015 H   0  0  0  0  0  0  0  0  0  0  0  0
  146.0273  132.9680  151.9288 H   0  0  0  0  0  0  0  0  0  0  0  0
  142.9620  133.0728  151.0828 H   0  0  0  0  0  0  0  0  0  0  0  0
  142.4382  134.4375  152.0359 H   0  0  0  0  0  0  0  0  0  0  0  0
  144.9150  134.4196  150.2156 H   0  0  0  0  0  0  0  0  0  0  0  0
  143.4089  135.2631  149.9198 H   0  0  0  0  0  0  0  0  0  0  0  0
  146.3069  135.1826  152.0297 H   0  0  0  0  0  0  0  0  0  0  0  0
  145.2483  137.1807  154.0079 H   0  0  0  0  0  0  0  0  0  0  0  0
  146.9079  136.8260  153.5892 H   0  0  0  0  0  0  0  0  0  0  0  0
  145.0410  138.6236  152.3564 H   0  0  0  0  0  0  0  0  0  0  0  0
  147.9555  138.3638  152.3887 H   0  0  0  0  0  0  0  0  0  0  0  0
  147.1344  139.6397  151.5219 H   0  0  0  0  0  0  0  0  0  0  0  0
  146.9427  139.0983  154.5443 H   0  0  0  0  0  0  0  0  0  0  0  0
  145.2927  140.3116  152.9211 H   0  0  0  0  0  0  0  0  0  0  0  0
  148.5180  141.1243  152.9306 H   0  0  0  0  0  0  0  0  0  0  0  0
  147.8904  141.5802  154.4925 H   0  0  0  0  0  0  0  0  0  0  0  0
  149.6491  138.4118  153.2795 H   0  0  0  0  0  0  0  0  0  0  0  0
  152.6628  138.9458  157.1502 H   0  0  0  0  0  0  0  0  0  0  0  0
  152.1268  140.8718  160.0038 H   0  0  0  0  0  0  0  0  0  0  0  0
  153.2471  141.8093  159.0037 H   0  0  0  0  0  0  0  0  0  0  0  0
  153.3922  140.0548  159.0897 H   0  0  0  0  0  0  0  0  0  0  0  0
  149.7035  143.5315  158.3062 H   0  0  0  0  0  0  0  0  0  0  0  0
  151.4289  143.4916  158.6621 H   0  0  0  0  0  0  0  0  0  0  0  0
  150.2994  142.5324  159.6307 H   0  0  0  0  0  0  0  0  0  0  0  0
  149.0491  142.3009  156.4035 H   0  0  0  0  0  0  0  0  0  0  0  0
  143.9021  135.2357  153.9466 H   0  0  0  0  0  0  0  0  0  0  0  0
  145.3988  134.4132  154.2773 H   0  0  0  0  0  0  0  0  0  0  0  0
  143.5561  133.0675  153.4316 H   0  0  0  0  0  0  0  0  0  0  0  0
  1  2  1  0  0  0  0
  1 26  1  0  0  0  0
  1 27  1  0  0  0  0
  1 28  1  0  0  0  0
  2  3  1  0  0  0  0
  2 29  1  0  0  0  0
  2 30  1  0  0  0  0
  3 25  1  0  0  0  0
  3  4  1  0  0  0  0
  3 56  1  0  0  0  0
  4  5  1  0  0  0  0
  4 31  1  0  0  0  0
  4 32  1  0  0  0  0
  5  6  1  0  0  0  0
  5 33  1  0  0  0  0
  5 34  1  0  0  0  0
  6  7  1  0  0  0  0
  7  8  1  0  0  0  0
  7 25  1  0  0  0  0
  7 35  1  0  0  0  0
  8  9  1  0  0  0  0
  8 36  1  0  0  0  0
  8 37  1  0  0  0  0
  9 10  1  0  0  0  0
  9 38  1  0  0  0  0
 10 11  1  0  0  0  0
 10 39  1  0  0  0  0
 10 40  1  0  0  0  0
 11 12  1  0  0  0  0
 11 13  1  0  0  0  0
 11 41  1  0  0  0  0
 12 42  1  0  0  0  0
 13 14  1  0  0  0  0
 13 43  1  0  0  0  0
 13 44  1  0  0  0  0
 14 24  1  0  0  0  0
 14 15  1  0  0  0  0
 15 16  2  0  0  0  0
 15 45  1  0  0  0  0
 16 17  1  0  0  0  0
 17 24  2  0  0  0  0
 17 18  1  0  0  0  0
 18 19  2  0  0  0  0
 18 46  1  0  0  0  0
 19 20  1  0  0  0  0
 19 21  1  0  0  0  0
 20 47  1  0  0  0  0
 20 48  1  0  0  0  0
 20 49  1  0  0  0  0
 21 22  1  0  0  0  0
 21 23  2  0  0  0  0
 22 50  1  0  0  0  0
 22 51  1  0  0  0  0
 22 52  1  0  0  0  0
 23 24  1  0  0  0  0
 23 53  1  0  0  0  0
 25 54  1  0  0  0  0
 25 55  1  0  0  0  0
M  CHG  1   3   1
M  END
> <s_m_source_file>
AV-unprocessed.smi

> <i_m_source_file_index>
1047

> <i_lp_mmshare_version>
43012

> <i_f3d_flags>
0

> <s_epik_input>
W0NIM11bQ0gyXU4xW0NIMl1bQ0gyXU9bQ0BIXShbQ0gyXTEpW0NIMl1bTkhdW0NIMl1bQ0BIXShbT0hdKVtDSDJdbihbY0hdbjIpYyhjMjMpW2NIXWMoW0NIM10pYyhbY0hdMylbQ0gzXQ==

> <s_epik_cmdline>
J2VwaWtfcHl0aG9uJywgJy1waCcsICc3LjAnLCAnLXRuJywgJzgnLCAnLW1hJywgJzIwMCcsICctbWV0YWxfYmluZGluZycsICctaW1hZScsICc8aW5maWxlLm1hZT4nLCAnLW9tYWUnLCAnPG91dGZpbGUubWFlPic=

> <r_epik_Ionization_Penalty>
1.19246

> <r_epik_Ionization_Penalty_Charging>
0.210041

> <r_epik_Ionization_Penalty_Neutral>
0.982415

> <r_epik_State_Penalty>
1.57595

> <r_epik_Charging_Adjusted_Penalty>
1.78599

> <i_epik_Tot_Q>
1

> <i_epik_Tot_abs_Q>
1

> <r_epik_Metal_State_Penalty>
1.46172

> <b_epik_Metal_Only>
0

> <s_lp_Force_Field>
OPLS_2005

> <r_lp_Energy>
32.195

> <b_lp_Chiralities_Consistent>
1

> <s_lp_Variant>
AV-unprocessed.smi:1047-14

> <Gold.Version>
5.8.1

> <Gold.Id.Protein>
6NUR|6NUR_protein|mol2

> <Gold.PLP.Fitness>
51.0141

> <Gold.PLP.PLP>
-39.9267

> <Gold.PLP.part.hbond>
-2.4170

> <Gold.PLP.part.metal>
0.0000

> <Gold.PLP.part.buried>
-5.5407

> <Gold.PLP.part.nonpolar>
-34.9305

> <Gold.PLP.part.repulsive>
0.3285

> <Gold.PLP.ligand.clash>
0.0000

> <Gold.PLP.ligand.torsion>
1.2077

> <Gold.PLP.Chemscore.Hbond>
3.1562

> <Gold.PLP.Chemscore.CHOScore>
1.2937

> <Gold.PLP.Chemscore.Metal>
0.0000

> <Gold.Chemscore.Hbonds>
donor molecule, donor type, donor heavy atom, donor atom, acceptor molecule, acceptor atom, score
      L1  H     3    56       P1 10957  1.79
      L1  H     9    38       P1 10175  0.37
      L1  H    12    42       P1 10175  0.70
      L1  C    15    45       P1  7948  0.69
      L1  C    15    45       P1  7957  0.41

> <Gold.PLP.Chemscore.Internal.Correction>
0.1528

> <Gold.Rescore>
     Score         DG    S(hbond)    S(metal)    S(lipo)     H(rot)  DE(clash)    DE(int)     intcor
     19.05     -20.22       2.81        0.00     102.95       2.62       0.04       1.12       ----

> <Gold.Chemscore.Fitness>
19.0538

> <Gold.Chemscore.DG>
-20.2170

> <Gold.Chemscore.ZeroCoef>
-5.4800

> <Gold.Chemscore.Hbond>
2.8148

> <Gold.Chemscore.Metal>
0.0000

> <Gold.Chemscore.Lipo>
102.9488

> <Gold.Chemscore.Internal_Hbond>
0.0000

> <Gold.Chemscore.DEClash>
0.0402

> <Gold.Chemscore.DEInternal>
1.1229

> <Gold.Chemscore.Rot>
2.6209

> <Gold.Chemscore.Internal.Correction>
   9.000000E+99

> <Gold.Chemscore.Hbonds>
donor molecule, donor type, donor heavy atom, donor atom, acceptor molecule, acceptor atom, score
      L1  H     3    56       P1 10957  0.77
      L1  H     9    38       P1 10175  0.37
      L1  H    12    42       P1 10175  0.67

> <Gold.Chemscore.Hbond.Weighted>
-9.4016

> <Gold.Chemscore.Metal.Weighted>
-0.0000

> <Gold.Chemscore.Lipo.Weighted>
-12.0450

> <Gold.Chemscore.Internal_Hbond.Weighted>
0.0000

> <Gold.Chemscore.DEClash.Weighted>
0.0402

> <Gold.Chemscore.DEInternal.Weighted>
1.1229

> <Gold.Chemscore.Rot.Weighted>
6.7096

> <Gold.Chemscore.Internal.Correction.Weighted>
   9.000000E+99

> <Gold.Protein.RotatedTorsions>
[ 6907 6896 6895 6894 ] final   75.31 input  -60.11 | X-H torsion
[ 7974 7965 7964 7962 ] final -148.64 input  175.53 | X-H torsion
[ 8008 7997 7996 7995 ] final -116.40 input   59.86 | X-H torsion
[ 10167 10162 10161 10158 ] final   49.97 input  -65.29 | X-H torsion
[ 10718 10713 10712 10709 ] final   87.26 input   66.30 | X-H torsion
[ 10763 10752 10751 10750 ] final  129.50 input  -60.55 | X-H torsion
[ 11005 11000 10999 10996 ] final  162.31 input  -57.11 | X-H torsion

> <Gold.Protein.ActiveResidues>
 VAL166  LYS551  ARG553  GLY616  TRP617  ASP618  TYR619  PRO620  LYS621  CYS622 
 ASP623  PHE694  ASN695  SER759  ASP760  ASP761  ALA762  ILE779  LEU786  VAL792 
 PHE793  MET794  SER795  GLU796  ALA797  LYS798  CYS799  TRP800  GLU811  SER814 

> <Gold.Protein.RotatedAtoms>
  152.5019  134.4140  159.9458 H   0  0  0  0  0  0  0  0  0  0  0  0  # atno 6907 bound_to 6896
  151.4110  133.3721  159.2751 H   0  0  0  0  0  0  0  0  0  0  0  0  # atno 6908 bound_to 6896
  150.9292  134.8729  159.7599 H   0  0  0  0  0  0  0  0  0  0  0  0  # atno 6909 bound_to 6896
  144.8017  140.5170  143.5702 H   0  0  0  0  0  0  0  0  0  0  0  0  # atno 7974 bound_to 7965
  155.0673  140.0393  157.2597 H   0  0  0  0  0  0  0  0  0  0  0  0  # atno 8008 bound_to 7997
  154.7011  140.2673  155.6694 H   0  0  0  0  0  0  0  0  0  0  0  0  # atno 8009 bound_to 7997
  156.2760  140.2740  156.1622 H   0  0  0  0  0  0  0  0  0  0  0  0  # atno 8010 bound_to 7997
  140.2773  144.3196  150.6273 H   0  0  0  0  0  0  0  0  0  0  0  0  # atno 10167 bound_to 10162
  157.6938  131.0248  150.3096 H   0  0  0  0  0  0  0  0  0  0  0  0  # atno 10718 bound_to 10713
  153.7428  135.3221  155.3307 H   0  0  0  0  0  0  0  0  0  0  0  0  # atno 10763 bound_to 10752
  154.8289  135.4548  154.1010 H   0  0  0  0  0  0  0  0  0  0  0  0  # atno 10764 bound_to 10752
  153.2189  135.6945  153.8105 H   0  0  0  0  0  0  0  0  0  0  0  0  # atno 10765 bound_to 10752
  140.2244  134.8171  157.3254 H   0  0  0  0  0  0  0  0  0  0  0  0  # atno 11005 bound_to 11000
  145.5537  139.1477  143.3380 LP  0  0  0  0  0  0  0  0  0  0  0  0  # atno 17320 bound_to 7965
  146.2300  140.5674  142.8979 LP  0  0  0  0  0  0  0  0  0  0  0  0  # atno 17321 bound_to 7965
  140.5840  143.2171  151.7376 LP  0  0  0  0  0  0  0  0  0  0  0  0  # atno 17342 bound_to 10162
  139.4972  144.4038  152.0153 LP  0  0  0  0  0  0  0  0  0  0  0  0  # atno 17343 bound_to 10162
  156.3600  130.3845  149.7259 LP  0  0  0  0  0  0  0  0  0  0  0  0  # atno 17370 bound_to 10713
  156.4709  130.7996  151.3014 LP  0  0  0  0  0  0  0  0  0  0  0  0  # atno 17371 bound_to 10713
  140.1815  134.4483  155.7769 LP  0  0  0  0  0  0  0  0  0  0  0  0  # atno 17394 bound_to 11000
  141.2221  133.6986  156.7877 LP  0  0  0  0  0  0  0  0  0  0  0  0  # atno 17395 bound_to 11000

$$$$
