AV-unprocessed.smi:258|AV-procd|sdf|1970|dock8
  -GOLD-   2262021133D 1   1.00000     0.00000
 Structure written by MMmdl.
 57 60  0  0  0  0  0  0  0  0  1 V2000
  146.7944  131.7259  150.0692 O   0  0  0  0  0  0  0  0  0  0  0  0
  146.7842  132.9936  150.6891 C   0  0  0  0  0  0  0  0  0  0  0  0
  147.0203  132.8363  152.1992 C   0  0  0  0  0  0  0  0  0  0  0  0
  147.5677  134.0245  152.7567 O   0  0  0  0  0  0  0  0  0  0  0  0
  148.0555  133.9037  154.0876 C   0  0  1  0  0  0  0  0  0  0  0  0
  148.9595  132.6618  154.1446 C   0  0  0  0  0  0  0  0  0  0  0  0
  149.6038  132.5344  155.5330 C   0  0  0  0  0  0  0  0  0  0  0  0
  150.3621  133.8184  155.9061 C   0  0  0  0  0  0  0  0  0  0  0  0
  149.4940  134.9898  155.7896 N   0  0  0  0  0  0  0  0  0  0  0  0
  149.9617  136.1020  156.4114 C   0  0  0  0  0  0  0  0  0  0  0  0
  150.2146  136.0779  157.7478 N   0  0  0  0  0  0  0  0  0  0  0  0
  150.6635  137.1715  158.3707 C   0  0  0  0  0  0  0  0  0  0  0  0
  150.9295  138.3737  157.8574 N   0  0  0  0  0  0  0  0  0  0  0  0
  150.6892  138.4025  156.5155 C   0  0  0  0  0  0  0  0  0  0  0  0
  150.2057  137.3236  155.7222 C   0  0  0  0  0  0  0  0  0  0  0  0
  150.0889  137.7274  154.3971 N   0  0  0  0  0  0  0  0  0  0  0  0
  150.4715  138.9751  154.4082 C   0  0  0  0  0  0  0  0  0  0  0  0
  150.8687  139.4558  155.6357 N   0  0  0  0  0  0  0  0  0  0  0  0
  151.3335  140.7994  155.9326 C   0  0  0  0  0  0  0  0  0  0  0  0
  150.7202  141.4393  157.2098 C   0  0  2  0  0  0  0  0  0  0  0  0
  149.2837  141.9232  156.8943 C   0  0  0  0  0  0  0  0  0  0  0  0
  149.2084  142.5156  155.6140 O   0  0  0  0  0  0  0  0  0  0  0  0
  151.5935  142.5883  157.7982 C   0  0  1  0  0  0  0  0  0  0  0  0
  151.3504  143.9625  157.1905 C   0  0  0  0  0  0  0  0  0  0  0  0
  151.9466  144.8911  158.2370 C   0  0  0  0  0  0  0  0  0  0  0  0
  151.5842  144.2983  159.4729 O   0  0  0  0  0  0  0  0  0  0  0  0
  151.3704  142.9019  159.2888 C   0  0  0  0  0  0  0  0  0  0  0  0
  148.8539  135.1626  154.4837 C   0  0  0  0  0  0  0  0  0  0  0  0
  147.6498  131.3417  150.1854 H   0  0  0  0  0  0  0  0  0  0  0  0
  147.5498  133.6165  150.2277 H   0  0  0  0  0  0  0  0  0  0  0  0
  145.8211  133.4690  150.5029 H   0  0  0  0  0  0  0  0  0  0  0  0
  146.0631  132.6615  152.6914 H   0  0  0  0  0  0  0  0  0  0  0  0
  147.6410  131.9660  152.4142 H   0  0  0  0  0  0  0  0  0  0  0  0
  147.2322  133.7585  154.7882 H   0  0  0  0  0  0  0  0  0  0  0  0
  148.3826  131.7654  153.9146 H   0  0  0  0  0  0  0  0  0  0  0  0
  149.7389  132.7360  153.3850 H   0  0  0  0  0  0  0  0  0  0  0  0
  148.8321  132.3373  156.2782 H   0  0  0  0  0  0  0  0  0  0  0  0
  150.2820  131.6813  155.5545 H   0  0  0  0  0  0  0  0  0  0  0  0
  150.7645  133.7180  156.9135 H   0  0  0  0  0  0  0  0  0  0  0  0
  151.2167  133.9504  155.2413 H   0  0  0  0  0  0  0  0  0  0  0  0
  150.8344  137.0680  159.4322 H   0  0  0  0  0  0  0  0  0  0  0  0
  150.4878  139.5781  153.5120 H   0  0  0  0  0  0  0  0  0  0  0  0
  152.4208  140.7781  156.0166 H   0  0  0  0  0  0  0  0  0  0  0  0
  151.1104  141.4069  155.0552 H   0  0  0  0  0  0  0  0  0  0  0  0
  150.6321  140.6683  157.9763 H   0  0  0  0  0  0  0  0  0  0  0  0
  148.5743  141.0968  156.8905 H   0  0  0  0  0  0  0  0  0  0  0  0
  148.9411  142.6373  157.6438 H   0  0  0  0  0  0  0  0  0  0  0  0
  149.1213  143.4508  155.7191 H   0  0  0  0  0  0  0  0  0  0  0  0
  152.6469  142.3451  157.6505 H   0  0  0  0  0  0  0  0  0  0  0  0
  151.8194  144.0921  156.2147 H   0  0  0  0  0  0  0  0  0  0  0  0
  150.2811  144.1539  157.0882 H   0  0  0  0  0  0  0  0  0  0  0  0
  153.0343  144.9120  158.1567 H   0  0  0  0  0  0  0  0  0  0  0  0
  151.5762  145.9132  158.1564 H   0  0  0  0  0  0  0  0  0  0  0  0
  150.3484  142.6774  159.5954 H   0  0  0  0  0  0  0  0  0  0  0  0
  152.0474  142.3392  159.9301 H   0  0  0  0  0  0  0  0  0  0  0  0
  149.6199  135.3670  153.7342 H   0  0  0  0  0  0  0  0  0  0  0  0
  148.1925  136.0289  154.5131 H   0  0  0  0  0  0  0  0  0  0  0  0
  1  2  1  0  0  0  0
  1 29  1  0  0  0  0
  2  3  1  0  0  0  0
  2 30  1  0  0  0  0
  2 31  1  0  0  0  0
  3  4  1  0  0  0  0
  3 32  1  0  0  0  0
  3 33  1  0  0  0  0
  4  5  1  0  0  0  0
  5 28  1  0  0  0  0
  5  6  1  0  0  0  0
  5 34  1  0  0  0  0
  6  7  1  0  0  0  0
  6 35  1  0  0  0  0
  6 36  1  0  0  0  0
  7  8  1  0  0  0  0
  7 37  1  0  0  0  0
  7 38  1  0  0  0  0
  8  9  1  0  0  0  0
  8 39  1  0  0  0  0
  8 40  1  0  0  0  0
  9 10  1  0  0  0  0
  9 28  1  0  0  0  0
 10 15  1  0  0  0  0
 10 11  2  0  0  0  0
 11 12  1  0  0  0  0
 12 13  2  0  0  0  0
 12 41  1  0  0  0  0
 13 14  1  0  0  0  0
 14 18  1  0  0  0  0
 14 15  2  0  0  0  0
 15 16  1  0  0  0  0
 16 17  2  0  0  0  0
 17 18  1  0  0  0  0
 17 42  1  0  0  0  0
 18 19  1  0  0  0  0
 19 20  1  0  0  0  0
 19 43  1  0  0  0  0
 19 44  1  0  0  0  0
 20 21  1  0  0  0  0
 20 23  1  0  0  0  0
 20 45  1  0  0  0  0
 21 22  1  0  0  0  0
 21 46  1  0  0  0  0
 21 47  1  0  0  0  0
 22 48  1  0  0  0  0
 23 27  1  0  0  0  0
 23 24  1  0  0  0  0
 23 49  1  0  0  0  0
 24 25  1  0  0  0  0
 24 50  1  0  0  0  0
 24 51  1  0  0  0  0
 25 26  1  0  0  0  0
 25 52  1  0  0  0  0
 25 53  1  0  0  0  0
 26 27  1  0  0  0  0
 27 54  1  0  0  0  0
 27 55  1  0  0  0  0
 28 56  1  0  0  0  0
 28 57  1  0  0  0  0
M  END
> <s_m_source_file>
AV-unprocessed.smi

> <i_m_source_file_index>
258

> <i_lp_mmshare_version>
43012

> <i_f3d_flags>
0

> <s_epik_input>
W09IXVtDSDJdW0NIMl1PW0NAQEhdMVtDSDJdW0NIMl1bQ0gyXU4oW0NIMl0xKWMobltjSF1uMiljKGMyMyluW2NIXW4zW0NIMl1bQ0BIXShbQ0gyXVtPSF0pW0NAQEhdNFtDSDJdW0NIMl1PW0NIMl00

> <s_epik_cmdline>
J2VwaWtfcHl0aG9uJywgJy1waCcsICc3LjAnLCAnLXRuJywgJzgnLCAnLW1hJywgJzIwMCcsICctbWV0YWxfYmluZGluZycsICctaW1hZScsICc8aW5maWxlLm1hZT4nLCAnLW9tYWUnLCAnPG91dGZpbGUubWFlPic=

> <r_lp_tautomer_probability>
1

> <r_epik_Ionization_Penalty>
0.00349036

> <r_epik_Ionization_Penalty_Charging>
0

> <r_epik_Ionization_Penalty_Neutral>
0.00349036

> <r_epik_State_Penalty>
0.00229798

> <r_epik_Charging_Adjusted_Penalty>
0.00229798

> <i_epik_Tot_Q>
0

> <i_epik_Tot_abs_Q>
0

> <r_epik_Metal_State_Penalty>
-0

> <b_epik_Metal_Only>
0

> <s_lp_Force_Field>
OPLS_2005

> <r_lp_Energy>
44.143

> <b_lp_Chiralities_Consistent>
1

> <s_lp_Variant>
AV-unprocessed.smi:258-6

> <Gold.Version>
5.8.1

> <Gold.Id.Protein>
6NUR|6NUR_protein|mol2

> <Gold.PLP.Fitness>
49.3971

> <Gold.PLP.PLP>
-42.9351

> <Gold.PLP.part.hbond>
-2.7558

> <Gold.PLP.part.metal>
0.0000

> <Gold.PLP.part.buried>
-5.4267

> <Gold.PLP.part.nonpolar>
-36.5729

> <Gold.PLP.part.repulsive>
2.3669

> <Gold.PLP.ligand.clash>
0.0000

> <Gold.PLP.ligand.torsion>
1.5564

> <Gold.PLP.Chemscore.Hbond>
2.0629

> <Gold.PLP.Chemscore.CHOScore>
0.9367

> <Gold.PLP.Chemscore.Metal>
0.0000

> <Gold.Chemscore.Hbonds>
donor molecule, donor type, donor heavy atom, donor atom, acceptor molecule, acceptor atom, score
      L1  H     1    29       P1 10747  0.68
      L1  H    22    48       P1  8028  0.41
      L1  C    17    42       P1  7957  0.97

> <Gold.PLP.Chemscore.Internal.Correction>
0.5760

> <Gold.Rescore>
     Score         DG    S(hbond)    S(metal)    S(lipo)     H(rot)  DE(clash)    DE(int)     intcor
     10.03     -13.32       2.05        0.00     101.02       4.22       0.45       2.83       ----

> <Gold.Chemscore.Fitness>
10.0297

> <Gold.Chemscore.DG>
-13.3161

> <Gold.Chemscore.ZeroCoef>
-5.4800

> <Gold.Chemscore.Hbond>
2.0453

> <Gold.Chemscore.Metal>
0.0000

> <Gold.Chemscore.Lipo>
101.0234

> <Gold.Chemscore.Internal_Hbond>
0.0000

> <Gold.Chemscore.DEClash>
0.4516

> <Gold.Chemscore.DEInternal>
2.8348

> <Gold.Chemscore.Rot>
4.2246

> <Gold.Chemscore.Internal.Correction>
   9.000000E+99

> <Gold.Chemscore.Hbonds>
donor molecule, donor type, donor heavy atom, donor atom, acceptor molecule, acceptor atom, score
      L1  H     1    29       P1 10747  0.69
      L1  H    22    48       P1  8028  0.39

> <Gold.Chemscore.Hbond.Weighted>
-6.8312

> <Gold.Chemscore.Metal.Weighted>
-0.0000

> <Gold.Chemscore.Lipo.Weighted>
-11.8197

> <Gold.Chemscore.Internal_Hbond.Weighted>
0.0000

> <Gold.Chemscore.DEClash.Weighted>
0.4516

> <Gold.Chemscore.DEInternal.Weighted>
2.8348

> <Gold.Chemscore.Rot.Weighted>
10.8149

> <Gold.Chemscore.Internal.Correction.Weighted>
   9.000000E+99

> <Gold.Protein.RotatedTorsions>
[ 6907 6896 6895 6894 ] final  149.50 input  -60.11 | X-H torsion
[ 7974 7965 7964 7962 ] final   10.38 input  175.53 | X-H torsion
[ 8008 7997 7996 7995 ] final    4.19 input   59.86 | X-H torsion
[ 10167 10162 10161 10158 ] final  160.63 input  -65.29 | X-H torsion
[ 10718 10713 10712 10709 ] final   43.35 input   66.30 | X-H torsion
[ 10763 10752 10751 10750 ] final    2.84 input  -60.55 | X-H torsion
[ 11005 11000 10999 10996 ] final   63.00 input  -57.11 | X-H torsion

> <Gold.Protein.ActiveResidues>
 VAL166  LYS551  ARG553  GLY616  TRP617  ASP618  TYR619  PRO620  LYS621  CYS622 
 ASP623  PHE694  ASN695  SER759  ASP760  ASP761  ALA762  ILE779  LEU786  VAL792 
 PHE793  MET794  SER795  GLU796  ALA797  LYS798  CYS799  TRP800  GLU811  SER814 

> <Gold.Protein.RotatedAtoms>
  152.1272  133.4387  159.4703 H   0  0  0  0  0  0  0  0  0  0  0  0  # atno 6907 bound_to 6896
  150.6875  134.2464  159.4502 H   0  0  0  0  0  0  0  0  0  0  0  0  # atno 6908 bound_to 6896
  152.0346  134.9747  160.0623 H   0  0  0  0  0  0  0  0  0  0  0  0  # atno 6909 bound_to 6896
  146.2389  139.9642  142.8455 H   0  0  0  0  0  0  0  0  0  0  0  0  # atno 7974 bound_to 7965
  154.7129  140.2696  155.6612 H   0  0  0  0  0  0  0  0  0  0  0  0  # atno 8008 bound_to 7997
  156.2801  140.2750  156.1700 H   0  0  0  0  0  0  0  0  0  0  0  0  # atno 8009 bound_to 7997
  155.0611  140.0371  157.2567 H   0  0  0  0  0  0  0  0  0  0  0  0  # atno 8010 bound_to 7997
  139.4841  144.4615  151.8698 H   0  0  0  0  0  0  0  0  0  0  0  0  # atno 10167 bound_to 10162
  157.4149  130.7936  149.7463 H   0  0  0  0  0  0  0  0  0  0  0  0  # atno 10718 bound_to 10713
  153.2907  135.6948  153.7296 H   0  0  0  0  0  0  0  0  0  0  0  0  # atno 10763 bound_to 10752
  153.6248  135.3420  155.3023 H   0  0  0  0  0  0  0  0  0  0  0  0  # atno 10764 bound_to 10752
  154.8523  135.4395  154.1988 H   0  0  0  0  0  0  0  0  0  0  0  0  # atno 10765 bound_to 10752
  140.0054  134.6378  155.9864 H   0  0  0  0  0  0  0  0  0  0  0  0  # atno 11005 bound_to 11000
  145.1742  140.9735  143.4304 LP  0  0  0  0  0  0  0  0  0  0  0  0  # atno 17320 bound_to 7965
  145.0001  139.3607  143.6172 LP  0  0  0  0  0  0  0  0  0  0  0  0  # atno 17321 bound_to 7965
  140.4078  144.2409  150.5890 LP  0  0  0  0  0  0  0  0  0  0  0  0  # atno 17342 bound_to 10162
  140.4995  143.2322  151.8699 LP  0  0  0  0  0  0  0  0  0  0  0  0  # atno 17343 bound_to 10162
  155.9862  130.3976  150.3223 LP  0  0  0  0  0  0  0  0  0  0  0  0  # atno 17370 bound_to 10713
  157.1366  131.0285  151.2946 LP  0  0  0  0  0  0  0  0  0  0  0  0  # atno 17371 bound_to 10713
  141.1673  133.6537  156.4524 LP  0  0  0  0  0  0  0  0  0  0  0  0  # atno 17394 bound_to 11000
  140.4651  134.6805  157.5103 LP  0  0  0  0  0  0  0  0  0  0  0  0  # atno 17395 bound_to 11000

$$$$
