AV-unprocessed.smi:1383|AV-procd|sdf|5625|dock1
  -GOLD-   22720 5243D 1   1.00000     0.00000
 Structure written by MMmdl.
 30 30  0  0  0  0  0  0  0  0  2 V2000
  152.4113  143.7390  158.5592 C   0  0  0  0  0  0  0  0  0  0  0  0
  152.5357  142.6689  159.6551 C   0  0  0  0  0  0  0  0  0  0  0  0
  153.0892  141.3138  159.1592 C   0  0  1  0  0  0  0  0  0  0  0  0
  153.5912  140.4555  160.3330 C   0  0  0  0  0  0  0  0  0  0  0  0
  152.0439  140.5288  158.3434 C   0  0  0  0  0  0  0  0  0  0  0  0
  150.9940  140.1789  158.8867 O   0  0  0  0  0  0  0  0  0  0  0  0
  152.4440  140.3196  157.0658 N   0  5  0  0  0  0  0  0  0  0  0  0
  151.5243  140.1425  156.1049 C   0  0  0  0  0  0  0  0  0  0  0  0
  150.5536  141.0278  155.8542 N   0  0  0  0  0  0  0  0  0  0  0  0
  149.7106  140.6533  154.8036 C   0  0  0  0  0  0  0  0  0  0  0  0
  148.5689  141.5435  154.4046 C   0  0  0  0  0  0  0  0  0  0  0  0
  147.3031  140.7201  154.1544 C   0  0  0  0  0  0  0  0  0  0  0  0
  146.2172  141.3777  153.7374 N   0  0  0  0  0  0  0  0  0  0  0  0
  147.3015  139.5057  154.3463 O   0  0  0  0  0  0  0  0  0  0  0  0
  150.0538  139.4492  154.2444 C   0  0  0  0  0  0  0  0  0  0  0  0
  151.4522  138.7564  155.0151 S   0  0  0  0  0  0  0  0  0  0  0  0
  152.0702  144.6849  158.9803 H   0  0  0  0  0  0  0  0  0  0  0  0
  151.6967  143.4468  157.7891 H   0  0  0  0  0  0  0  0  0  0  0  0
  153.3716  143.9175  158.0747 H   0  0  0  0  0  0  0  0  0  0  0  0
  153.1932  143.0542  160.4350 H   0  0  0  0  0  0  0  0  0  0  0  0
  151.5645  142.5252  160.1307 H   0  0  0  0  0  0  0  0  0  0  0  0
  153.9577  141.5282  158.5320 H   0  0  0  0  0  0  0  0  0  0  0  0
  153.9748  139.4954  159.9856 H   0  0  0  0  0  0  0  0  0  0  0  0
  152.7967  140.2568  161.0532 H   0  0  0  0  0  0  0  0  0  0  0  0
  154.4009  140.9566  160.8641 H   0  0  0  0  0  0  0  0  0  0  0  0
  148.3717  142.2811  155.1834 H   0  0  0  0  0  0  0  0  0  0  0  0
  148.8106  142.1076  153.5029 H   0  0  0  0  0  0  0  0  0  0  0  0
  145.3559  140.8730  153.5812 H   0  0  0  0  0  0  0  0  0  0  0  0
  146.2550  142.3770  153.6002 H   0  0  0  0  0  0  0  0  0  0  0  0
  149.5747  138.9324  153.4266 H   0  0  0  0  0  0  0  0  0  0  0  0
  1  2  1  0  0  0  0
  1 17  1  0  0  0  0
  1 18  1  0  0  0  0
  1 19  1  0  0  0  0
  2  3  1  0  0  0  0
  2 20  1  0  0  0  0
  2 21  1  0  0  0  0
  3  4  1  0  0  0  0
  3  5  1  0  0  0  0
  3 22  1  0  0  0  0
  4 23  1  0  0  0  0
  4 24  1  0  0  0  0
  4 25  1  0  0  0  0
  5  6  2  0  0  0  0
  5  7  1  0  0  0  0
  7  8  1  0  0  0  0
  8 16  1  0  0  0  0
  8  9  2  0  0  0  0
  9 10  1  0  0  0  0
 10 11  1  0  0  0  0
 10 15  2  0  0  0  0
 11 12  1  0  0  0  0
 11 26  1  0  0  0  0
 11 27  1  0  0  0  0
 12 13  1  0  0  0  0
 12 14  2  0  0  0  0
 13 28  1  0  0  0  0
 13 29  1  0  0  0  0
 15 16  1  0  0  0  0
 15 30  1  0  0  0  0
M  CHG  1   7  -1
M  END
> <s_m_source_file>
AV-unprocessed.smi

> <i_m_source_file_index>
1383

> <i_lp_mmshare_version>
43012

> <i_f3d_flags>
0

> <s_epik_input>
W0NIM11bQ0gyXVtDQEhdKFtDSDNdKUMoPU8pW05IXWMxbmMoW2NIXXMxKVtDSDJdQyg9TylbTkgyXQ==

> <s_epik_cmdline>
J2VwaWtfcHl0aG9uJywgJy1waCcsICc3LjAnLCAnLXRuJywgJzgnLCAnLW1hJywgJzIwMCcsICctbWV0YWxfYmluZGluZycsICctaW1hZScsICc8aW5maWxlLm1hZT4nLCAnLW9tYWUnLCAnPG91dGZpbGUubWFlPic=

> <r_lp_tautomer_probability>
1

> <r_epik_Ionization_Penalty>
5.3563

> <r_epik_Ionization_Penalty_Charging>
4.90463

> <r_epik_Ionization_Penalty_Neutral>
0.451677

> <r_epik_State_Penalty>
4.90447

> <r_epik_Charging_Adjusted_Penalty>
9.8091

> <i_epik_Tot_Q>
-1

> <i_epik_Tot_abs_Q>
1

> <r_epik_Metal_State_Penalty>
1.05508

> <b_epik_Metal_Only>
1

> <s_lp_Force_Field>
OPLS_2005

> <r_lp_Energy>
-0.48596

> <b_lp_Chiralities_Consistent>
1

> <s_lp_Variant>
AV-unprocessed.smi:1383-4

> <Gold.Version>
5.8.1

> <Gold.Id.Protein>
6NUR|6NUR_protein|mol2

> <Gold.PLP.Fitness>
41.9532

> <Gold.PLP.PLP>
-32.5314

> <Gold.PLP.part.hbond>
-2.0000

> <Gold.PLP.part.metal>
0.0000

> <Gold.PLP.part.buried>
-0.5167

> <Gold.PLP.part.nonpolar>
-29.3583

> <Gold.PLP.part.repulsive>
0.2035

> <Gold.PLP.ligand.clash>
0.0000

> <Gold.PLP.ligand.torsion>
1.0131

> <Gold.PLP.Chemscore.Hbond>
2.9840

> <Gold.PLP.Chemscore.CHOScore>
0.7598

> <Gold.PLP.Chemscore.Metal>
0.0000

> <Gold.Chemscore.Hbonds>
donor molecule, donor type, donor heavy atom, donor atom, acceptor molecule, acceptor atom, score
      L1  H    13    28       P1 10175  0.99
      P1  H  7997  8009       L1     7  1.98
      L1  C    15    30       P1  7957  0.76

> <Gold.PLP.Chemscore.Internal.Correction>
0.2167

> <Gold.Rescore>
     Score         DG    S(hbond)    S(metal)    S(lipo)     H(rot)  DE(clash)    DE(int)     intcor
     11.99     -14.41       1.73        0.00      73.96       2.15       0.04       2.38       ----

> <Gold.Chemscore.Fitness>
11.9866

> <Gold.Chemscore.DG>
-14.4088

> <Gold.Chemscore.ZeroCoef>
-5.4800

> <Gold.Chemscore.Hbond>
1.7328

> <Gold.Chemscore.Metal>
0.0000

> <Gold.Chemscore.Lipo>
73.9624

> <Gold.Chemscore.Internal_Hbond>
0.0000

> <Gold.Chemscore.DEClash>
0.0395

> <Gold.Chemscore.DEInternal>
2.3827

> <Gold.Chemscore.Rot>
2.1532

> <Gold.Chemscore.Internal.Correction>
   9.000000E+99

> <Gold.Chemscore.Hbonds>
donor molecule, donor type, donor heavy atom, donor atom, acceptor molecule, acceptor atom, score
      L1  H    13    28       P1 10175  0.72
      P1  H  7997  8009       L1     7  0.88

> <Gold.Chemscore.Hbond.Weighted>
-5.7874

> <Gold.Chemscore.Metal.Weighted>
-0.0000

> <Gold.Chemscore.Lipo.Weighted>
-8.6536

> <Gold.Chemscore.Internal_Hbond.Weighted>
0.0000

> <Gold.Chemscore.DEClash.Weighted>
0.0395

> <Gold.Chemscore.DEInternal.Weighted>
2.3827

> <Gold.Chemscore.Rot.Weighted>
5.5123

> <Gold.Chemscore.Internal.Correction.Weighted>
   9.000000E+99

> <Gold.Protein.RotatedTorsions>
[ 6907 6896 6895 6894 ] final  -47.60 input  -60.11 | X-H torsion
[ 7974 7965 7964 7962 ] final -114.60 input  175.53 | X-H torsion
[ 8008 7997 7996 7995 ] final -177.92 input   59.86 | X-H torsion
[ 10167 10162 10161 10158 ] final   84.24 input  -65.29 | X-H torsion
[ 10718 10713 10712 10709 ] final  110.36 input   66.30 | X-H torsion
[ 10763 10752 10751 10750 ] final  148.38 input  -60.55 | X-H torsion
[ 11005 11000 10999 10996 ] final  -18.06 input  -57.11 | X-H torsion

> <Gold.Protein.ActiveResidues>
 VAL166  LYS551  ARG553  GLY616  TRP617  ASP618  TYR619  PRO620  LYS621  CYS622 
 ASP623  PHE694  ASN695  SER759  ASP760  ASP761  ALA762  ILE779  LEU786  VAL792 
 PHE793  MET794  SER795  GLU796  ALA797  LYS798  CYS799  TRP800  GLU811  SER814 

> <Gold.Protein.RotatedAtoms>
  150.8992  134.8402  159.7347 H   0  0  0  0  0  0  0  0  0  0  0  0  # atno 6907 bound_to 6896
  152.4882  134.4529  159.9590 H   0  0  0  0  0  0  0  0  0  0  0  0  # atno 6908 bound_to 6896
  151.4583  133.3560  159.2840 H   0  0  0  0  0  0  0  0  0  0  0  0  # atno 6909 bound_to 6896
  145.1183  140.8654  143.3829 H   0  0  0  0  0  0  0  0  0  0  0  0  # atno 7974 bound_to 7965
  156.0127  140.1244  157.0438 H   0  0  0  0  0  0  0  0  0  0  0  0  # atno 8008 bound_to 7997
  154.4281  140.1084  156.5921 H   0  0  0  0  0  0  0  0  0  0  0  0  # atno 8009 bound_to 7997
  155.6057  140.3471  155.4609 H   0  0  0  0  0  0  0  0  0  0  0  0  # atno 8010 bound_to 7997
  139.9100  144.6277  150.8547 H   0  0  0  0  0  0  0  0  0  0  0  0  # atno 10167 bound_to 10162
  157.6498  131.0931  150.6590 H   0  0  0  0  0  0  0  0  0  0  0  0  # atno 10718 bound_to 10713
  154.0538  135.2879  155.3336 H   0  0  0  0  0  0  0  0  0  0  0  0  # atno 10763 bound_to 10752
  154.6852  135.5248  153.8320 H   0  0  0  0  0  0  0  0  0  0  0  0  # atno 10764 bound_to 10752
  153.0550  135.6591  154.0732 H   0  0  0  0  0  0  0  0  0  0  0  0  # atno 10765 bound_to 10752
  140.8230  133.8054  155.9679 H   0  0  0  0  0  0  0  0  0  0  0  0  # atno 11005 bound_to 11000
  145.0769  139.2989  143.5803 LP  0  0  0  0  0  0  0  0  0  0  0  0  # atno 17320 bound_to 7965
  146.3522  140.0262  142.8654 LP  0  0  0  0  0  0  0  0  0  0  0  0  # atno 17321 bound_to 7965
  140.7687  143.3372  151.2283 LP  0  0  0  0  0  0  0  0  0  0  0  0  # atno 17342 bound_to 10162
  139.6950  143.9627  152.2878 LP  0  0  0  0  0  0  0  0  0  0  0  0  # atno 17343 bound_to 10162
  156.6902  130.4593  149.5602 LP  0  0  0  0  0  0  0  0  0  0  0  0  # atno 17370 bound_to 10713
  156.1867  130.6533  151.1014 LP  0  0  0  0  0  0  0  0  0  0  0  0  # atno 17371 bound_to 10713
  140.9079  134.2297  157.5003 LP  0  0  0  0  0  0  0  0  0  0  0  0  # atno 17394 bound_to 11000
  139.8707  134.9736  156.4817 LP  0  0  0  0  0  0  0  0  0  0  0  0  # atno 17395 bound_to 11000

$$$$
