AV-unprocessed.smi:354|AV-procd|sdf|2404|dock1
  -GOLD-   2262022333D 1   1.00000     0.00000
 Structure written by MMmdl.
 36 38  0  0  0  0  0  0  0  0  1 V2000
  151.6586  137.1550  159.7560 O   0  0  0  0  0  0  0  0  0  0  0  0
  151.9274  137.8581  158.5623 C   0  0  0  0  0  0  0  0  0  0  0  0
  152.0249  139.3381  158.7729 C   0  0  0  0  0  0  0  0  0  0  0  0
  152.8858  139.8712  159.6408 N   0  0  0  0  0  0  0  0  0  0  0  0
  152.6518  141.2260  159.5073 C   0  0  0  0  0  0  0  0  0  0  0  0
  153.2506  142.3294  160.1563 C   0  0  0  0  0  0  0  0  0  0  0  0
  152.8409  143.6444  159.8532 C   0  0  0  0  0  0  0  0  0  0  0  0
  151.8281  143.8746  158.8997 C   0  0  0  0  0  0  0  0  0  0  0  0
  151.2198  142.7893  158.2401 C   0  0  0  0  0  0  0  0  0  0  0  0
  151.6335  141.4786  158.5451 C   0  0  0  0  0  0  0  0  0  0  0  0
  151.2524  140.2199  158.0900 N   0  0  0  0  0  0  0  0  0  0  0  0
  150.2372  139.9382  157.0837 C   0  0  0  0  0  0  0  0  0  0  0  0
  150.5361  140.6021  155.7232 C   0  0  1  0  0  0  0  0  0  0  0  0
  151.6701  140.0077  155.1214 O   0  0  0  0  0  0  0  0  0  0  0  0
  149.3173  140.5758  154.8106 C   0  0  0  0  0  0  0  0  0  0  0  0
  148.7011  141.7903  154.4370 C   0  0  0  0  0  0  0  0  0  0  0  0
  147.5671  141.7873  153.6019 C   0  0  0  0  0  0  0  0  0  0  0  0
  147.0391  140.5689  153.1356 C   0  0  0  0  0  0  0  0  0  0  0  0
  147.6459  139.3538  153.5055 C   0  0  0  0  0  0  0  0  0  0  0  0
  148.7804  139.3536  154.3405 C   0  0  0  0  0  0  0  0  0  0  0  0
  149.3451  138.1725  154.6894 F   0  0  0  0  0  0  0  0  0  0  0  0
  151.7276  137.7574  160.4807 H   0  0  0  0  0  0  0  0  0  0  0  0
  152.8505  137.4832  158.1215 H   0  0  0  0  0  0  0  0  0  0  0  0
  151.1311  137.6476  157.8474 H   0  0  0  0  0  0  0  0  0  0  0  0
  154.0266  142.1632  160.8885 H   0  0  0  0  0  0  0  0  0  0  0  0
  153.3053  144.4804  160.3555 H   0  0  0  0  0  0  0  0  0  0  0  0
  151.5177  144.8846  158.6750 H   0  0  0  0  0  0  0  0  0  0  0  0
  150.4414  142.9610  157.5115 H   0  0  0  0  0  0  0  0  0  0  0  0
  150.1584  138.8565  156.9711 H   0  0  0  0  0  0  0  0  0  0  0  0
  149.2687  140.2689  157.4595 H   0  0  0  0  0  0  0  0  0  0  0  0
  150.8039  141.6443  155.8983 H   0  0  0  0  0  0  0  0  0  0  0  0
  152.2385  139.6858  155.8042 H   0  0  0  0  0  0  0  0  0  0  0  0
  149.0945  142.7320  154.7911 H   0  0  0  0  0  0  0  0  0  0  0  0
  147.1015  142.7204  153.3203 H   0  0  0  0  0  0  0  0  0  0  0  0
  146.1686  140.5656  152.4961 H   0  0  0  0  0  0  0  0  0  0  0  0
  147.2394  138.4185  153.1497 H   0  0  0  0  0  0  0  0  0  0  0  0
  1  2  1  0  0  0  0
  1 22  1  0  0  0  0
  2  3  1  0  0  0  0
  2 23  1  0  0  0  0
  2 24  1  0  0  0  0
  3 11  1  0  0  0  0
  3  4  2  0  0  0  0
  4  5  1  0  0  0  0
  5 10  2  0  0  0  0
  5  6  1  0  0  0  0
  6  7  2  0  0  0  0
  6 25  1  0  0  0  0
  7  8  1  0  0  0  0
  7 26  1  0  0  0  0
  8  9  2  0  0  0  0
  8 27  1  0  0  0  0
  9 10  1  0  0  0  0
  9 28  1  0  0  0  0
 10 11  1  0  0  0  0
 11 12  1  0  0  0  0
 12 13  1  0  0  0  0
 12 29  1  0  0  0  0
 12 30  1  0  0  0  0
 13 14  1  0  0  0  0
 13 15  1  0  0  0  0
 13 31  1  0  0  0  0
 14 32  1  0  0  0  0
 15 20  1  0  0  0  0
 15 16  2  0  0  0  0
 16 17  1  0  0  0  0
 16 33  1  0  0  0  0
 17 18  2  0  0  0  0
 17 34  1  0  0  0  0
 18 19  1  0  0  0  0
 18 35  1  0  0  0  0
 19 20  2  0  0  0  0
 19 36  1  0  0  0  0
 20 21  1  0  0  0  0
M  END
> <s_m_source_file>
AV-unprocessed.smi

> <i_m_source_file_index>
354

> <i_lp_mmshare_version>
43012

> <i_f3d_flags>
0

> <s_epik_input>
W2NIXTFbY0hdW2NIXVtjSF1jKGMxMiluKGMobjIpW0NIMl1bT0hdKVtDSDJdW0NASF0oW09IXSljM1tjSF1bY0hdW2NIXVtjSF1jM0Y=

> <s_epik_cmdline>
J2VwaWtfcHl0aG9uJywgJy1waCcsICc3LjAnLCAnLXRuJywgJzgnLCAnLW1hJywgJzIwMCcsICctbWV0YWxfYmluZGluZycsICctaW1hZScsICc8aW5maWxlLm1hZT4nLCAnLW9tYWUnLCAnPG91dGZpbGUubWFlPic=

> <r_epik_Ionization_Penalty>
0.0634722

> <r_epik_Ionization_Penalty_Charging>
0

> <r_epik_Ionization_Penalty_Neutral>
0.0634722

> <r_epik_State_Penalty>
0.0551572

> <r_epik_Charging_Adjusted_Penalty>
0.0551572

> <i_epik_Tot_Q>
0

> <i_epik_Tot_abs_Q>
0

> <r_epik_Metal_State_Penalty>
5.78034e-05

> <b_epik_Metal_Only>
0

> <s_lp_Force_Field>
OPLS_2005

> <r_lp_Energy>
13.0063

> <b_lp_Chiralities_Consistent>
1

> <s_lp_Variant>
AV-unprocessed.smi:354-2

> <Gold.Version>
5.8.1

> <Gold.Id.Protein>
6NUR|6NUR_protein|mol2

> <Gold.PLP.Fitness>
50.8608

> <Gold.PLP.PLP>
-45.2362

> <Gold.PLP.part.hbond>
-2.0000

> <Gold.PLP.part.metal>
0.0000

> <Gold.PLP.part.buried>
-4.8317

> <Gold.PLP.part.nonpolar>
-38.6116

> <Gold.PLP.part.repulsive>
0.0000

> <Gold.PLP.ligand.clash>
0.0000

> <Gold.PLP.ligand.torsion>
0.1041

> <Gold.PLP.Chemscore.Hbond>
1.9280

> <Gold.PLP.Chemscore.CHOScore>
0.0000

> <Gold.PLP.Chemscore.Metal>
0.0000

> <Gold.Chemscore.Hbonds>
donor molecule, donor type, donor heavy atom, donor atom, acceptor molecule, acceptor atom, score
      P1  H  6896  6908       L1     1  1.00
      P1  H  7989  7998       L1    14  1.00

> <Gold.PLP.Chemscore.Internal.Correction>
0.0489

> <Gold.Rescore>
     Score         DG    S(hbond)    S(metal)    S(lipo)     H(rot)  DE(clash)    DE(int)     intcor
     16.46     -17.75       1.84        0.00     112.37       2.75       0.00       1.29       ----

> <Gold.Chemscore.Fitness>
16.4569

> <Gold.Chemscore.DG>
-17.7466

> <Gold.Chemscore.ZeroCoef>
-5.4800

> <Gold.Chemscore.Hbond>
1.8440

> <Gold.Chemscore.Metal>
0.0000

> <Gold.Chemscore.Lipo>
112.3714

> <Gold.Chemscore.Internal_Hbond>
0.0000

> <Gold.Chemscore.DEClash>
0.0004

> <Gold.Chemscore.DEInternal>
1.2893

> <Gold.Chemscore.Rot>
2.7500

> <Gold.Chemscore.Internal.Correction>
   9.000000E+99

> <Gold.Chemscore.Hbonds>
donor molecule, donor type, donor heavy atom, donor atom, acceptor molecule, acceptor atom, score
      P1  H  6896  6908       L1     1  0.94
      P1  H  7989  7998       L1    14  0.24

> <Gold.Chemscore.Hbond.Weighted>
-6.1591

> <Gold.Chemscore.Metal.Weighted>
-0.0000

> <Gold.Chemscore.Lipo.Weighted>
-13.1475

> <Gold.Chemscore.Internal_Hbond.Weighted>
0.0000

> <Gold.Chemscore.DEClash.Weighted>
0.0004

> <Gold.Chemscore.DEInternal.Weighted>
1.2893

> <Gold.Chemscore.Rot.Weighted>
7.0399

> <Gold.Chemscore.Internal.Correction.Weighted>
   9.000000E+99

> <Gold.Protein.RotatedTorsions>
[ 6907 6896 6895 6894 ] final -113.10 input  -60.11 | X-H torsion
[ 7974 7965 7964 7962 ] final   34.75 input  175.53 | X-H torsion
[ 8008 7997 7996 7995 ] final -128.19 input   59.86 | X-H torsion
[ 10167 10162 10161 10158 ] final  145.58 input  -65.29 | X-H torsion
[ 10718 10713 10712 10709 ] final  -24.23 input   66.30 | X-H torsion
[ 10763 10752 10751 10750 ] final   88.31 input  -60.55 | X-H torsion
[ 11005 11000 10999 10996 ] final  159.01 input  -57.11 | X-H torsion

> <Gold.Protein.ActiveResidues>
 VAL166  LYS551  ARG553  GLY616  TRP617  ASP618  TYR619  PRO620  LYS621  CYS622 
 ASP623  PHE694  ASN695  SER759  ASP760  ASP761  ALA762  ILE779  LEU786  VAL792 
 PHE793  MET794  SER795  GLU796  ALA797  LYS798  CYS799  TRP800  GLU811  SER814 

> <Gold.Protein.RotatedAtoms>
  150.7805  133.8994  159.3336 H   0  0  0  0  0  0  0  0  0  0  0  0  # atno 6907 bound_to 6896
  151.6858  135.0952  160.0234 H   0  0  0  0  0  0  0  0  0  0  0  0  # atno 6908 bound_to 6896
  152.3854  133.6566  159.6230 H   0  0  0  0  0  0  0  0  0  0  0  0  # atno 6909 bound_to 6896
  146.1331  139.6229  142.9213 H   0  0  0  0  0  0  0  0  0  0  0  0  # atno 7974 bound_to 7965
  155.2585  140.0435  157.2995 H   0  0  0  0  0  0  0  0  0  0  0  0  # atno 8008 bound_to 7997
  154.5725  140.2378  155.8140 H   0  0  0  0  0  0  0  0  0  0  0  0  # atno 8009 bound_to 7997
  156.2133  140.2992  155.9790 H   0  0  0  0  0  0  0  0  0  0  0  0  # atno 8010 bound_to 7997
  139.4923  144.5891  151.6717 H   0  0  0  0  0  0  0  0  0  0  0  0  # atno 10167 bound_to 10162
  156.4804  130.4544  149.6815 H   0  0  0  0  0  0  0  0  0  0  0  0  # atno 10718 bound_to 10713
  153.1756  135.4511  154.9960 H   0  0  0  0  0  0  0  0  0  0  0  0  # atno 10763 bound_to 10752
  154.7995  135.3250  154.7586 H   0  0  0  0  0  0  0  0  0  0  0  0  # atno 10764 bound_to 10752
  153.8057  135.6959  153.4903 H   0  0  0  0  0  0  0  0  0  0  0  0  # atno 10765 bound_to 10752
  140.1921  134.8400  157.2923 H   0  0  0  0  0  0  0  0  0  0  0  0  # atno 11005 bound_to 11000
  145.5217  141.0431  143.2432 LP  0  0  0  0  0  0  0  0  0  0  0  0  # atno 17320 bound_to 7965
  144.7711  139.6733  143.7194 LP  0  0  0  0  0  0  0  0  0  0  0  0  # atno 17321 bound_to 7965
  140.5514  144.0419  150.6128 LP  0  0  0  0  0  0  0  0  0  0  0  0  # atno 17342 bound_to 10162
  140.3474  143.2983  152.0523 LP  0  0  0  0  0  0  0  0  0  0  0  0  # atno 17343 bound_to 10162
  156.3528  130.7441  151.2402 LP  0  0  0  0  0  0  0  0  0  0  0  0  # atno 17370 bound_to 10713
  157.7484  131.0372  150.4446 LP  0  0  0  0  0  0  0  0  0  0  0  0  # atno 17371 bound_to 10713
  140.2148  134.4094  155.7594 LP  0  0  0  0  0  0  0  0  0  0  0  0  # atno 17394 bound_to 11000
  141.2226  133.7136  156.8396 LP  0  0  0  0  0  0  0  0  0  0  0  0  # atno 17395 bound_to 11000

$$$$
