AV-unprocessed.smi:752|AV-procd|sdf|3595|dock8
  -GOLD-   22720 0593D 1   1.00000     0.00000
 Structure written by MMmdl.
 41 42  0  0  0  0  0  0  0  0  1 V2000
  154.5162  133.5451  160.8224 C   0  0  0  0  0  0  0  0  0  0  0  0
  154.9286  134.6933  161.7494 C   0  0  0  0  0  0  0  0  0  0  0  0
  154.2790  135.9862  161.3855 C   0  0  0  0  0  0  0  0  0  0  0  0
  153.4133  136.1172  160.3773 N   0  0  0  0  0  0  0  0  0  0  0  0
  152.9434  137.4281  160.2347 C   0  0  0  0  0  0  0  0  0  0  0  0
  151.9095  137.7485  159.1928 C   0  0  0  0  0  0  0  0  0  0  0  0
  152.3740  138.9599  158.3840 C   0  0  0  0  0  0  0  0  0  0  0  0
  153.4294  138.9142  157.7527 O   0  0  0  0  0  0  0  0  0  0  0  0
  151.5972  140.0517  158.4618 N   0  0  0  0  0  0  0  0  0  0  0  0
  151.9549  141.3879  157.9998 C   0  0  0  0  0  0  0  0  0  0  0  0
  151.6650  142.4435  159.0877 C   0  0  2  0  0  0  0  0  0  0  0  0
  151.5776  143.8572  158.4812 C   0  0  0  0  0  0  0  0  0  0  0  0
  151.2401  144.9086  159.5501 C   0  0  0  0  0  0  0  0  0  0  0  0
  152.2629  144.8906  160.6980 C   0  0  0  0  0  0  0  0  0  0  0  0
  152.4216  143.4879  161.3128 C   0  0  1  0  0  0  0  0  0  0  0  0
  151.2637  143.1392  162.0464 O   0  0  0  0  0  0  0  0  0  0  0  0
  152.7017  142.4221  160.2373 C   0  0  0  0  0  0  0  0  0  0  0  0
  153.5028  138.3013  161.1348 C   0  0  0  0  0  0  0  0  0  0  0  0
  154.6210  137.5041  162.2066 S   0  0  0  0  0  0  0  0  0  0  0  0
  155.0092  132.6168  161.1115 H   0  0  0  0  0  0  0  0  0  0  0  0
  154.7867  133.7586  159.7878 H   0  0  0  0  0  0  0  0  0  0  0  0
  153.4396  133.3766  160.8603 H   0  0  0  0  0  0  0  0  0  0  0  0
  154.6746  134.4493  162.7816 H   0  0  0  0  0  0  0  0  0  0  0  0
  156.0103  134.8261  161.7179 H   0  0  0  0  0  0  0  0  0  0  0  0
  151.7586  136.9009  158.5233 H   0  0  0  0  0  0  0  0  0  0  0  0
  150.9424  137.9602  159.6506 H   0  0  0  0  0  0  0  0  0  0  0  0
  150.7447  139.9774  158.9983 H   0  0  0  0  0  0  0  0  0  0  0  0
  152.9990  141.4392  157.6870 H   0  0  0  0  0  0  0  0  0  0  0  0
  151.3588  141.5989  157.1116 H   0  0  0  0  0  0  0  0  0  0  0  0
  150.6879  142.2091  159.5134 H   0  0  0  0  0  0  0  0  0  0  0  0
  152.5233  144.1134  158.0018 H   0  0  0  0  0  0  0  0  0  0  0  0
  150.8187  143.8812  157.6985 H   0  0  0  0  0  0  0  0  0  0  0  0
  151.2100  145.9003  159.0981 H   0  0  0  0  0  0  0  0  0  0  0  0
  150.2406  144.7208  159.9447 H   0  0  0  0  0  0  0  0  0  0  0  0
  153.2290  145.2203  160.3139 H   0  0  0  0  0  0  0  0  0  0  0  0
  151.9797  145.6113  161.4658 H   0  0  0  0  0  0  0  0  0  0  0  0
  153.2502  143.5026  162.0215 H   0  0  0  0  0  0  0  0  0  0  0  0
  150.8825  143.9296  162.3968 H   0  0  0  0  0  0  0  0  0  0  0  0
  152.7365  141.4422  160.7130 H   0  0  0  0  0  0  0  0  0  0  0  0
  153.6964  142.5897  159.8220 H   0  0  0  0  0  0  0  0  0  0  0  0
  153.3145  139.3596  161.2397 H   0  0  0  0  0  0  0  0  0  0  0  0
  1  2  1  0  0  0  0
  1 20  1  0  0  0  0
  1 21  1  0  0  0  0
  1 22  1  0  0  0  0
  2  3  1  0  0  0  0
  2 23  1  0  0  0  0
  2 24  1  0  0  0  0
  3 19  1  0  0  0  0
  3  4  2  0  0  0  0
  4  5  1  0  0  0  0
  5  6  1  0  0  0  0
  5 18  2  0  0  0  0
  6  7  1  0  0  0  0
  6 25  1  0  0  0  0
  6 26  1  0  0  0  0
  7  8  2  0  0  0  0
  7  9  1  0  0  0  0
  9 10  1  0  0  0  0
  9 27  1  0  0  0  0
 10 11  1  0  0  0  0
 10 28  1  0  0  0  0
 10 29  1  0  0  0  0
 11 17  1  0  0  0  0
 11 12  1  0  0  0  0
 11 30  1  0  0  0  0
 12 13  1  0  0  0  0
 12 31  1  0  0  0  0
 12 32  1  0  0  0  0
 13 14  1  0  0  0  0
 13 33  1  0  0  0  0
 13 34  1  0  0  0  0
 14 15  1  0  0  0  0
 14 35  1  0  0  0  0
 14 36  1  0  0  0  0
 15 16  1  0  0  0  0
 15 17  1  0  0  0  0
 15 37  1  0  0  0  0
 16 38  1  0  0  0  0
 17 39  1  0  0  0  0
 17 40  1  0  0  0  0
 18 19  1  0  0  0  0
 18 41  1  0  0  0  0
M  END
> <s_m_source_file>
AV-unprocessed.smi

> <i_m_source_file_index>
752

> <i_lp_mmshare_version>
43012

> <i_f3d_flags>
0

> <s_epik_input>
W0NIM11bQ0gyXWMxbmMoW2NIXXMxKVtDSDJdQyg9TylbTkhdW0NIMl1bQ0BASF0yW0NIMl1bQ0gyXVtDSDJdW0NAQEhdKFtPSF0pW0NIMl0y

> <s_epik_cmdline>
J2VwaWtfcHl0aG9uJywgJy1waCcsICc3LjAnLCAnLXRuJywgJzgnLCAnLW1hJywgJzIwMCcsICctbWV0YWxfYmluZGluZycsICctaW1hZScsICc8aW5maWxlLm1hZT4nLCAnLW9tYWUnLCAnPG91dGZpbGUubWFlPic=

> <r_lp_tautomer_probability>
1

> <r_epik_Ionization_Penalty>
5.44903e-05

> <r_epik_Ionization_Penalty_Charging>
0

> <r_epik_Ionization_Penalty_Neutral>
5.44903e-05

> <r_epik_State_Penalty>
-0

> <r_epik_Charging_Adjusted_Penalty>
0

> <i_epik_Tot_Q>
0

> <i_epik_Tot_abs_Q>
0

> <r_epik_Metal_State_Penalty>
-0

> <b_epik_Metal_Only>
0

> <s_lp_Force_Field>
OPLS_2005

> <r_lp_Energy>
4.55991

> <b_lp_Chiralities_Consistent>
1

> <s_lp_Variant>
AV-unprocessed.smi:752-1

> <Gold.Version>
5.8.1

> <Gold.Id.Protein>
6NUR|6NUR_protein|mol2

> <Gold.PLP.Fitness>
45.8128

> <Gold.PLP.PLP>
-38.3663

> <Gold.PLP.part.hbond>
-4.0000

> <Gold.PLP.part.metal>
0.0000

> <Gold.PLP.part.buried>
-6.1843

> <Gold.PLP.part.nonpolar>
-28.3071

> <Gold.PLP.part.repulsive>
0.1205

> <Gold.PLP.ligand.clash>
0.0000

> <Gold.PLP.ligand.torsion>
0.2981

> <Gold.PLP.Chemscore.Hbond>
2.6720

> <Gold.PLP.Chemscore.CHOScore>
0.0000

> <Gold.PLP.Chemscore.Metal>
0.0000

> <Gold.Chemscore.Hbonds>
donor molecule, donor type, donor heavy atom, donor atom, acceptor molecule, acceptor atom, score
      P1  H  6896  6908       L1     4  1.00
      P1  H  6933  6945       L1    16  0.66
      P1  H  7997  8008       L1     8  1.00

> <Gold.PLP.Chemscore.Internal.Correction>
0.0267

> <Gold.Rescore>
     Score         DG    S(hbond)    S(metal)    S(lipo)     H(rot)  DE(clash)    DE(int)     intcor
     19.19     -21.46       2.50        0.00     110.75       2.08       1.91       0.36       ----

> <Gold.Chemscore.Fitness>
19.1944

> <Gold.Chemscore.DG>
-21.4629

> <Gold.Chemscore.ZeroCoef>
-5.4800

> <Gold.Chemscore.Hbond>
2.5030

> <Gold.Chemscore.Metal>
0.0000

> <Gold.Chemscore.Lipo>
110.7494

> <Gold.Chemscore.Internal_Hbond>
0.0000

> <Gold.Chemscore.DEClash>
1.9099

> <Gold.Chemscore.DEInternal>
0.3585

> <Gold.Chemscore.Rot>
2.0840

> <Gold.Chemscore.Internal.Correction>
   9.000000E+99

> <Gold.Chemscore.Hbonds>
donor molecule, donor type, donor heavy atom, donor atom, acceptor molecule, acceptor atom, score
      P1  H  6896  6908       L1     4  0.92
      P1  H  6933  6945       L1    16  0.43
      P1  H  7997  8008       L1     8  0.98

> <Gold.Chemscore.Hbond.Weighted>
-8.3602

> <Gold.Chemscore.Metal.Weighted>
-0.0000

> <Gold.Chemscore.Lipo.Weighted>
-12.9577

> <Gold.Chemscore.Internal_Hbond.Weighted>
0.0000

> <Gold.Chemscore.DEClash.Weighted>
1.9099

> <Gold.Chemscore.DEInternal.Weighted>
0.3585

> <Gold.Chemscore.Rot.Weighted>
5.3350

> <Gold.Chemscore.Internal.Correction.Weighted>
   9.000000E+99

> <Gold.Protein.RotatedTorsions>
[ 6907 6896 6895 6894 ] final  -66.85 input  -60.11 | X-H torsion
[ 7974 7965 7964 7962 ] final  144.80 input  175.53 | X-H torsion
[ 8008 7997 7996 7995 ] final  -65.46 input   59.86 | X-H torsion
[ 10167 10162 10161 10158 ] final  -83.63 input  -65.29 | X-H torsion
[ 10718 10713 10712 10709 ] final -103.75 input   66.30 | X-H torsion
[ 10763 10752 10751 10750 ] final   88.43 input  -60.55 | X-H torsion
[ 11005 11000 10999 10996 ] final   83.57 input  -57.11 | X-H torsion

> <Gold.Protein.ActiveResidues>
 VAL166  LYS551  ARG553  GLY616  TRP617  ASP618  TYR619  PRO620  LYS621  CYS622 
 ASP623  PHE694  ASN695  SER759  ASP760  ASP761  ALA762  ILE779  LEU786  VAL792 
 PHE793  MET794  SER795  GLU796  ALA797  LYS798  CYS799  TRP800  GLU811  SER814 

> <Gold.Protein.RotatedAtoms>
  150.7442  134.5963  159.6013 H   0  0  0  0  0  0  0  0  0  0  0  0  # atno 6907 bound_to 6896
  152.3337  134.7223  160.0291 H   0  0  0  0  0  0  0  0  0  0  0  0  # atno 6908 bound_to 6896
  151.7698  133.3304  159.3478 H   0  0  0  0  0  0  0  0  0  0  0  0  # atno 6909 bound_to 6896
  144.8805  139.5706  143.5845 H   0  0  0  0  0  0  0  0  0  0  0  0  # atno 7974 bound_to 7965
  154.4673  140.0933  156.7053 H   0  0  0  0  0  0  0  0  0  0  0  0  # atno 8008 bound_to 7997
  155.4822  140.3468  155.4323 H   0  0  0  0  0  0  0  0  0  0  0  0  # atno 8009 bound_to 7997
  156.0978  140.1414  156.9496 H   0  0  0  0  0  0  0  0  0  0  0  0  # atno 8010 bound_to 7997
  140.4208  143.2585  151.8892 H   0  0  0  0  0  0  0  0  0  0  0  0  # atno 10167 bound_to 10162
  156.0277  130.5482  150.7298 H   0  0  0  0  0  0  0  0  0  0  0  0  # atno 10718 bound_to 10713
  153.1768  135.4507  154.9975 H   0  0  0  0  0  0  0  0  0  0  0  0  # atno 10763 bound_to 10752
  154.8003  135.3253  154.7568 H   0  0  0  0  0  0  0  0  0  0  0  0  # atno 10764 bound_to 10752
  153.8038  135.6960  153.4906 H   0  0  0  0  0  0  0  0  0  0  0  0  # atno 10765 bound_to 10752
  139.9027  134.8154  156.2327 H   0  0  0  0  0  0  0  0  0  0  0  0  # atno 11005 bound_to 11000
  146.2991  139.7370  142.9104 LP  0  0  0  0  0  0  0  0  0  0  0  0  # atno 17320 bound_to 7965
  145.3963  141.0379  143.3095 LP  0  0  0  0  0  0  0  0  0  0  0  0  # atno 17321 bound_to 7965
  139.4782  144.5439  151.8487 LP  0  0  0  0  0  0  0  0  0  0  0  0  # atno 17342 bound_to 10162
  140.4535  144.1821  150.5899 LP  0  0  0  0  0  0  0  0  0  0  0  0  # atno 17343 bound_to 10162
  157.4893  131.0909  151.0445 LP  0  0  0  0  0  0  0  0  0  0  0  0  # atno 17370 bound_to 10713
  157.0857  130.5921  149.5429 LP  0  0  0  0  0  0  0  0  0  0  0  0  # atno 17371 bound_to 10713
  141.0335  133.6976  156.1471 LP  0  0  0  0  0  0  0  0  0  0  0  0  # atno 17394 bound_to 11000
  140.7062  134.4511  157.5584 LP  0  0  0  0  0  0  0  0  0  0  0  0  # atno 17395 bound_to 11000

$$$$
