AV-unprocessed.smi:194|AV-procd|sdf|1521|dock1
  -GOLD-   2262019363D 1   1.00000     0.00000
 Structure written by MMmdl.
 53 55  0  0  0  0  0  0  0  0  1 V2000
  148.4559  133.3575  153.2995 C   0  0  0  0  0  0  0  0  0  0  0  0
  147.5751  132.5734  154.3042 C   0  0  1  0  0  0  0  0  0  0  0  0
  148.4161  131.4857  155.0153 C   0  0  0  0  0  0  0  0  0  0  0  0
  148.9113  130.1835  153.7872 S   0  0  1  0  0  0  0  0  0  0  0  0
  150.6603  129.9928  154.3707 C   0  0  0  0  0  0  0  0  0  0  0  0
  148.1710  128.9030  154.1776 O   0  0  0  0  0  0  0  0  0  0  0  0
  146.9274  133.4656  155.2814 N   0  0  0  0  0  0  0  0  0  0  0  0
  146.0535  134.5159  154.7651 C   0  0  0  0  0  0  0  0  0  0  0  0
  147.7371  133.9687  156.2404 C   0  0  0  0  0  0  0  0  0  0  0  0
  147.5035  133.5818  157.5185 N   0  0  0  0  0  0  0  0  0  0  0  0
  148.2780  134.0423  158.5055 C   0  0  0  0  0  0  0  0  0  0  0  0
  149.3119  134.8838  158.4328 N   0  0  0  0  0  0  0  0  0  0  0  0
  149.5388  135.2856  157.1488 C   0  0  0  0  0  0  0  0  0  0  0  0
  148.8068  134.8760  155.9993 C   0  0  0  0  0  0  0  0  0  0  0  0
  149.3303  135.4776  154.8619 N   0  0  0  0  0  0  0  0  0  0  0  0
  150.3211  136.1967  155.3131 C   0  0  0  0  0  0  0  0  0  0  0  0
  150.5067  136.1566  156.6775 N   0  0  0  0  0  0  0  0  0  0  0  0
  151.5366  136.8533  157.4351 C   0  0  0  0  0  0  0  0  0  0  0  0
  151.4601  138.4107  157.4180 C   0  0  0  0  0  0  0  0  0  0  0  0
  152.5777  139.0339  158.3077 C   0  0  0  0  0  0  0  0  0  0  0  0
  153.8878  138.7544  157.8572 O   0  0  0  0  0  0  0  0  0  0  0  0
  151.5064  138.9572  155.9676 C   0  0  0  0  0  0  0  0  0  0  0  0
  151.1106  140.4410  155.8807 C   0  0  0  0  0  0  0  0  0  0  0  0
  149.8026  140.6205  156.4079 O   0  0  0  0  0  0  0  0  0  0  0  0
  149.7129  140.2820  157.7855 C   0  0  0  0  0  0  0  0  0  0  0  0
  150.0737  138.7980  157.9948 C   0  0  0  0  0  0  0  0  0  0  0  0
  148.9490  132.6979  152.5865 H   0  0  0  0  0  0  0  0  0  0  0  0
  149.2329  133.9226  153.8154 H   0  0  0  0  0  0  0  0  0  0  0  0
  147.8743  134.0613  152.7039 H   0  0  0  0  0  0  0  0  0  0  0  0
  146.7838  132.0699  153.7477 H   0  0  0  0  0  0  0  0  0  0  0  0
  149.3012  131.9159  155.4849 H   0  0  0  0  0  0  0  0  0  0  0  0
  147.8471  130.9788  155.7937 H   0  0  0  0  0  0  0  0  0  0  0  0
  151.1892  130.9439  154.3091 H   0  0  0  0  0  0  0  0  0  0  0  0
  151.1845  129.2640  153.7527 H   0  0  0  0  0  0  0  0  0  0  0  0
  150.6808  129.6481  155.4045 H   0  0  0  0  0  0  0  0  0  0  0  0
  145.8942  135.3156  155.4909 H   0  0  0  0  0  0  0  0  0  0  0  0
  145.0740  134.1041  154.5221 H   0  0  0  0  0  0  0  0  0  0  0  0
  146.4739  134.9588  153.8616 H   0  0  0  0  0  0  0  0  0  0  0  0
  148.0350  133.6850  159.4953 H   0  0  0  0  0  0  0  0  0  0  0  0
  150.9423  136.7914  154.6594 H   0  0  0  0  0  0  0  0  0  0  0  0
  151.4838  136.4878  158.4616 H   0  0  0  0  0  0  0  0  0  0  0  0
  152.5065  136.5265  157.0576 H   0  0  0  0  0  0  0  0  0  0  0  0
  152.4956  140.1181  158.3511 H   0  0  0  0  0  0  0  0  0  0  0  0
  152.4820  138.6834  159.3360 H   0  0  0  0  0  0  0  0  0  0  0  0
  154.0375  137.8236  157.9232 H   0  0  0  0  0  0  0  0  0  0  0  0
  152.4903  138.8132  155.5212 H   0  0  0  0  0  0  0  0  0  0  0  0
  150.8123  138.3887  155.3473 H   0  0  0  0  0  0  0  0  0  0  0  0
  151.8240  141.0771  156.4060 H   0  0  0  0  0  0  0  0  0  0  0  0
  151.1115  140.7635  154.8394 H   0  0  0  0  0  0  0  0  0  0  0  0
  150.3468  140.9429  158.3765 H   0  0  0  0  0  0  0  0  0  0  0  0
  148.6907  140.4620  158.1189 H   0  0  0  0  0  0  0  0  0  0  0  0
  149.2988  138.2009  157.5117 H   0  0  0  0  0  0  0  0  0  0  0  0
  150.0215  138.5523  159.0563 H   0  0  0  0  0  0  0  0  0  0  0  0
  1  2  1  0  0  0  0
  1 27  1  0  0  0  0
  1 28  1  0  0  0  0
  1 29  1  0  0  0  0
  2  3  1  0  0  0  0
  2  7  1  0  0  0  0
  2 30  1  0  0  0  0
  3  4  1  0  0  0  0
  3 31  1  0  0  0  0
  3 32  1  0  0  0  0
  4  5  1  0  0  0  0
  4  6  2  0  0  0  0
  5 33  1  0  0  0  0
  5 34  1  0  0  0  0
  5 35  1  0  0  0  0
  7  8  1  0  0  0  0
  7  9  1  0  0  0  0
  8 36  1  0  0  0  0
  8 37  1  0  0  0  0
  8 38  1  0  0  0  0
  9 14  1  0  0  0  0
  9 10  2  0  0  0  0
 10 11  1  0  0  0  0
 11 12  2  0  0  0  0
 11 39  1  0  0  0  0
 12 13  1  0  0  0  0
 13 17  1  0  0  0  0
 13 14  2  0  0  0  0
 14 15  1  0  0  0  0
 15 16  2  0  0  0  0
 16 17  1  0  0  0  0
 16 40  1  0  0  0  0
 17 18  1  0  0  0  0
 18 19  1  0  0  0  0
 18 41  1  0  0  0  0
 18 42  1  0  0  0  0
 19 26  1  0  0  0  0
 19 20  1  0  0  0  0
 19 22  1  0  0  0  0
 20 21  1  0  0  0  0
 20 43  1  0  0  0  0
 20 44  1  0  0  0  0
 21 45  1  0  0  0  0
 22 23  1  0  0  0  0
 22 46  1  0  0  0  0
 22 47  1  0  0  0  0
 23 24  1  0  0  0  0
 23 48  1  0  0  0  0
 23 49  1  0  0  0  0
 24 25  1  0  0  0  0
 25 26  1  0  0  0  0
 25 50  1  0  0  0  0
 25 51  1  0  0  0  0
 26 52  1  0  0  0  0
 26 53  1  0  0  0  0
M  END
> <s_m_source_file>
AV-unprocessed.smi

> <i_m_source_file_index>
194

> <i_lp_mmshare_version>
43012

> <i_f3d_flags>
0

> <s_epik_input>
W0NIM11bU0BAXSg9TylbQ0gyXVtDQEBIXShbQ0gzXSlOKFtDSDNdKWMobltjSF1uMSljKGMxMiluW2NIXW4yW0NIMl1DMyhbQ0gyXVtPSF0pW0NIMl1bQ0gyXU9bQ0gyXVtDSDJdMw==

> <s_epik_cmdline>
J2VwaWtfcHl0aG9uJywgJy1waCcsICc3LjAnLCAnLXRuJywgJzgnLCAnLW1hJywgJzIwMCcsICctbWV0YWxfYmluZGluZycsICctaW1hZScsICc8aW5maWxlLm1hZT4nLCAnLW9tYWUnLCAnPG91dGZpbGUubWFlPic=

> <r_lp_tautomer_probability>
1

> <r_epik_Ionization_Penalty>
0.00101625

> <r_epik_Ionization_Penalty_Charging>
0

> <r_epik_Ionization_Penalty_Neutral>
0.00101625

> <r_epik_State_Penalty>
0.000568005

> <r_epik_Charging_Adjusted_Penalty>
0.000568005

> <i_epik_Tot_Q>
0

> <i_epik_Tot_abs_Q>
0

> <r_epik_Metal_State_Penalty>
-0

> <b_epik_Metal_Only>
0

> <s_lp_Force_Field>
OPLS_2005

> <r_lp_Energy>
31.1686

> <b_lp_Chiralities_Consistent>
1

> <s_lp_Variant>
AV-unprocessed.smi:194-2

> <Gold.Version>
5.8.1

> <Gold.Id.Protein>
6NUR|6NUR_protein|mol2

> <Gold.PLP.Fitness>
33.2939

> <Gold.PLP.PLP>
-27.5066

> <Gold.PLP.part.hbond>
-2.0000

> <Gold.PLP.part.metal>
0.0000

> <Gold.PLP.part.buried>
-4.3689

> <Gold.PLP.part.nonpolar>
-21.0490

> <Gold.PLP.part.repulsive>
0.5475

> <Gold.PLP.ligand.clash>
0.0000

> <Gold.PLP.ligand.torsion>
0.4257

> <Gold.PLP.Chemscore.Hbond>
2.0000

> <Gold.PLP.Chemscore.CHOScore>
0.0000

> <Gold.PLP.Chemscore.Metal>
0.0000

> <Gold.Chemscore.Hbonds>
donor molecule, donor type, donor heavy atom, donor atom, acceptor molecule, acceptor atom, score
      P1  H  6896  6908       L1    12  1.00
      P1  H  7997  8009       L1    21  1.00

> <Gold.PLP.Chemscore.Internal.Correction>
0.6388

> <Gold.Rescore>
     Score         DG    S(hbond)    S(metal)    S(lipo)     H(rot)  DE(clash)    DE(int)     intcor
      9.12      -9.88       1.92        0.00      55.25       3.31       0.07       0.68       ----

> <Gold.Chemscore.Fitness>
9.1234

> <Gold.Chemscore.DG>
-9.8750

> <Gold.Chemscore.ZeroCoef>
-5.4800

> <Gold.Chemscore.Hbond>
1.9173

> <Gold.Chemscore.Metal>
0.0000

> <Gold.Chemscore.Lipo>
55.2494

> <Gold.Chemscore.Internal_Hbond>
0.0000

> <Gold.Chemscore.DEClash>
0.0669

> <Gold.Chemscore.DEInternal>
0.6847

> <Gold.Chemscore.Rot>
3.3098

> <Gold.Chemscore.Internal.Correction>
   9.000000E+99

> <Gold.Chemscore.Hbonds>
donor molecule, donor type, donor heavy atom, donor atom, acceptor molecule, acceptor atom, score
      P1  H  6896  6908       L1    12  0.51
      P1  H  7997  8009       L1    21  0.95

> <Gold.Chemscore.Hbond.Weighted>
-6.4038

> <Gold.Chemscore.Metal.Weighted>
-0.0000

> <Gold.Chemscore.Lipo.Weighted>
-6.4642

> <Gold.Chemscore.Internal_Hbond.Weighted>
0.0000

> <Gold.Chemscore.DEClash.Weighted>
0.0669

> <Gold.Chemscore.DEInternal.Weighted>
0.6847

> <Gold.Chemscore.Rot.Weighted>
8.4730

> <Gold.Chemscore.Internal.Correction.Weighted>
   9.000000E+99

> <Gold.Protein.RotatedTorsions>
[ 6907 6896 6895 6894 ] final  137.77 input  -60.11 | X-H torsion
[ 7974 7965 7964 7962 ] final  -47.12 input  175.53 | X-H torsion
[ 8008 7997 7996 7995 ] final  138.56 input   59.86 | X-H torsion
[ 10167 10162 10161 10158 ] final -112.57 input  -65.29 | X-H torsion
[ 10718 10713 10712 10709 ] final -110.33 input   66.30 | X-H torsion
[ 10763 10752 10751 10750 ] final  154.70 input  -60.55 | X-H torsion
[ 11005 11000 10999 10996 ] final -170.92 input  -57.11 | X-H torsion

> <Gold.Protein.ActiveResidues>
 VAL166  LYS551  ARG553  GLY616  TRP617  ASP618  TYR619  PRO620  LYS621  CYS622 
 ASP623  PHE694  ASN695  SER759  ASP760  ASP761  ALA762  ILE779  LEU786  VAL792 
 PHE793  MET794  SER795  GLU796  ALA797  LYS798  CYS799  TRP800  GLU811  SER814 

> <Gold.Protein.RotatedAtoms>
  152.2743  133.5411  159.5457 H   0  0  0  0  0  0  0  0  0  0  0  0  # atno 6907 bound_to 6896
  150.7171  134.0654  159.3855 H   0  0  0  0  0  0  0  0  0  0  0  0  # atno 6908 bound_to 6896
  151.8567  135.0538  160.0516 H   0  0  0  0  0  0  0  0  0  0  0  0  # atno 6909 bound_to 6896
  145.9648  140.7443  142.9439 H   0  0  0  0  0  0  0  0  0  0  0  0  # atno 7974 bound_to 7965
  156.2996  140.2390  156.4094 H   0  0  0  0  0  0  0  0  0  0  0  0  # atno 8008 bound_to 7997
  154.8455  140.0426  157.1590 H   0  0  0  0  0  0  0  0  0  0  0  0  # atno 8009 bound_to 7997
  154.9056  140.2983  155.5298 H   0  0  0  0  0  0  0  0  0  0  0  0  # atno 8010 bound_to 7997
  140.1213  143.4441  152.1689 H   0  0  0  0  0  0  0  0  0  0  0  0  # atno 10167 bound_to 10162
  156.0585  130.5810  150.8222 H   0  0  0  0  0  0  0  0  0  0  0  0  # atno 10718 bound_to 10713
  154.1566  135.2812  155.3120 H   0  0  0  0  0  0  0  0  0  0  0  0  # atno 10763 bound_to 10752
  154.6178  135.5477  153.7545 H   0  0  0  0  0  0  0  0  0  0  0  0  # atno 10764 bound_to 10752
  153.0205  135.6431  154.1709 H   0  0  0  0  0  0  0  0  0  0  0  0  # atno 10765 bound_to 10752
  140.5140  134.5774  157.5028 H   0  0  0  0  0  0  0  0  0  0  0  0  # atno 11005 bound_to 11000
  144.6823  140.2651  143.7313 LP  0  0  0  0  0  0  0  0  0  0  0  0  # atno 17320 bound_to 7965
  145.7989  139.1956  143.2060 LP  0  0  0  0  0  0  0  0  0  0  0  0  # atno 17321 bound_to 7965
  139.5567  144.7378  151.4273 LP  0  0  0  0  0  0  0  0  0  0  0  0  # atno 17342 bound_to 10162
  140.6870  143.7950  150.7201 LP  0  0  0  0  0  0  0  0  0  0  0  0  # atno 17343 bound_to 10162
  157.5574  131.0945  150.9608 LP  0  0  0  0  0  0  0  0  0  0  0  0  # atno 17370 bound_to 10713
  156.9853  130.5542  149.5299 LP  0  0  0  0  0  0  0  0  0  0  0  0  # atno 17371 bound_to 10713
  139.9643  134.7400  156.0172 LP  0  0  0  0  0  0  0  0  0  0  0  0  # atno 17394 bound_to 11000
  141.1370  133.6573  156.3622 LP  0  0  0  0  0  0  0  0  0  0  0  0  # atno 17395 bound_to 11000

$$$$
