#       Name:                AV-unprocessed.smi:3068
#       Creating user name   scv26
#       Creation time:       Fri Mar 27 17:11:08 2020


#       File generated by GOLD software.
#

@<TRIPOS>MOLECULE
AV-unprocessed.smi:3068
    45    47     1
SMALL
NO_CHARGES


@<TRIPOS>ATOM
      1 ****        -2.6591  -5.1967   0.7809 N.1            1 S1                 0.0000
      2 ****        -3.1794  -4.1642   0.7305 C.1            1 S1                 0.0000
      3 ****        -3.8344  -2.8637   0.6674 C.ar           1 S1                 0.0000
      4 ****        -5.1696  -2.8668   0.4469 N.ar           1 S1                 0.0000
      5 ****        -5.7890  -1.6689   0.3853 C.ar           1 S1                 0.0000
      6 ****        -5.0794  -0.4630   0.5437 C.ar           1 S1                 0.0000
      7 ****        -3.7481  -0.4506   0.7654 N.ar           1 S1                 0.0000
      8 ****        -3.1120  -1.6474   0.8275 C.ar           1 S1                 0.0000
      9 ****        -1.7241  -1.6515   1.0611 N.pl3          1 S1                 0.0000
     10 ****        -0.9323  -0.4282   1.0045 C.3            1 S1                 0.0000
     11 ****        -0.6571   0.0300  -0.4440 C.3            1 S1                 0.0000
     12 ****         0.0379   1.4030  -0.5133 C.3            1 S1                 0.0000
     13 ****         1.4336   1.3521  -0.0948 N.3            1 S1                 0.0000
     14 ****         2.0603   2.6698  -0.1941 C.3            1 S1                 0.0000
     15 ****         3.5250   2.6602   0.2697 C.3            1 S1                 0.0000
     16 ****         4.3297   1.6298  -0.5347 C.3            1 S1                 0.0000
     17 ****         3.6410   0.2581  -0.4690 C.3            1 S1                 0.0000
     18 ****         2.1602   0.3596  -0.8916 C.3            1 S1                 0.0000
     19 ****         1.4815  -1.0216  -0.8039 C.3            1 S1                 0.0000
     20 ****         0.1086  -0.9289  -1.1763 O.3            1 S1                 0.0000
     21 ****        -6.8545  -1.6724   0.2096 H              1 S1                 0.0000
     22 ****        -5.5800   0.4926   0.4930 H              1 S1                 0.0000
     23 ****        -1.2319  -2.5335   1.0668 H              1 S1                 0.0000
     24 ****        -1.4427   0.3616   1.5564 H              1 S1                 0.0000
     25 ****         0.0010  -0.5987   1.5398 H              1 S1                 0.0000
     26 ****        -1.6139   0.1251  -0.9579 H              1 S1                 0.0000
     27 ****        -0.0179   1.7710  -1.5390 H              1 S1                 0.0000
     28 ****        -0.5086   2.1210   0.0992 H              1 S1                 0.0000
     29 ****         2.0092   3.0274  -1.2237 H              1 S1                 0.0000
     30 ****         1.5021   3.3869   0.4088 H              1 S1                 0.0000
     31 ****         3.9628   3.6521   0.1559 H              1 S1                 0.0000
     32 ****         3.5712   2.4174   1.3322 H              1 S1                 0.0000
     33 ****         4.4038   1.9528  -1.5739 H              1 S1                 0.0000
     34 ****         5.3490   1.5621  -0.1535 H              1 S1                 0.0000
     35 ****         4.1686  -0.4497  -1.1090 H              1 S1                 0.0000
     36 ****         3.7087  -0.1324   0.5475 H              1 S1                 0.0000
     37 ****         2.1343   0.6712  -1.9374 H              1 S1                 0.0000
     38 ****         1.9721  -1.7259  -1.4762 H              1 S1                 0.0000
     39 ****         1.5718  -1.4382   0.1995 H              1 S1                 0.0000
     40 ****        -2.2095  -6.0889   0.8245 LP             1 S1                 0.0000
     41 ****        -5.6765  -3.7214   0.3342 LP             1 S1                 0.0000
     42 ****        -3.2492   0.4085   0.8796 LP             1 S1                 0.0000
     43 ****         1.4689   1.0756   0.8656 LP             1 S1                 0.0000
     44 ****         0.0667  -0.6838  -2.1449 LP             1 S1                 0.0000
     45 ****        -0.3098  -1.8271  -1.0414 LP             1 S1                 0.0000
@<TRIPOS>BOND
    1    1    2 3     
    2    2    3 1     
    3    3    8 ar    
    4    3    4 ar    
    5    4    5 ar    
    6    5    6 ar    
    7    5   21 1     
    8    6    7 ar    
    9    6   22 1     
   10    7    8 ar    
   11    8    9 1     
   12    9   10 1     
   13    9   23 1     
   14   10   11 1     
   15   10   24 1     
   16   10   25 1     
   17   11   20 1     
   18   11   12 1     
   19   11   26 1     
   20   12   13 1     
   21   12   27 1     
   22   12   28 1     
   23   13   18 1     
   24   13   14 1     
   25   14   15 1     
   26   14   29 1     
   27   14   30 1     
   28   15   16 1     
   29   15   31 1     
   30   15   32 1     
   31   16   17 1     
   32   16   33 1     
   33   16   34 1     
   34   17   18 1     
   35   17   35 1     
   36   17   36 1     
   37   18   19 1     
   38   18   37 1     
   39   19   20 1     
   40   19   38 1     
   41   19   39 1     
   42    1   40 1     
   43    4   41 1     
   44    7   42 1     
   45   13   43 1     
   46   20   44 1     
   47   20   45 1     
@<TRIPOS>SUBSTRUCTURE
      1 S1             1
@<TRIPOS>SET
LONE_PAIRS      STATIC     ATOMS    <user>   **** ""
6 40 41 42 43 44 45
DONOR_HYDROGENS      STATIC     ATOMS    <user>   **** ""
1 23
ATOM$BLUE        STATIC     ATOMS    COLORGROUP SYSTEM
6 40 41 42 43 44 45
ATOM$RED        STATIC     ATOMS    COLORGROUP SYSTEM
1 23
