#       Name:                AV-unprocessed.smi:2044
#       Creating user name   scv26
#       Creation time:       Fri Mar 27 10:56:33 2020


#       File generated by GOLD software.
#

@<TRIPOS>MOLECULE
AV-unprocessed.smi:2044
    47    48     1
SMALL
NO_CHARGES


@<TRIPOS>ATOM
      1 ****        -5.8753   4.4475  -0.8710 C.3            1 S1                 0.0000
      2 ****        -5.2279   3.1065  -0.9261 C.2            1 S1                 0.0000
      3 ****        -3.9237   2.7018  -0.8845 C.2            1 S1                 0.0000
      4 ****        -4.0262   1.2840  -0.9884 C.2            1 S1                 0.0000
      5 ****        -2.9479   0.3621  -1.0049 N.am           1 S1                 0.0000
      6 ****        -1.6342   0.6123  -0.8770 C.2            1 S1                 0.0000
      7 ****        -1.1335   1.7228  -0.7014 O.2            1 S1                 0.0000
      8 ****        -0.9148  -0.5178  -0.9518 N.am           1 S1                 0.0000
      9 ****         0.5417  -0.6022  -0.8633 C.3            1 S1                 0.0000
     10 ****         1.0406  -1.1671   0.4936 C.3            1 S1                 0.0000
     11 ****         0.4934  -0.3286   1.6754 C.3            1 S1                 0.0000
     12 ****         2.5374  -1.2748   0.4855 N.4            1 S1                 1.0000
     13 ****         3.1896  -1.3169   1.8241 C.3            1 S1                 0.0000
     14 ****         4.7211  -1.3879   1.6942 C.3            1 S1                 0.0000
     15 ****         5.0898  -2.5148   0.9137 O.3            1 S1                 0.0000
     16 ****         4.5633  -2.4297  -0.4020 C.3            1 S1                 0.0000
     17 ****         3.0277  -2.4137  -0.3384 C.3            1 S1                 0.0000
     18 ****        -5.2763   0.8697  -1.0830 N.2            1 S1                 0.0000
     19 ****        -6.0546   2.0325  -1.0421 O.3            1 S1                 0.0000
     20 ****        -5.1272   5.2405  -0.8572 H              1 S1                 0.0000
     21 ****        -6.4875   4.5440   0.0256 H              1 S1                 0.0000
     22 ****        -6.5166   4.6036  -1.7384 H              1 S1                 0.0000
     23 ****        -3.0518   3.3325  -0.7975 H              1 S1                 0.0000
     24 ****        -3.2120  -0.6043  -1.1274 H              1 S1                 0.0000
     25 ****        -1.4115  -1.3852  -1.0955 H              1 S1                 0.0000
     26 ****         0.8479  -1.2397  -1.6904 H              1 S1                 0.0000
     27 ****         1.0012   0.3696  -1.0526 H              1 S1                 0.0000
     28 ****         0.6377  -2.1739   0.6163 H              1 S1                 0.0000
     29 ****        -0.5940  -0.2669   1.6593 H              1 S1                 0.0000
     30 ****         0.8794   0.6911   1.6538 H              1 S1                 0.0000
     31 ****         0.7386  -0.7690   2.6418 H              1 S1                 0.0000
     32 ****         2.9564  -0.4220   2.4001 H              1 S1                 0.0000
     33 ****         2.8204  -2.1766   2.3857 H              1 S1                 0.0000
     34 ****         5.1163  -0.4747   1.2458 H              1 S1                 0.0000
     35 ****         5.1759  -1.4787   2.6808 H              1 S1                 0.0000
     36 ****         4.9443  -1.5408  -0.9078 H              1 S1                 0.0000
     37 ****         4.9050  -3.2924  -0.9741 H              1 S1                 0.0000
     38 ****         2.6683  -3.3525   0.0864 H              1 S1                 0.0000
     39 ****         2.6447  -2.3608  -1.3555 H              1 S1                 0.0000
     40 ****         2.8748  -0.4297   0.0465 H              1 S1                 0.0000
     41 ****        -1.7187   2.5316  -0.6433 LP             1 S1                 0.0000
     42 ****        -0.1415   1.8163  -0.6167 LP             1 S1                 0.0000
     43 ****         4.7387  -3.3425   1.3516 LP             1 S1                 0.0000
     44 ****         6.0873  -2.5624   0.8623 LP             1 S1                 0.0000
     45 ****        -5.5983  -0.0734  -1.1661 LP             1 S1                 0.0000
     46 ****        -6.5898   2.1090  -1.8833 LP             1 S1                 0.0000
     47 ****        -6.6721   1.9967  -0.2563 LP             1 S1                 0.0000
@<TRIPOS>BOND
    1    1    2 1     
    2    1   20 1     
    3    1   21 1     
    4    1   22 1     
    5    2   19 1     
    6    2    3 2     
    7    3    4 1     
    8    3   23 1     
    9    4    5 1     
   10    4   18 2     
   11    5    6 am    
   12    5   24 1     
   13    6    7 2     
   14    6    8 am    
   15    8    9 1     
   16    8   25 1     
   17    9   10 1     
   18    9   26 1     
   19    9   27 1     
   20   10   11 1     
   21   10   12 1     
   22   10   28 1     
   23   11   29 1     
   24   11   30 1     
   25   11   31 1     
   26   12   17 1     
   27   12   13 1     
   28   12   40 1     
   29   13   14 1     
   30   13   32 1     
   31   13   33 1     
   32   14   15 1     
   33   14   34 1     
   34   14   35 1     
   35   15   16 1     
   36   16   17 1     
   37   16   36 1     
   38   16   37 1     
   39   17   38 1     
   40   17   39 1     
   41   18   19 1     
   42    7   41 1     
   43    7   42 1     
   44   15   43 1     
   45   15   44 1     
   46   18   45 1     
   47   19   46 1     
   48   19   47 1     
@<TRIPOS>SUBSTRUCTURE
      1 S1             1
@<TRIPOS>SET
LONE_PAIRS      STATIC     ATOMS    <user>   **** ""
7 41 42 43 44 45 46 47
DONOR_HYDROGENS      STATIC     ATOMS    <user>   **** ""
3 24 25 40
ATOM$BLUE        STATIC     ATOMS    COLORGROUP SYSTEM
7 41 42 43 44 45 46 47
ATOM$RED        STATIC     ATOMS    COLORGROUP SYSTEM
3 24 25 40
