#       Name:                AV-unprocessed.smi:872
#       Creating user name   scv26
#       Creation time:       Fri Mar 27 01:50:18 2020


#       File generated by GOLD software.
#

@<TRIPOS>MOLECULE
AV-unprocessed.smi:872
    34    35     1
SMALL
NO_CHARGES


@<TRIPOS>ATOM
      1 ****        -3.9295   3.3476  -0.0021 O.co2          1 S1                 0.0000
      2 ****        -3.3995   2.2144  -0.0025 C.2            1 S1                 0.0000
      3 ****        -4.0728   1.1598  -0.0004 O.co2          1 S1                -1.0000
      4 ****        -1.8999   2.1159  -0.0053 C.ar           1 S1                 0.0000
      5 ****        -1.0897   3.2746  -0.0073 C.ar           1 S1                 0.0000
      6 ****         0.2607   3.2429  -0.0088 N.ar           1 S1                 0.0000
      7 ****         0.8648   2.0364  -0.0086 C.ar           1 S1                 0.0000
      8 ****         0.1623   0.8138  -0.0073 C.ar           1 S1                 0.0000
      9 ****         0.8716  -0.3959  -0.0059 N.3            1 S1                 0.0000
     10 ****         0.6878  -1.1696   1.2155 C.3            1 S1                 0.0000
     11 ****         1.5870  -2.4179   1.1874 C.3            1 S1                 0.0000
     12 ****         1.3112  -3.1809   0.0159 O.3            1 S1                 0.0000
     13 ****         1.5610  -2.4403  -1.1758 C.3            1 S1                 0.0000
     14 ****         0.6604  -1.1931  -1.2077 C.3            1 S1                 0.0000
     15 ****        -1.2505   0.8611  -0.0056 C.ar           1 S1                 0.0000
     16 ****        -1.5272   4.2623  -0.0072 H              1 S1                 0.0000
     17 ****         1.9451   2.0481  -0.0092 H              1 S1                 0.0000
     18 ****         0.9284  -0.5542   2.0833 H              1 S1                 0.0000
     19 ****        -0.3566  -1.4698   1.3117 H              1 S1                 0.0000
     20 ****         2.6413  -2.1380   1.2117 H              1 S1                 0.0000
     21 ****         1.4004  -3.0356   2.0660 H              1 S1                 0.0000
     22 ****         2.6144  -2.1605  -1.2283 H              1 S1                 0.0000
     23 ****         1.3559  -3.0746  -2.0382 H              1 S1                 0.0000
     24 ****        -0.3853  -1.4961  -1.2748 H              1 S1                 0.0000
     25 ****         0.8809  -0.5944  -2.0925 H              1 S1                 0.0000
     26 ****        -1.8219  -0.0559  -0.0036 H              1 S1                 0.0000
     27 ****        -4.9258   3.4336  -0.0001 LP             1 S1                 0.0000
     28 ****        -3.3569   4.1674  -0.0039 LP             1 S1                 0.0000
     29 ****        -5.0718   1.2044   0.0017 LP             1 S1                 0.0000
     30 ****        -3.6119   0.2723  -0.0008 LP             1 S1                 0.0000
     31 ****         0.7961   4.0875  -0.0100 LP             1 S1                 0.0000
     32 ****         1.8352  -0.1290  -0.0214 LP             1 S1                 0.0000
     33 ****         0.3500  -3.4564   0.0291 LP             1 S1                 0.0000
     34 ****         1.8914  -3.9954   0.0172 LP             1 S1                 0.0000
@<TRIPOS>BOND
    1    1    2 ar    
    2    2    3 ar    
    3    2    4 1     
    4    4   15 ar    
    5    4    5 ar    
    6    5    6 ar    
    7    5   16 1     
    8    6    7 ar    
    9    7    8 ar    
   10    7   17 1     
   11    8    9 1     
   12    8   15 ar    
   13    9   14 1     
   14    9   10 1     
   15   10   11 1     
   16   10   18 1     
   17   10   19 1     
   18   11   12 1     
   19   11   20 1     
   20   11   21 1     
   21   12   13 1     
   22   13   14 1     
   23   13   22 1     
   24   13   23 1     
   25   14   24 1     
   26   14   25 1     
   27   15   26 1     
   28    1   27 1     
   29    1   28 1     
   30    3   29 1     
   31    3   30 1     
   32    6   31 1     
   33    9   32 1     
   34   12   33 1     
   35   12   34 1     
@<TRIPOS>SUBSTRUCTURE
      1 S1             1
@<TRIPOS>SET
LONE_PAIRS      STATIC     ATOMS    <user>   **** ""
8 27 28 29 30 31 32 33 34
ATOM$BLUE        STATIC     ATOMS    COLORGROUP SYSTEM
8 27 28 29 30 31 32 33 34
