AV-unprocessed.smi:99|AV-procd|sdf|877|dock2
  -GOLD-   2262017343D 1   1.00000     0.00000
 Structure written by MMmdl.
 53 56  0  0  0  0  0  0  0  0  1 V2000
  152.0687  132.1222  157.7765 O   0  0  0  0  0  0  0  0  0  0  0  0
  151.1768  131.6252  157.0855 C   0  0  0  0  0  0  0  0  0  0  0  0
  149.9930  132.2238  156.8521 O   0  0  0  0  0  0  0  0  0  0  0  0
  149.5669  133.2986  157.6721 C   0  0  0  0  0  0  0  0  0  0  0  0
  148.7805  134.3014  156.8111 C   0  0  2  0  0  0  0  0  0  0  0  0
  149.6932  134.9520  155.9263 O   0  0  0  0  0  0  0  0  0  0  0  0
  150.0228  136.2352  156.3827 C   0  0  1  0  0  0  0  0  0  0  0  0
  149.5925  137.2536  155.3496 N   0  0  0  0  0  0  0  0  0  0  0  0
  149.0854  136.8708  154.1140 C   0  0  0  0  0  0  0  0  0  0  0  0
  148.6735  137.7579  153.1778 C   0  0  0  0  0  0  0  0  0  0  0  0
  148.7415  139.1923  153.4359 C   0  0  0  0  0  0  0  0  0  0  0  0
  148.3955  140.0712  152.6495 O   0  0  0  0  0  0  0  0  0  0  0  0
  149.2445  139.5319  154.6948 N   0  0  0  0  0  0  0  0  0  0  0  0
  149.6670  138.6271  155.6700 C   0  0  0  0  0  0  0  0  0  0  0  0
  150.0738  139.0380  156.7560 O   0  0  0  0  0  0  0  0  0  0  0  0
  149.2765  136.4813  157.7019 C   0  0  2  0  0  0  0  0  0  0  0  0
  150.1289  136.2506  158.8083 O   0  0  0  0  0  0  0  0  0  0  0  0
  148.1560  135.4577  157.5931 C   0  0  2  0  0  0  0  0  0  0  0  0
  147.5751  135.0976  158.8419 O   0  0  0  0  0  0  0  0  0  0  0  0
  147.1258  136.0426  159.6949 C   0  0  0  0  0  0  0  0  0  0  0  0
  147.4394  137.2325  159.6235 O   0  0  0  0  0  0  0  0  0  0  0  0
  146.2151  135.4926  160.7394 C   0  0  0  0  0  0  0  0  0  0  0  0
  146.5853  134.3163  161.4323 C   0  0  0  0  0  0  0  0  0  0  0  0
  145.7434  133.7711  162.4211 C   0  0  0  0  0  0  0  0  0  0  0  0
  144.5209  134.3958  162.7287 C   0  0  0  0  0  0  0  0  0  0  0  0
  144.1412  135.5665  162.0469 C   0  0  0  0  0  0  0  0  0  0  0  0
  144.9819  136.1135  161.0580 C   0  0  0  0  0  0  0  0  0  0  0  0
  151.2935  130.2947  156.4220 C   0  0  0  0  0  0  0  0  0  0  0  0
  150.1522  129.7199  155.8158 C   0  0  0  0  0  0  0  0  0  0  0  0
  150.2327  128.4646  155.1820 C   0  0  0  0  0  0  0  0  0  0  0  0
  151.4547  127.7683  155.1482 C   0  0  0  0  0  0  0  0  0  0  0  0
  152.5969  128.3287  155.7488 C   0  0  0  0  0  0  0  0  0  0  0  0
  152.5188  129.5844  156.3821 C   0  0  0  0  0  0  0  0  0  0  0  0
  149.3011  140.5145  154.9200 H   0  0  0  0  0  0  0  0  0  0  0  0
  148.9277  132.9043  158.4633 H   0  0  0  0  0  0  0  0  0  0  0  0
  150.4264  133.7722  158.1469 H   0  0  0  0  0  0  0  0  0  0  0  0
  148.0126  133.7740  156.2441 H   0  0  0  0  0  0  0  0  0  0  0  0
  151.1092  136.3146  156.4577 H   0  0  0  0  0  0  0  0  0  0  0  0
  149.0029  135.8220  153.8704 H   0  0  0  0  0  0  0  0  0  0  0  0
  148.2888  137.4037  152.2322 H   0  0  0  0  0  0  0  0  0  0  0  0
  148.8984  137.5027  157.7615 H   0  0  0  0  0  0  0  0  0  0  0  0
  150.4412  137.0843  159.1254 H   0  0  0  0  0  0  0  0  0  0  0  0
  147.3803  135.8782  156.9508 H   0  0  0  0  0  0  0  0  0  0  0  0
  147.5191  133.8187  161.2126 H   0  0  0  0  0  0  0  0  0  0  0  0
  146.0362  132.8720  162.9431 H   0  0  0  0  0  0  0  0  0  0  0  0
  143.8747  133.9769  163.4862 H   0  0  0  0  0  0  0  0  0  0  0  0
  143.2027  136.0464  162.2821 H   0  0  0  0  0  0  0  0  0  0  0  0
  144.6590  137.0123  160.5531 H   0  0  0  0  0  0  0  0  0  0  0  0
  149.2029  130.2358  155.8283 H   0  0  0  0  0  0  0  0  0  0  0  0
  149.3553  128.0361  154.7208 H   0  0  0  0  0  0  0  0  0  0  0  0
  151.5161  126.8056  154.6623 H   0  0  0  0  0  0  0  0  0  0  0  0
  153.5355  127.7951  155.7242 H   0  0  0  0  0  0  0  0  0  0  0  0
  153.4142  129.9847  156.8347 H   0  0  0  0  0  0  0  0  0  0  0  0
  1  2  2  0  0  0  0
  2  3  1  0  0  0  0
  2 28  1  0  0  0  0
  3  4  1  0  0  0  0
  4  5  1  0  0  0  0
  4 35  1  0  0  0  0
  4 36  1  0  0  0  0
  5 18  1  0  0  0  0
  5  6  1  0  0  0  0
  5 37  1  0  0  0  0
  6  7  1  0  0  0  0
  7  8  1  0  0  0  0
  7 16  1  0  0  0  0
  7 38  1  0  0  0  0
  8 14  1  0  0  0  0
  8  9  1  0  0  0  0
  9 10  2  0  0  0  0
  9 39  1  0  0  0  0
 10 11  1  0  0  0  0
 10 40  1  0  0  0  0
 11 12  2  0  0  0  0
 11 13  1  0  0  0  0
 13 34  1  0  0  0  0
 13 14  1  0  0  0  0
 14 15  2  0  0  0  0
 16 17  1  0  0  0  0
 16 18  1  0  0  0  0
 16 41  1  0  0  0  0
 17 42  1  0  0  0  0
 18 19  1  0  0  0  0
 18 43  1  0  0  0  0
 19 20  1  0  0  0  0
 20 21  2  0  0  0  0
 20 22  1  0  0  0  0
 22 27  1  0  0  0  0
 22 23  2  0  0  0  0
 23 24  1  0  0  0  0
 23 44  1  0  0  0  0
 24 25  2  0  0  0  0
 24 45  1  0  0  0  0
 25 26  1  0  0  0  0
 25 46  1  0  0  0  0
 26 27  2  0  0  0  0
 26 47  1  0  0  0  0
 27 48  1  0  0  0  0
 28 33  1  0  0  0  0
 28 29  2  0  0  0  0
 29 30  1  0  0  0  0
 29 49  1  0  0  0  0
 30 31  2  0  0  0  0
 30 50  1  0  0  0  0
 31 32  1  0  0  0  0
 31 51  1  0  0  0  0
 32 33  2  0  0  0  0
 32 52  1  0  0  0  0
 33 53  1  0  0  0  0
M  END
> <s_m_source_file>
AV-unprocessed.smi

> <i_m_source_file_index>
99

> <i_lp_mmshare_version>
43012

> <i_f3d_flags>
0

> <s_epik_input>
W2NIXTFbY0hdW2NIXVtjSF1bY0hdYzFDKD1PKU9bQ0gyXVtDQEBIXTJPW0NAQEhdKG4zW2NIXVtjSF1jKD1PKVtuSF1jMz1PKVtDQEBIXShbT0hdKVtDQEhdMk9DKD1PKWM0W2NIXVtjSF1bY0hdW2NIXVtjSF00

> <s_epik_cmdline>
J2VwaWtfcHl0aG9uJywgJy1waCcsICc3LjAnLCAnLXRuJywgJzgnLCAnLW1hJywgJzIwMCcsICctbWV0YWxfYmluZGluZycsICctaW1hZScsICc8aW5maWxlLm1hZT4nLCAnLW9tYWUnLCAnPG91dGZpbGUubWFlPic=

> <r_lp_tautomer_probability>
1

> <r_epik_Ionization_Penalty>
0.00454555

> <r_epik_Ionization_Penalty_Charging>
0.0045191

> <r_epik_Ionization_Penalty_Neutral>
2.64449e-05

> <r_epik_State_Penalty>
-0

> <r_epik_Charging_Adjusted_Penalty>
0.0045191

> <i_epik_Tot_Q>
0

> <i_epik_Tot_abs_Q>
0

> <r_epik_Metal_State_Penalty>
1.27877

> <b_epik_Metal_Only>
0

> <s_epik_Chemistry_Notes>
This compound has an ester and may undergo hydrolysis at high or low pH. This compound contains an acetal/aminal-like group ( X-CH(R)-Y where X, Y are N, S, or O) that may be acid/base labile, releasing an aldehyde.

> <s_lp_Force_Field>
OPLS_2005

> <r_lp_Energy>
39.429

> <b_lp_Chiralities_Consistent>
1

> <s_lp_Variant>
AV-unprocessed.smi:99-13

> <Gold.Version>
5.8.1

> <Gold.Id.Protein>
6NUR|6NUR_protein|mol2

> <Gold.PLP.Fitness>
49.9703

> <Gold.PLP.PLP>
-38.7239

> <Gold.PLP.part.hbond>
-5.0000

> <Gold.PLP.part.metal>
0.0000

> <Gold.PLP.part.buried>
-0.1678

> <Gold.PLP.part.nonpolar>
-34.6373

> <Gold.PLP.part.repulsive>
0.2922

> <Gold.PLP.ligand.clash>
0.0000

> <Gold.PLP.ligand.torsion>
1.6617

> <Gold.PLP.Chemscore.Hbond>
3.8569

> <Gold.PLP.Chemscore.CHOScore>
0.9204

> <Gold.PLP.Chemscore.Metal>
0.0000

> <Gold.Chemscore.Hbonds>
donor molecule, donor type, donor heavy atom, donor atom, acceptor molecule, acceptor atom, score
      P1  H  6896  6907       L1    17  1.00
      P1  H  6896  6909       L1     1  1.00
      P1  H  6934  6947       L1    21  0.46
      L1  C     9    39       P1  7948  0.24

> <Gold.PLP.Chemscore.Internal.Correction>
0.2377

> <Gold.Rescore>
     Score         DG    S(hbond)    S(metal)    S(lipo)     H(rot)  DE(clash)    DE(int)     intcor
     14.84     -19.03       3.61        0.00      82.69       3.19       0.84       3.35       ----

> <Gold.Chemscore.Fitness>
14.8435

> <Gold.Chemscore.DG>
-19.0299

> <Gold.Chemscore.ZeroCoef>
-5.4800

> <Gold.Chemscore.Hbond>
3.6054

> <Gold.Chemscore.Metal>
0.0000

> <Gold.Chemscore.Lipo>
82.6927

> <Gold.Chemscore.Internal_Hbond>
0.0000

> <Gold.Chemscore.DEClash>
0.8378

> <Gold.Chemscore.DEInternal>
3.3486

> <Gold.Chemscore.Rot>
3.1903

> <Gold.Chemscore.Internal.Correction>
   9.000000E+99

> <Gold.Chemscore.Hbonds>
donor molecule, donor type, donor heavy atom, donor atom, acceptor molecule, acceptor atom, score
      P1  H  6896  6907       L1    17  0.87
      P1  H  6896  6909       L1     1  0.95
      P1  H  6934  6947       L1    21  0.44

> <Gold.Chemscore.Hbond.Weighted>
-12.0419

> <Gold.Chemscore.Metal.Weighted>
-0.0000

> <Gold.Chemscore.Lipo.Weighted>
-9.6751

> <Gold.Chemscore.Internal_Hbond.Weighted>
0.0000

> <Gold.Chemscore.DEClash.Weighted>
0.8378

> <Gold.Chemscore.DEInternal.Weighted>
3.3486

> <Gold.Chemscore.Rot.Weighted>
8.1671

> <Gold.Chemscore.Internal.Correction.Weighted>
   9.000000E+99

> <Gold.Protein.RotatedTorsions>
[ 6907 6896 6895 6894 ] final  -52.64 input  -60.11 | X-H torsion
[ 7974 7965 7964 7962 ] final   30.27 input  175.53 | X-H torsion
[ 8008 7997 7996 7995 ] final  152.30 input   59.86 | X-H torsion
[ 10167 10162 10161 10158 ] final  128.24 input  -65.29 | X-H torsion
[ 10718 10713 10712 10709 ] final  144.77 input   66.30 | X-H torsion
[ 10763 10752 10751 10750 ] final -152.31 input  -60.55 | X-H torsion
[ 11005 11000 10999 10996 ] final  -13.85 input  -57.11 | X-H torsion

> <Gold.Protein.ActiveResidues>
 VAL166  LYS551  ARG553  GLY616  TRP617  ASP618  TYR619  PRO620  LYS621  CYS622 
 ASP623  PHE694  ASN695  SER759  ASP760  ASP761  ALA762  ILE779  LEU786  VAL792 
 PHE793  MET794  SER795  GLU796  ALA797  LYS798  CYS799  TRP800  GLU811  SER814 

> <Gold.Protein.RotatedAtoms>
  150.8499  134.7820  159.6999 H   0  0  0  0  0  0  0  0  0  0  0  0  # atno 6907 bound_to 6896
  152.4566  134.5274  159.9810 H   0  0  0  0  0  0  0  0  0  0  0  0  # atno 6908 bound_to 6896
  151.5397  133.3397  159.2969 H   0  0  0  0  0  0  0  0  0  0  0  0  # atno 6909 bound_to 6896
  146.1622  139.6811  142.9026 H   0  0  0  0  0  0  0  0  0  0  0  0  # atno 7974 bound_to 7965
  156.2635  140.2024  156.6312 H   0  0  0  0  0  0  0  0  0  0  0  0  # atno 8008 bound_to 7997
  154.6681  140.0553  157.0160 H   0  0  0  0  0  0  0  0  0  0  0  0  # atno 8009 bound_to 7997
  155.1177  140.3221  155.4508 H   0  0  0  0  0  0  0  0  0  0  0  0  # atno 8010 bound_to 7997
  139.5537  144.6832  151.4247 H   0  0  0  0  0  0  0  0  0  0  0  0  # atno 10167 bound_to 10162
  157.3533  131.0954  151.0981 H   0  0  0  0  0  0  0  0  0  0  0  0  # atno 10718 bound_to 10713
  154.8002  135.3239  154.7568 H   0  0  0  0  0  0  0  0  0  0  0  0  # atno 10763 bound_to 10752
  153.8237  135.6885  153.4828 H   0  0  0  0  0  0  0  0  0  0  0  0  # atno 10764 bound_to 10752
  153.1715  135.4621  154.9852 H   0  0  0  0  0  0  0  0  0  0  0  0  # atno 10765 bound_to 10752
  140.7804  133.8367  155.9287 H   0  0  0  0  0  0  0  0  0  0  0  0  # atno 11005 bound_to 11000
  145.4560  141.0430  143.2778 LP  0  0  0  0  0  0  0  0  0  0  0  0  # atno 17320 bound_to 7965
  144.8042  139.6082  143.7058 LP  0  0  0  0  0  0  0  0  0  0  0  0  # atno 17321 bound_to 7965
  140.6805  143.8092  150.7115 LP  0  0  0  0  0  0  0  0  0  0  0  0  # atno 17342 bound_to 10162
  140.1544  143.4330  152.2109 LP  0  0  0  0  0  0  0  0  0  0  0  0  # atno 17343 bound_to 10162
  157.2149  130.6454  149.5788 LP  0  0  0  0  0  0  0  0  0  0  0  0  # atno 17370 bound_to 10713
  155.9725  130.4648  150.6231 LP  0  0  0  0  0  0  0  0  0  0  0  0  # atno 17371 bound_to 10713
  140.9488  134.1806  157.4743 LP  0  0  0  0  0  0  0  0  0  0  0  0  # atno 17394 bound_to 11000
  139.8743  134.9901  156.5487 LP  0  0  0  0  0  0  0  0  0  0  0  0  # atno 17395 bound_to 11000

$$$$
