AV-unprocessed.smi:826|AV-procd|sdf|3853|dock8
  -GOLD-   22720 1303D 1   1.00000     0.00000
 Structure written by MMmdl.
 39 40  0  0  0  0  0  0  0  0  1 V2000
  143.5670  143.3388  162.8175 C   0  0  0  0  0  0  0  0  0  0  0  0
  144.4365  143.0181  161.6504 C   0  0  0  0  0  0  0  0  0  0  0  0
  145.4979  142.2084  161.7455 N   0  0  0  0  0  0  0  0  0  0  0  0
  146.1566  142.0601  160.5329 N   0  0  0  0  0  0  0  0  0  0  0  0
  145.5699  142.7651  159.5557 C   0  0  0  0  0  0  0  0  0  0  0  0
  146.0415  142.8018  158.2169 N   0  0  0  0  0  0  0  0  0  0  0  0
  146.8802  141.9465  157.6064 C   0  0  0  0  0  0  0  0  0  0  0  0
  147.3579  140.9316  158.1147 O   0  0  0  0  0  0  0  0  0  0  0  0
  147.1446  142.3375  156.3501 N   0  0  0  0  0  0  0  0  0  0  0  0
  148.0521  141.6527  155.4304 C   0  0  1  0  0  0  0  0  0  0  0  0
  148.1324  142.4743  154.1331 C   0  0  0  0  0  0  0  0  0  0  0  0
  149.4608  141.5599  156.0381 C   0  0  0  0  0  0  0  0  0  0  0  0
  150.0760  140.4924  156.0324 O   0  0  0  0  0  0  0  0  0  0  0  0
  149.9558  142.6920  156.5602 N   0  0  0  0  0  0  0  0  0  0  0  0
  151.2816  142.8331  157.1551 C   0  0  0  0  0  0  0  0  0  0  0  0
  151.4474  141.8818  158.3557 C   0  0  0  0  0  0  0  0  0  0  0  0
  152.0204  142.7296  159.4927 C   0  0  0  0  0  0  0  0  0  0  0  0
  151.4795  144.1305  159.2275 C   0  0  0  0  0  0  0  0  0  0  0  0
  151.5037  144.2574  157.7041 C   0  0  0  0  0  0  0  0  0  0  0  0
  144.1499  143.6748  160.0431 S   0  0  0  0  0  0  0  0  0  0  0  0
  143.1634  142.4218  163.2475 H   0  0  0  0  0  0  0  0  0  0  0  0
  142.7372  143.9754  162.5102 H   0  0  0  0  0  0  0  0  0  0  0  0
  144.1439  143.8613  163.5810 H   0  0  0  0  0  0  0  0  0  0  0  0
  145.7189  143.5833  157.6656 H   0  0  0  0  0  0  0  0  0  0  0  0
  146.7128  143.1853  156.0130 H   0  0  0  0  0  0  0  0  0  0  0  0
  147.6678  140.6553  155.2067 H   0  0  0  0  0  0  0  0  0  0  0  0
  148.8003  142.0055  153.4093 H   0  0  0  0  0  0  0  0  0  0  0  0
  148.4962  143.4871  154.3141 H   0  0  0  0  0  0  0  0  0  0  0  0
  147.1518  142.5563  153.6631 H   0  0  0  0  0  0  0  0  0  0  0  0
  149.3824  143.5222  156.5207 H   0  0  0  0  0  0  0  0  0  0  0  0
  152.0441  142.6084  156.4070 H   0  0  0  0  0  0  0  0  0  0  0  0
  150.4811  141.4811  158.6660 H   0  0  0  0  0  0  0  0  0  0  0  0
  152.0869  141.0305  158.1209 H   0  0  0  0  0  0  0  0  0  0  0  0
  151.7459  142.3518  160.4779 H   0  0  0  0  0  0  0  0  0  0  0  0
  153.1092  142.7404  159.4311 H   0  0  0  0  0  0  0  0  0  0  0  0
  150.4517  144.2017  159.5856 H   0  0  0  0  0  0  0  0  0  0  0  0
  152.0612  144.9076  159.7239 H   0  0  0  0  0  0  0  0  0  0  0  0
  152.4853  144.6133  157.3888 H   0  0  0  0  0  0  0  0  0  0  0  0
  150.7721  144.9832  157.3454 H   0  0  0  0  0  0  0  0  0  0  0  0
  1  2  1  0  0  0  0
  1 21  1  0  0  0  0
  1 22  1  0  0  0  0
  1 23  1  0  0  0  0
  2 20  1  0  0  0  0
  2  3  2  0  0  0  0
  3  4  1  0  0  0  0
  4  5  2  0  0  0  0
  5  6  1  0  0  0  0
  5 20  1  0  0  0  0
  6  7  1  0  0  0  0
  6 24  1  0  0  0  0
  7  8  2  0  0  0  0
  7  9  1  0  0  0  0
  9 10  1  0  0  0  0
  9 25  1  0  0  0  0
 10 11  1  0  0  0  0
 10 12  1  0  0  0  0
 10 26  1  0  0  0  0
 11 27  1  0  0  0  0
 11 28  1  0  0  0  0
 11 29  1  0  0  0  0
 12 13  2  0  0  0  0
 12 14  1  0  0  0  0
 14 15  1  0  0  0  0
 14 30  1  0  0  0  0
 15 19  1  0  0  0  0
 15 16  1  0  0  0  0
 15 31  1  0  0  0  0
 16 17  1  0  0  0  0
 16 32  1  0  0  0  0
 16 33  1  0  0  0  0
 17 18  1  0  0  0  0
 17 34  1  0  0  0  0
 17 35  1  0  0  0  0
 18 19  1  0  0  0  0
 18 36  1  0  0  0  0
 18 37  1  0  0  0  0
 19 38  1  0  0  0  0
 19 39  1  0  0  0  0
M  END
> <s_m_source_file>
AV-unprocessed.smi

> <i_m_source_file_index>
826

> <i_lp_mmshare_version>
43012

> <i_f3d_flags>
0

> <s_epik_input>
W0NIM11jMW5uYyhzMSlbTkhdQyg9TylbTkhdW0NASF0oW0NIM10pQyg9TylbTkhdW0NIXTJbQ0gyXVtDSDJdW0NIMl1bQ0gyXTI=

> <s_epik_cmdline>
J2VwaWtfcHl0aG9uJywgJy1waCcsICc3LjAnLCAnLXRuJywgJzgnLCAnLW1hJywgJzIwMCcsICctbWV0YWxfYmluZGluZycsICctaW1hZScsICc8aW5maWxlLm1hZT4nLCAnLW9tYWUnLCAnPG91dGZpbGUubWFlPic=

> <r_lp_tautomer_probability>
1

> <r_epik_Ionization_Penalty>
0.00368568

> <r_epik_Ionization_Penalty_Charging>
0

> <r_epik_Ionization_Penalty_Neutral>
0.00368568

> <r_epik_State_Penalty>
-0

> <r_epik_Charging_Adjusted_Penalty>
0

> <i_epik_Tot_Q>
0

> <i_epik_Tot_abs_Q>
0

> <r_epik_Metal_State_Penalty>
0.369753

> <b_epik_Metal_Only>
0

> <s_lp_Force_Field>
OPLS_2005

> <r_lp_Energy>
15.8717

> <b_lp_Chiralities_Consistent>
1

> <s_lp_Variant>
AV-unprocessed.smi:826-2

> <Gold.Version>
5.8.1

> <Gold.Id.Protein>
6NUR|6NUR_protein|mol2

> <Gold.PLP.Fitness>
42.2313

> <Gold.PLP.PLP>
-36.2211

> <Gold.PLP.part.hbond>
-5.3321

> <Gold.PLP.part.metal>
0.0000

> <Gold.PLP.part.buried>
-2.4859

> <Gold.PLP.part.nonpolar>
-28.4248

> <Gold.PLP.part.repulsive>
0.1638

> <Gold.PLP.ligand.clash>
0.0000

> <Gold.PLP.ligand.torsion>
0.3179

> <Gold.PLP.Chemscore.Hbond>
2.2134

> <Gold.PLP.Chemscore.CHOScore>
0.0000

> <Gold.PLP.Chemscore.Metal>
0.0000

> <Gold.Chemscore.Hbonds>
donor molecule, donor type, donor heavy atom, donor atom, acceptor molecule, acceptor atom, score
      L1  H    14    30       P1  8028  0.94
      P1  H  6934  6946       L1     4  0.73

> <Gold.PLP.Chemscore.Internal.Correction>
0.0058

> <Gold.Rescore>
     Score         DG    S(hbond)    S(metal)    S(lipo)     H(rot)  DE(clash)    DE(int)     intcor
     16.24     -17.72       1.90        0.00      86.35       1.65       0.06       1.42       ----

> <Gold.Chemscore.Fitness>
16.2426

> <Gold.Chemscore.DG>
-17.7204

> <Gold.Chemscore.ZeroCoef>
-5.4800

> <Gold.Chemscore.Hbond>
1.9013

> <Gold.Chemscore.Metal>
0.0000

> <Gold.Chemscore.Lipo>
86.3523

> <Gold.Chemscore.Internal_Hbond>
0.0000

> <Gold.Chemscore.DEClash>
0.0619

> <Gold.Chemscore.DEInternal>
1.4159

> <Gold.Chemscore.Rot>
1.6458

> <Gold.Chemscore.Internal.Correction>
   9.000000E+99

> <Gold.Chemscore.Hbonds>
donor molecule, donor type, donor heavy atom, donor atom, acceptor molecule, acceptor atom, score
      L1  H    14    30       P1  8028  0.87
      P1  H  6934  6946       L1     4  0.25

> <Gold.Chemscore.Hbond.Weighted>
-6.3505

> <Gold.Chemscore.Metal.Weighted>
-0.0000

> <Gold.Chemscore.Lipo.Weighted>
-10.1032

> <Gold.Chemscore.Internal_Hbond.Weighted>
0.0000

> <Gold.Chemscore.DEClash.Weighted>
0.0619

> <Gold.Chemscore.DEInternal.Weighted>
1.4159

> <Gold.Chemscore.Rot.Weighted>
4.2133

> <Gold.Chemscore.Internal.Correction.Weighted>
   9.000000E+99

> <Gold.Protein.RotatedTorsions>
[ 6907 6896 6895 6894 ] final -175.19 input  -60.11 | X-H torsion
[ 7974 7965 7964 7962 ] final  -76.96 input  175.53 | X-H torsion
[ 8008 7997 7996 7995 ] final   16.07 input   59.86 | X-H torsion
[ 10167 10162 10161 10158 ] final   49.15 input  -65.29 | X-H torsion
[ 10718 10713 10712 10709 ] final   71.15 input   66.30 | X-H torsion
[ 10763 10752 10751 10750 ] final  106.28 input  -60.55 | X-H torsion
[ 11005 11000 10999 10996 ] final  110.33 input  -57.11 | X-H torsion

> <Gold.Protein.ActiveResidues>
 VAL166  LYS551  ARG553  GLY616  TRP617  ASP618  TYR619  PRO620  LYS621  CYS622 
 ASP623  PHE694  ASN695  SER759  ASP760  ASP761  ALA762  ILE779  LEU786  VAL792 
 PHE793  MET794  SER795  GLU796  ALA797  LYS798  CYS799  TRP800  GLU811  SER814 

> <Gold.Protein.RotatedAtoms>
  151.5845  133.3374  159.3014 H   0  0  0  0  0  0  0  0  0  0  0  0  # atno 6907 bound_to 6896
  150.8295  134.7544  159.6852 H   0  0  0  0  0  0  0  0  0  0  0  0  # atno 6908 bound_to 6896
  152.4380  134.5654  159.9957 H   0  0  0  0  0  0  0  0  0  0  0  0  # atno 6909 bound_to 6896
  145.6060  140.9398  143.1215 H   0  0  0  0  0  0  0  0  0  0  0  0  # atno 7974 bound_to 7965
  154.8717  140.2960  155.5477 H   0  0  0  0  0  0  0  0  0  0  0  0  # atno 8008 bound_to 7997
  156.3021  140.2459  156.3640 H   0  0  0  0  0  0  0  0  0  0  0  0  # atno 8009 bound_to 7997
  154.8810  140.0398  157.1771 H   0  0  0  0  0  0  0  0  0  0  0  0  # atno 8010 bound_to 7997
  140.2859  144.3102  150.6252 H   0  0  0  0  0  0  0  0  0  0  0  0  # atno 10167 bound_to 10162
  157.6437  130.9514  150.0750 H   0  0  0  0  0  0  0  0  0  0  0  0  # atno 10718 bound_to 10713
  153.3908  135.3882  155.1922 H   0  0  0  0  0  0  0  0  0  0  0  0  # atno 10763 bound_to 10752
  154.8719  135.3748  154.4739 H   0  0  0  0  0  0  0  0  0  0  0  0  # atno 10764 bound_to 10752
  153.5226  135.7086  153.5785 H   0  0  0  0  0  0  0  0  0  0  0  0  # atno 10765 bound_to 10752
  139.8879  134.9481  156.6262 H   0  0  0  0  0  0  0  0  0  0  0  0  # atno 11005 bound_to 11000
  144.7290  139.7785  143.7354 LP  0  0  0  0  0  0  0  0  0  0  0  0  # atno 17320 bound_to 7965
  146.1541  139.4633  143.0030 LP  0  0  0  0  0  0  0  0  0  0  0  0  # atno 17321 bound_to 7965
  140.5773  143.2175  151.7492 LP  0  0  0  0  0  0  0  0  0  0  0  0  # atno 17342 bound_to 10162
  139.4950  144.4131  152.0059 LP  0  0  0  0  0  0  0  0  0  0  0  0  # atno 17343 bound_to 10162
  156.1743  130.3647  149.9122 LP  0  0  0  0  0  0  0  0  0  0  0  0  # atno 17370 bound_to 10713
  156.7090  130.8962  151.3607 LP  0  0  0  0  0  0  0  0  0  0  0  0  # atno 17371 bound_to 10713
  140.7701  133.8745  155.8485 LP  0  0  0  0  0  0  0  0  0  0  0  0  # atno 17394 bound_to 11000
  140.9849  134.1356  157.4461 LP  0  0  0  0  0  0  0  0  0  0  0  0  # atno 17395 bound_to 11000

$$$$
