AV-unprocessed.smi:357|AV-procd|sdf|2416|dock7
  -GOLD-   2262022353D 1   1.00000     0.00000
 Structure written by MMmdl.
 37 38  0  0  0  0  0  0  0  0  1 V2000
  149.6965  141.0696  153.6703 O   0  0  0  0  0  0  0  0  0  0  0  0
  148.9022  141.3248  154.5765 C   0  0  0  0  0  0  0  0  0  0  0  0
  147.4448  141.1906  154.4385 C   0  0  0  0  0  0  0  0  0  0  0  0
  146.8377  140.6313  152.9153 Cl  0  0  0  0  0  0  0  0  0  0  0  0
  146.5873  141.4919  155.4507 C   0  0  0  0  0  0  0  0  0  0  0  0
  145.2140  141.3608  155.2812 N   0  0  0  0  0  0  0  0  0  0  0  0
  144.1466  141.6304  156.2336 C   0  0  0  0  0  0  0  0  0  0  0  0
  143.0530  142.5276  155.6359 C   0  0  0  0  0  0  0  0  0  0  0  0
  142.2506  141.7899  154.7390 O   0  0  0  0  0  0  0  0  0  0  0  0
  147.1895  141.9597  156.6903 C   0  0  0  0  0  0  0  0  0  0  0  0
  148.4623  142.0836  156.8453 N   0  0  0  0  0  0  0  0  0  0  0  0
  149.3092  141.7675  155.8027 N   0  0  0  0  0  0  0  0  0  0  0  0
  150.7296  141.9770  156.1016 C   0  0  0  0  0  0  0  0  0  0  0  0
  150.9225  142.5858  157.4985 C   0  0  0  0  0  0  0  0  0  0  0  0
  151.9140  141.8384  158.1895 O   0  0  0  0  0  0  0  0  0  0  0  0
  152.3078  142.2764  159.4357 C   0  0  0  0  0  0  0  0  0  0  0  0
  153.2252  141.4672  160.1376 C   0  0  0  0  0  0  0  0  0  0  0  0
  153.6807  141.8370  161.4178 C   0  0  0  0  0  0  0  0  0  0  0  0
  153.2199  143.0263  162.0121 C   0  0  0  0  0  0  0  0  0  0  0  0
  153.7758  143.4820  163.5805 Cl  0  0  0  0  0  0  0  0  0  0  0  0
  152.3038  143.8432  161.3236 C   0  0  0  0  0  0  0  0  0  0  0  0
  151.8491  143.4734  160.0428 C   0  0  0  0  0  0  0  0  0  0  0  0
  144.9016  141.0140  154.3852 H   0  0  0  0  0  0  0  0  0  0  0  0
  143.7052  140.6629  156.4736 H   0  0  0  0  0  0  0  0  0  0  0  0
  144.5268  142.0254  157.1758 H   0  0  0  0  0  0  0  0  0  0  0  0
  142.4388  142.9885  156.4106 H   0  0  0  0  0  0  0  0  0  0  0  0
  143.5134  143.3371  155.0691 H   0  0  0  0  0  0  0  0  0  0  0  0
  142.3240  142.1786  153.8807 H   0  0  0  0  0  0  0  0  0  0  0  0
  146.5010  142.2078  157.4969 H   0  0  0  0  0  0  0  0  0  0  0  0
  151.2661  141.0282  156.0428 H   0  0  0  0  0  0  0  0  0  0  0  0
  151.1904  142.6167  155.3468 H   0  0  0  0  0  0  0  0  0  0  0  0
  151.2336  143.6284  157.4135 H   0  0  0  0  0  0  0  0  0  0  0  0
  149.9779  142.5545  158.0441 H   0  0  0  0  0  0  0  0  0  0  0  0
  153.5846  140.5526  159.6892 H   0  0  0  0  0  0  0  0  0  0  0  0
  154.3837  141.2063  161.9419 H   0  0  0  0  0  0  0  0  0  0  0  0
  151.9474  144.7563  161.7771 H   0  0  0  0  0  0  0  0  0  0  0  0
  151.1468  144.1261  159.5475 H   0  0  0  0  0  0  0  0  0  0  0  0
  1  2  2  0  0  0  0
  2 12  1  0  0  0  0
  2  3  1  0  0  0  0
  3  4  1  0  0  0  0
  3  5  2  0  0  0  0
  5  6  1  0  0  0  0
  5 10  1  0  0  0  0
  6  7  1  0  0  0  0
  6 23  1  0  0  0  0
  7  8  1  0  0  0  0
  7 24  1  0  0  0  0
  7 25  1  0  0  0  0
  8  9  1  0  0  0  0
  8 26  1  0  0  0  0
  8 27  1  0  0  0  0
  9 28  1  0  0  0  0
 10 11  2  0  0  0  0
 10 29  1  0  0  0  0
 11 12  1  0  0  0  0
 12 13  1  0  0  0  0
 13 14  1  0  0  0  0
 13 30  1  0  0  0  0
 13 31  1  0  0  0  0
 14 15  1  0  0  0  0
 14 32  1  0  0  0  0
 14 33  1  0  0  0  0
 15 16  1  0  0  0  0
 16 22  1  0  0  0  0
 16 17  2  0  0  0  0
 17 18  1  0  0  0  0
 17 34  1  0  0  0  0
 18 19  2  0  0  0  0
 18 35  1  0  0  0  0
 19 20  1  0  0  0  0
 19 21  1  0  0  0  0
 21 22  2  0  0  0  0
 21 36  1  0  0  0  0
 22 37  1  0  0  0  0
M  END
> <s_m_source_file>
AV-unprocessed.smi

> <i_m_source_file_index>
357

> <i_lp_mmshare_version>
43012

> <i_f3d_flags>
0

> <s_epik_input>
W09IXVtDSDJdW0NIMl1bTkhdYyhjKENsKWMxPU8pW2NIXW5uMVtDSDJdW0NIMl1PYzJbY0hdW2NIXWMoQ2wpW2NIXVtjSF0y

> <s_epik_cmdline>
J2VwaWtfcHl0aG9uJywgJy1waCcsICc3LjAnLCAnLXRuJywgJzgnLCAnLW1hJywgJzIwMCcsICctbWV0YWxfYmluZGluZycsICctaW1hZScsICc8aW5maWxlLm1hZT4nLCAnLW9tYWUnLCAnPG91dGZpbGUubWFlPic=

> <r_lp_tautomer_probability>
1

> <r_epik_Ionization_Penalty>
2.22594e-05

> <r_epik_Ionization_Penalty_Charging>
1.05597e-09

> <r_epik_Ionization_Penalty_Neutral>
2.22583e-05

> <r_epik_State_Penalty>
-0

> <r_epik_Charging_Adjusted_Penalty>
1.05597e-09

> <i_epik_Tot_Q>
0

> <i_epik_Tot_abs_Q>
0

> <r_epik_Metal_State_Penalty>
-0

> <b_epik_Metal_Only>
0

> <s_lp_Force_Field>
OPLS_2005

> <r_lp_Energy>
32.065

> <b_lp_Chiralities_Consistent>
1

> <s_lp_Variant>
AV-unprocessed.smi:357-1

> <Gold.Version>
5.8.1

> <Gold.Id.Protein>
6NUR|6NUR_protein|mol2

> <Gold.PLP.Fitness>
49.9384

> <Gold.PLP.PLP>
-42.8910

> <Gold.PLP.part.hbond>
-4.2285

> <Gold.PLP.part.metal>
0.0000

> <Gold.PLP.part.buried>
-2.4669

> <Gold.PLP.part.nonpolar>
-38.0270

> <Gold.PLP.part.repulsive>
3.6394

> <Gold.PLP.ligand.clash>
0.0000

> <Gold.PLP.ligand.torsion>
0.4809

> <Gold.PLP.Chemscore.Hbond>
2.6540

> <Gold.PLP.Chemscore.CHOScore>
0.0000

> <Gold.PLP.Chemscore.Metal>
0.0000

> <Gold.Chemscore.Hbonds>
donor molecule, donor type, donor heavy atom, donor atom, acceptor molecule, acceptor atom, score
      L1  H     6    23       P1 10175  0.29
      L1  H     9    28       P1 10174  1.00
      P1  H  7989  7998       L1     1  0.30
      P1  H  8011  8017       L1     1  0.96

> <Gold.PLP.Chemscore.Internal.Correction>
0.0472

> <Gold.Rescore>
     Score         DG    S(hbond)    S(metal)    S(lipo)     H(rot)  DE(clash)    DE(int)     intcor
     17.71     -19.79       2.40        0.00     112.73       2.70       1.73       0.35       ----

> <Gold.Chemscore.Fitness>
17.7075

> <Gold.Chemscore.DG>
-19.7889

> <Gold.Chemscore.ZeroCoef>
-5.4800

> <Gold.Chemscore.Hbond>
2.4045

> <Gold.Chemscore.Metal>
0.0000

> <Gold.Chemscore.Lipo>
112.7329

> <Gold.Chemscore.Internal_Hbond>
0.0000

> <Gold.Chemscore.DEClash>
1.7265

> <Gold.Chemscore.DEInternal>
0.3549

> <Gold.Chemscore.Rot>
2.6999

> <Gold.Chemscore.Internal.Correction>
   9.000000E+99

> <Gold.Chemscore.Hbonds>
donor molecule, donor type, donor heavy atom, donor atom, acceptor molecule, acceptor atom, score
      L1  H     6    23       P1 10175  0.29
      L1  H     9    28       P1 10174  0.45
      P1  H  7989  7998       L1     1  0.30
      P1  H  8011  8017       L1     1  0.81

> <Gold.Chemscore.Hbond.Weighted>
-8.0310

> <Gold.Chemscore.Metal.Weighted>
-0.0000

> <Gold.Chemscore.Lipo.Weighted>
-13.1897

> <Gold.Chemscore.Internal_Hbond.Weighted>
0.0000

> <Gold.Chemscore.DEClash.Weighted>
1.7265

> <Gold.Chemscore.DEInternal.Weighted>
0.3549

> <Gold.Chemscore.Rot.Weighted>
6.9118

> <Gold.Chemscore.Internal.Correction.Weighted>
   9.000000E+99

> <Gold.Protein.RotatedTorsions>
[ 6907 6896 6895 6894 ] final  -23.75 input  -60.11 | X-H torsion
[ 7974 7965 7964 7962 ] final  -27.27 input  175.53 | X-H torsion
[ 8008 7997 7996 7995 ] final   77.40 input   59.86 | X-H torsion
[ 10167 10162 10161 10158 ] final  -65.83 input  -65.29 | X-H torsion
[ 10718 10713 10712 10709 ] final   15.30 input   66.30 | X-H torsion
[ 10763 10752 10751 10750 ] final -123.87 input  -60.55 | X-H torsion
[ 11005 11000 10999 10996 ] final   -5.24 input  -57.11 | X-H torsion

> <Gold.Protein.ActiveResidues>
 VAL166  LYS551  ARG553  GLY616  TRP617  ASP618  TYR619  PRO620  LYS621  CYS622 
 ASP623  PHE694  ASN695  SER759  ASP760  ASP761  ALA762  ILE779  LEU786  VAL792 
 PHE793  MET794  SER795  GLU796  ALA797  LYS798  CYS799  TRP800  GLU811  SER814 

> <Gold.Protein.RotatedAtoms>
  151.1994  135.0436  159.8865 H   0  0  0  0  0  0  0  0  0  0  0  0  # atno 6907 bound_to 6896
  152.5434  134.0866  159.8269 H   0  0  0  0  0  0  0  0  0  0  0  0  # atno 6908 bound_to 6896
  151.1005  133.5199  159.2642 H   0  0  0  0  0  0  0  0  0  0  0  0  # atno 6909 bound_to 6896
  146.1369  140.5129  142.8669 H   0  0  0  0  0  0  0  0  0  0  0  0  # atno 7974 bound_to 7965
  155.8411  140.3462  155.5632 H   0  0  0  0  0  0  0  0  0  0  0  0  # atno 8008 bound_to 7997
  155.8139  140.0903  157.1907 H   0  0  0  0  0  0  0  0  0  0  0  0  # atno 8009 bound_to 7997
  154.4005  140.1442  156.3407 H   0  0  0  0  0  0  0  0  0  0  0  0  # atno 8010 bound_to 7997
  140.5701  143.2317  151.6556 H   0  0  0  0  0  0  0  0  0  0  0  0  # atno 10167 bound_to 10162
  157.0516  130.6272  149.5769 H   0  0  0  0  0  0  0  0  0  0  0  0  # atno 10718 bound_to 10713
  154.8715  135.4083  154.3014 H   0  0  0  0  0  0  0  0  0  0  0  0  # atno 10763 bound_to 10752
  153.3873  135.7013  153.6526 H   0  0  0  0  0  0  0  0  0  0  0  0  # atno 10764 bound_to 10752
  153.5324  135.3665  155.2653 H   0  0  0  0  0  0  0  0  0  0  0  0  # atno 10765 bound_to 10752
  140.6890  133.9087  155.8605 H   0  0  0  0  0  0  0  0  0  0  0  0  # atno 11005 bound_to 11000
  144.7750  140.5719  143.6644 LP  0  0  0  0  0  0  0  0  0  0  0  0  # atno 17320 bound_to 7965
  145.5135  139.1478  143.3592 LP  0  0  0  0  0  0  0  0  0  0  0  0  # atno 17321 bound_to 7965
  139.5113  144.3514  152.0648 LP  0  0  0  0  0  0  0  0  0  0  0  0  # atno 17342 bound_to 10162
  140.2651  144.4025  150.6171 LP  0  0  0  0  0  0  0  0  0  0  0  0  # atno 17343 bound_to 10162
  156.0006  130.5084  150.7648 LP  0  0  0  0  0  0  0  0  0  0  0  0  # atno 17370 bound_to 10713
  157.5026  131.0919  151.0296 LP  0  0  0  0  0  0  0  0  0  0  0  0  # atno 17371 bound_to 10713
  141.0256  134.0828  157.4072 LP  0  0  0  0  0  0  0  0  0  0  0  0  # atno 17394 bound_to 11000
  139.8929  135.0127  156.6870 LP  0  0  0  0  0  0  0  0  0  0  0  0  # atno 17395 bound_to 11000

$$$$
