AV-unprocessed.smi:45|AV-procd|sdf|418|dock5
  -GOLD-   2262016293D 1   1.00000     0.00000
 Structure written by MMmdl.
 60 63  0  0  0  0  0  0  0  0  3 V2000
  159.6063  136.0934  165.7057 C   0  0  0  0  0  0  0  0  0  0  0  0
  158.4246  135.4125  165.3101 O   0  0  0  0  0  0  0  0  0  0  0  0
  157.5357  136.0708  164.4855 C   0  0  0  0  0  0  0  0  0  0  0  0
  157.7109  137.4065  164.0420 C   0  0  0  0  0  0  0  0  0  0  0  0
  156.7588  138.0116  163.1988 C   0  0  0  0  0  0  0  0  0  0  0  0
  155.6195  137.2944  162.7838 C   0  0  0  0  0  0  0  0  0  0  0  0
  154.5960  137.9461  161.8760 C   0  0  0  0  0  0  0  0  0  0  0  0
  154.5062  137.3101  160.5704 N   0  0  0  0  0  0  0  0  0  0  0  0
  153.9034  137.9589  159.4800 C   0  0  0  0  0  0  0  0  0  0  0  0
  153.4177  139.2156  159.6697 N   0  3  0  0  0  0  0  0  0  0  0  0
  152.8431  139.8934  158.6624 C   0  0  0  0  0  0  0  0  0  0  0  0
  152.3727  141.1821  158.9105 N   0  0  0  0  0  0  0  0  0  0  0  0
  152.9796  142.0301  159.9307 C   0  0  0  0  0  0  0  0  0  0  0  0
  152.8422  143.4640  159.4217 C   0  0  0  0  0  0  0  0  0  0  0  0
  151.5795  143.4036  158.5723 C   0  0  0  0  0  0  0  0  0  0  0  0
  151.6346  142.0016  157.9476 C   0  0  2  0  0  0  0  0  0  0  0  0
  150.2331  141.4442  157.6202 C   0  0  0  0  0  0  0  0  0  0  0  0
  149.8041  141.9251  156.3643 O   0  0  0  0  0  0  0  0  0  0  0  0
  152.7229  139.3741  157.4348 N   0  0  0  0  0  0  0  0  0  0  0  0
  153.1873  138.1335  157.1945 C   0  0  0  0  0  0  0  0  0  0  0  0
  153.8039  137.3596  158.1978 C   0  0  0  0  0  0  0  0  0  0  0  0
  154.2811  135.9608  157.9035 C   0  0  0  0  0  0  0  0  0  0  0  0
  153.8674  135.0362  158.6116 O   0  0  0  0  0  0  0  0  0  0  0  0
  155.1534  135.9364  156.8579 N   0  5  0  0  0  0  0  0  0  0  0  0
  155.9951  137.0678  156.4662 C   0  0  0  0  0  0  0  0  0  0  0  0
  156.0231  137.2608  154.9546 C   0  0  0  0  0  0  0  0  0  0  0  0
  156.4216  136.2175  154.2164 N   0  0  0  0  0  0  0  0  0  0  0  0
  156.4210  136.3787  152.8755 C   0  0  0  0  0  0  0  0  0  0  0  0
  156.0218  137.5890  152.2735 C   0  0  0  0  0  0  0  0  0  0  0  0
  155.6236  138.6185  153.1498 C   0  0  0  0  0  0  0  0  0  0  0  0
  155.6246  138.4518  154.4902 N   0  0  0  0  0  0  0  0  0  0  0  0
  155.4373  135.9683  163.2218 C   0  0  0  0  0  0  0  0  0  0  0  0
  156.3878  135.3618  164.0661 C   0  0  0  0  0  0  0  0  0  0  0  0
  156.1347  133.7333  164.5841 Cl  0  0  0  0  0  0  0  0  0  0  0  0
  152.2315  142.0457  157.0351 H   0  0  0  0  0  0  0  0  0  0  0  0
  160.2006  135.4385  166.3429 H   0  0  0  0  0  0  0  0  0  0  0  0
  159.3765  136.9916  166.2802 H   0  0  0  0  0  0  0  0  0  0  0  0
  160.2202  136.3605  164.8445 H   0  0  0  0  0  0  0  0  0  0  0  0
  158.5695  137.9911  164.3355 H   0  0  0  0  0  0  0  0  0  0  0  0
  156.9057  139.0304  162.8709 H   0  0  0  0  0  0  0  0  0  0  0  0
  153.6215  137.9028  162.3643 H   0  0  0  0  0  0  0  0  0  0  0  0
  154.8440  139.0005  161.7477 H   0  0  0  0  0  0  0  0  0  0  0  0
  154.9412  136.4077  160.4352 H   0  0  0  0  0  0  0  0  0  0  0  0
  152.4318  141.8981  160.8644 H   0  0  0  0  0  0  0  0  0  0  0  0
  154.0256  141.7793  160.1121 H   0  0  0  0  0  0  0  0  0  0  0  0
  152.7834  144.1978  160.2260 H   0  0  0  0  0  0  0  0  0  0  0  0
  153.6968  143.7180  158.7929 H   0  0  0  0  0  0  0  0  0  0  0  0
  150.7058  143.5004  159.2187 H   0  0  0  0  0  0  0  0  0  0  0  0
  151.5321  144.1969  157.8256 H   0  0  0  0  0  0  0  0  0  0  0  0
  150.2305  140.3560  157.5767 H   0  0  0  0  0  0  0  0  0  0  0  0
  149.5099  141.7338  158.3836 H   0  0  0  0  0  0  0  0  0  0  0  0
  149.4319  142.7859  156.4824 H   0  0  0  0  0  0  0  0  0  0  0  0
  153.0520  137.7578  156.1905 H   0  0  0  0  0  0  0  0  0  0  0  0
  155.6346  137.9930  156.9177 H   0  0  0  0  0  0  0  0  0  0  0  0
  157.0194  136.9654  156.8296 H   0  0  0  0  0  0  0  0  0  0  0  0
  156.7404  135.5369  152.2793 H   0  0  0  0  0  0  0  0  0  0  0  0
  156.0206  137.7201  151.2018 H   0  0  0  0  0  0  0  0  0  0  0  0
  155.3033  139.5791  152.7742 H   0  0  0  0  0  0  0  0  0  0  0  0
  154.5651  135.4111  162.9122 H   0  0  0  0  0  0  0  0  0  0  0  0
  153.4986  139.6396  160.5929 H   0  0  0  0  0  0  0  0  0  0  0  0
  1  2  1  0  0  0  0
  1 36  1  0  0  0  0
  1 37  1  0  0  0  0
  1 38  1  0  0  0  0
  2  3  1  0  0  0  0
  3 33  1  0  0  0  0
  3  4  2  0  0  0  0
  4  5  1  0  0  0  0
  4 39  1  0  0  0  0
  5  6  2  0  0  0  0
  5 40  1  0  0  0  0
  6  7  1  0  0  0  0
  6 32  1  0  0  0  0
  7  8  1  0  0  0  0
  7 41  1  0  0  0  0
  7 42  1  0  0  0  0
  8  9  1  0  0  0  0
  8 43  1  0  0  0  0
  9 21  1  0  0  0  0
  9 10  2  0  0  0  0
 10 11  1  0  0  0  0
 10 60  1  0  0  0  0
 11 12  1  0  0  0  0
 11 19  2  0  0  0  0
 12 16  1  0  0  0  0
 12 13  1  0  0  0  0
 13 14  1  0  0  0  0
 13 44  1  0  0  0  0
 13 45  1  0  0  0  0
 14 15  1  0  0  0  0
 14 46  1  0  0  0  0
 14 47  1  0  0  0  0
 15 16  1  0  0  0  0
 15 48  1  0  0  0  0
 15 49  1  0  0  0  0
 16 35  1  0  0  0  0
 16 17  1  0  0  0  0
 17 18  1  0  0  0  0
 17 50  1  0  0  0  0
 17 51  1  0  0  0  0
 18 52  1  0  0  0  0
 19 20  1  0  0  0  0
 20 21  2  0  0  0  0
 20 53  1  0  0  0  0
 21 22  1  0  0  0  0
 22 23  2  0  0  0  0
 22 24  1  0  0  0  0
 24 25  1  0  0  0  0
 25 26  1  0  0  0  0
 25 54  1  0  0  0  0
 25 55  1  0  0  0  0
 26 31  1  0  0  0  0
 26 27  2  0  0  0  0
 27 28  1  0  0  0  0
 28 29  2  0  0  0  0
 28 56  1  0  0  0  0
 29 30  1  0  0  0  0
 29 57  1  0  0  0  0
 30 31  2  0  0  0  0
 30 58  1  0  0  0  0
 32 33  2  0  0  0  0
 32 59  1  0  0  0  0
 33 34  1  0  0  0  0
M  CHG  1  10   1
M  CHG  1  24  -1
M  END
> <s_m_source_file>
AV-unprocessed.smi

> <i_m_source_file_index>
45

> <i_lp_mmshare_version>
43012

> <i_f3d_flags>
0

> <s_epik_input>
W0NIM11PYzFbY0hdW2NIXWMoW2NIXWMxQ2wpW0NIMl1bTkhdYzJuYyhOM1tDSDJdW0NIMl1bQ0gyXVtDQEhdM1tDSDJdW09IXSluW2NIXWMyQyg9TylbTkhdW0NIMl1jNG5bY0hdW2NIXVtjSF1uNA==

> <s_epik_cmdline>
J2VwaWtfcHl0aG9uJywgJy1waCcsICc3LjAnLCAnLXRuJywgJzgnLCAnLW1hJywgJzIwMCcsICctbWV0YWxfYmluZGluZycsICctaW1hZScsICc8aW5maWxlLm1hZT4nLCAnLW9tYWUnLCAnPG91dGZpbGUubWFlPic=

> <r_lp_tautomer_probability>
0.424989

> <r_epik_Ionization_Penalty>
7.51351

> <r_epik_Ionization_Penalty_Charging>
7.51312

> <r_epik_Ionization_Penalty_Neutral>
0.00038389

> <r_epik_State_Penalty>
8.64696

> <r_epik_Charging_Adjusted_Penalty>
16.1601

> <i_epik_Tot_Q>
0

> <i_epik_Tot_abs_Q>
2

> <r_epik_Metal_State_Penalty>
4.61083

> <b_epik_Metal_Only>
1

> <s_epik_Chemistry_Notes>
This compound contains an electron-poor aromatic ring that is susceptible to covalent hydrolysis at low pH, typically resulting in measured values for nitrogen ring protonation that are around two units higher than predicted values.

> <s_lp_Force_Field>
OPLS_2005

> <r_lp_Energy>
41.8384

> <b_lp_Chiralities_Consistent>
1

> <s_lp_Variant>
AV-unprocessed.smi:45-12

> <Gold.Version>
5.8.1

> <Gold.Id.Protein>
6NUR|6NUR_protein|mol2

> <Gold.PLP.Fitness>
63.2565

> <Gold.PLP.PLP>
-51.4077

> <Gold.PLP.part.hbond>
-5.6327

> <Gold.PLP.part.metal>
0.0000

> <Gold.PLP.part.buried>
-7.0267

> <Gold.PLP.part.nonpolar>
-39.0310

> <Gold.PLP.part.repulsive>
0.2433

> <Gold.PLP.ligand.clash>
0.0000

> <Gold.PLP.ligand.torsion>
1.8490

> <Gold.PLP.Chemscore.Hbond>
4.4240

> <Gold.PLP.Chemscore.CHOScore>
0.0000

> <Gold.PLP.Chemscore.Metal>
0.0000

> <Gold.Chemscore.Hbonds>
donor molecule, donor type, donor heavy atom, donor atom, acceptor molecule, acceptor atom, score
      L1  H    18    52       P1  8028  0.64
      P1  H  6896  6909       L1    23  0.78
      P1  H  7997  8009       L1    19  0.40
      P1  H  7997  8010       L1    31  0.39
      P1  H 10752 10765       L1    24  2.00

> <Gold.PLP.Chemscore.Internal.Correction>
2.2748

> <Gold.Rescore>
     Score         DG    S(hbond)    S(metal)    S(lipo)     H(rot)  DE(clash)    DE(int)     intcor
     19.56     -22.63       2.08        0.00     150.51       2.90       0.20       2.87       ----

> <Gold.Chemscore.Fitness>
19.5595

> <Gold.Chemscore.DG>
-22.6314

> <Gold.Chemscore.ZeroCoef>
-5.4800

> <Gold.Chemscore.Hbond>
2.0848

> <Gold.Chemscore.Metal>
0.0000

> <Gold.Chemscore.Lipo>
150.5056

> <Gold.Chemscore.Internal_Hbond>
0.0000

> <Gold.Chemscore.DEClash>
0.1974

> <Gold.Chemscore.DEInternal>
2.8746

> <Gold.Chemscore.Rot>
2.8988

> <Gold.Chemscore.Internal.Correction>
   9.000000E+99

> <Gold.Chemscore.Hbonds>
donor molecule, donor type, donor heavy atom, donor atom, acceptor molecule, acceptor atom, score
      L1  H    18    52       P1  8028  0.61
      P1  H  6896  6909       L1    23  0.77
      P1  H  7997  8010       L1    31  0.32
      P1  H 10752 10765       L1    24  0.47

> <Gold.Chemscore.Hbond.Weighted>
-6.9631

> <Gold.Chemscore.Metal.Weighted>
-0.0000

> <Gold.Chemscore.Lipo.Weighted>
-17.6092

> <Gold.Chemscore.Internal_Hbond.Weighted>
0.0000

> <Gold.Chemscore.DEClash.Weighted>
0.1974

> <Gold.Chemscore.DEInternal.Weighted>
2.8746

> <Gold.Chemscore.Rot.Weighted>
7.4209

> <Gold.Chemscore.Internal.Correction.Weighted>
   9.000000E+99

> <Gold.Protein.RotatedTorsions>
[ 6907 6896 6895 6894 ] final -152.92 input  -60.11 | X-H torsion
[ 7974 7965 7964 7962 ] final  127.70 input  175.53 | X-H torsion
[ 8008 7997 7996 7995 ] final -168.00 input   59.86 | X-H torsion
[ 10167 10162 10161 10158 ] final -156.09 input  -65.29 | X-H torsion
[ 10718 10713 10712 10709 ] final    6.38 input   66.30 | X-H torsion
[ 10763 10752 10751 10750 ] final  -70.98 input  -60.55 | X-H torsion
[ 11005 11000 10999 10996 ] final  -39.60 input  -57.11 | X-H torsion

> <Gold.Protein.ActiveResidues>
 VAL166  LYS551  ARG553  GLY616  TRP617  ASP618  TYR619  PRO620  LYS621  CYS622 
 ASP623  PHE694  ASN695  SER759  ASP760  ASP761  ALA762  ILE779  LEU786  VAL792 
 PHE793  MET794  SER795  GLU796  ALA797  LYS798  CYS799  TRP800  GLU811  SER814 

> <Gold.Protein.RotatedAtoms>
  151.2349  133.4430  159.2604 H   0  0  0  0  0  0  0  0  0  0  0  0  # atno 6907 bound_to 6896
  151.0760  134.9828  159.8342 H   0  0  0  0  0  0  0  0  0  0  0  0  # atno 6908 bound_to 6896
  152.5418  134.2291  159.8870 H   0  0  0  0  0  0  0  0  0  0  0  0  # atno 6909 bound_to 6896
  145.0477  139.3909  143.5070 H   0  0  0  0  0  0  0  0  0  0  0  0  # atno 7974 bound_to 7965
  155.8854  140.1016  157.1456 H   0  0  0  0  0  0  0  0  0  0  0  0  # atno 8008 bound_to 7997
  154.4009  140.1321  156.4313 H   0  0  0  0  0  0  0  0  0  0  0  0  # atno 8009 bound_to 7997
  155.7595  140.3463  155.5193 H   0  0  0  0  0  0  0  0  0  0  0  0  # atno 8010 bound_to 7997
  139.6878  143.9471  152.2370 H   0  0  0  0  0  0  0  0  0  0  0  0  # atno 10167 bound_to 10162
  156.9214  130.5792  149.5648 H   0  0  0  0  0  0  0  0  0  0  0  0  # atno 10718 bound_to 10713
  154.4253  135.5977  153.6035 H   0  0  0  0  0  0  0  0  0  0  0  0  # atno 10763 bound_to 10752
  152.9796  135.5962  154.3905 H   0  0  0  0  0  0  0  0  0  0  0  0  # atno 10764 bound_to 10752
  154.3736  135.2841  155.2231 H   0  0  0  0  0  0  0  0  0  0  0  0  # atno 10765 bound_to 10752
  141.0114  133.6906  156.2209 H   0  0  0  0  0  0  0  0  0  0  0  0  # atno 11005 bound_to 11000
  146.3515  140.0111  142.8667 LP  0  0  0  0  0  0  0  0  0  0  0  0  # atno 17320 bound_to 7965
  145.1567  140.9651  143.4401 LP  0  0  0  0  0  0  0  0  0  0  0  0  # atno 17321 bound_to 7965
  139.9279  144.6759  150.8393 LP  0  0  0  0  0  0  0  0  0  0  0  0  # atno 17342 bound_to 10162
  140.7673  143.3329  151.2372 LP  0  0  0  0  0  0  0  0  0  0  0  0  # atno 17343 bound_to 10162
  156.0489  130.5562  150.8945 LP  0  0  0  0  0  0  0  0  0  0  0  0  # atno 17370 bound_to 10713
  157.5905  131.0944  150.9126 LP  0  0  0  0  0  0  0  0  0  0  0  0  # atno 17371 bound_to 10713
  140.6727  134.4850  157.5587 LP  0  0  0  0  0  0  0  0  0  0  0  0  # atno 17394 bound_to 11000
  139.9092  134.8382  156.1591 LP  0  0  0  0  0  0  0  0  0  0  0  0  # atno 17395 bound_to 11000

$$$$
