AV-unprocessed.smi:910|AV-procd|sdf|4132|dock6
  -GOLD-   22720 2 33D 1   1.00000     0.00000
 Structure written by MMmdl.
 45 46  0  0  0  0  0  0  0  0  2 V2000
  146.4960  133.8452  162.2142 C   0  0  0  0  0  0  0  0  0  0  0  0
  147.2678  134.8656  161.4385 C   0  0  0  0  0  0  0  0  0  0  0  0
  148.0353  134.5322  160.3328 N   0  0  0  0  0  0  0  0  0  0  0  0
  148.5732  135.6759  159.9048 C   0  0  0  0  0  0  0  0  0  0  0  0
  149.3859  135.8239  158.8463 N   0  5  0  0  0  0  0  0  0  0  0  0
  150.2100  136.8932  158.7730 C   0  0  0  0  0  0  0  0  0  0  0  0
  150.2928  137.8104  159.5933 O   0  0  0  0  0  0  0  0  0  0  0  0
  150.9873  136.9006  157.6806 N   0  0  0  0  0  0  0  0  0  0  0  0
  151.9665  137.9250  157.3330 C   0  0  0  0  0  0  0  0  0  0  0  0
  151.3820  139.3373  157.4719 C   0  0  0  0  0  0  0  0  0  0  0  0
  152.3716  140.1959  158.0210 O   0  0  0  0  0  0  0  0  0  0  0  0
  151.8539  141.3447  158.6800 C   0  0  2  0  0  0  0  0  0  0  0  0
  151.2020  142.2843  157.6428 C   0  0  0  0  0  0  0  0  0  0  0  0
  150.7421  143.6013  158.2855 C   0  0  0  0  0  0  0  0  0  0  0  0
  151.9050  144.3023  159.0013 C   0  0  0  0  0  0  0  0  0  0  0  0
  152.5568  143.3728  160.0362 C   0  0  0  0  0  0  0  0  0  0  0  0
  153.0257  142.0476  159.4022 C   0  0  1  0  0  0  0  0  0  0  0  0
  153.6706  141.1397  160.4621 C   0  0  0  0  0  0  0  0  0  0  0  0
  148.1897  136.7395  160.6671 O   0  0  0  0  0  0  0  0  0  0  0  0
  147.3706  136.2170  161.6304 C   0  0  0  0  0  0  0  0  0  0  0  0
  146.7852  137.1517  162.6332 C   0  0  0  0  0  0  0  0  0  0  0  0
  145.4234  133.9704  162.0664 H   0  0  0  0  0  0  0  0  0  0  0  0
  146.6963  133.9308  163.2823 H   0  0  0  0  0  0  0  0  0  0  0  0
  146.7560  132.8307  161.9104 H   0  0  0  0  0  0  0  0  0  0  0  0
  150.8827  136.1332  157.0333 H   0  0  0  0  0  0  0  0  0  0  0  0
  152.8521  137.8205  157.9618 H   0  0  0  0  0  0  0  0  0  0  0  0
  152.2953  137.7571  156.3073 H   0  0  0  0  0  0  0  0  0  0  0  0
  151.0319  139.6996  156.5051 H   0  0  0  0  0  0  0  0  0  0  0  0
  150.5186  139.3087  158.1377 H   0  0  0  0  0  0  0  0  0  0  0  0
  151.1136  141.0502  159.4266 H   0  0  0  0  0  0  0  0  0  0  0  0
  151.9156  142.4984  156.8460 H   0  0  0  0  0  0  0  0  0  0  0  0
  150.3484  141.8020  157.1673 H   0  0  0  0  0  0  0  0  0  0  0  0
  150.3228  144.2598  157.5244 H   0  0  0  0  0  0  0  0  0  0  0  0
  149.9409  143.4003  158.9978 H   0  0  0  0  0  0  0  0  0  0  0  0
  152.6502  144.6169  158.2695 H   0  0  0  0  0  0  0  0  0  0  0  0
  151.5483  145.2096  159.4896 H   0  0  0  0  0  0  0  0  0  0  0  0
  153.4009  143.8829  160.5016 H   0  0  0  0  0  0  0  0  0  0  0  0
  151.8441  143.1652  160.8357 H   0  0  0  0  0  0  0  0  0  0  0  0
  153.7890  142.2836  158.6590 H   0  0  0  0  0  0  0  0  0  0  0  0
  152.9512  140.8537  161.2299 H   0  0  0  0  0  0  0  0  0  0  0  0
  154.5026  141.6430  160.9549 H   0  0  0  0  0  0  0  0  0  0  0  0
  154.0619  140.2248  160.0169 H   0  0  0  0  0  0  0  0  0  0  0  0
  147.1003  136.8820  163.6411 H   0  0  0  0  0  0  0  0  0  0  0  0
  145.6962  137.1204  162.5985 H   0  0  0  0  0  0  0  0  0  0  0  0
  147.1003  138.1780  162.4433 H   0  0  0  0  0  0  0  0  0  0  0  0
  1 22  1  0  0  0  0
  1 23  1  0  0  0  0
  1 24  1  0  0  0  0
  1  2  1  0  0  0  0
  2  3  1  0  0  0  0
  2 20  2  0  0  0  0
  3  4  2  0  0  0  0
  4 19  1  0  0  0  0
  4  5  1  0  0  0  0
  5  6  1  0  0  0  0
  6  8  1  0  0  0  0
  6  7  2  0  0  0  0
  8  9  1  0  0  0  0
  8 25  1  0  0  0  0
  9 10  1  0  0  0  0
  9 26  1  0  0  0  0
  9 27  1  0  0  0  0
 10 11  1  0  0  0  0
 10 28  1  0  0  0  0
 10 29  1  0  0  0  0
 11 12  1  0  0  0  0
 12 17  1  0  0  0  0
 12 13  1  0  0  0  0
 12 30  1  0  0  0  0
 13 14  1  0  0  0  0
 13 31  1  0  0  0  0
 13 32  1  0  0  0  0
 14 15  1  0  0  0  0
 14 33  1  0  0  0  0
 14 34  1  0  0  0  0
 15 16  1  0  0  0  0
 15 35  1  0  0  0  0
 15 36  1  0  0  0  0
 16 17  1  0  0  0  0
 16 37  1  0  0  0  0
 16 38  1  0  0  0  0
 17 18  1  0  0  0  0
 17 39  1  0  0  0  0
 18 40  1  0  0  0  0
 18 41  1  0  0  0  0
 18 42  1  0  0  0  0
 19 20  1  0  0  0  0
 20 21  1  0  0  0  0
 21 43  1  0  0  0  0
 21 44  1  0  0  0  0
 21 45  1  0  0  0  0
M  CHG  1   5  -1
M  END
> <s_m_source_file>
AV-unprocessed.smi

> <i_m_source_file_index>
910

> <i_lp_mmshare_version>
43012

> <i_f3d_flags>
0

> <s_epik_input>
W0NIM11jMW5jKG9jMVtDSDNdKVtOSF1DKD1PKVtOSF1bQ0gyXVtDSDJdT1tDQEBIXTJbQ0gyXVtDSDJdW0NIMl1bQ0gyXVtDQEhdMltDSDNd

> <s_epik_cmdline>
J2VwaWtfcHl0aG9uJywgJy1waCcsICc3LjAnLCAnLXRuJywgJzgnLCAnLW1hJywgJzIwMCcsICctbWV0YWxfYmluZGluZycsICctaW1hZScsICc8aW5maWxlLm1hZT4nLCAnLW9tYWUnLCAnPG91dGZpbGUubWFlPic=

> <r_lp_tautomer_probability>
0.107061

> <r_epik_Ionization_Penalty>
10.1763

> <r_epik_Ionization_Penalty_Charging>
7.13067

> <r_epik_Ionization_Penalty_Neutral>
3.04564

> <r_epik_State_Penalty>
5.57927

> <r_epik_Charging_Adjusted_Penalty>
12.7099

> <i_epik_Tot_Q>
-1

> <i_epik_Tot_abs_Q>
1

> <r_epik_Metal_State_Penalty>
1.52303

> <b_epik_Metal_Only>
1

> <s_lp_Force_Field>
OPLS_2005

> <r_lp_Energy>
4.71476

> <b_lp_Chiralities_Consistent>
1

> <s_lp_Variant>
AV-unprocessed.smi:910-17

> <Gold.Version>
5.8.1

> <Gold.Id.Protein>
6NUR|6NUR_protein|mol2

> <Gold.PLP.Fitness>
50.4929

> <Gold.PLP.PLP>
-42.6166

> <Gold.PLP.part.hbond>
-4.0876

> <Gold.PLP.part.metal>
0.0000

> <Gold.PLP.part.buried>
-2.4659

> <Gold.PLP.part.nonpolar>
-36.5385

> <Gold.PLP.part.repulsive>
0.0836

> <Gold.PLP.ligand.clash>
0.0000

> <Gold.PLP.ligand.torsion>
0.6182

> <Gold.PLP.Chemscore.Hbond>
3.0139

> <Gold.PLP.Chemscore.CHOScore>
0.0000

> <Gold.PLP.Chemscore.Metal>
0.0000

> <Gold.Chemscore.Hbonds>
donor molecule, donor type, donor heavy atom, donor atom, acceptor molecule, acceptor atom, score
      P1  H  6896  6909       L1     5  1.24
      P1  H  6931  6943       L1    19  0.61
      P1  H  7997  8008       L1    11  0.08

> <Gold.PLP.Chemscore.Internal.Correction>
0.0707

> <Gold.Rescore>
     Score         DG    S(hbond)    S(metal)    S(lipo)     H(rot)  DE(clash)    DE(int)     intcor
     15.40     -18.73       0.93        0.00     122.18       1.62       0.06       3.27       ----

> <Gold.Chemscore.Fitness>
15.3987

> <Gold.Chemscore.DG>
-18.7341

> <Gold.Chemscore.ZeroCoef>
-5.4800

> <Gold.Chemscore.Hbond>
0.9276

> <Gold.Chemscore.Metal>
0.0000

> <Gold.Chemscore.Lipo>
122.1799

> <Gold.Chemscore.Internal_Hbond>
0.0000

> <Gold.Chemscore.DEClash>
0.0640

> <Gold.Chemscore.DEInternal>
3.2715

> <Gold.Chemscore.Rot>
1.6169

> <Gold.Chemscore.Internal.Correction>
   9.000000E+99

> <Gold.Chemscore.Hbonds>
donor molecule, donor type, donor heavy atom, donor atom, acceptor molecule, acceptor atom, score
      P1  H  6896  6909       L1     5  0.01
      P1  H  6931  6943       L1    19  0.09
      P1  H  7997  8008       L1    11  0.09

> <Gold.Chemscore.Hbond.Weighted>
-3.0984

> <Gold.Chemscore.Metal.Weighted>
-0.0000

> <Gold.Chemscore.Lipo.Weighted>
-14.2950

> <Gold.Chemscore.Internal_Hbond.Weighted>
0.0000

> <Gold.Chemscore.DEClash.Weighted>
0.0640

> <Gold.Chemscore.DEInternal.Weighted>
3.2715

> <Gold.Chemscore.Rot.Weighted>
4.1393

> <Gold.Chemscore.Internal.Correction.Weighted>
   9.000000E+99

> <Gold.Protein.RotatedTorsions>
[ 6907 6896 6895 6894 ] final   42.93 input  -60.11 | X-H torsion
[ 7974 7965 7964 7962 ] final   83.65 input  175.53 | X-H torsion
[ 8008 7997 7996 7995 ] final  -75.14 input   59.86 | X-H torsion
[ 10167 10162 10161 10158 ] final -177.95 input  -65.29 | X-H torsion
[ 10718 10713 10712 10709 ] final  -56.76 input   66.30 | X-H torsion
[ 10763 10752 10751 10750 ] final   48.80 input  -60.55 | X-H torsion
[ 11005 11000 10999 10996 ] final   65.28 input  -57.11 | X-H torsion

> <Gold.Protein.ActiveResidues>
 VAL166  LYS551  ARG553  GLY616  TRP617  ASP618  TYR619  PRO620  LYS621  CYS622 
 ASP623  PHE694  ASN695  SER759  ASP760  ASP761  ALA762  ILE779  LEU786  VAL792 
 PHE793  MET794  SER795  GLU796  ALA797  LYS798  CYS799  TRP800  GLU811  SER814 

> <Gold.Protein.RotatedAtoms>
  152.2140  134.8475  160.0493 H   0  0  0  0  0  0  0  0  0  0  0  0  # atno 6907 bound_to 6896
  151.9283  133.3599  159.3930 H   0  0  0  0  0  0  0  0  0  0  0  0  # atno 6908 bound_to 6896
  150.6983  134.4489  159.5371 H   0  0  0  0  0  0  0  0  0  0  0  0  # atno 6909 bound_to 6896
  145.6091  139.2365  143.2202 H   0  0  0  0  0  0  0  0  0  0  0  0  # atno 7974 bound_to 7965
  154.5391  140.0749  156.8478 H   0  0  0  0  0  0  0  0  0  0  0  0  # atno 8008 bound_to 7997
  155.3218  140.3396  155.4223 H   0  0  0  0  0  0  0  0  0  0  0  0  # atno 8009 bound_to 7997
  156.1857  140.1668  156.8177 H   0  0  0  0  0  0  0  0  0  0  0  0  # atno 8010 bound_to 7997
  139.5455  144.2246  152.0980 H   0  0  0  0  0  0  0  0  0  0  0  0  # atno 10167 bound_to 10162
  156.1263  130.4162  150.0349 H   0  0  0  0  0  0  0  0  0  0  0  0  # atno 10718 bound_to 10713
  152.9790  135.5932  154.3985 H   0  0  0  0  0  0  0  0  0  0  0  0  # atno 10763 bound_to 10752
  154.3633  135.2767  155.2309 H   0  0  0  0  0  0  0  0  0  0  0  0  # atno 10764 bound_to 10752
  154.4297  135.6039  153.6116 H   0  0  0  0  0  0  0  0  0  0  0  0  # atno 10765 bound_to 10752
  139.9905  134.6600  156.0100 H   0  0  0  0  0  0  0  0  0  0  0  0  # atno 11005 bound_to 11000
  146.1518  140.6914  142.9318 LP  0  0  0  0  0  0  0  0  0  0  0  0  # atno 17320 bound_to 7965
  144.7277  140.4577  143.6960 LP  0  0  0  0  0  0  0  0  0  0  0  0  # atno 17321 bound_to 7965
  140.1732  144.4915  150.6568 LP  0  0  0  0  0  0  0  0  0  0  0  0  # atno 17342 bound_to 10162
  140.6702  143.2283  151.5644 LP  0  0  0  0  0  0  0  0  0  0  0  0  # atno 17343 bound_to 10162
  156.8273  130.9380  151.3638 LP  0  0  0  0  0  0  0  0  0  0  0  0  # atno 17370 bound_to 10713
  157.6444  130.8832  149.9511 LP  0  0  0  0  0  0  0  0  0  0  0  0  # atno 17371 bound_to 10713
  141.1561  133.6543  156.4167 LP  0  0  0  0  0  0  0  0  0  0  0  0  # atno 17394 bound_to 11000
  140.4919  134.6568  157.5214 LP  0  0  0  0  0  0  0  0  0  0  0  0  # atno 17395 bound_to 11000

$$$$
