AV-unprocessed.smi:2098|AV-procd|sdf|8566|dock9
  -GOLD-   2272011293D 1   1.00000     0.00000
 Structure written by MMmdl.
 36 38  0  0  0  0  0  0  0  0  1 V2000
  149.8158  140.1707  153.6465 O   0  0  0  0  0  0  0  0  0  0  0  0
  148.8634  140.6746  154.5627 C   0  0  1  0  0  0  0  0  0  0  0  0
  149.5912  141.5761  155.5724 C   0  0  0  0  0  0  0  0  0  0  0  0
  150.3305  140.7600  156.4716 O   0  0  0  0  0  0  0  0  0  0  0  0
  150.9506  141.3661  157.5434 C   0  0  0  0  0  0  0  0  0  0  0  0
  151.6766  140.5311  158.4181 C   0  0  0  0  0  0  0  0  0  0  0  0
  152.3444  141.0653  159.5369 C   0  0  0  0  0  0  0  0  0  0  0  0
  152.2922  142.4477  159.7928 C   0  0  0  0  0  0  0  0  0  0  0  0
  152.9358  142.9638  160.8665 F   0  0  0  0  0  0  0  0  0  0  0  0
  151.5699  143.2927  158.9302 C   0  0  0  0  0  0  0  0  0  0  0  0
  150.9010  142.7581  157.8117 C   0  0  0  0  0  0  0  0  0  0  0  0
  147.7783  141.4460  153.7866 C   0  0  0  0  0  0  0  0  0  0  0  0
  146.7663  142.0181  154.6576 N   0  0  0  0  0  0  0  0  0  0  0  0
  146.5311  141.6976  155.9445 C   0  0  0  0  0  0  0  0  0  0  0  0
  145.5534  142.3501  156.5668 N   0  0  0  0  0  0  0  0  0  0  0  0
  145.1005  143.1937  155.5669 C   0  0  0  0  0  0  0  0  0  0  0  0
  144.0674  144.1583  155.5793 C   0  0  0  0  0  0  0  0  0  0  0  0
  143.7797  144.9122  154.4225 C   0  0  0  0  0  0  0  0  0  0  0  0
  144.5182  144.7135  153.2378 C   0  0  0  0  0  0  0  0  0  0  0  0
  145.5526  143.7590  153.2015 C   0  0  0  0  0  0  0  0  0  0  0  0
  145.8379  143.0099  154.3583 C   0  0  0  0  0  0  0  0  0  0  0  0
  149.4597  140.2463  152.7742 H   0  0  0  0  0  0  0  0  0  0  0  0
  148.3981  139.8377  155.0854 H   0  0  0  0  0  0  0  0  0  0  0  0
  150.2317  142.2928  155.0551 H   0  0  0  0  0  0  0  0  0  0  0  0
  148.8567  142.1408  156.1494 H   0  0  0  0  0  0  0  0  0  0  0  0
  151.7225  139.4685  158.2288 H   0  0  0  0  0  0  0  0  0  0  0  0
  152.8971  140.4139  160.1977 H   0  0  0  0  0  0  0  0  0  0  0  0
  151.5282  144.3541  159.1259 H   0  0  0  0  0  0  0  0  0  0  0  0
  150.3570  143.4387  157.1749 H   0  0  0  0  0  0  0  0  0  0  0  0
  148.2303  142.2579  153.2153 H   0  0  0  0  0  0  0  0  0  0  0  0
  147.2895  140.7928  153.0626 H   0  0  0  0  0  0  0  0  0  0  0  0
  147.1116  140.9423  156.4537 H   0  0  0  0  0  0  0  0  0  0  0  0
  143.4955  144.3185  156.4811 H   0  0  0  0  0  0  0  0  0  0  0  0
  142.9881  145.6467  154.4440 H   0  0  0  0  0  0  0  0  0  0  0  0
  144.2901  145.2951  152.3566 H   0  0  0  0  0  0  0  0  0  0  0  0
  146.1186  143.6028  152.2951 H   0  0  0  0  0  0  0  0  0  0  0  0
  1  2  1  0  0  0  0
  1 22  1  0  0  0  0
  2  3  1  0  0  0  0
  2 12  1  0  0  0  0
  2 23  1  0  0  0  0
  3  4  1  0  0  0  0
  3 24  1  0  0  0  0
  3 25  1  0  0  0  0
  4  5  1  0  0  0  0
  5 11  1  0  0  0  0
  5  6  2  0  0  0  0
  6  7  1  0  0  0  0
  6 26  1  0  0  0  0
  7  8  2  0  0  0  0
  7 27  1  0  0  0  0
  8  9  1  0  0  0  0
  8 10  1  0  0  0  0
 10 11  2  0  0  0  0
 10 28  1  0  0  0  0
 11 29  1  0  0  0  0
 12 13  1  0  0  0  0
 12 30  1  0  0  0  0
 12 31  1  0  0  0  0
 13 21  1  0  0  0  0
 13 14  1  0  0  0  0
 14 15  2  0  0  0  0
 14 32  1  0  0  0  0
 15 16  1  0  0  0  0
 16 21  2  0  0  0  0
 16 17  1  0  0  0  0
 17 18  2  0  0  0  0
 17 33  1  0  0  0  0
 18 19  1  0  0  0  0
 18 34  1  0  0  0  0
 19 20  2  0  0  0  0
 19 35  1  0  0  0  0
 20 21  1  0  0  0  0
 20 36  1  0  0  0  0
M  END
> <s_m_source_file>
AV-unprocessed.smi

> <i_m_source_file_index>
2098

> <i_lp_mmshare_version>
43012

> <i_f3d_flags>
0

> <s_epik_input>
W2NIXTFbY0hdW2NIXVtjSF1jKGMxMiluKFtjSF1uMilbQ0gyXVtDQEhdKFtPSF0pW0NIMl1PYzNbY0hdW2NIXWMoRilbY0hdW2NIXTM=

> <s_epik_cmdline>
J2VwaWtfcHl0aG9uJywgJy1waCcsICc3LjAnLCAnLXRuJywgJzgnLCAnLW1hJywgJzIwMCcsICctbWV0YWxfYmluZGluZycsICctaW1hZScsICc8aW5maWxlLm1hZT4nLCAnLW9tYWUnLCAnPG91dGZpbGUubWFlPic=

> <r_lp_tautomer_probability>
1

> <r_epik_Ionization_Penalty>
0.0603575

> <r_epik_Ionization_Penalty_Charging>
0

> <r_epik_Ionization_Penalty_Neutral>
0.0603575

> <r_epik_State_Penalty>
0.0523204

> <r_epik_Charging_Adjusted_Penalty>
0.0523204

> <i_epik_Tot_Q>
0

> <i_epik_Tot_abs_Q>
0

> <r_epik_Metal_State_Penalty>
5.46976e-05

> <b_epik_Metal_Only>
0

> <s_lp_Force_Field>
OPLS_2005

> <r_lp_Energy>
15.3663

> <b_lp_Chiralities_Consistent>
1

> <s_lp_Variant>
AV-unprocessed.smi:2098-2

> <Gold.Version>
5.8.1

> <Gold.Id.Protein>
6NUR|6NUR_protein|mol2

> <Gold.PLP.Fitness>
53.5329

> <Gold.PLP.PLP>
-49.2020

> <Gold.PLP.part.hbond>
-1.8044

> <Gold.PLP.part.metal>
0.0000

> <Gold.PLP.part.buried>
-7.4378

> <Gold.PLP.part.nonpolar>
-41.6348

> <Gold.PLP.part.repulsive>
0.1373

> <Gold.PLP.ligand.clash>
0.0000

> <Gold.PLP.ligand.torsion>
0.3190

> <Gold.PLP.Chemscore.Hbond>
1.6480

> <Gold.PLP.Chemscore.CHOScore>
0.0000

> <Gold.PLP.Chemscore.Metal>
0.0000

> <Gold.Chemscore.Hbonds>
donor molecule, donor type, donor heavy atom, donor atom, acceptor molecule, acceptor atom, score
      L1  H     1    22       P1  7957  1.00
      P1  H  7989  7998       L1     1  0.66

> <Gold.PLP.Chemscore.Internal.Correction>
0.0250

> <Gold.Rescore>
     Score         DG    S(hbond)    S(metal)    S(lipo)     H(rot)  DE(clash)    DE(int)     intcor
     17.07     -17.63       1.46        0.00     113.98       2.37       0.05       0.51       ----

> <Gold.Chemscore.Fitness>
17.0728

> <Gold.Chemscore.DG>
-17.6313

> <Gold.Chemscore.ZeroCoef>
-5.4800

> <Gold.Chemscore.Hbond>
1.4647

> <Gold.Chemscore.Metal>
0.0000

> <Gold.Chemscore.Lipo>
113.9786

> <Gold.Chemscore.Internal_Hbond>
0.0000

> <Gold.Chemscore.DEClash>
0.0531

> <Gold.Chemscore.DEInternal>
0.5054

> <Gold.Chemscore.Rot>
2.3735

> <Gold.Chemscore.Internal.Correction>
   9.000000E+99

> <Gold.Chemscore.Hbonds>
donor molecule, donor type, donor heavy atom, donor atom, acceptor molecule, acceptor atom, score
      L1  H     1    22       P1  7957  0.94
      P1  H  7989  7998       L1     1  0.26

> <Gold.Chemscore.Hbond.Weighted>
-4.8920

> <Gold.Chemscore.Metal.Weighted>
-0.0000

> <Gold.Chemscore.Lipo.Weighted>
-13.3355

> <Gold.Chemscore.Internal_Hbond.Weighted>
0.0000

> <Gold.Chemscore.DEClash.Weighted>
0.0531

> <Gold.Chemscore.DEInternal.Weighted>
0.5054

> <Gold.Chemscore.Rot.Weighted>
6.0762

> <Gold.Chemscore.Internal.Correction.Weighted>
   9.000000E+99

> <Gold.Protein.RotatedTorsions>
[ 6907 6896 6895 6894 ] final  -56.70 input  -60.11 | X-H torsion
[ 7974 7965 7964 7962 ] final  -22.17 input  175.53 | X-H torsion
[ 8008 7997 7996 7995 ] final  174.19 input   59.86 | X-H torsion
[ 10167 10162 10161 10158 ] final  -32.37 input  -65.29 | X-H torsion
[ 10718 10713 10712 10709 ] final   -6.29 input   66.30 | X-H torsion
[ 10763 10752 10751 10750 ] final  -18.95 input  -60.55 | X-H torsion
[ 11005 11000 10999 10996 ] final   -5.11 input  -57.11 | X-H torsion

> <Gold.Protein.ActiveResidues>
 VAL166  LYS551  ARG553  GLY616  TRP617  ASP618  TYR619  PRO620  LYS621  CYS622 
 ASP623  PHE694  ASN695  SER759  ASP760  ASP761  ALA762  ILE779  LEU786  VAL792 
 PHE793  MET794  SER795  GLU796  ALA797  LYS798  CYS799  TRP800  GLU811  SER814 

> <Gold.Protein.RotatedAtoms>
  150.8146  134.7321  159.6718 H   0  0  0  0  0  0  0  0  0  0  0  0  # atno 6907 bound_to 6896
  152.4265  134.5855  159.9969 H   0  0  0  0  0  0  0  0  0  0  0  0  # atno 6908 bound_to 6896
  151.6055  133.3315  159.3092 H   0  0  0  0  0  0  0  0  0  0  0  0  # atno 6909 bound_to 6896
  146.1691  140.4441  142.8540 H   0  0  0  0  0  0  0  0  0  0  0  0  # atno 7974 bound_to 7965
  156.0999  140.1441  156.9481 H   0  0  0  0  0  0  0  0  0  0  0  0  # atno 8008 bound_to 7997
  154.4696  140.0914  156.7155 H   0  0  0  0  0  0  0  0  0  0  0  0  # atno 8009 bound_to 7997
  155.4777  140.3444  155.4337 H   0  0  0  0  0  0  0  0  0  0  0  0  # atno 8010 bound_to 7997
  140.7222  143.3700  151.1797 H   0  0  0  0  0  0  0  0  0  0  0  0  # atno 10167 bound_to 10162
  156.7340  130.5189  149.5839 H   0  0  0  0  0  0  0  0  0  0  0  0  # atno 10718 bound_to 10713
  153.5973  135.7000  153.5399 H   0  0  0  0  0  0  0  0  0  0  0  0  # atno 10763 bound_to 10752
  153.3127  135.4096  155.1349 H   0  0  0  0  0  0  0  0  0  0  0  0  # atno 10764 bound_to 10752
  154.8589  135.3676  154.5507 H   0  0  0  0  0  0  0  0  0  0  0  0  # atno 10765 bound_to 10752
  140.6876  133.9099  155.8596 H   0  0  0  0  0  0  0  0  0  0  0  0  # atno 11005 bound_to 11000
  144.8136  140.6429  143.6399 LP  0  0  0  0  0  0  0  0  0  0  0  0  # atno 17320 bound_to 7965
  145.4388  139.1538  143.3982 LP  0  0  0  0  0  0  0  0  0  0  0  0  # atno 17321 bound_to 7965
  139.7269  143.9134  152.3006 LP  0  0  0  0  0  0  0  0  0  0  0  0  # atno 17342 bound_to 10162
  139.8910  144.6965  150.8771 LP  0  0  0  0  0  0  0  0  0  0  0  0  # atno 17343 bound_to 10162
  156.1509  130.6309  151.0594 LP  0  0  0  0  0  0  0  0  0  0  0  0  # atno 17370 bound_to 10713
  157.6847  131.0828  150.7276 LP  0  0  0  0  0  0  0  0  0  0  0  0  # atno 17371 bound_to 10713
  141.0267  134.0813  157.4060 LP  0  0  0  0  0  0  0  0  0  0  0  0  # atno 17394 bound_to 11000
  139.8933  135.0129  156.6891 LP  0  0  0  0  0  0  0  0  0  0  0  0  # atno 17395 bound_to 11000

$$$$
