AV-unprocessed.smi:53|AV-procd|sdf|514|dock6
  -GOLD-   2262016383D 1   1.00000     0.00000
 Structure written by MMmdl.
 30 31  0  0  0  0  0  0  0  0  1 V2000
  150.3318  143.2991  157.7232 N   0  0  0  0  0  0  0  0  0  0  0  0
  150.9009  142.1613  157.3012 C   0  0  0  0  0  0  0  0  0  0  0  0
  151.8924  141.4952  158.1136 C   0  0  0  0  0  0  0  0  0  0  0  0
  152.4160  140.3501  157.6230 C   0  0  0  0  0  0  0  0  0  0  0  0
  152.0130  139.8089  156.4065 N   0  0  0  0  0  0  0  0  0  0  0  0
  152.6213  138.5369  155.8352 C   0  0  1  0  0  0  0  0  0  0  0  0
  153.6969  138.1255  156.6232 O   0  0  0  0  0  0  0  0  0  0  0  0
  153.2391  137.2058  157.6063 C   0  0  2  0  0  0  0  0  0  0  0  0
  154.4240  136.4058  158.1671 C   0  0  0  0  0  0  0  0  0  0  0  0
  153.9781  135.5339  159.1841 O   0  0  0  0  0  0  0  0  0  0  0  0
  152.2461  136.3595  156.8079 C   0  0  1  0  0  0  0  0  0  0  0  0
  151.2717  135.8039  157.6685 O   0  0  0  0  0  0  0  0  0  0  0  0
  151.6110  137.3643  155.8475 C   0  0  2  0  0  0  0  0  0  0  0  0
  151.4653  136.7839  154.5664 O   0  0  0  0  0  0  0  0  0  0  0  0
  151.0684  140.5110  155.6173 C   0  0  0  0  0  0  0  0  0  0  0  0
  150.7273  140.1083  154.5059 O   0  0  0  0  0  0  0  0  0  0  0  0
  150.5459  141.6668  156.1319 N   0  0  0  0  0  0  0  0  0  0  0  0
  152.9777  138.8231  154.8433 H   0  0  0  0  0  0  0  0  0  0  0  0
  152.7133  137.7365  158.4027 H   0  0  0  0  0  0  0  0  0  0  0  0
  152.7712  135.5715  156.2651 H   0  0  0  0  0  0  0  0  0  0  0  0
  150.6404  137.7035  156.2125 H   0  0  0  0  0  0  0  0  0  0  0  0
  149.6431  143.7653  157.1505 H   0  0  0  0  0  0  0  0  0  0  0  0
  150.5977  143.6905  158.6151 H   0  0  0  0  0  0  0  0  0  0  0  0
  152.2232  141.8685  159.0724 H   0  0  0  0  0  0  0  0  0  0  0  0
  153.1696  139.8657  158.2248 H   0  0  0  0  0  0  0  0  0  0  0  0
  154.8675  135.7928  157.3818 H   0  0  0  0  0  0  0  0  0  0  0  0
  155.2058  137.0648  158.5459 H   0  0  0  0  0  0  0  0  0  0  0  0
  154.6192  135.5289  159.8784 H   0  0  0  0  0  0  0  0  0  0  0  0
  150.4222  136.1229  157.4033 H   0  0  0  0  0  0  0  0  0  0  0  0
  150.6219  137.0305  154.2189 H   0  0  0  0  0  0  0  0  0  0  0  0
  1  2  1  0  0  0  0
  1 22  1  0  0  0  0
  1 23  1  0  0  0  0
  2 17  2  0  0  0  0
  2  3  1  0  0  0  0
  3  4  2  0  0  0  0
  3 24  1  0  0  0  0
  4  5  1  0  0  0  0
  4 25  1  0  0  0  0
  5  6  1  0  0  0  0
  5 15  1  0  0  0  0
  6 18  1  0  0  0  0
  6 13  1  0  0  0  0
  6  7  1  0  0  0  0
  7  8  1  0  0  0  0
  8 19  1  0  0  0  0
  8  9  1  0  0  0  0
  8 11  1  0  0  0  0
  9 10  1  0  0  0  0
  9 26  1  0  0  0  0
  9 27  1  0  0  0  0
 10 28  1  0  0  0  0
 11 20  1  0  0  0  0
 11 12  1  0  0  0  0
 11 13  1  0  0  0  0
 12 29  1  0  0  0  0
 13 21  1  0  0  0  0
 13 14  1  0  0  0  0
 14 30  1  0  0  0  0
 15 16  2  0  0  0  0
 15 17  1  0  0  0  0
M  END
> <s_m_source_file>
AV-unprocessed.smi

> <i_m_source_file_index>
53

> <i_lp_mmshare_version>
43012

> <i_f3d_flags>
0

> <s_epik_input>
W05IMl1jMVtjSF1bY0hdbihjKD1PKW4xKVtDQEBIXTJPW0NASF0oW0NIMl1bT0hdKVtDQEBIXShbT0hdKVtDQEBIXTJbT0hd

> <s_epik_cmdline>
J2VwaWtfcHl0aG9uJywgJy1waCcsICc3LjAnLCAnLXRuJywgJzgnLCAnLW1hJywgJzIwMCcsICctbWV0YWxfYmluZGluZycsICctaW1hZScsICc8aW5maWxlLm1hZT4nLCAnLW9tYWUnLCAnPG91dGZpbGUubWFlPic=

> <r_lp_tautomer_probability>
0.99996

> <r_epik_Ionization_Penalty>
0.00069087

> <r_epik_Ionization_Penalty_Charging>
2.61959e-08

> <r_epik_Ionization_Penalty_Neutral>
0.000690844

> <r_epik_State_Penalty>
1.15523e-05

> <r_epik_Charging_Adjusted_Penalty>
1.15785e-05

> <i_epik_Tot_Q>
0

> <i_epik_Tot_abs_Q>
0

> <r_epik_Metal_State_Penalty>
-0

> <b_epik_Metal_Only>
0

> <s_epik_Chemistry_Notes>
This compound contains an acetal/aminal-like group ( X-CH(R)-Y where X, Y are N, S, or O) that may be acid/base labile, releasing an aldehyde.

> <s_lp_Force_Field>
OPLS_2005

> <r_lp_Energy>
26.6068

> <b_lp_Chiralities_Consistent>
1

> <s_lp_Variant>
AV-unprocessed.smi:53-2

> <Gold.Version>
5.8.1

> <Gold.Id.Protein>
6NUR|6NUR_protein|mol2

> <Gold.PLP.Fitness>
38.6661

> <Gold.PLP.PLP>
-24.6551

> <Gold.PLP.part.hbond>
-6.5367

> <Gold.PLP.part.metal>
0.0000

> <Gold.PLP.part.buried>
-3.7547

> <Gold.PLP.part.nonpolar>
-14.7680

> <Gold.PLP.part.repulsive>
0.2092

> <Gold.PLP.ligand.clash>
0.0000

> <Gold.PLP.ligand.torsion>
0.2209

> <Gold.PLP.Chemscore.Hbond>
4.8047

> <Gold.PLP.Chemscore.CHOScore>
0.0000

> <Gold.PLP.Chemscore.Metal>
0.0000

> <Gold.Chemscore.Hbonds>
donor molecule, donor type, donor heavy atom, donor atom, acceptor molecule, acceptor atom, score
      L1  H     1    22       P1  8028  1.00
      P1  H  6896  6907       L1    10  1.00
      P1  H  6896  6909       L1    12  0.12
      P1  H  7989  7998       L1    16  1.00
      P1  H  7997  8008       L1     7  0.47
      P1  H 10752 10765       L1    14  1.00

> <Gold.PLP.Chemscore.Internal.Correction>
0.0387

> <Gold.Rescore>
     Score         DG    S(hbond)    S(metal)    S(lipo)     H(rot)  DE(clash)    DE(int)     intcor
     12.72     -13.15       4.12        0.00      29.09       3.71       0.00       0.43       ----

> <Gold.Chemscore.Fitness>
12.7190

> <Gold.Chemscore.DG>
-13.1466

> <Gold.Chemscore.ZeroCoef>
-5.4800

> <Gold.Chemscore.Hbond>
4.1196

> <Gold.Chemscore.Metal>
0.0000

> <Gold.Chemscore.Lipo>
29.0893

> <Gold.Chemscore.Internal_Hbond>
0.0000

> <Gold.Chemscore.DEClash>
0.0000

> <Gold.Chemscore.DEInternal>
0.4276

> <Gold.Chemscore.Rot>
3.7095

> <Gold.Chemscore.Internal.Correction>
   9.000000E+99

> <Gold.Chemscore.Hbonds>
donor molecule, donor type, donor heavy atom, donor atom, acceptor molecule, acceptor atom, score
      L1  H     1    22       P1  8028  0.82
      P1  H  6896  6907       L1    10  0.39
      P1  H  6896  6909       L1    12  0.06
      P1  H  7989  7998       L1    16  0.53
      P1  H  7997  8008       L1     7  0.08
      P1  H 10752 10765       L1    14  0.45

> <Gold.Chemscore.Hbond.Weighted>
-13.7595

> <Gold.Chemscore.Metal.Weighted>
-0.0000

> <Gold.Chemscore.Lipo.Weighted>
-3.4034

> <Gold.Chemscore.Internal_Hbond.Weighted>
0.0000

> <Gold.Chemscore.DEClash.Weighted>
0.0000

> <Gold.Chemscore.DEInternal.Weighted>
0.4276

> <Gold.Chemscore.Rot.Weighted>
9.4964

> <Gold.Chemscore.Internal.Correction.Weighted>
   9.000000E+99

> <Gold.Protein.RotatedTorsions>
[ 6907 6896 6895 6894 ] final   71.35 input  -60.11 | X-H torsion
[ 7974 7965 7964 7962 ] final  -66.57 input  175.53 | X-H torsion
[ 8008 7997 7996 7995 ] final  -78.50 input   59.86 | X-H torsion
[ 10167 10162 10161 10158 ] final  154.94 input  -65.29 | X-H torsion
[ 10718 10713 10712 10709 ] final  155.14 input   66.30 | X-H torsion
[ 10763 10752 10751 10750 ] final  169.42 input  -60.55 | X-H torsion
[ 11005 11000 10999 10996 ] final -128.79 input  -57.11 | X-H torsion

> <Gold.Protein.ActiveResidues>
 VAL166  LYS551  ARG553  GLY616  TRP617  ASP618  TYR619  PRO620  LYS621  CYS622 
 ASP623  PHE694  ASN695  SER759  ASP760  ASP761  ALA762  ILE779  LEU786  VAL792 
 PHE793  MET794  SER795  GLU796  ALA797  LYS798  CYS799  TRP800  GLU811  SER814 

> <Gold.Protein.RotatedAtoms>
  152.4804  134.4733  159.9642 H   0  0  0  0  0  0  0  0  0  0  0  0  # atno 6907 bound_to 6896
  151.4740  133.3556  159.2836 H   0  0  0  0  0  0  0  0  0  0  0  0  # atno 6908 bound_to 6896
  150.8873  134.8298  159.7329 H   0  0  0  0  0  0  0  0  0  0  0  0  # atno 6909 bound_to 6896
  145.7401  140.8957  143.0534 H   0  0  0  0  0  0  0  0  0  0  0  0  # atno 7974 bound_to 7965
  154.5695  140.0693  156.8943 H   0  0  0  0  0  0  0  0  0  0  0  0  # atno 8008 bound_to 7997
  155.2661  140.3362  155.4251 H   0  0  0  0  0  0  0  0  0  0  0  0  # atno 8009 bound_to 7997
  156.2107  140.1758  156.7686 H   0  0  0  0  0  0  0  0  0  0  0  0  # atno 8010 bound_to 7997
  139.4822  144.5142  151.7977 H   0  0  0  0  0  0  0  0  0  0  0  0  # atno 10167 bound_to 10162
  157.2223  131.0721  151.1904 H   0  0  0  0  0  0  0  0  0  0  0  0  # atno 10718 bound_to 10713
  154.3829  135.2753  155.2200 H   0  0  0  0  0  0  0  0  0  0  0  0  # atno 10763 bound_to 10752
  154.4299  135.5980  153.6066 H   0  0  0  0  0  0  0  0  0  0  0  0  # atno 10764 bound_to 10752
  152.9834  135.5993  154.4074 H   0  0  0  0  0  0  0  0  0  0  0  0  # atno 10765 bound_to 10752
  140.9486  134.1096  157.4083 H   0  0  0  0  0  0  0  0  0  0  0  0  # atno 11005 bound_to 11000
  144.6872  139.9449  143.7476 LP  0  0  0  0  0  0  0  0  0  0  0  0  # atno 17320 bound_to 7965
  146.0455  139.3462  143.0671 LP  0  0  0  0  0  0  0  0  0  0  0  0  # atno 17321 bound_to 7965
  140.4649  144.1670  150.5910 LP  0  0  0  0  0  0  0  0  0  0  0  0  # atno 17342 bound_to 10162
  140.4445  143.2512  151.9429 LP  0  0  0  0  0  0  0  0  0  0  0  0  # atno 17343 bound_to 10162
  157.3563  130.7108  149.6473 LP  0  0  0  0  0  0  0  0  0  0  0  0  # atno 17370 bound_to 10713
  155.9681  130.4238  150.4579 LP  0  0  0  0  0  0  0  0  0  0  0  0  # atno 17371 bound_to 10713
  139.8841  135.0059  156.6343 LP  0  0  0  0  0  0  0  0  0  0  0  0  # atno 17394 bound_to 11000
  140.7634  133.8798  155.8436 LP  0  0  0  0  0  0  0  0  0  0  0  0  # atno 17395 bound_to 11000

$$$$
