AV-unprocessed.smi:1464|AV-procd|sdf|5945|dock8
  -GOLD-   22720 6 23D 1   1.00000     0.00000
 Structure written by MMmdl.
 41 42  0  0  0  0  0  0  0  0  1 V2000
  153.1985  141.8327  161.4457 C   0  0  0  0  0  0  0  0  0  0  0  0
  152.9916  142.1457  159.9523 C   0  0  2  0  0  0  0  0  0  0  0  0
  152.3191  143.5253  159.8047 C   0  0  0  0  0  0  0  0  0  0  0  0
  152.1169  143.9070  158.3346 C   0  0  0  0  0  0  0  0  0  0  0  0
  151.2861  142.8432  157.6118 C   0  0  0  0  0  0  0  0  0  0  0  0
  151.9382  141.4515  157.7237 C   0  0  2  0  0  0  0  0  0  0  0  0
  151.0896  140.4658  157.0561 N   0  0  0  0  0  0  0  0  0  0  0  0
  151.3696  139.8557  155.8946 C   0  0  0  0  0  0  0  0  0  0  0  0
  152.3828  140.0910  155.2348 O   0  0  0  0  0  0  0  0  0  0  0  0
  150.3286  138.8409  155.4006 C   0  0  0  0  0  0  0  0  0  0  0  0
  149.1090  139.4715  154.8757 N   0  0  0  0  0  0  0  0  0  0  0  0
  149.1817  140.8527  154.7777 N   0  0  0  0  0  0  0  0  0  0  0  0
  148.1787  141.5198  154.3156 C   0  0  0  0  0  0  0  0  0  0  0  0
  148.2939  142.8857  154.2322 O   0  0  0  0  0  0  0  0  0  0  0  0
  146.9650  140.8531  153.8968 C   0  0  0  0  0  0  0  0  0  0  0  0
  146.9015  139.5076  154.0021 C   0  0  0  0  0  0  0  0  0  0  0  0
  148.0206  138.7203  154.5228 C   0  0  0  0  0  0  0  0  0  0  0  0
  147.9889  137.4947  154.6331 O   0  0  0  0  0  0  0  0  0  0  0  0
  152.1871  141.0459  159.2021 C   0  0  1  0  0  0  0  0  0  0  0  0
  152.8750  139.6655  159.2899 C   0  0  0  0  0  0  0  0  0  0  0  0
  148.4322  143.1813  155.1187 H   0  0  0  0  0  0  0  0  0  0  0  0
  152.2476  141.6646  161.9519 H   0  0  0  0  0  0  0  0  0  0  0  0
  153.7003  142.6581  161.9516 H   0  0  0  0  0  0  0  0  0  0  0  0
  153.8208  140.9511  161.5952 H   0  0  0  0  0  0  0  0  0  0  0  0
  153.9790  142.2121  159.4930 H   0  0  0  0  0  0  0  0  0  0  0  0
  151.3550  143.5234  160.3155 H   0  0  0  0  0  0  0  0  0  0  0  0
  152.9238  144.2900  160.2938 H   0  0  0  0  0  0  0  0  0  0  0  0
  151.6220  144.8761  158.2655 H   0  0  0  0  0  0  0  0  0  0  0  0
  153.0850  144.0162  157.8439 H   0  0  0  0  0  0  0  0  0  0  0  0
  150.2812  142.8175  158.0360 H   0  0  0  0  0  0  0  0  0  0  0  0
  151.1718  143.1234  156.5640 H   0  0  0  0  0  0  0  0  0  0  0  0
  152.9068  141.4840  157.2205 H   0  0  0  0  0  0  0  0  0  0  0  0
  150.2313  140.2157  157.5252 H   0  0  0  0  0  0  0  0  0  0  0  0
  150.7723  138.2007  154.6354 H   0  0  0  0  0  0  0  0  0  0  0  0
  150.0846  138.1774  156.2322 H   0  0  0  0  0  0  0  0  0  0  0  0
  146.1337  141.4247  153.5112 H   0  0  0  0  0  0  0  0  0  0  0  0
  146.0015  138.9963  153.6938 H   0  0  0  0  0  0  0  0  0  0  0  0
  151.2145  140.9574  159.6894 H   0  0  0  0  0  0  0  0  0  0  0  0
  153.8798  139.6979  158.8673 H   0  0  0  0  0  0  0  0  0  0  0  0
  152.3184  138.8968  158.7539 H   0  0  0  0  0  0  0  0  0  0  0  0
  152.9559  139.3172  160.3187 H   0  0  0  0  0  0  0  0  0  0  0  0
  1  2  1  0  0  0  0
  1 22  1  0  0  0  0
  1 23  1  0  0  0  0
  1 24  1  0  0  0  0
  2 19  1  0  0  0  0
  2  3  1  0  0  0  0
  2 25  1  0  0  0  0
  3  4  1  0  0  0  0
  3 26  1  0  0  0  0
  3 27  1  0  0  0  0
  4  5  1  0  0  0  0
  4 28  1  0  0  0  0
  4 29  1  0  0  0  0
  5  6  1  0  0  0  0
  5 30  1  0  0  0  0
  5 31  1  0  0  0  0
  6  7  1  0  0  0  0
  6 19  1  0  0  0  0
  6 32  1  0  0  0  0
  7  8  1  0  0  0  0
  7 33  1  0  0  0  0
  8  9  2  0  0  0  0
  8 10  1  0  0  0  0
 10 34  1  0  0  0  0
 10 35  1  0  0  0  0
 10 11  1  0  0  0  0
 11 12  1  0  0  0  0
 11 17  1  0  0  0  0
 12 13  2  0  0  0  0
 13 14  1  0  0  0  0
 13 15  1  0  0  0  0
 14 21  1  0  0  0  0
 15 36  1  0  0  0  0
 15 16  2  0  0  0  0
 16 37  1  0  0  0  0
 16 17  1  0  0  0  0
 17 18  2  0  0  0  0
 19 20  1  0  0  0  0
 19 38  1  0  0  0  0
 20 39  1  0  0  0  0
 20 40  1  0  0  0  0
 20 41  1  0  0  0  0
M  END
> <s_m_source_file>
AV-unprocessed.smi

> <i_m_source_file_index>
1464

> <i_lp_mmshare_version>
43012

> <i_f3d_flags>
0

> <s_epik_input>
W0NIM11bQ0BASF0xW0NIMl1bQ0gyXVtDSDJdW0NASF0oW0NASF0xW0NIM10pW05IXUMoPU8pW0NIMl1uMltuSF1jKD1PKVtjSF1bY0hdYzI9Tw==

> <s_epik_cmdline>
J2VwaWtfcHl0aG9uJywgJy1waCcsICc3LjAnLCAnLXRuJywgJzgnLCAnLW1hJywgJzIwMCcsICctbWV0YWxfYmluZGluZycsICctaW1hZScsICc8aW5maWxlLm1hZT4nLCAnLW9tYWUnLCAnPG91dGZpbGUubWFlPic=

> <r_lp_tautomer_probability>
0.9996

> <r_epik_Ionization_Penalty>
2.10335

> <r_epik_Ionization_Penalty_Charging>
3.98079e-08

> <r_epik_Ionization_Penalty_Neutral>
2.10335

> <r_epik_State_Penalty>
1.67957

> <r_epik_Charging_Adjusted_Penalty>
1.67957

> <i_epik_Tot_Q>
0

> <i_epik_Tot_abs_Q>
0

> <r_epik_Metal_State_Penalty>
1.67957

> <b_epik_Metal_Only>
0

> <s_lp_Force_Field>
OPLS_2005

> <r_lp_Energy>
21.8095

> <b_lp_Chiralities_Consistent>
1

> <s_lp_Variant>
AV-unprocessed.smi:1464-11

> <Gold.Version>
5.8.1

> <Gold.Id.Protein>
6NUR|6NUR_protein|mol2

> <Gold.PLP.Fitness>
47.0640

> <Gold.PLP.PLP>
-40.9570

> <Gold.PLP.part.hbond>
-4.3653

> <Gold.PLP.part.metal>
0.0000

> <Gold.PLP.part.buried>
-4.3560

> <Gold.PLP.part.nonpolar>
-32.8366

> <Gold.PLP.part.repulsive>
0.3324

> <Gold.PLP.ligand.clash>
0.0000

> <Gold.PLP.ligand.torsion>
0.3078

> <Gold.PLP.Chemscore.Hbond>
2.2376

> <Gold.PLP.Chemscore.CHOScore>
0.0000

> <Gold.PLP.Chemscore.Metal>
0.0000

> <Gold.Chemscore.Hbonds>
donor molecule, donor type, donor heavy atom, donor atom, acceptor molecule, acceptor atom, score
      L1  H    14    21       P1  8028  0.54
      P1  H  7989  7998       L1     9  0.62
      P1  H  7997  8008       L1     9  0.68
      P1  H  8022  8030       L1    14  0.45

> <Gold.PLP.Chemscore.Internal.Correction>
0.0097

> <Gold.Rescore>
     Score         DG    S(hbond)    S(metal)    S(lipo)     H(rot)  DE(clash)    DE(int)     intcor
     15.88     -17.39       1.94        0.00      94.97       2.22       0.19       1.32       ----

> <Gold.Chemscore.Fitness>
15.8842

> <Gold.Chemscore.DG>
-17.3891

> <Gold.Chemscore.ZeroCoef>
-5.4800

> <Gold.Chemscore.Hbond>
1.9423

> <Gold.Chemscore.Metal>
0.0000

> <Gold.Chemscore.Lipo>
94.9671

> <Gold.Chemscore.Internal_Hbond>
0.0000

> <Gold.Chemscore.DEClash>
0.1864

> <Gold.Chemscore.DEInternal>
1.3185

> <Gold.Chemscore.Rot>
2.2224

> <Gold.Chemscore.Internal.Correction>
   9.000000E+99

> <Gold.Chemscore.Hbonds>
donor molecule, donor type, donor heavy atom, donor atom, acceptor molecule, acceptor atom, score
      L1  H    14    21       P1  8028  0.54
      P1  H  7989  7998       L1     9  0.26
      P1  H  7997  8008       L1     9  0.69
      P1  H  8022  8030       L1    14  0.02

> <Gold.Chemscore.Hbond.Weighted>
-6.4873

> <Gold.Chemscore.Metal.Weighted>
-0.0000

> <Gold.Chemscore.Lipo.Weighted>
-11.1112

> <Gold.Chemscore.Internal_Hbond.Weighted>
0.0000

> <Gold.Chemscore.DEClash.Weighted>
0.1864

> <Gold.Chemscore.DEInternal.Weighted>
1.3185

> <Gold.Chemscore.Rot.Weighted>
5.6893

> <Gold.Chemscore.Internal.Correction.Weighted>
   9.000000E+99

> <Gold.Protein.RotatedTorsions>
[ 6907 6896 6895 6894 ] final   41.71 input  -60.11 | X-H torsion
[ 7974 7965 7964 7962 ] final   -9.57 input  175.53 | X-H torsion
[ 8008 7997 7996 7995 ] final  -23.78 input   59.86 | X-H torsion
[ 10167 10162 10161 10158 ] final   96.72 input  -65.29 | X-H torsion
[ 10718 10713 10712 10709 ] final -142.06 input   66.30 | X-H torsion
[ 10763 10752 10751 10750 ] final  -69.76 input  -60.55 | X-H torsion
[ 11005 11000 10999 10996 ] final  -96.90 input  -57.11 | X-H torsion

> <Gold.Protein.ActiveResidues>
 VAL166  LYS551  ARG553  GLY616  TRP617  ASP618  TYR619  PRO620  LYS621  CYS622 
 ASP623  PHE694  ASN695  SER759  ASP760  ASP761  ALA762  ILE779  LEU786  VAL792 
 PHE793  MET794  SER795  GLU796  ALA797  LYS798  CYS799  TRP800  GLU811  SER814 

> <Gold.Protein.RotatedAtoms>
  152.1987  134.8607  160.0509 H   0  0  0  0  0  0  0  0  0  0  0  0  # atno 6907 bound_to 6896
  151.9469  133.3649  159.3994 H   0  0  0  0  0  0  0  0  0  0  0  0  # atno 6908 bound_to 6896
  150.6950  134.4305  159.5290 H   0  0  0  0  0  0  0  0  0  0  0  0  # atno 6909 bound_to 6896
  146.2247  140.2636  142.8353 H   0  0  0  0  0  0  0  0  0  0  0  0  # atno 7974 bound_to 7965
  154.4566  140.1971  156.0364 H   0  0  0  0  0  0  0  0  0  0  0  0  # atno 8008 bound_to 7997
  156.0757  140.3278  155.7603 H   0  0  0  0  0  0  0  0  0  0  0  0  # atno 8009 bound_to 7997
  155.5192  140.0568  157.2900 H   0  0  0  0  0  0  0  0  0  0  0  0  # atno 8010 bound_to 7997
  139.7868  144.6867  150.9947 H   0  0  0  0  0  0  0  0  0  0  0  0  # atno 10167 bound_to 10162
  156.3414  130.7639  151.1776 H   0  0  0  0  0  0  0  0  0  0  0  0  # atno 10718 bound_to 10713
  154.4080  135.6015  153.5935 H   0  0  0  0  0  0  0  0  0  0  0  0  # atno 10763 bound_to 10752
  152.9789  135.5922  154.4105 H   0  0  0  0  0  0  0  0  0  0  0  0  # atno 10764 bound_to 10752
  154.3913  135.2842  155.2131 H   0  0  0  0  0  0  0  0  0  0  0  0  # atno 10765 bound_to 10752
  141.1397  133.8131  157.0633 H   0  0  0  0  0  0  0  0  0  0  0  0  # atno 11005 bound_to 11000
  144.9321  140.7986  143.5683 LP  0  0  0  0  0  0  0  0  0  0  0  0  # atno 17320 bound_to 7965
  145.2581  139.2004  143.4907 LP  0  0  0  0  0  0  0  0  0  0  0  0  # atno 17321 bound_to 7965
  140.7820  143.4423  151.0533 LP  0  0  0  0  0  0  0  0  0  0  0  0  # atno 17342 bound_to 10162
  139.8102  143.7962  152.3170 LP  0  0  0  0  0  0  0  0  0  0  0  0  # atno 17343 bound_to 10162
  157.7447  131.0453  150.4839 LP  0  0  0  0  0  0  0  0  0  0  0  0  # atno 17370 bound_to 10713
  156.5019  130.4119  149.6348 LP  0  0  0  0  0  0  0  0  0  0  0  0  # atno 17371 bound_to 10713
  140.0557  134.9781  157.1217 LP  0  0  0  0  0  0  0  0  0  0  0  0  # atno 17394 bound_to 11000
  140.3922  134.2172  155.7166 LP  0  0  0  0  0  0  0  0  0  0  0  0  # atno 17395 bound_to 11000

$$$$
