#       Name:                AV-unprocessed.smi:1695
#       Creating user name   scv26
#       Creation time:       Fri Mar 27 07:55:14 2020


#       File generated by GOLD software.
#

@<TRIPOS>MOLECULE
AV-unprocessed.smi:1695
    56    58     1
SMALL
NO_CHARGES


@<TRIPOS>ATOM
      1 ****        -3.8409   5.2077  -2.0796 C.3            1 S1                 0.0000
      2 ****        -3.4774   4.0102  -1.2196 C.ar           1 S1                 0.0000
      3 ****        -3.7260   4.0620   0.1706 C.ar           1 S1                 0.0000
      4 ****        -3.4026   2.9699   1.0051 C.ar           1 S1                 0.0000
      5 ****        -3.5560   2.8054   2.3710 N.2            1 S1                 0.0000
      6 ****        -3.0702   1.5808   2.5504 C.2            1 S1                 0.0000
      7 ****        -2.6123   0.9338   1.4610 N.pl3          1 S1                 0.0000
      8 ****        -2.0355  -0.3973   1.4077 C.3            1 S1                 0.0000
      9 ****        -0.5008  -0.3665   1.2771 C.3            1 S1                 0.0000
     10 ****         0.0498   0.3036   2.3951 O.3            1 S1                 0.0000
     11 ****         0.0946  -1.7864   1.2094 C.3            1 S1                 0.0000
     12 ****         1.5663  -1.7803   1.0057 N.4            1 S1                 1.0000
     13 ****         2.2089  -3.0187   1.5148 C.3            1 S1                 0.0000
     14 ****         3.7450  -2.9261   1.4348 C.3            1 S1                 0.0000
     15 ****         4.2634  -2.5822   0.0223 C.3            1 S1                 0.0000
     16 ****         4.2245  -3.7866  -0.9371 C.2            1 S1                 0.0000
     17 ****         5.3935  -4.2094  -1.4247 N.am           1 S1                 0.0000
     18 ****         3.1643  -4.3307  -1.2379 O.2            1 S1                 0.0000
     19 ****         3.4970  -1.3580  -0.5229 C.3            1 S1                 0.0000
     20 ****         1.9670  -1.4900  -0.3964 C.3            1 S1                 0.0000
     21 ****        -2.8171   1.8163   0.4062 C.ar           1 S1                 0.0000
     22 ****        -2.5656   1.7522  -0.9756 C.ar           1 S1                 0.0000
     23 ****        -2.8964   2.8517  -1.7951 C.ar           1 S1                 0.0000
     24 ****        -2.6222   2.7737  -3.2866 C.3            1 S1                 0.0000
     25 ****        -4.2822   6.0069  -1.4836 H              1 S1                 0.0000
     26 ****        -4.5638   4.9241  -2.8446 H              1 S1                 0.0000
     27 ****        -2.9540   5.6077  -2.5715 H              1 S1                 0.0000
     28 ****        -4.1691   4.9439   0.6094 H              1 S1                 0.0000
     29 ****        -3.0397   1.1300   3.5317 H              1 S1                 0.0000
     30 ****        -2.3337  -0.9441   2.3037 H              1 S1                 0.0000
     31 ****        -2.4760  -0.9236   0.5600 H              1 S1                 0.0000
     32 ****        -0.2416   0.1982   0.3821 H              1 S1                 0.0000
     33 ****        -0.3116   1.1768   2.4292 H              1 S1                 0.0000
     34 ****        -0.1466  -2.3028   2.1401 H              1 S1                 0.0000
     35 ****        -0.3767  -2.3641   0.4126 H              1 S1                 0.0000
     36 ****         1.9235  -3.1745   2.5560 H              1 S1                 0.0000
     37 ****         1.8374  -3.8815   0.9611 H              1 S1                 0.0000
     38 ****         4.0885  -2.1599   2.1313 H              1 S1                 0.0000
     39 ****         4.1868  -3.8610   1.7827 H              1 S1                 0.0000
     40 ****         5.3113  -2.2932   0.1223 H              1 S1                 0.0000
     41 ****         5.4242  -4.9951  -2.0586 H              1 S1                 0.0000
     42 ****         6.2471  -3.7400  -1.1577 H              1 S1                 0.0000
     43 ****         3.8202  -0.4699   0.0219 H              1 S1                 0.0000
     44 ****         3.7644  -1.1786  -1.5654 H              1 S1                 0.0000
     45 ****         1.5879  -2.2705  -1.0567 H              1 S1                 0.0000
     46 ****         1.5129  -0.5592  -0.7336 H              1 S1                 0.0000
     47 ****        -2.1230   0.8637  -1.4012 H              1 S1                 0.0000
     48 ****        -2.1975   1.8084  -3.5638 H              1 S1                 0.0000
     49 ****        -1.9165   3.5492  -3.5855 H              1 S1                 0.0000
     50 ****        -3.5443   2.9073  -3.8525 H              1 S1                 0.0000
     51 ****         1.9222  -1.0264   1.5767 H              1 S1                 0.0000
     52 ****        -3.9329   3.4404   3.0453 LP             1 S1                 0.0000
     53 ****         1.0443   0.3534   2.3025 LP             1 S1                 0.0000
     54 ****        -0.1825  -0.1907   3.2328 LP             1 S1                 0.0000
     55 ****         2.3034  -3.9927  -0.8577 LP             1 S1                 0.0000
     56 ****         3.1627  -5.1114  -1.8628 LP             1 S1                 0.0000
@<TRIPOS>BOND
    1    1    2 1     
    2    1   25 1     
    3    1   26 1     
    4    1   27 1     
    5    2   23 ar    
    6    2    3 ar    
    7    3    4 ar    
    8    3   28 1     
    9    4   21 ar    
   10    4    5 1     
   11    5    6 2     
   12    6    7 1     
   13    6   29 1     
   14    7    8 1     
   15    7   21 1     
   16    8    9 1     
   17    8   30 1     
   18    8   31 1     
   19    9   10 1     
   20    9   11 1     
   21    9   32 1     
   22   10   33 1     
   23   11   12 1     
   24   11   34 1     
   25   11   35 1     
   26   12   20 1     
   27   12   13 1     
   28   12   51 1     
   29   13   14 1     
   30   13   36 1     
   31   13   37 1     
   32   14   15 1     
   33   14   38 1     
   34   14   39 1     
   35   15   16 1     
   36   15   19 1     
   37   15   40 1     
   38   16   17 am    
   39   16   18 2     
   40   17   41 1     
   41   17   42 1     
   42   19   20 1     
   43   19   43 1     
   44   19   44 1     
   45   20   45 1     
   46   20   46 1     
   47   21   22 ar    
   48   22   23 ar    
   49   22   47 1     
   50   23   24 1     
   51   24   48 1     
   52   24   49 1     
   53   24   50 1     
   54    5   52 1     
   55   10   53 1     
   56   10   54 1     
   57   18   55 1     
   58   18   56 1     
@<TRIPOS>SUBSTRUCTURE
      1 S1             1
@<TRIPOS>SET
LONE_PAIRS      STATIC     ATOMS    <user>   **** ""
5 52 53 54 55 56
DONOR_HYDROGENS      STATIC     ATOMS    <user>   **** ""
4 33 51 41 42
ATOM$BLUE        STATIC     ATOMS    COLORGROUP SYSTEM
5 52 53 54 55 56
ATOM$RED        STATIC     ATOMS    COLORGROUP SYSTEM
4 33 51 41 42
