AV-unprocessed.smi:2024|AV-procd|sdf|8193|dock4
  -GOLD-   2272010453D 1   1.00000     0.00000
 Structure written by MMmdl.
 43 44  0  0  0  0  0  0  0  0  1 V2000
  152.1820  143.5651  159.8719 C   0  0  0  0  0  0  0  0  0  0  0  0
  152.1662  142.6215  158.7649 N   0  0  0  0  0  0  0  0  0  0  0  0
  151.0693  142.8949  157.8418 C   0  0  0  0  0  0  0  0  0  0  0  0
  151.0673  141.9058  156.6622 C   0  0  0  0  0  0  0  0  0  0  0  0
  150.9502  140.5111  157.1188 N   0  0  0  0  0  0  0  0  0  0  0  0
  150.8055  139.5058  156.0286 C   0  0  0  0  0  0  0  0  0  0  0  0
  149.6236  139.8106  155.0765 C   0  0  0  0  0  0  0  0  0  0  0  0
  152.0866  139.4425  155.1586 C   0  0  0  0  0  0  0  0  0  0  0  0
  150.5796  138.0718  156.5932 C   0  0  0  0  0  0  0  0  0  0  0  0
  149.4897  138.0072  157.5666 N   0  0  0  0  0  0  0  0  0  0  0  0
  149.3397  137.0728  158.5159 C   0  0  0  0  0  0  0  0  0  0  0  0
  150.1169  136.1315  158.6749 O   0  0  0  0  0  0  0  0  0  0  0  0
  148.2452  137.3088  159.2569 N   0  0  0  0  0  0  0  0  0  0  0  0
  147.7566  136.5504  160.3492 C   0  0  0  0  0  0  0  0  0  0  0  0
  147.3455  137.1900  161.4457 N   0  0  0  0  0  0  0  0  0  0  0  0
  146.8937  136.3067  162.4305 C   0  0  0  0  0  0  0  0  0  0  0  0
  146.9685  134.9859  162.0635 C   0  0  0  0  0  0  0  0  0  0  0  0
  147.6141  134.7938  160.4557 S   0  0  0  0  0  0  0  0  0  0  0  0
  152.0499  140.2469  158.0613 C   0  0  0  0  0  0  0  0  0  0  0  0
  152.0504  141.2443  159.2345 C   0  0  0  0  0  0  0  0  0  0  0  0
  152.2902  144.5868  159.5061 H   0  0  0  0  0  0  0  0  0  0  0  0
  153.0192  143.3617  160.5403 H   0  0  0  0  0  0  0  0  0  0  0  0
  151.2606  143.5076  160.4530 H   0  0  0  0  0  0  0  0  0  0  0  0
  150.1142  142.8397  158.3672 H   0  0  0  0  0  0  0  0  0  0  0  0
  151.1559  143.9120  157.4582 H   0  0  0  0  0  0  0  0  0  0  0  0
  150.2357  142.1727  156.0127 H   0  0  0  0  0  0  0  0  0  0  0  0
  151.9794  142.0417  156.0807 H   0  0  0  0  0  0  0  0  0  0  0  0
  149.5544  139.0598  154.2883 H   0  0  0  0  0  0  0  0  0  0  0  0
  149.7303  140.7753  154.5811 H   0  0  0  0  0  0  0  0  0  0  0  0
  148.6657  139.8088  155.5960 H   0  0  0  0  0  0  0  0  0  0  0  0
  152.0671  138.5890  154.4799 H   0  0  0  0  0  0  0  0  0  0  0  0
  152.9852  139.3506  155.7696 H   0  0  0  0  0  0  0  0  0  0  0  0
  152.2050  140.3260  154.5314 H   0  0  0  0  0  0  0  0  0  0  0  0
  150.3484  137.3700  155.7922 H   0  0  0  0  0  0  0  0  0  0  0  0
  151.5041  137.6869  157.0278 H   0  0  0  0  0  0  0  0  0  0  0  0
  148.8059  138.7486  157.5218 H   0  0  0  0  0  0  0  0  0  0  0  0
  147.7000  138.1226  159.0138 H   0  0  0  0  0  0  0  0  0  0  0  0
  146.5341  136.7053  163.3675 H   0  0  0  0  0  0  0  0  0  0  0  0
  146.6842  134.1178  162.6395 H   0  0  0  0  0  0  0  0  0  0  0  0
  151.9685  139.2463  158.4816 H   0  0  0  0  0  0  0  0  0  0  0  0
  153.0113  140.2984  157.5496 H   0  0  0  0  0  0  0  0  0  0  0  0
  152.8803  141.0131  159.9030 H   0  0  0  0  0  0  0  0  0  0  0  0
  151.1366  141.1229  159.8187 H   0  0  0  0  0  0  0  0  0  0  0  0
  1  2  1  0  0  0  0
  1 21  1  0  0  0  0
  1 22  1  0  0  0  0
  1 23  1  0  0  0  0
  2 20  1  0  0  0  0
  2  3  1  0  0  0  0
  3  4  1  0  0  0  0
  3 24  1  0  0  0  0
  3 25  1  0  0  0  0
  4  5  1  0  0  0  0
  4 26  1  0  0  0  0
  4 27  1  0  0  0  0
  5  6  1  0  0  0  0
  5 19  1  0  0  0  0
  6  7  1  0  0  0  0
  6  8  1  0  0  0  0
  6  9  1  0  0  0  0
  7 28  1  0  0  0  0
  7 29  1  0  0  0  0
  7 30  1  0  0  0  0
  8 31  1  0  0  0  0
  8 32  1  0  0  0  0
  8 33  1  0  0  0  0
  9 10  1  0  0  0  0
  9 34  1  0  0  0  0
  9 35  1  0  0  0  0
 10 11  1  0  0  0  0
 10 36  1  0  0  0  0
 11 12  2  0  0  0  0
 11 13  1  0  0  0  0
 13 14  1  0  0  0  0
 13 37  1  0  0  0  0
 14 18  1  0  0  0  0
 14 15  2  0  0  0  0
 15 16  1  0  0  0  0
 16 17  2  0  0  0  0
 16 38  1  0  0  0  0
 17 18  1  0  0  0  0
 17 39  1  0  0  0  0
 19 20  1  0  0  0  0
 19 40  1  0  0  0  0
 19 41  1  0  0  0  0
 20 42  1  0  0  0  0
 20 43  1  0  0  0  0
M  END
> <s_m_source_file>
AV-unprocessed.smi

> <i_m_source_file_index>
2024

> <i_lp_mmshare_version>
43012

> <i_f3d_flags>
0

> <s_epik_input>
W0NIM11OMVtDSDJdW0NIMl1OKFtDSDJdW0NIMl0xKUMoW0NIM10pKFtDSDNdKVtDSDJdW05IXUMoPU8pW05IXWMybltjSF1bY0hdczI=

> <s_epik_cmdline>
J2VwaWtfcHl0aG9uJywgJy1waCcsICc3LjAnLCAnLXRuJywgJzgnLCAnLW1hJywgJzIwMCcsICctbWV0YWxfYmluZGluZycsICctaW1hZScsICc8aW5maWxlLm1hZT4nLCAnLW9tYWUnLCAnPG91dGZpbGUubWFlPic=

> <r_lp_tautomer_probability>
0.999

> <r_epik_Ionization_Penalty>
3.01774

> <r_epik_Ionization_Penalty_Charging>
0

> <r_epik_Ionization_Penalty_Neutral>
3.01774

> <r_epik_State_Penalty>
2.1369

> <r_epik_Charging_Adjusted_Penalty>
2.1369

> <i_epik_Tot_Q>
0

> <i_epik_Tot_abs_Q>
0

> <r_epik_Metal_State_Penalty>
2.1694

> <b_epik_Metal_Only>
0

> <s_lp_Force_Field>
OPLS_2005

> <r_lp_Energy>
47.9803

> <b_lp_Chiralities_Consistent>
1

> <s_lp_Variant>
AV-unprocessed.smi:2024-3

> <Gold.Version>
5.8.1

> <Gold.Id.Protein>
6NUR|6NUR_protein|mol2

> <Gold.PLP.Fitness>
43.7286

> <Gold.PLP.PLP>
-36.6673

> <Gold.PLP.part.hbond>
-3.0000

> <Gold.PLP.part.metal>
0.0000

> <Gold.PLP.part.buried>
-4.0778

> <Gold.PLP.part.nonpolar>
-29.5803

> <Gold.PLP.part.repulsive>
0.2842

> <Gold.PLP.ligand.clash>
0.0000

> <Gold.PLP.ligand.torsion>
0.6234

> <Gold.PLP.Chemscore.Hbond>
2.7520

> <Gold.PLP.Chemscore.CHOScore>
0.0000

> <Gold.PLP.Chemscore.Metal>
0.0000

> <Gold.Chemscore.Hbonds>
donor molecule, donor type, donor heavy atom, donor atom, acceptor molecule, acceptor atom, score
      P1  H  6896  6909       L1    12  1.00
      P1  H  6931  6943       L1    15  0.87
      P1  H  6934  6947       L1    15  0.94

> <Gold.PLP.Chemscore.Internal.Correction>
0.0522

> <Gold.Rescore>
     Score         DG    S(hbond)    S(metal)    S(lipo)     H(rot)  DE(clash)    DE(int)     intcor
     17.65     -18.32       1.78        0.00      93.18       1.56       0.10       0.57       ----

> <Gold.Chemscore.Fitness>
17.6534

> <Gold.Chemscore.DG>
-18.3154

> <Gold.Chemscore.ZeroCoef>
-5.4800

> <Gold.Chemscore.Hbond>
1.7765

> <Gold.Chemscore.Metal>
0.0000

> <Gold.Chemscore.Lipo>
93.1755

> <Gold.Chemscore.Internal_Hbond>
0.0000

> <Gold.Chemscore.DEClash>
0.0961

> <Gold.Chemscore.DEInternal>
0.5659

> <Gold.Chemscore.Rot>
1.5624

> <Gold.Chemscore.Internal.Correction>
   9.000000E+99

> <Gold.Chemscore.Hbonds>
donor molecule, donor type, donor heavy atom, donor atom, acceptor molecule, acceptor atom, score
      P1  H  6896  6909       L1    12  0.99
      P1  H  6931  6943       L1    15  0.22
      P1  H  6934  6947       L1    15  0.50

> <Gold.Chemscore.Hbond.Weighted>
-5.9336

> <Gold.Chemscore.Metal.Weighted>
-0.0000

> <Gold.Chemscore.Lipo.Weighted>
-10.9015

> <Gold.Chemscore.Internal_Hbond.Weighted>
0.0000

> <Gold.Chemscore.DEClash.Weighted>
0.0961

> <Gold.Chemscore.DEInternal.Weighted>
0.5659

> <Gold.Chemscore.Rot.Weighted>
3.9998

> <Gold.Chemscore.Internal.Correction.Weighted>
   9.000000E+99

> <Gold.Protein.RotatedTorsions>
[ 6907 6896 6895 6894 ] final   68.88 input  -60.11 | X-H torsion
[ 7974 7965 7964 7962 ] final   15.04 input  175.53 | X-H torsion
[ 8008 7997 7996 7995 ] final   24.06 input   59.86 | X-H torsion
[ 10167 10162 10161 10158 ] final -128.49 input  -65.29 | X-H torsion
[ 10718 10713 10712 10709 ] final   56.04 input   66.30 | X-H torsion
[ 10763 10752 10751 10750 ] final  142.22 input  -60.55 | X-H torsion
[ 11005 11000 10999 10996 ] final  -55.66 input  -57.11 | X-H torsion

> <Gold.Protein.ActiveResidues>
 VAL166  LYS551  ARG553  GLY616  TRP617  ASP618  TYR619  PRO620  LYS621  CYS622 
 ASP623  PHE694  ASN695  SER759  ASP760  ASP761  ALA762  ILE779  LEU786  VAL792 
 PHE793  MET794  SER795  GLU796  ALA797  LYS798  CYS799  TRP800  GLU811  SER814 

> <Gold.Protein.RotatedAtoms>
  152.4649  134.5098  159.9749 H   0  0  0  0  0  0  0  0  0  0  0  0  # atno 6907 bound_to 6896
  151.5138  133.3474  159.2897 H   0  0  0  0  0  0  0  0  0  0  0  0  # atno 6908 bound_to 6896
  150.8629  134.8014  159.7159 H   0  0  0  0  0  0  0  0  0  0  0  0  # atno 6909 bound_to 6896
  146.2289  139.8953  142.8548 H   0  0  0  0  0  0  0  0  0  0  0  0  # atno 7974 bound_to 7965
  154.9905  140.3113  155.4908 H   0  0  0  0  0  0  0  0  0  0  0  0  # atno 8008 bound_to 7997
  156.2940  140.2250  156.4950 H   0  0  0  0  0  0  0  0  0  0  0  0  # atno 8009 bound_to 7997
  154.7707  140.0452  157.1037 H   0  0  0  0  0  0  0  0  0  0  0  0  # atno 8010 bound_to 7997
  139.9497  143.6069  152.2479 H   0  0  0  0  0  0  0  0  0  0  0  0  # atno 10167 bound_to 10162
  157.5397  130.8688  149.8804 H   0  0  0  0  0  0  0  0  0  0  0  0  # atno 10718 bound_to 10713
  153.9522  135.2969  155.3438 H   0  0  0  0  0  0  0  0  0  0  0  0  # atno 10763 bound_to 10752
  154.7420  135.5020  153.9142 H   0  0  0  0  0  0  0  0  0  0  0  0  # atno 10764 bound_to 10752
  153.0988  135.6728  153.9820 H   0  0  0  0  0  0  0  0  0  0  0  0  # atno 10765 bound_to 10752
  141.1084  133.6612  156.4503 H   0  0  0  0  0  0  0  0  0  0  0  0  # atno 11005 bound_to 11000
  145.2377  140.9997  143.3954 LP  0  0  0  0  0  0  0  0  0  0  0  0  # atno 17320 bound_to 7965
  144.9478  139.4117  143.6417 LP  0  0  0  0  0  0  0  0  0  0  0  0  # atno 17321 bound_to 7965
  139.6638  144.7662  151.1912 LP  0  0  0  0  0  0  0  0  0  0  0  0  # atno 17342 bound_to 10162
  140.7586  143.5969  150.8739 LP  0  0  0  0  0  0  0  0  0  0  0  0  # atno 17343 bound_to 10162
  156.0486  130.3722  150.1255 LP  0  0  0  0  0  0  0  0  0  0  0  0  # atno 17370 bound_to 10713
  156.9436  130.9752  151.3511 LP  0  0  0  0  0  0  0  0  0  0  0  0  # atno 17371 bound_to 10713
  140.4841  134.6637  157.5183 LP  0  0  0  0  0  0  0  0  0  0  0  0  # atno 17394 bound_to 11000
  139.9965  134.6903  155.9600 LP  0  0  0  0  0  0  0  0  0  0  0  0  # atno 17395 bound_to 11000

$$$$
