AV-unprocessed.smi:1193|AV-procd|sdf|4989|dock5
  -GOLD-   22720 3593D 1   1.00000     0.00000
 Structure written by MMmdl.
 38 39  0  0  0  0  0  0  0  0  1 V2000
  145.9713  137.7057  162.3669 C   0  0  0  0  0  0  0  0  0  0  0  0
  146.8533  137.4973  161.2693 O   0  0  0  0  0  0  0  0  0  0  0  0
  147.2603  136.2076  160.9845 C   0  0  0  0  0  0  0  0  0  0  0  0
  146.7092  135.1874  161.6889 N   0  0  0  0  0  0  0  0  0  0  0  0
  147.1069  133.9282  161.4143 C   0  0  0  0  0  0  0  0  0  0  0  0
  148.0706  133.6209  160.4367 C   0  0  0  0  0  0  0  0  0  0  0  0
  148.6441  134.6772  159.7049 C   0  0  0  0  0  0  0  0  0  0  0  0
  148.2264  136.0039  159.9715 C   0  0  0  0  0  0  0  0  0  0  0  0
  148.7505  137.1464  159.3059 N   0  0  0  0  0  0  0  0  0  0  0  0
  149.9352  137.2912  158.6886 C   0  0  0  0  0  0  0  0  0  0  0  0
  150.8032  136.4235  158.5951 O   0  0  0  0  0  0  0  0  0  0  0  0
  150.0567  138.5176  158.1600 N   0  0  0  0  0  0  0  0  0  0  0  0
  151.2243  139.0087  157.4308 C   0  0  0  0  0  0  0  0  0  0  0  0
  151.0809  140.4678  156.9607 C   0  0  0  0  0  0  0  0  0  0  0  0
  150.7192  140.7101  155.8075 O   0  0  0  0  0  0  0  0  0  0  0  0
  151.3755  141.4494  157.8381 N   0  0  0  0  0  0  0  0  0  0  0  0
  151.2922  142.8856  157.5741 C   0  0  0  0  0  0  0  0  0  0  0  0
  151.4651  143.5655  158.9326 C   0  0  0  0  0  0  0  0  0  0  0  0
  152.2612  142.5604  159.7533 C   0  0  0  0  0  0  0  0  0  0  0  0
  151.8210  141.2014  159.2079 C   0  0  0  0  0  0  0  0  0  0  0  0
  145.7456  138.7687  162.4502 H   0  0  0  0  0  0  0  0  0  0  0  0
  146.4232  137.3888  163.3079 H   0  0  0  0  0  0  0  0  0  0  0  0
  145.0270  137.1774  162.2265 H   0  0  0  0  0  0  0  0  0  0  0  0
  146.6472  133.1427  161.9955 H   0  0  0  0  0  0  0  0  0  0  0  0
  148.3673  132.5983  160.2556 H   0  0  0  0  0  0  0  0  0  0  0  0
  149.3989  134.4488  158.9687 H   0  0  0  0  0  0  0  0  0  0  0  0
  148.1154  137.9277  159.2322 H   0  0  0  0  0  0  0  0  0  0  0  0
  149.2946  139.1672  158.2858 H   0  0  0  0  0  0  0  0  0  0  0  0
  152.1168  138.8990  158.0491 H   0  0  0  0  0  0  0  0  0  0  0  0
  151.3648  138.3728  156.5565 H   0  0  0  0  0  0  0  0  0  0  0  0
  152.1022  143.1709  156.9008 H   0  0  0  0  0  0  0  0  0  0  0  0
  150.3465  143.1706  157.1114 H   0  0  0  0  0  0  0  0  0  0  0  0
  151.9553  144.5367  158.8602 H   0  0  0  0  0  0  0  0  0  0  0  0
  150.4876  143.7184  159.3922 H   0  0  0  0  0  0  0  0  0  0  0  0
  153.3268  142.7021  159.5674 H   0  0  0  0  0  0  0  0  0  0  0  0
  152.0928  142.6601  160.8259 H   0  0  0  0  0  0  0  0  0  0  0  0
  150.9838  140.8089  159.7868 H   0  0  0  0  0  0  0  0  0  0  0  0
  152.6336  140.4745  159.2506 H   0  0  0  0  0  0  0  0  0  0  0  0
  1  2  1  0  0  0  0
  1 21  1  0  0  0  0
  1 22  1  0  0  0  0
  1 23  1  0  0  0  0
  2  3  1  0  0  0  0
  3  8  1  0  0  0  0
  3  4  2  0  0  0  0
  4  5  1  0  0  0  0
  5  6  2  0  0  0  0
  5 24  1  0  0  0  0
  6  7  1  0  0  0  0
  6 25  1  0  0  0  0
  7  8  2  0  0  0  0
  7 26  1  0  0  0  0
  8  9  1  0  0  0  0
  9 10  1  0  0  0  0
  9 27  1  0  0  0  0
 10 11  2  0  0  0  0
 10 12  1  0  0  0  0
 12 13  1  0  0  0  0
 12 28  1  0  0  0  0
 13 14  1  0  0  0  0
 13 29  1  0  0  0  0
 13 30  1  0  0  0  0
 14 15  2  0  0  0  0
 14 16  1  0  0  0  0
 16 20  1  0  0  0  0
 16 17  1  0  0  0  0
 17 18  1  0  0  0  0
 17 31  1  0  0  0  0
 17 32  1  0  0  0  0
 18 19  1  0  0  0  0
 18 33  1  0  0  0  0
 18 34  1  0  0  0  0
 19 20  1  0  0  0  0
 19 35  1  0  0  0  0
 19 36  1  0  0  0  0
 20 37  1  0  0  0  0
 20 38  1  0  0  0  0
M  END
> <s_m_source_file>
AV-unprocessed.smi

> <i_m_source_file_index>
1193

> <i_lp_mmshare_version>
43012

> <i_f3d_flags>
0

> <s_epik_input>
W0NIM11PYzFuW2NIXVtjSF1bY0hdYzFbTkhdQyg9TylbTkhdW0NIMl1DKD1PKU4yW0NIMl1bQ0gyXVtDSDJdW0NIMl0y

> <s_epik_cmdline>
J2VwaWtfcHl0aG9uJywgJy1waCcsICc3LjAnLCAnLXRuJywgJzgnLCAnLW1hJywgJzIwMCcsICctbWV0YWxfYmluZGluZycsICctaW1hZScsICc8aW5maWxlLm1hZT4nLCAnLW9tYWUnLCAnPG91dGZpbGUubWFlPic=

> <r_lp_tautomer_probability>
1

> <r_epik_Ionization_Penalty>
0.000141665

> <r_epik_Ionization_Penalty_Charging>
0

> <r_epik_Ionization_Penalty_Neutral>
0.000141665

> <r_epik_State_Penalty>
-0

> <r_epik_Charging_Adjusted_Penalty>
0

> <i_epik_Tot_Q>
0

> <i_epik_Tot_abs_Q>
0

> <r_epik_Metal_State_Penalty>
-0

> <b_epik_Metal_Only>
0

> <s_lp_Force_Field>
OPLS_2005

> <r_lp_Energy>
26.7485

> <b_lp_Chiralities_Consistent>
1

> <s_lp_Variant>
AV-unprocessed.smi:1193-1

> <Gold.Version>
5.8.1

> <Gold.Id.Protein>
6NUR|6NUR_protein|mol2

> <Gold.PLP.Fitness>
41.0040

> <Gold.PLP.PLP>
-34.8687

> <Gold.PLP.part.hbond>
-3.0000

> <Gold.PLP.part.metal>
0.0000

> <Gold.PLP.part.buried>
-5.2103

> <Gold.PLP.part.nonpolar>
-27.6056

> <Gold.PLP.part.repulsive>
0.4456

> <Gold.PLP.ligand.clash>
0.0000

> <Gold.PLP.ligand.torsion>
0.4896

> <Gold.PLP.Chemscore.Hbond>
2.3680

> <Gold.PLP.Chemscore.CHOScore>
0.0000

> <Gold.PLP.Chemscore.Metal>
0.0000

> <Gold.Chemscore.Hbonds>
donor molecule, donor type, donor heavy atom, donor atom, acceptor molecule, acceptor atom, score
      P1  H  6896  6909       L1    11  0.82
      P1  H  6931  6943       L1     2  0.05
      P1  H  6934  6947       L1     2  0.90

> <Gold.PLP.Chemscore.Internal.Correction>
0.0104

> <Gold.Rescore>
     Score         DG    S(hbond)    S(metal)    S(lipo)     H(rot)  DE(clash)    DE(int)     intcor
     14.44     -16.67       1.90        0.00      75.81       1.58       0.49       1.73       ----

> <Gold.Chemscore.Fitness>
14.4410

> <Gold.Chemscore.DG>
-16.6651

> <Gold.Chemscore.ZeroCoef>
-5.4800

> <Gold.Chemscore.Hbond>
1.9046

> <Gold.Chemscore.Metal>
0.0000

> <Gold.Chemscore.Lipo>
75.8091

> <Gold.Chemscore.Internal_Hbond>
0.0000

> <Gold.Chemscore.DEClash>
0.4931

> <Gold.Chemscore.DEInternal>
1.7310

> <Gold.Chemscore.Rot>
1.5804

> <Gold.Chemscore.Internal.Correction>
   9.000000E+99

> <Gold.Chemscore.Hbonds>
donor molecule, donor type, donor heavy atom, donor atom, acceptor molecule, acceptor atom, score
      P1  H  6896  6909       L1    11  0.81
      P1  H  6931  6943       L1     2  0.01
      P1  H  6934  6947       L1     2  0.17
      P1  H  7989  7998       L1    15  0.02

> <Gold.Chemscore.Hbond.Weighted>
-6.3614

> <Gold.Chemscore.Metal.Weighted>
-0.0000

> <Gold.Chemscore.Lipo.Weighted>
-8.8697

> <Gold.Chemscore.Internal_Hbond.Weighted>
0.0000

> <Gold.Chemscore.DEClash.Weighted>
0.4931

> <Gold.Chemscore.DEInternal.Weighted>
1.7310

> <Gold.Chemscore.Rot.Weighted>
4.0459

> <Gold.Chemscore.Internal.Correction.Weighted>
   9.000000E+99

> <Gold.Protein.RotatedTorsions>
[ 6907 6896 6895 6894 ] final   75.49 input  -60.11 | X-H torsion
[ 7974 7965 7964 7962 ] final -122.59 input  175.53 | X-H torsion
[ 8008 7997 7996 7995 ] final  -78.39 input   59.86 | X-H torsion
[ 10167 10162 10161 10158 ] final -173.45 input  -65.29 | X-H torsion
[ 10718 10713 10712 10709 ] final  158.34 input   66.30 | X-H torsion
[ 10763 10752 10751 10750 ] final  -23.66 input  -60.55 | X-H torsion
[ 11005 11000 10999 10996 ] final -106.79 input  -57.11 | X-H torsion

> <Gold.Protein.ActiveResidues>
 VAL166  LYS551  ARG553  GLY616  TRP617  ASP618  TYR619  PRO620  LYS621  CYS622 
 ASP623  PHE694  ASN695  SER759  ASP760  ASP761  ALA762  ILE779  LEU786  VAL792 
 PHE793  MET794  SER795  GLU796  ALA797  LYS798  CYS799  TRP800  GLU811  SER814 

> <Gold.Protein.RotatedAtoms>
  152.5028  134.4112  159.9449 H   0  0  0  0  0  0  0  0  0  0  0  0  # atno 6907 bound_to 6896
  151.4080  133.3730  159.2748 H   0  0  0  0  0  0  0  0  0  0  0  0  # atno 6908 bound_to 6896
  150.9312  134.8749  159.7612 H   0  0  0  0  0  0  0  0  0  0  0  0  # atno 6909 bound_to 6896
  145.0278  140.8042  143.4342 H   0  0  0  0  0  0  0  0  0  0  0  0  # atno 7974 bound_to 7965
  154.5685  140.0695  156.8929 H   0  0  0  0  0  0  0  0  0  0  0  0  # atno 8008 bound_to 7997
  155.2678  140.3363  155.4249 H   0  0  0  0  0  0  0  0  0  0  0  0  # atno 8009 bound_to 7997
  156.2100  140.1755  156.7702 H   0  0  0  0  0  0  0  0  0  0  0  0  # atno 8010 bound_to 7997
  139.5688  144.1691  152.1353 H   0  0  0  0  0  0  0  0  0  0  0  0  # atno 10167 bound_to 10162
  157.1792  131.0628  151.2141 H   0  0  0  0  0  0  0  0  0  0  0  0  # atno 10718 bound_to 10713
  153.6713  135.6971  153.5146 H   0  0  0  0  0  0  0  0  0  0  0  0  # atno 10763 bound_to 10752
  153.2555  135.4261  155.0841 H   0  0  0  0  0  0  0  0  0  0  0  0  # atno 10764 bound_to 10752
  154.8425  135.3542  154.6257 H   0  0  0  0  0  0  0  0  0  0  0  0  # atno 10765 bound_to 10752
  141.0987  133.8924  157.1898 H   0  0  0  0  0  0  0  0  0  0  0  0  # atno 11005 bound_to 11000
  145.1810  139.2352  143.5292 LP  0  0  0  0  0  0  0  0  0  0  0  0  # atno 17320 bound_to 7965
  146.3494  140.1584  142.8591 LP  0  0  0  0  0  0  0  0  0  0  0  0  # atno 17321 bound_to 7965
  140.1220  144.5365  150.6857 LP  0  0  0  0  0  0  0  0  0  0  0  0  # atno 17342 bound_to 10162
  140.6972  143.2411  151.4967 LP  0  0  0  0  0  0  0  0  0  0  0  0  # atno 17343 bound_to 10162
  157.3969  130.7312  149.6738 LP  0  0  0  0  0  0  0  0  0  0  0  0  # atno 17370 bound_to 10713
  155.9727  130.4131  150.4066 LP  0  0  0  0  0  0  0  0  0  0  0  0  # atno 17371 bound_to 10713
  139.9831  135.0091  156.9798 LP  0  0  0  0  0  0  0  0  0  0  0  0  # atno 17394 bound_to 11000
  140.5076  134.1034  155.7263 LP  0  0  0  0  0  0  0  0  0  0  0  0  # atno 17395 bound_to 11000

$$$$
