AV-unprocessed.smi:3249|AV-procd|sdf|12421|dock1
  -GOLD-   2272018303D 1   1.00000     0.00000
 Structure written by MMmdl.
 44 45  0  0  0  0  0  0  0  0  2 V2000
  151.0276  142.5635  158.8042 C   0  0  0  0  0  0  0  0  0  0  0  0
  150.8638  141.7598  157.5464 C   0  0  0  0  0  0  0  0  0  0  0  0
  151.7095  140.7274  157.0505 C   0  0  0  0  0  0  0  0  0  0  0  0
  151.2811  140.2172  155.9076 N   0  0  0  0  0  0  0  0  0  0  0  0
  150.1526  140.9044  155.6291 N   0  0  0  0  0  0  0  0  0  0  0  0
  149.3948  140.5923  154.4240 C   0  0  2  0  0  0  0  0  0  0  0  0
  148.2081  141.5641  154.2886 C   0  0  0  0  0  0  0  0  0  0  0  0
  148.9682  139.1008  154.3830 C   0  0  2  0  0  0  0  0  0  0  0  0
  150.1539  138.1280  154.5159 C   0  0  0  0  0  0  0  0  0  0  0  0
  148.2492  138.8043  153.1238 N   0  3  0  0  0  0  0  0  0  0  0  0
  146.7938  139.0554  153.1639 C   0  0  0  0  0  0  0  0  0  0  0  0
  146.0079  137.8001  152.7626 C   0  0  1  0  0  0  0  0  0  0  0  0
  146.3490  137.3443  151.3307 C   0  0  0  0  0  0  0  0  0  0  0  0
  145.6286  136.0337  150.9952 C   0  0  0  0  0  0  0  0  0  0  0  0
  145.9283  134.9885  152.0749 C   0  0  0  0  0  0  0  0  0  0  0  0
  145.6193  135.5563  153.4691 C   0  0  0  0  0  0  0  0  0  0  0  0
  146.3530  136.7600  153.6757 O   0  0  0  0  0  0  0  0  0  0  0  0
  149.8766  141.8402  156.6060 C   0  0  0  0  0  0  0  0  0  0  0  0
  151.9241  142.2778  159.3550 H   0  0  0  0  0  0  0  0  0  0  0  0
  150.1808  142.4318  159.4780 H   0  0  0  0  0  0  0  0  0  0  0  0
  151.1080  143.6297  158.5922 H   0  0  0  0  0  0  0  0  0  0  0  0
  152.6169  140.3356  157.4860 H   0  0  0  0  0  0  0  0  0  0  0  0
  150.0552  140.7719  153.5729 H   0  0  0  0  0  0  0  0  0  0  0  0
  147.7092  141.4543  153.3256 H   0  0  0  0  0  0  0  0  0  0  0  0
  148.5418  142.6000  154.3599 H   0  0  0  0  0  0  0  0  0  0  0  0
  147.4644  141.4006  155.0690 H   0  0  0  0  0  0  0  0  0  0  0  0
  148.3039  138.9071  155.2275 H   0  0  0  0  0  0  0  0  0  0  0  0
  150.6564  138.2289  155.4781 H   0  0  0  0  0  0  0  0  0  0  0  0
  150.8953  138.2983  153.7344 H   0  0  0  0  0  0  0  0  0  0  0  0
  149.8211  137.0924  154.4387 H   0  0  0  0  0  0  0  0  0  0  0  0
  148.6535  139.3657  152.3875 H   0  0  0  0  0  0  0  0  0  0  0  0
  146.5236  139.3575  154.1767 H   0  0  0  0  0  0  0  0  0  0  0  0
  146.5371  139.8835  152.5020 H   0  0  0  0  0  0  0  0  0  0  0  0
  144.9383  138.0080  152.8320 H   0  0  0  0  0  0  0  0  0  0  0  0
  146.0719  138.1152  150.6110 H   0  0  0  0  0  0  0  0  0  0  0  0
  147.4263  137.2014  151.2359 H   0  0  0  0  0  0  0  0  0  0  0  0
  144.5532  136.2087  150.9409 H   0  0  0  0  0  0  0  0  0  0  0  0
  145.9376  135.6686  150.0155 H   0  0  0  0  0  0  0  0  0  0  0  0
  145.3462  134.0837  151.8970 H   0  0  0  0  0  0  0  0  0  0  0  0
  146.9790  134.7003  152.0245 H   0  0  0  0  0  0  0  0  0  0  0  0
  144.5510  135.7440  153.5861 H   0  0  0  0  0  0  0  0  0  0  0  0
  145.9018  134.8361  154.2372 H   0  0  0  0  0  0  0  0  0  0  0  0
  149.0089  142.4811  156.5529 H   0  0  0  0  0  0  0  0  0  0  0  0
  148.3929  137.8306  152.8967 H   0  0  0  0  0  0  0  0  0  0  0  0
  1  2  1  0  0  0  0
  1 19  1  0  0  0  0
  1 20  1  0  0  0  0
  1 21  1  0  0  0  0
  2 18  2  0  0  0  0
  2  3  1  0  0  0  0
  3  4  2  0  0  0  0
  3 22  1  0  0  0  0
  4  5  1  0  0  0  0
  5  6  1  0  0  0  0
  5 18  1  0  0  0  0
  6  7  1  0  0  0  0
  6  8  1  0  0  0  0
  6 23  1  0  0  0  0
  7 24  1  0  0  0  0
  7 25  1  0  0  0  0
  7 26  1  0  0  0  0
  8  9  1  0  0  0  0
  8 10  1  0  0  0  0
  8 27  1  0  0  0  0
  9 28  1  0  0  0  0
  9 29  1  0  0  0  0
  9 30  1  0  0  0  0
 10 11  1  0  0  0  0
 10 31  1  0  0  0  0
 10 44  1  0  0  0  0
 11 12  1  0  0  0  0
 11 32  1  0  0  0  0
 11 33  1  0  0  0  0
 12 17  1  0  0  0  0
 12 13  1  0  0  0  0
 12 34  1  0  0  0  0
 13 14  1  0  0  0  0
 13 35  1  0  0  0  0
 13 36  1  0  0  0  0
 14 15  1  0  0  0  0
 14 37  1  0  0  0  0
 14 38  1  0  0  0  0
 15 16  1  0  0  0  0
 15 39  1  0  0  0  0
 15 40  1  0  0  0  0
 16 17  1  0  0  0  0
 16 41  1  0  0  0  0
 16 42  1  0  0  0  0
 18 43  1  0  0  0  0
M  CHG  1  10   1
M  END
> <s_m_source_file>
AV-unprocessed.smi

> <i_m_source_file_index>
3249

> <i_lp_mmshare_version>
43012

> <i_f3d_flags>
0

> <s_epik_input>
W0NIM11jMVtjSF1ubihbY0hdMSlbQ0BIXShbQ0gzXSlbQ0BIXShbQ0gzXSlbTkhdW0NIMl1bQ0BASF0yW0NIMl1bQ0gyXVtDSDJdW0NIMl1PMg==

> <s_epik_cmdline>
J2VwaWtfcHl0aG9uJywgJy1waCcsICc3LjAnLCAnLXRuJywgJzgnLCAnLW1hJywgJzIwMCcsICctbWV0YWxfYmluZGluZycsICctaW1hZScsICc8aW5maWxlLm1hZT4nLCAnLW9tYWUnLCAnPG91dGZpbGUubWFlPic=

> <r_lp_tautomer_probability>
1

> <r_epik_Ionization_Penalty>
0.00659207

> <r_epik_Ionization_Penalty_Charging>
0.00656881

> <r_epik_Ionization_Penalty_Neutral>
2.32662e-05

> <r_epik_State_Penalty>
0.0048654

> <r_epik_Charging_Adjusted_Penalty>
0.0114342

> <i_epik_Tot_Q>
1

> <i_epik_Tot_abs_Q>
1

> <r_epik_Metal_State_Penalty>
-0

> <b_epik_Metal_Only>
0

> <s_lp_Force_Field>
OPLS_2005

> <r_lp_Energy>
18.8744

> <b_lp_Chiralities_Consistent>
1

> <s_lp_Variant>
AV-unprocessed.smi:3249-5

> <Gold.Version>
5.8.1

> <Gold.Id.Protein>
6NUR|6NUR_protein|mol2

> <Gold.PLP.Fitness>
43.7673

> <Gold.PLP.PLP>
-33.1192

> <Gold.PLP.part.hbond>
-2.0283

> <Gold.PLP.part.metal>
0.0000

> <Gold.PLP.part.buried>
-0.2398

> <Gold.PLP.part.nonpolar>
-31.4640

> <Gold.PLP.part.repulsive>
0.1724

> <Gold.PLP.ligand.clash>
0.0000

> <Gold.PLP.ligand.torsion>
0.7676

> <Gold.PLP.Chemscore.Hbond>
3.0000

> <Gold.PLP.Chemscore.CHOScore>
1.0000

> <Gold.PLP.Chemscore.Metal>
0.0000

> <Gold.Chemscore.Hbonds>
donor molecule, donor type, donor heavy atom, donor atom, acceptor molecule, acceptor atom, score
      L1  H    10    31       P1  7957  1.00
      L1  H    10    44       P1  7948  2.00
      L1  C    18    43       P1  8028  0.96

> <Gold.PLP.Chemscore.Internal.Correction>
0.1833

> <Gold.Rescore>
     Score         DG    S(hbond)    S(metal)    S(lipo)     H(rot)  DE(clash)    DE(int)     intcor
     15.14     -18.85       1.98        0.00      91.33       1.53       1.24       2.47       ----

> <Gold.Chemscore.Fitness>
15.1404

> <Gold.Chemscore.DG>
-18.8529

> <Gold.Chemscore.ZeroCoef>
-5.4800

> <Gold.Chemscore.Hbond>
1.9799

> <Gold.Chemscore.Metal>
0.0000

> <Gold.Chemscore.Lipo>
91.3256

> <Gold.Chemscore.Internal_Hbond>
0.0000

> <Gold.Chemscore.DEClash>
1.2440

> <Gold.Chemscore.DEInternal>
2.4686

> <Gold.Chemscore.Rot>
1.5333

> <Gold.Chemscore.Internal.Correction>
   9.000000E+99

> <Gold.Chemscore.Hbonds>
donor molecule, donor type, donor heavy atom, donor atom, acceptor molecule, acceptor atom, score
      L1  H    10    31       P1  7957  1.00
      L1  H    10    44       P1  7948  0.97

> <Gold.Chemscore.Hbond.Weighted>
-6.6130

> <Gold.Chemscore.Metal.Weighted>
-0.0000

> <Gold.Chemscore.Lipo.Weighted>
-10.6851

> <Gold.Chemscore.Internal_Hbond.Weighted>
0.0000

> <Gold.Chemscore.DEClash.Weighted>
1.2440

> <Gold.Chemscore.DEInternal.Weighted>
2.4686

> <Gold.Chemscore.Rot.Weighted>
3.9252

> <Gold.Chemscore.Internal.Correction.Weighted>
   9.000000E+99

> <Gold.Protein.RotatedTorsions>
[ 6907 6896 6895 6894 ] final  148.53 input  -60.11 | X-H torsion
[ 7974 7965 7964 7962 ] final   20.73 input  175.53 | X-H torsion
[ 8008 7997 7996 7995 ] final -143.59 input   59.86 | X-H torsion
[ 10167 10162 10161 10158 ] final  128.95 input  -65.29 | X-H torsion
[ 10718 10713 10712 10709 ] final   21.32 input   66.30 | X-H torsion
[ 10763 10752 10751 10750 ] final  105.46 input  -60.55 | X-H torsion
[ 11005 11000 10999 10996 ] final -171.43 input  -57.11 | X-H torsion

> <Gold.Protein.ActiveResidues>
 VAL166  LYS551  ARG553  GLY616  TRP617  ASP618  TYR619  PRO620  LYS621  CYS622 
 ASP623  PHE694  ASN695  SER759  ASP760  ASP761  ALA762  ILE779  LEU786  VAL792 
 PHE793  MET794  SER795  GLU796  ALA797  LYS798  CYS799  TRP800  GLU811  SER814 

> <Gold.Protein.RotatedAtoms>
  152.1402  133.4459  159.4762 H   0  0  0  0  0  0  0  0  0  0  0  0  # atno 6907 bound_to 6896
  150.6885  134.2314  159.4445 H   0  0  0  0  0  0  0  0  0  0  0  0  # atno 6908 bound_to 6896
  152.0204  134.9825  160.0621 H   0  0  0  0  0  0  0  0  0  0  0  0  # atno 6909 bound_to 6896
  146.2100  139.8128  142.8696 H   0  0  0  0  0  0  0  0  0  0  0  0  # atno 7974 bound_to 7965
  155.5131  140.0585  157.2920 H   0  0  0  0  0  0  0  0  0  0  0  0  # atno 8008 bound_to 7997
  154.4544  140.1965  156.0370 H   0  0  0  0  0  0  0  0  0  0  0  0  # atno 8009 bound_to 7997
  156.0770  140.3252  155.7650 H   0  0  0  0  0  0  0  0  0  0  0  0  # atno 8010 bound_to 7997
  139.5501  144.6806  151.4349 H   0  0  0  0  0  0  0  0  0  0  0  0  # atno 10167 bound_to 10162
  157.1368  130.6615  149.5968 H   0  0  0  0  0  0  0  0  0  0  0  0  # atno 10718 bound_to 10713
  153.3796  135.3909  155.1847 H   0  0  0  0  0  0  0  0  0  0  0  0  # atno 10763 bound_to 10752
  154.8706  135.3722  154.4874 H   0  0  0  0  0  0  0  0  0  0  0  0  # atno 10764 bound_to 10752
  153.5349  135.7085  153.5726 H   0  0  0  0  0  0  0  0  0  0  0  0  # atno 10765 bound_to 10752
  140.5083  134.5826  157.5010 H   0  0  0  0  0  0  0  0  0  0  0  0  # atno 11005 bound_to 11000
  145.3178  141.0236  143.3517 LP  0  0  0  0  0  0  0  0  0  0  0  0  # atno 17320 bound_to 7965
  144.8889  139.4802  143.6687 LP  0  0  0  0  0  0  0  0  0  0  0  0  # atno 17321 bound_to 7965
  140.6762  143.8185  150.7061 LP  0  0  0  0  0  0  0  0  0  0  0  0  # atno 17342 bound_to 10162
  140.1624  143.4264  152.2057 LP  0  0  0  0  0  0  0  0  0  0  0  0  # atno 17343 bound_to 10162
  155.9796  130.4791  150.6728 LP  0  0  0  0  0  0  0  0  0  0  0  0  # atno 17370 bound_to 10713
  157.4343  131.0853  151.1007 LP  0  0  0  0  0  0  0  0  0  0  0  0  # atno 17371 bound_to 10713
  139.9673  134.7351  156.0112 LP  0  0  0  0  0  0  0  0  0  0  0  0  # atno 17394 bound_to 11000
  141.1399  133.6567  156.3699 LP  0  0  0  0  0  0  0  0  0  0  0  0  # atno 17395 bound_to 11000

$$$$
