AV-unprocessed.smi:1049|AV-procd|sdf|4608|dock9
  -GOLD-   22720 3103D 1   1.00000     0.00000
 Structure written by MMmdl.
 40 41  0  0  0  0  0  0  0  0  1 V2000
  151.8297  145.8484  160.1417 C   0  0  0  0  0  0  0  0  0  0  0  0
  151.8978  144.3233  160.2990 C   0  0  2  0  0  0  0  0  0  0  0  0
  152.3761  143.9199  161.7117 C   0  0  0  0  0  0  0  0  0  0  0  0
  152.5848  142.3990  161.8425 C   0  0  0  0  0  0  0  0  0  0  0  0
  153.4597  141.8677  160.6939 C   0  0  0  0  0  0  0  0  0  0  0  0
  152.8218  142.2259  159.4151 N   0  0  0  0  0  0  0  0  0  0  0  0
  152.1030  141.3896  158.6241 C   0  0  0  0  0  0  0  0  0  0  0  0
  151.6671  140.3027  159.0062 O   0  0  0  0  0  0  0  0  0  0  0  0
  151.8837  141.8490  157.3819 N   0  0  0  0  0  0  0  0  0  0  0  0
  151.2342  141.1089  156.3060 C   0  0  0  0  0  0  0  0  0  0  0  0
  149.6983  141.1066  156.4395 C   0  0  0  0  0  0  0  0  0  0  0  0
  148.9866  140.6353  155.2033 C   0  0  0  0  0  0  0  0  0  0  0  0
  148.0277  141.3357  154.6043 N   0  0  0  0  0  0  0  0  0  0  0  0
  147.6578  140.5689  153.5061 C   0  0  0  0  0  0  0  0  0  0  0  0
  148.4010  139.4146  153.4870 C   0  0  0  0  0  0  0  0  0  0  0  0
  149.2373  139.4562  154.5972 N   0  0  0  0  0  0  0  0  0  0  0  0
  150.1913  138.4311  154.9896 C   0  0  0  0  0  0  0  0  0  0  0  0
  149.5713  137.2703  155.2032 F   0  0  0  0  0  0  0  0  0  0  0  0
  151.1123  138.2748  154.0412 F   0  0  0  0  0  0  0  0  0  0  0  0
  152.8010  143.6816  159.2234 C   0  0  0  0  0  0  0  0  0  0  0  0
  152.8156  146.3022  160.2469 H   0  0  0  0  0  0  0  0  0  0  0  0
  151.1762  146.2919  160.8934 H   0  0  0  0  0  0  0  0  0  0  0  0
  151.4390  146.1242  159.1619 H   0  0  0  0  0  0  0  0  0  0  0  0
  150.8873  143.9360  160.1635 H   0  0  0  0  0  0  0  0  0  0  0  0
  153.3193  144.4229  161.9292 H   0  0  0  0  0  0  0  0  0  0  0  0
  151.6648  144.2627  162.4638 H   0  0  0  0  0  0  0  0  0  0  0  0
  153.0441  142.1673  162.8037 H   0  0  0  0  0  0  0  0  0  0  0  0
  151.6191  141.8920  161.8316 H   0  0  0  0  0  0  0  0  0  0  0  0
  154.4501  142.3229  160.7400 H   0  0  0  0  0  0  0  0  0  0  0  0
  153.6295  140.7990  160.8229 H   0  0  0  0  0  0  0  0  0  0  0  0
  152.2525  142.7589  157.1464 H   0  0  0  0  0  0  0  0  0  0  0  0
  151.5366  141.4921  155.3302 H   0  0  0  0  0  0  0  0  0  0  0  0
  151.6007  140.0834  156.3590 H   0  0  0  0  0  0  0  0  0  0  0  0
  149.4205  140.4817  157.2871 H   0  0  0  0  0  0  0  0  0  0  0  0
  149.3485  142.1109  156.6794 H   0  0  0  0  0  0  0  0  0  0  0  0
  146.8943  140.9048  152.8199 H   0  0  0  0  0  0  0  0  0  0  0  0
  148.3956  138.5844  152.7962 H   0  0  0  0  0  0  0  0  0  0  0  0
  150.6893  138.7105  155.9180 H   0  0  0  0  0  0  0  0  0  0  0  0
  152.4586  143.9614  158.2258 H   0  0  0  0  0  0  0  0  0  0  0  0
  153.8177  144.0698  159.3030 H   0  0  0  0  0  0  0  0  0  0  0  0
  1  2  1  0  0  0  0
  1 21  1  0  0  0  0
  1 22  1  0  0  0  0
  1 23  1  0  0  0  0
  2 20  1  0  0  0  0
  2  3  1  0  0  0  0
  2 24  1  0  0  0  0
  3  4  1  0  0  0  0
  3 25  1  0  0  0  0
  3 26  1  0  0  0  0
  4  5  1  0  0  0  0
  4 27  1  0  0  0  0
  4 28  1  0  0  0  0
  5  6  1  0  0  0  0
  5 29  1  0  0  0  0
  5 30  1  0  0  0  0
  6  7  1  0  0  0  0
  6 20  1  0  0  0  0
  7  8  2  0  0  0  0
  7  9  1  0  0  0  0
  9 10  1  0  0  0  0
  9 31  1  0  0  0  0
 10 11  1  0  0  0  0
 10 32  1  0  0  0  0
 10 33  1  0  0  0  0
 11 12  1  0  0  0  0
 11 34  1  0  0  0  0
 11 35  1  0  0  0  0
 12 16  1  0  0  0  0
 12 13  2  0  0  0  0
 13 14  1  0  0  0  0
 14 15  2  0  0  0  0
 14 36  1  0  0  0  0
 15 16  1  0  0  0  0
 15 37  1  0  0  0  0
 16 17  1  0  0  0  0
 17 18  1  0  0  0  0
 17 19  1  0  0  0  0
 17 38  1  0  0  0  0
 20 39  1  0  0  0  0
 20 40  1  0  0  0  0
M  END
> <s_m_source_file>
AV-unprocessed.smi

> <i_m_source_file_index>
1049

> <i_lp_mmshare_version>
43012

> <i_f3d_flags>
0

> <s_epik_input>
W0NIM11bQ0BASF0xW0NIMl1bQ0gyXVtDSDJdTihbQ0gyXTEpQyg9TylbTkhdW0NIMl1bQ0gyXWMybltjSF1bY0hdbjJbQ0hdKEYpRg==

> <s_epik_cmdline>
J2VwaWtfcHl0aG9uJywgJy1waCcsICc3LjAnLCAnLXRuJywgJzgnLCAnLW1hJywgJzIwMCcsICctbWV0YWxfYmluZGluZycsICctaW1hZScsICc8aW5maWxlLm1hZT4nLCAnLW9tYWUnLCAnPG91dGZpbGUubWFlPic=

> <r_lp_tautomer_probability>
1

> <r_epik_Ionization_Penalty>
0.101141

> <r_epik_Ionization_Penalty_Charging>
0.101077

> <r_epik_Ionization_Penalty_Neutral>
6.38597e-05

> <r_epik_State_Penalty>
0.091079

> <r_epik_Charging_Adjusted_Penalty>
0.192156

> <i_epik_Tot_Q>
0

> <i_epik_Tot_abs_Q>
0

> <r_epik_Metal_State_Penalty>
0.0777008

> <b_epik_Metal_Only>
0

> <s_lp_Force_Field>
OPLS_2005

> <r_lp_Energy>
32.1831

> <b_lp_Chiralities_Consistent>
1

> <s_lp_Variant>
AV-unprocessed.smi:1049-1

> <Gold.Version>
5.8.1

> <Gold.Id.Protein>
6NUR|6NUR_protein|mol2

> <Gold.PLP.Fitness>
46.2732

> <Gold.PLP.PLP>
-43.6434

> <Gold.PLP.part.hbond>
0.0000

> <Gold.PLP.part.metal>
0.0000

> <Gold.PLP.part.buried>
0.5597

> <Gold.PLP.part.nonpolar>
-43.5072

> <Gold.PLP.part.repulsive>
0.2139

> <Gold.PLP.ligand.clash>
0.0000

> <Gold.PLP.ligand.torsion>
0.4479

> <Gold.PLP.Chemscore.Hbond>
0.0000

> <Gold.PLP.Chemscore.CHOScore>
1.1512

> <Gold.PLP.Chemscore.Metal>
0.0000

> <Gold.Chemscore.Hbonds>
donor molecule, donor type, donor heavy atom, donor atom, acceptor molecule, acceptor atom, score
      L1  C    15    37       P1  7948  0.91
      L1  C    15    37       P1  7957  0.18

> <Gold.PLP.Chemscore.Internal.Correction>
0.0721

> <Gold.Rescore>
     Score         DG    S(hbond)    S(metal)    S(lipo)     H(rot)  DE(clash)    DE(int)     intcor
     12.57     -13.36       0.00        0.00     101.57       1.56       0.42       0.37       ----

> <Gold.Chemscore.Fitness>
12.5711

> <Gold.Chemscore.DG>
-13.3628

> <Gold.Chemscore.ZeroCoef>
-5.4800

> <Gold.Chemscore.Hbond>
0.0000

> <Gold.Chemscore.Metal>
0.0000

> <Gold.Chemscore.Lipo>
101.5650

> <Gold.Chemscore.Internal_Hbond>
0.0000

> <Gold.Chemscore.DEClash>
0.4246

> <Gold.Chemscore.DEInternal>
0.3670

> <Gold.Chemscore.Rot>
1.5626

> <Gold.Chemscore.Internal.Correction>
   9.000000E+99

> <Gold.Chemscore.Hbond.Weighted>
-0.0000

> <Gold.Chemscore.Metal.Weighted>
-0.0000

> <Gold.Chemscore.Lipo.Weighted>
-11.8831

> <Gold.Chemscore.Internal_Hbond.Weighted>
0.0000

> <Gold.Chemscore.DEClash.Weighted>
0.4246

> <Gold.Chemscore.DEInternal.Weighted>
0.3670

> <Gold.Chemscore.Rot.Weighted>
4.0004

> <Gold.Chemscore.Internal.Correction.Weighted>
   9.000000E+99

> <Gold.Protein.RotatedTorsions>
[ 6907 6896 6895 6894 ] final -144.71 input  -60.11 | X-H torsion
[ 7974 7965 7964 7962 ] final    5.74 input  175.53 | X-H torsion
[ 8008 7997 7996 7995 ] final   56.90 input   59.86 | X-H torsion
[ 10167 10162 10161 10158 ] final -109.25 input  -65.29 | X-H torsion
[ 10718 10713 10712 10709 ] final  -61.00 input   66.30 | X-H torsion
[ 10763 10752 10751 10750 ] final -139.95 input  -60.55 | X-H torsion
[ 11005 11000 10999 10996 ] final  179.69 input  -57.11 | X-H torsion

> <Gold.Protein.ActiveResidues>
 VAL166  LYS551  ARG553  GLY616  TRP617  ASP618  TYR619  PRO620  LYS621  CYS622 
 ASP623  PHE694  ASN695  SER759  ASP760  ASP761  ALA762  ILE779  LEU786  VAL792 
 PHE793  MET794  SER795  GLU796  ALA797  LYS798  CYS799  TRP800  GLU811  SER814 

> <Gold.Protein.RotatedAtoms>
  151.1177  133.5126  159.2602 H   0  0  0  0  0  0  0  0  0  0  0  0  # atno 6907 bound_to 6896
  151.1896  135.0396  159.8837 H   0  0  0  0  0  0  0  0  0  0  0  0  # atno 6908 bound_to 6896
  152.5454  134.1019  159.8375 H   0  0  0  0  0  0  0  0  0  0  0  0  # atno 6909 bound_to 6896
  146.2439  140.0338  142.8387 H   0  0  0  0  0  0  0  0  0  0  0  0  # atno 7974 bound_to 7965
  155.5250  140.3480  155.4414 H   0  0  0  0  0  0  0  0  0  0  0  0  # atno 8008 bound_to 7997
  156.0758  140.1374  156.9800 H   0  0  0  0  0  0  0  0  0  0  0  0  # atno 8009 bound_to 7997
  154.4552  140.0956  156.6713 H   0  0  0  0  0  0  0  0  0  0  0  0  # atno 8010 bound_to 7997
  140.1573  143.4149  152.1451 H   0  0  0  0  0  0  0  0  0  0  0  0  # atno 10167 bound_to 10162
  156.0952  130.4194  150.0932 H   0  0  0  0  0  0  0  0  0  0  0  0  # atno 10718 bound_to 10713
  154.8594  135.3567  154.5628 H   0  0  0  0  0  0  0  0  0  0  0  0  # atno 10763 bound_to 10752
  153.6243  135.7005  153.5303 H   0  0  0  0  0  0  0  0  0  0  0  0  # atno 10764 bound_to 10752
  153.3102  135.4180  155.1289 H   0  0  0  0  0  0  0  0  0  0  0  0  # atno 10765 bound_to 10752
  140.4089  134.6709  157.4603 H   0  0  0  0  0  0  0  0  0  0  0  0  # atno 11005 bound_to 11000
  145.1131  140.9417  143.4645 LP  0  0  0  0  0  0  0  0  0  0  0  0  # atno 17320 bound_to 7965
  145.0556  139.3146  143.5906 LP  0  0  0  0  0  0  0  0  0  0  0  0  # atno 17321 bound_to 7965
  139.5397  144.7245  151.4774 LP  0  0  0  0  0  0  0  0  0  0  0  0  # atno 17342 bound_to 10162
  140.6665  143.8387  150.6948 LP  0  0  0  0  0  0  0  0  0  0  0  0  # atno 17343 bound_to 10162
  156.8933  130.9596  151.3586 LP  0  0  0  0  0  0  0  0  0  0  0  0  # atno 17370 bound_to 10713
  157.6111  130.8583  149.8953 LP  0  0  0  0  0  0  0  0  0  0  0  0  # atno 17371 bound_to 10713
  140.0282  134.6446  155.9144 LP  0  0  0  0  0  0  0  0  0  0  0  0  # atno 17394 bound_to 11000
  141.1828  133.6550  156.5093 LP  0  0  0  0  0  0  0  0  0  0  0  0  # atno 17395 bound_to 11000

$$$$
