#       Name:                AV-unprocessed.smi:2314
#       Creating user name   scv26
#       Creation time:       Fri Mar 27 12:49:11 2020


#       File generated by GOLD software.
#

@<TRIPOS>MOLECULE
AV-unprocessed.smi:2314
    42    43     1
SMALL
NO_CHARGES


@<TRIPOS>ATOM
      1 ****        -4.3189  -2.7087   1.2734 C.3            1 S1                 0.0000
      2 ****        -3.6098  -1.5147   0.6092 C.3            1 S1                 0.0000
      3 ****        -3.9973  -1.3637  -0.8703 C.3            1 S1                 0.0000
      4 ****        -2.1490  -1.5780   0.7510 N.am           1 S1                 0.0000
      5 ****        -1.4210  -2.8366   0.7686 C.3            1 S1                 0.0000
      6 ****         0.0449  -2.4359   0.5770 C.3            1 S1                 0.0000
      7 ****         0.1332  -0.9564   0.9842 C.3            1 S1                 0.0000
      8 ****         0.9977  -0.2274   0.0579 N.am           1 S1                 0.0000
      9 ****         1.6438   0.9126   0.3434 C.2            1 S1                 0.0000
     10 ****         1.6002   1.4562   1.4467 O.2            1 S1                 0.0000
     11 ****         2.3385   1.3549  -0.7191 N.am           1 S1                 0.0000
     12 ****         3.1499   2.5170  -0.8391 C.ar           1 S1                 0.0000
     13 ****         3.0930   3.6270   0.0390 C.ar           1 S1                 0.0000
     14 ****         3.9454   4.7233  -0.2022 C.ar           1 S1                 0.0000
     15 ****         4.8136   4.7787  -1.2342 N.ar           1 S1                 0.0000
     16 ****         4.8560   3.7250  -2.0767 C.ar           1 S1                 0.0000
     17 ****         4.0478   2.5802  -1.9259 C.ar           1 S1                 0.0000
     18 ****         4.1389   1.5582  -2.8112 F              1 S1                 0.0000
     19 ****        -1.3260  -0.5237   0.8368 C.2            1 S1                 0.0000
     20 ****        -1.6718   0.6579   0.8180 O.2            1 S1                 0.0000
     21 ****        -5.4012  -2.5827   1.2400 H              1 S1                 0.0000
     22 ****        -4.0339  -2.8016   2.3220 H              1 S1                 0.0000
     23 ****        -4.0861  -3.6500   0.7749 H              1 S1                 0.0000
     24 ****        -3.9560  -0.6211   1.1318 H              1 S1                 0.0000
     25 ****        -5.0771  -1.2662  -0.9842 H              1 S1                 0.0000
     26 ****        -3.6780  -2.2281  -1.4535 H              1 S1                 0.0000
     27 ****        -3.5403  -0.4768  -1.3110 H              1 S1                 0.0000
     28 ****        -1.5641  -3.3254   1.7333 H              1 S1                 0.0000
     29 ****        -1.7586  -3.5136  -0.0170 H              1 S1                 0.0000
     30 ****         0.7186  -3.0626   1.1624 H              1 S1                 0.0000
     31 ****         0.3146  -2.5664  -0.4728 H              1 S1                 0.0000
     32 ****         0.4460  -0.8519   2.0246 H              1 S1                 0.0000
     33 ****         1.0894  -0.6074  -0.8726 H              1 S1                 0.0000
     34 ****         2.3248   0.7594  -1.5342 H              1 S1                 0.0000
     35 ****         2.4149   3.6688   0.8767 H              1 S1                 0.0000
     36 ****         3.9244   5.5834   0.4507 H              1 S1                 0.0000
     37 ****         5.5544   3.7964  -2.8974 H              1 S1                 0.0000
     38 ****         1.0630   1.0475   2.1846 LP             1 S1                 0.0000
     39 ****         2.1019   2.3066   1.6053 LP             1 S1                 0.0000
     40 ****         5.4053   5.5734  -1.3700 LP             1 S1                 0.0000
     41 ****        -2.6397   0.8943   0.7328 LP             1 S1                 0.0000
     42 ****        -0.9848   1.3811   0.8880 LP             1 S1                 0.0000
@<TRIPOS>BOND
    1    1    2 1     
    2    1   21 1     
    3    1   22 1     
    4    1   23 1     
    5    2    3 1     
    6    2    4 1     
    7    2   24 1     
    8    3   25 1     
    9    3   26 1     
   10    3   27 1     
   11    4   19 am    
   12    4    5 1     
   13    5    6 1     
   14    5   28 1     
   15    5   29 1     
   16    6    7 1     
   17    6   30 1     
   18    6   31 1     
   19    7    8 1     
   20    7   19 1     
   21    7   32 1     
   22    8    9 am    
   23    8   33 1     
   24    9   10 2     
   25    9   11 am    
   26   11   12 1     
   27   11   34 1     
   28   12   17 ar    
   29   12   13 ar    
   30   13   14 ar    
   31   13   35 1     
   32   14   15 ar    
   33   14   36 1     
   34   15   16 ar    
   35   16   17 ar    
   36   16   37 1     
   37   17   18 1     
   38   19   20 2     
   39   10   38 1     
   40   10   39 1     
   41   15   40 1     
   42   20   41 1     
   43   20   42 1     
@<TRIPOS>SUBSTRUCTURE
      1 S1             1
@<TRIPOS>SET
LONE_PAIRS      STATIC     ATOMS    <user>   **** ""
5 38 39 40 41 42
DONOR_HYDROGENS      STATIC     ATOMS    <user>   **** ""
2 33 34
ATOM$BLUE        STATIC     ATOMS    COLORGROUP SYSTEM
5 38 39 40 41 42
ATOM$RED        STATIC     ATOMS    COLORGROUP SYSTEM
2 33 34
