#       Name:                AV-unprocessed.smi:1047
#       Creating user name   scv26
#       Creation time:       Fri Mar 27 03:09:09 2020


#       File generated by GOLD software.
#

@<TRIPOS>MOLECULE
AV-unprocessed.smi:1047
    62    64     1
SMALL
NO_CHARGES


@<TRIPOS>ATOM
      1 ****        -4.1023   6.2783   1.3536 C.3            1 S1                 0.0000
      2 ****        -3.2443   5.0102   1.2426 C.3            1 S1                 0.0000
      3 ****        -3.6568   4.1421   0.1119 N.4            1 S1                 1.0000
      4 ****        -3.2757   4.6777  -1.2185 C.3            1 S1                 0.0000
      5 ****        -3.7796   3.7489  -2.3360 C.3            1 S1                 0.0000
      6 ****        -3.2607   2.4386  -2.1467 O.3            1 S1                 0.0000
      7 ****        -3.6658   1.8723  -0.9050 C.3            1 S1                 0.0000
      8 ****        -3.1766   0.4155  -0.8381 C.3            1 S1                 0.0000
      9 ****        -1.7185   0.3279  -0.8377 N.3            1 S1                 0.0000
     10 ****        -1.2163  -1.0417  -0.7964 C.3            1 S1                 0.0000
     11 ****         0.3207  -1.0750  -0.8495 C.3            1 S1                 0.0000
     12 ****         0.8211  -0.7724   0.4383 O.3            1 S1                 0.0000
     13 ****         0.8441  -2.4562  -1.2893 C.3            1 S1                 0.0000
     14 ****         2.3113  -2.5116  -1.3708 N.pl3          1 S1                 0.0000
     15 ****         3.1378  -2.1199  -2.3784 C.2            1 S1                 0.0000
     16 ****         4.4160  -2.3753  -1.9847 N.pl3          1 S1                 1.0000
     17 ****         4.4064  -2.9373  -0.7066 C.ar           1 S1                 0.0000
     18 ****         5.4498  -3.3629   0.1067 C.ar           1 S1                 0.0000
     19 ****         5.1074  -3.8942   1.3705 C.ar           1 S1                 0.0000
     20 ****         6.2245  -4.3713   2.2832 C.3            1 S1                 0.0000
     21 ****         3.7524  -3.9810   1.7826 C.ar           1 S1                 0.0000
     22 ****         3.3956  -4.5461   3.1470 C.3            1 S1                 0.0000
     23 ****         2.7055  -3.5446   0.9394 C.ar           1 S1                 0.0000
     24 ****         3.0594  -3.0263  -0.3045 C.ar           1 S1                 0.0000
     25 ****        -3.1721   2.7500   0.2650 C.3            1 S1                 0.0000
     26 ****        -3.8306   6.8471   2.2431 H              1 S1                 0.0000
     27 ****        -5.1614   6.0313   1.4316 H              1 S1                 0.0000
     28 ****        -3.9714   6.9384   0.4967 H              1 S1                 0.0000
     29 ****        -2.1872   5.2656   1.1546 H              1 S1                 0.0000
     30 ****        -3.3507   4.4539   2.1750 H              1 S1                 0.0000
     31 ****        -3.6965   5.6721  -1.3643 H              1 S1                 0.0000
     32 ****        -2.1907   4.7774  -1.2784 H              1 S1                 0.0000
     33 ****        -4.8703   3.7217  -2.3570 H              1 S1                 0.0000
     34 ****        -3.4525   4.1189  -3.3078 H              1 S1                 0.0000
     35 ****        -4.7569   1.8475  -0.8855 H              1 S1                 0.0000
     36 ****        -3.5741  -0.0581   0.0604 H              1 S1                 0.0000
     37 ****        -3.5829  -0.1384  -1.6852 H              1 S1                 0.0000
     38 ****        -1.3465   0.8049  -1.6529 H              1 S1                 0.0000
     39 ****        -1.5821  -1.5642   0.0887 H              1 S1                 0.0000
     40 ****        -1.6104  -1.5838  -1.6571 H              1 S1                 0.0000
     41 ****         0.6865  -0.3236  -1.5511 H              1 S1                 0.0000
     42 ****         0.4566  -1.3880   1.0554 H              1 S1                 0.0000
     43 ****         0.4857  -3.2472  -0.6302 H              1 S1                 0.0000
     44 ****         0.4634  -2.6948  -2.2834 H              1 S1                 0.0000
     45 ****         2.8350  -1.6851  -3.3202 H              1 S1                 0.0000
     46 ****         6.4790  -3.2905  -0.2130 H              1 S1                 0.0000
     47 ****         6.0944  -5.4252   2.5304 H              1 S1                 0.0000
     48 ****         6.2348  -3.7962   3.2095 H              1 S1                 0.0000
     49 ****         7.2007  -4.2597   1.8102 H              1 S1                 0.0000
     50 ****         2.3187  -4.5274   3.3177 H              1 S1                 0.0000
     51 ****         3.8675  -3.9629   3.9383 H              1 S1                 0.0000
     52 ****         3.7290  -5.5804   3.2328 H              1 S1                 0.0000
     53 ****         1.6757  -3.6095   1.2571 H              1 S1                 0.0000
     54 ****        -2.0819   2.7572   0.3108 H              1 S1                 0.0000
     55 ****        -3.5296   2.3366   1.2091 H              1 S1                 0.0000
     56 ****        -4.6655   4.0953   0.1353 H              1 S1                 0.0000
     57 ****         5.2329  -2.1783  -2.5486 H              1 S1                 0.0000
     58 ****        -2.2619   2.4816  -2.1702 LP             1 S1                 0.0000
     59 ****        -3.5867   1.8531  -2.8890 LP             1 S1                 0.0000
     60 ****        -1.4066   0.7710   0.0027 LP             1 S1                 0.0000
     61 ****         0.5555   0.1574   0.6931 LP             1 S1                 0.0000
     62 ****         1.8184  -0.8460   0.4381 LP             1 S1                 0.0000
@<TRIPOS>BOND
    1    1    2 1     
    2    1   26 1     
    3    1   27 1     
    4    1   28 1     
    5    2    3 1     
    6    2   29 1     
    7    2   30 1     
    8    3   25 1     
    9    3    4 1     
   10    3   56 1     
   11    4    5 1     
   12    4   31 1     
   13    4   32 1     
   14    5    6 1     
   15    5   33 1     
   16    5   34 1     
   17    6    7 1     
   18    7    8 1     
   19    7   25 1     
   20    7   35 1     
   21    8    9 1     
   22    8   36 1     
   23    8   37 1     
   24    9   10 1     
   25    9   38 1     
   26   10   11 1     
   27   10   39 1     
   28   10   40 1     
   29   11   12 1     
   30   11   13 1     
   31   11   41 1     
   32   12   42 1     
   33   13   14 1     
   34   13   43 1     
   35   13   44 1     
   36   14   24 1     
   37   14   15 1     
   38   15   16 2     
   39   15   45 1     
   40   16   17 1     
   41   16   57 1     
   42   17   24 ar    
   43   17   18 ar    
   44   18   19 ar    
   45   18   46 1     
   46   19   20 1     
   47   19   21 ar    
   48   20   47 1     
   49   20   48 1     
   50   20   49 1     
   51   21   22 1     
   52   21   23 ar    
   53   22   50 1     
   54   22   51 1     
   55   22   52 1     
   56   23   24 ar    
   57   23   53 1     
   58   25   54 1     
   59   25   55 1     
   60    6   58 1     
   61    6   59 1     
   62    9   60 1     
   63   12   61 1     
   64   12   62 1     
@<TRIPOS>SUBSTRUCTURE
      1 S1             1
@<TRIPOS>SET
LONE_PAIRS      STATIC     ATOMS    <user>   **** ""
5 58 59 60 61 62
DONOR_HYDROGENS      STATIC     ATOMS    <user>   **** ""
4 56 38 42 57
ATOM$BLUE        STATIC     ATOMS    COLORGROUP SYSTEM
5 58 59 60 61 62
ATOM$RED        STATIC     ATOMS    COLORGROUP SYSTEM
4 56 38 42 57
