AV-unprocessed.smi:1420|AV-procd|sdf|5789|dock1
  -GOLD-   22720 5433D 1   1.00000     0.00000
 Structure written by MMmdl.
 39 40  0  0  0  0  0  0  0  0  2 V2000
  148.7571  135.8924  156.6887 C   0  0  0  0  0  0  0  0  0  0  0  0
  148.6631  135.8996  155.1443 C   0  0  1  0  0  0  0  0  0  0  0  0
  147.1737  135.8548  154.6961 C   0  0  0  0  0  0  0  0  0  0  0  0
  147.0147  135.4553  153.3020 N   0  0  0  0  0  0  0  0  0  0  0  0
  145.8428  135.1925  152.7029 C   0  0  0  0  0  0  0  0  0  0  0  0
  144.7634  135.1922  153.2942 O   0  0  0  0  0  0  0  0  0  0  0  0
  145.8961  134.9126  151.2012 C   0  0  0  0  0  0  0  0  0  0  0  0
  145.2420  133.6538  150.8904 N   0  0  0  0  0  0  0  0  0  0  0  0
  145.8158  132.4118  150.7145 C   0  0  0  0  0  0  0  0  0  0  0  0
  144.8051  131.5299  150.4585 C   0  0  0  0  0  0  0  0  0  0  0  0
  143.6336  132.3367  150.4985 C   0  0  0  0  0  0  0  0  0  0  0  0
  143.8976  133.6068  150.7596 N   0  0  0  0  0  0  0  0  0  0  0  0
  149.4263  137.0614  154.5796 N   0  3  0  0  0  0  0  0  0  0  0  0
  148.8594  138.3749  154.9929 C   0  0  0  0  0  0  0  0  0  0  0  0
  149.6148  139.5399  154.3334 C   0  0  0  0  0  0  0  0  0  0  0  0
  150.9890  139.4680  154.6804 O   0  0  0  0  0  0  0  0  0  0  0  0
  151.5816  138.2704  154.2016 C   0  0  0  0  0  0  0  0  0  0  0  0
  150.8930  137.0509  154.8391 C   0  0  0  0  0  0  0  0  0  0  0  0
  148.2372  135.0392  157.1245 H   0  0  0  0  0  0  0  0  0  0  0  0
  148.3161  136.7951  157.1126 H   0  0  0  0  0  0  0  0  0  0  0  0
  149.7817  135.8239  157.0488 H   0  0  0  0  0  0  0  0  0  0  0  0
  149.1383  134.9907  154.7712 H   0  0  0  0  0  0  0  0  0  0  0  0
  146.6174  135.1478  155.3125 H   0  0  0  0  0  0  0  0  0  0  0  0
  146.6896  136.8252  154.8120 H   0  0  0  0  0  0  0  0  0  0  0  0
  147.8500  135.4314  152.7343 H   0  0  0  0  0  0  0  0  0  0  0  0
  145.4160  135.7220  150.6485 H   0  0  0  0  0  0  0  0  0  0  0  0
  146.9328  134.8630  150.8651 H   0  0  0  0  0  0  0  0  0  0  0  0
  146.8828  132.2610  150.7890 H   0  0  0  0  0  0  0  0  0  0  0  0
  144.8899  130.4695  150.2715 H   0  0  0  0  0  0  0  0  0  0  0  0
  142.6062  132.0388  150.3486 H   0  0  0  0  0  0  0  0  0  0  0  0
  147.8086  138.4548  154.7219 H   0  0  0  0  0  0  0  0  0  0  0  0
  148.9141  138.4708  156.0784 H   0  0  0  0  0  0  0  0  0  0  0  0
  149.4945  139.5216  153.2488 H   0  0  0  0  0  0  0  0  0  0  0  0
  149.2136  140.4919  154.6817 H   0  0  0  0  0  0  0  0  0  0  0  0
  151.5173  138.2287  153.1130 H   0  0  0  0  0  0  0  0  0  0  0  0
  152.6417  138.2765  154.4559 H   0  0  0  0  0  0  0  0  0  0  0  0
  151.0752  137.0360  155.9148 H   0  0  0  0  0  0  0  0  0  0  0  0
  151.3569  136.1617  154.4135 H   0  0  0  0  0  0  0  0  0  0  0  0
  149.3260  137.0022  153.5762 H   0  0  0  0  0  0  0  0  0  0  0  0
  1  2  1  0  0  0  0
  1 19  1  0  0  0  0
  1 20  1  0  0  0  0
  1 21  1  0  0  0  0
  2  3  1  0  0  0  0
  2 13  1  0  0  0  0
  2 22  1  0  0  0  0
  3  4  1  0  0  0  0
  3 23  1  0  0  0  0
  3 24  1  0  0  0  0
  4  5  1  0  0  0  0
  4 25  1  0  0  0  0
  5  6  2  0  0  0  0
  5  7  1  0  0  0  0
  7  8  1  0  0  0  0
  7 26  1  0  0  0  0
  7 27  1  0  0  0  0
  8 12  1  0  0  0  0
  8  9  1  0  0  0  0
  9 10  2  0  0  0  0
  9 28  1  0  0  0  0
 10 11  1  0  0  0  0
 10 29  1  0  0  0  0
 11 12  2  0  0  0  0
 11 30  1  0  0  0  0
 13 18  1  0  0  0  0
 13 14  1  0  0  0  0
 13 39  1  0  0  0  0
 14 15  1  0  0  0  0
 14 31  1  0  0  0  0
 14 32  1  0  0  0  0
 15 16  1  0  0  0  0
 15 33  1  0  0  0  0
 15 34  1  0  0  0  0
 16 17  1  0  0  0  0
 17 18  1  0  0  0  0
 17 35  1  0  0  0  0
 17 36  1  0  0  0  0
 18 37  1  0  0  0  0
 18 38  1  0  0  0  0
M  CHG  1  13   1
M  END
> <s_m_source_file>
AV-unprocessed.smi

> <i_m_source_file_index>
1420

> <i_lp_mmshare_version>
43012

> <i_f3d_flags>
0

> <s_epik_input>
W0NIMl0xW0NIMl1PW0NIMl1bQ0gyXU4xW0NASF0oW0NIM10pW0NIMl1bTkhdQyg9TylbQ0gyXW4yW2NIXVtjSF1bY0hdbjI=

> <s_epik_cmdline>
J2VwaWtfcHl0aG9uJywgJy1waCcsICc3LjAnLCAnLXRuJywgJzgnLCAnLW1hJywgJzIwMCcsICctbWV0YWxfYmluZGluZycsICctaW1hZScsICc8aW5maWxlLm1hZT4nLCAnLW9tYWUnLCAnPG91dGZpbGUubWFlPic=

> <r_lp_tautomer_probability>
1

> <r_epik_Ionization_Penalty>
0.748405

> <r_epik_Ionization_Penalty_Charging>
0.748396

> <r_epik_Ionization_Penalty_Neutral>
8.56978e-06

> <r_epik_State_Penalty>
0.775162

> <r_epik_Charging_Adjusted_Penalty>
1.52356

> <i_epik_Tot_Q>
1

> <i_epik_Tot_abs_Q>
1

> <r_epik_Metal_State_Penalty>
0.775167

> <b_epik_Metal_Only>
0

> <s_lp_Force_Field>
OPLS_2005

> <r_lp_Energy>
18.8662

> <b_lp_Chiralities_Consistent>
1

> <s_lp_Variant>
AV-unprocessed.smi:1420-4

> <Gold.Version>
5.8.1

> <Gold.Id.Protein>
6NUR|6NUR_protein|mol2

> <Gold.PLP.Fitness>
44.6432

> <Gold.PLP.PLP>
-27.9456

> <Gold.PLP.part.hbond>
-2.9762

> <Gold.PLP.part.metal>
0.0000

> <Gold.PLP.part.buried>
-6.0924

> <Gold.PLP.part.nonpolar>
-20.1322

> <Gold.PLP.part.repulsive>
0.3369

> <Gold.PLP.ligand.clash>
0.0000

> <Gold.PLP.ligand.torsion>
0.5250

> <Gold.PLP.Chemscore.Hbond>
4.0000

> <Gold.PLP.Chemscore.CHOScore>
1.8783

> <Gold.PLP.Chemscore.Metal>
0.0000

> <Gold.Chemscore.Hbonds>
donor molecule, donor type, donor heavy atom, donor atom, acceptor molecule, acceptor atom, score
      L1  H     4    25       P1  7948  1.00
      L1  H    13    39       P1  7948  2.00
      P1  H  7989  7998       L1    16  0.90
      L1  C     9    28       P1 10747  0.90
      L1  C    11    30       P1 10952  0.89

> <Gold.PLP.Chemscore.Internal.Correction>
0.1126

> <Gold.Rescore>
     Score         DG    S(hbond)    S(metal)    S(lipo)     H(rot)  DE(clash)    DE(int)     intcor
     14.48     -15.09       2.04        0.00      66.35       1.94       0.07       0.53       ----

> <Gold.Chemscore.Fitness>
14.4817

> <Gold.Chemscore.DG>
-15.0854

> <Gold.Chemscore.ZeroCoef>
-5.4800

> <Gold.Chemscore.Hbond>
2.0413

> <Gold.Chemscore.Metal>
0.0000

> <Gold.Chemscore.Lipo>
66.3485

> <Gold.Chemscore.Internal_Hbond>
0.0000

> <Gold.Chemscore.DEClash>
0.0727

> <Gold.Chemscore.DEInternal>
0.5310

> <Gold.Chemscore.Rot>
1.9435

> <Gold.Chemscore.Internal.Correction>
   9.000000E+99

> <Gold.Chemscore.Hbonds>
donor molecule, donor type, donor heavy atom, donor atom, acceptor molecule, acceptor atom, score
      L1  H     4    25       P1  7948  0.93
      L1  H    13    39       P1  7948  0.96
      P1  H  7989  7998       L1    16  0.09

> <Gold.Chemscore.Hbond.Weighted>
-6.8180

> <Gold.Chemscore.Metal.Weighted>
-0.0000

> <Gold.Chemscore.Lipo.Weighted>
-7.7628

> <Gold.Chemscore.Internal_Hbond.Weighted>
0.0000

> <Gold.Chemscore.DEClash.Weighted>
0.0727

> <Gold.Chemscore.DEInternal.Weighted>
0.5310

> <Gold.Chemscore.Rot.Weighted>
4.9754

> <Gold.Chemscore.Internal.Correction.Weighted>
   9.000000E+99

> <Gold.Protein.RotatedTorsions>
[ 6907 6896 6895 6894 ] final   -9.98 input  -60.11 | X-H torsion
[ 7974 7965 7964 7962 ] final   98.37 input  175.53 | X-H torsion
[ 8008 7997 7996 7995 ] final   20.61 input   59.86 | X-H torsion
[ 10167 10162 10161 10158 ] final -135.85 input  -65.29 | X-H torsion
[ 10718 10713 10712 10709 ] final   15.69 input   66.30 | X-H torsion
[ 10763 10752 10751 10750 ] final   61.03 input  -60.55 | X-H torsion
[ 11005 11000 10999 10996 ] final -101.85 input  -57.11 | X-H torsion

> <Gold.Protein.ActiveResidues>
 VAL166  LYS551  ARG553  GLY616  TRP617  ASP618  TYR619  PRO620  LYS621  CYS622 
 ASP623  PHE694  ASN695  SER759  ASP760  ASP761  ALA762  ILE779  LEU786  VAL792 
 PHE793  MET794  SER795  GLU796  ALA797  LYS798  CYS799  TRP800  GLU811  SER814 

> <Gold.Protein.RotatedAtoms>
  151.4092  135.0982  159.9579 H   0  0  0  0  0  0  0  0  0  0  0  0  # atno 6907 bound_to 6896
  152.5025  133.8814  159.7358 H   0  0  0  0  0  0  0  0  0  0  0  0  # atno 6908 bound_to 6896
  150.9305  133.6716  159.2840 H   0  0  0  0  0  0  0  0  0  0  0  0  # atno 6909 bound_to 6896
  145.4130  139.2331  143.3237 H   0  0  0  0  0  0  0  0  0  0  0  0  # atno 7974 bound_to 7965
  154.9381  140.3049  155.5134 H   0  0  0  0  0  0  0  0  0  0  0  0  # atno 8008 bound_to 7997
  156.2998  140.2341  156.4385 H   0  0  0  0  0  0  0  0  0  0  0  0  # atno 8009 bound_to 7997
  154.8172  140.0425  157.1373 H   0  0  0  0  0  0  0  0  0  0  0  0  # atno 8010 bound_to 7997
  139.8737  143.6925  152.2636 H   0  0  0  0  0  0  0  0  0  0  0  0  # atno 10167 bound_to 10162
  157.0571  130.6294  149.5779 H   0  0  0  0  0  0  0  0  0  0  0  0  # atno 10718 bound_to 10713
  152.9938  135.5515  154.5968 H   0  0  0  0  0  0  0  0  0  0  0  0  # atno 10763 bound_to 10752
  154.5318  135.2814  155.1175 H   0  0  0  0  0  0  0  0  0  0  0  0  # atno 10764 bound_to 10752
  154.2487  135.6403  153.5285 H   0  0  0  0  0  0  0  0  0  0  0  0  # atno 10765 bound_to 10752
  141.1214  133.8511  157.1284 H   0  0  0  0  0  0  0  0  0  0  0  0  # atno 11005 bound_to 11000
  146.2695  140.4844  142.8820 LP  0  0  0  0  0  0  0  0  0  0  0  0  # atno 17320 bound_to 7965
  144.8296  140.6685  143.6300 LP  0  0  0  0  0  0  0  0  0  0  0  0  # atno 17321 bound_to 7965
  139.7260  144.7593  151.0878 LP  0  0  0  0  0  0  0  0  0  0  0  0  # atno 17342 bound_to 10162
  140.7756  143.5147  150.9609 LP  0  0  0  0  0  0  0  0  0  0  0  0  # atno 17343 bound_to 10162
  155.9989  130.5064  150.7589 LP  0  0  0  0  0  0  0  0  0  0  0  0  # atno 17370 bound_to 10713
  157.4984  131.0916  151.0344 LP  0  0  0  0  0  0  0  0  0  0  0  0  # atno 17371 bound_to 10713
  140.0174  134.9961  157.0522 LP  0  0  0  0  0  0  0  0  0  0  0  0  # atno 17394 bound_to 11000
  140.4496  134.1596  155.7180 LP  0  0  0  0  0  0  0  0  0  0  0  0  # atno 17395 bound_to 11000

$$$$
