AV-unprocessed.smi:1047|AV-procd|sdf|4592|dock3
  -GOLD-   22720 3 73D 1   1.00000     0.00000
 Structure written by MMmdl.
 55 57  0  0  0  0  0  0  0  0  1 V2000
  151.7712  142.8656  157.7191 C   0  0  0  0  0  0  0  0  0  0  0  0
  152.0120  141.3726  157.4543 C   0  0  0  0  0  0  0  0  0  0  0  0
  151.6420  140.9173  156.1155 N   0  0  0  0  0  0  0  0  0  0  0  0
  151.8277  139.4770  155.9829 C   0  0  0  0  0  0  0  0  0  0  0  0
  151.4430  138.9763  154.5811 C   0  0  0  0  0  0  0  0  0  0  0  0
  150.0963  139.3438  154.3006 O   0  0  0  0  0  0  0  0  0  0  0  0
  149.8767  140.7507  154.3631 C   0  0  1  0  0  0  0  0  0  0  0  0
  148.4003  141.0100  154.0281 C   0  0  0  0  0  0  0  0  0  0  0  0
  147.9961  140.3048  152.8153 N   0  0  0  0  0  0  0  0  0  0  0  0
  146.6783  139.6848  152.9170 C   0  0  0  0  0  0  0  0  0  0  0  0
  146.6454  138.3201  152.2087 C   0  0  2  0  0  0  0  0  0  0  0  0
  146.4222  138.5406  150.8297 O   0  0  0  0  0  0  0  0  0  0  0  0
  145.5234  137.4205  152.7617 C   0  0  0  0  0  0  0  0  0  0  0  0
  145.5482  136.0823  152.1972 N   0  0  0  0  0  0  0  0  0  0  0  0
  145.2899  135.7380  150.9212 C   0  0  0  0  0  0  0  0  0  0  0  0
  145.3754  134.4483  150.6084 N   0  0  0  0  0  0  0  0  0  0  0  0
  145.7302  133.8900  151.8247 C   0  0  0  0  0  0  0  0  0  0  0  0
  145.9824  132.5460  152.1769 C   0  0  0  0  0  0  0  0  0  0  0  0
  146.3355  132.1972  153.5000 C   0  0  0  0  0  0  0  0  0  0  0  0
  146.6005  130.7397  153.8342 C   0  0  0  0  0  0  0  0  0  0  0  0
  146.4376  133.2016  154.4961 C   0  0  0  0  0  0  0  0  0  0  0  0
  146.8095  132.8502  155.9258 C   0  0  0  0  0  0  0  0  0  0  0  0
  146.1913  134.5495  154.1606 C   0  0  0  0  0  0  0  0  0  0  0  0
  145.8440  134.8845  152.8399 C   0  0  0  0  0  0  0  0  0  0  0  0
  150.2608  141.2492  155.7725 C   0  0  0  0  0  0  0  0  0  0  0  0
  152.1725  143.1509  158.6918 H   0  0  0  0  0  0  0  0  0  0  0  0
  150.7105  143.1142  157.7221 H   0  0  0  0  0  0  0  0  0  0  0  0
  152.2615  143.4820  156.9655 H   0  0  0  0  0  0  0  0  0  0  0  0
  153.0749  141.1823  157.6084 H   0  0  0  0  0  0  0  0  0  0  0  0
  151.4892  140.7799  158.2063 H   0  0  0  0  0  0  0  0  0  0  0  0
  152.8677  139.2173  156.1848 H   0  0  0  0  0  0  0  0  0  0  0  0
  151.2255  138.9555  156.7289 H   0  0  0  0  0  0  0  0  0  0  0  0
  152.1087  139.3939  153.8240 H   0  0  0  0  0  0  0  0  0  0  0  0
  151.5359  137.8916  154.5265 H   0  0  0  0  0  0  0  0  0  0  0  0
  150.5076  141.2305  153.6119 H   0  0  0  0  0  0  0  0  0  0  0  0
  147.7852  140.6698  154.8621 H   0  0  0  0  0  0  0  0  0  0  0  0
  148.2204  142.0810  153.9273 H   0  0  0  0  0  0  0  0  0  0  0  0
  148.6895  139.6012  152.5821 H   0  0  0  0  0  0  0  0  0  0  0  0
  146.4411  139.5397  153.9717 H   0  0  0  0  0  0  0  0  0  0  0  0
  145.9062  140.3433  152.5166 H   0  0  0  0  0  0  0  0  0  0  0  0
  147.6021  137.8105  152.3346 H   0  0  0  0  0  0  0  0  0  0  0  0
  145.4921  138.4943  150.6682 H   0  0  0  0  0  0  0  0  0  0  0  0
  145.6134  137.3311  153.8452 H   0  0  0  0  0  0  0  0  0  0  0  0
  144.5459  137.8646  152.5687 H   0  0  0  0  0  0  0  0  0  0  0  0
  145.0253  136.4775  150.1797 H   0  0  0  0  0  0  0  0  0  0  0  0
  145.9025  131.7816  151.4183 H   0  0  0  0  0  0  0  0  0  0  0  0
  147.6116  130.6145  154.2220 H   0  0  0  0  0  0  0  0  0  0  0  0
  146.4994  130.1043  152.9538 H   0  0  0  0  0  0  0  0  0  0  0  0
  145.8945  130.3859  154.5856 H   0  0  0  0  0  0  0  0  0  0  0  0
  146.8083  133.7331  156.5652 H   0  0  0  0  0  0  0  0  0  0  0  0
  147.8060  132.4097  155.9641 H   0  0  0  0  0  0  0  0  0  0  0  0
  146.0983  132.1364  156.3420 H   0  0  0  0  0  0  0  0  0  0  0  0
  146.2644  135.3244  154.9093 H   0  0  0  0  0  0  0  0  0  0  0  0
  149.5835  140.8146  156.5095 H   0  0  0  0  0  0  0  0  0  0  0  0
  150.1146  142.3282  155.8138 H   0  0  0  0  0  0  0  0  0  0  0  0
  1  2  1  0  0  0  0
  1 26  1  0  0  0  0
  1 27  1  0  0  0  0
  1 28  1  0  0  0  0
  2  3  1  0  0  0  0
  2 29  1  0  0  0  0
  2 30  1  0  0  0  0
  3 25  1  0  0  0  0
  3  4  1  0  0  0  0
  4  5  1  0  0  0  0
  4 31  1  0  0  0  0
  4 32  1  0  0  0  0
  5  6  1  0  0  0  0
  5 33  1  0  0  0  0
  5 34  1  0  0  0  0
  6  7  1  0  0  0  0
  7  8  1  0  0  0  0
  7 25  1  0  0  0  0
  7 35  1  0  0  0  0
  8  9  1  0  0  0  0
  8 36  1  0  0  0  0
  8 37  1  0  0  0  0
  9 10  1  0  0  0  0
  9 38  1  0  0  0  0
 10 11  1  0  0  0  0
 10 39  1  0  0  0  0
 10 40  1  0  0  0  0
 11 12  1  0  0  0  0
 11 13  1  0  0  0  0
 11 41  1  0  0  0  0
 12 42  1  0  0  0  0
 13 14  1  0  0  0  0
 13 43  1  0  0  0  0
 13 44  1  0  0  0  0
 14 24  1  0  0  0  0
 14 15  1  0  0  0  0
 15 16  2  0  0  0  0
 15 45  1  0  0  0  0
 16 17  1  0  0  0  0
 17 24  2  0  0  0  0
 17 18  1  0  0  0  0
 18 19  2  0  0  0  0
 18 46  1  0  0  0  0
 19 20  1  0  0  0  0
 19 21  1  0  0  0  0
 20 47  1  0  0  0  0
 20 48  1  0  0  0  0
 20 49  1  0  0  0  0
 21 22  1  0  0  0  0
 21 23  2  0  0  0  0
 22 50  1  0  0  0  0
 22 51  1  0  0  0  0
 22 52  1  0  0  0  0
 23 24  1  0  0  0  0
 23 53  1  0  0  0  0
 25 54  1  0  0  0  0
 25 55  1  0  0  0  0
M  END
> <s_m_source_file>
AV-unprocessed.smi

> <i_m_source_file_index>
1047

> <i_lp_mmshare_version>
43012

> <i_f3d_flags>
0

> <s_epik_input>
W0NIM11bQ0gyXU4xW0NIMl1bQ0gyXU9bQ0BIXShbQ0gyXTEpW0NIMl1bTkhdW0NIMl1bQ0BIXShbT0hdKVtDSDJdbihbY0hdbjIpYyhjMjMpW2NIXWMoW0NIM10pYyhbY0hdMylbQ0gzXQ==

> <s_epik_cmdline>
J2VwaWtfcHl0aG9uJywgJy1waCcsICc3LjAnLCAnLXRuJywgJzgnLCAnLW1hJywgJzIwMCcsICctbWV0YWxfYmluZGluZycsICctaW1hZScsICc8aW5maWxlLm1hZT4nLCAnLW9tYWUnLCAnPG91dGZpbGUubWFlPic=

> <r_epik_Ionization_Penalty>
2.74124

> <r_epik_Ionization_Penalty_Charging>
0

> <r_epik_Ionization_Penalty_Neutral>
2.74124

> <r_epik_State_Penalty>
2.37482

> <r_epik_Charging_Adjusted_Penalty>
2.37482

> <i_epik_Tot_Q>
0

> <i_epik_Tot_abs_Q>
0

> <r_epik_Metal_State_Penalty>
2.25944

> <b_epik_Metal_Only>
0

> <s_lp_Force_Field>
OPLS_2005

> <r_lp_Energy>
35.4924

> <b_lp_Chiralities_Consistent>
1

> <s_lp_Variant>
AV-unprocessed.smi:1047-33

> <Gold.Version>
5.8.1

> <Gold.Id.Protein>
6NUR|6NUR_protein|mol2

> <Gold.PLP.Fitness>
48.6583

> <Gold.PLP.PLP>
-40.9591

> <Gold.PLP.part.hbond>
-2.4707

> <Gold.PLP.part.metal>
0.0000

> <Gold.PLP.part.buried>
-4.1061

> <Gold.PLP.part.nonpolar>
-35.2491

> <Gold.PLP.part.repulsive>
1.7482

> <Gold.PLP.ligand.clash>
0.0000

> <Gold.PLP.ligand.torsion>
0.9523

> <Gold.PLP.Chemscore.Hbond>
2.1520

> <Gold.PLP.Chemscore.CHOScore>
1.0000

> <Gold.PLP.Chemscore.Metal>
0.0000

> <Gold.Chemscore.Hbonds>
donor molecule, donor type, donor heavy atom, donor atom, acceptor molecule, acceptor atom, score
      L1  H     9    38       P1  7957  0.24
      L1  H    12    42       P1 10171  1.00
      P1  H  7954  7966       L1    12  0.81
      L1  C    15    45       P1 10171  1.00

> <Gold.PLP.Chemscore.Internal.Correction>
0.1478

> <Gold.Rescore>
     Score         DG    S(hbond)    S(metal)    S(lipo)     H(rot)  DE(clash)    DE(int)     intcor
     16.24     -17.25       2.15        0.00      94.38       2.52       0.11       0.89       ----

> <Gold.Chemscore.Fitness>
16.2449

> <Gold.Chemscore.DG>
-17.2508

> <Gold.Chemscore.ZeroCoef>
-5.4800

> <Gold.Chemscore.Hbond>
2.1523

> <Gold.Chemscore.Metal>
0.0000

> <Gold.Chemscore.Lipo>
94.3831

> <Gold.Chemscore.Internal_Hbond>
0.0000

> <Gold.Chemscore.DEClash>
0.1126

> <Gold.Chemscore.DEInternal>
0.8932

> <Gold.Chemscore.Rot>
2.5237

> <Gold.Chemscore.Internal.Correction>
   9.000000E+99

> <Gold.Chemscore.Hbonds>
donor molecule, donor type, donor heavy atom, donor atom, acceptor molecule, acceptor atom, score
      L1  H     9    38       P1  7957  0.24
      L1  H    12    42       P1 10171  1.00
      P1  H  7954  7966       L1    12  0.38

> <Gold.Chemscore.Hbond.Weighted>
-7.1887

> <Gold.Chemscore.Metal.Weighted>
-0.0000

> <Gold.Chemscore.Lipo.Weighted>
-11.0428

> <Gold.Chemscore.Internal_Hbond.Weighted>
0.0000

> <Gold.Chemscore.DEClash.Weighted>
0.1126

> <Gold.Chemscore.DEInternal.Weighted>
0.8932

> <Gold.Chemscore.Rot.Weighted>
6.4607

> <Gold.Chemscore.Internal.Correction.Weighted>
   9.000000E+99

> <Gold.Protein.RotatedTorsions>
[ 6907 6896 6895 6894 ] final  162.71 input  -60.11 | X-H torsion
[ 7974 7965 7964 7962 ] final -140.97 input  175.53 | X-H torsion
[ 8008 7997 7996 7995 ] final   81.12 input   59.86 | X-H torsion
[ 10167 10162 10161 10158 ] final -143.51 input  -65.29 | X-H torsion
[ 10718 10713 10712 10709 ] final -178.86 input   66.30 | X-H torsion
[ 10763 10752 10751 10750 ] final   11.66 input  -60.55 | X-H torsion
[ 11005 11000 10999 10996 ] final  -70.63 input  -57.11 | X-H torsion

> <Gold.Protein.ActiveResidues>
 VAL166  LYS551  ARG553  GLY616  TRP617  ASP618  TYR619  PRO620  LYS621  CYS622 
 ASP623  PHE694  ASN695  SER759  ASP760  ASP761  ALA762  ILE779  LEU786  VAL792 
 PHE793  MET794  SER795  GLU796  ALA797  LYS798  CYS799  TRP800  GLU811  SER814 

> <Gold.Protein.RotatedAtoms>
  151.9363  133.3625  159.3948 H   0  0  0  0  0  0  0  0  0  0  0  0  # atno 6907 bound_to 6896
  150.7007  134.4485  159.5334 H   0  0  0  0  0  0  0  0  0  0  0  0  # atno 6908 bound_to 6896
  152.2134  134.8480  160.0545 H   0  0  0  0  0  0  0  0  0  0  0  0  # atno 6909 bound_to 6896
  144.8556  140.6136  143.5362 H   0  0  0  0  0  0  0  0  0  0  0  0  # atno 7974 bound_to 7965
  155.8928  140.3438  155.5968 H   0  0  0  0  0  0  0  0  0  0  0  0  # atno 8008 bound_to 7997
  155.7591  140.0830  157.2183 H   0  0  0  0  0  0  0  0  0  0  0  0  # atno 8009 bound_to 7997
  154.4035  140.1539  156.2799 H   0  0  0  0  0  0  0  0  0  0  0  0  # atno 8010 bound_to 7997
  139.7986  143.7865  152.2656 H   0  0  0  0  0  0  0  0  0  0  0  0  # atno 10167 bound_to 10162
  156.8506  130.9718  151.3092 H   0  0  0  0  0  0  0  0  0  0  0  0  # atno 10718 bound_to 10713
  153.1903  135.6841  153.8361 H   0  0  0  0  0  0  0  0  0  0  0  0  # atno 10763 bound_to 10752
  153.7662  135.3202  155.3346 H   0  0  0  0  0  0  0  0  0  0  0  0  # atno 10764 bound_to 10752
  154.8113  135.4715  154.0623 H   0  0  0  0  0  0  0  0  0  0  0  0  # atno 10765 bound_to 10752
  141.1577  133.6795  156.6781 H   0  0  0  0  0  0  0  0  0  0  0  0  # atno 11005 bound_to 11000
  145.4414  139.1535  143.3968 LP  0  0  0  0  0  0  0  0  0  0  0  0  # atno 17320 bound_to 7965
  146.2820  140.4535  142.8773 LP  0  0  0  0  0  0  0  0  0  0  0  0  # atno 17321 bound_to 7965
  139.7978  144.7386  150.9866 LP  0  0  0  0  0  0  0  0  0  0  0  0  # atno 17342 bound_to 10162
  140.7820  143.4376  151.0600 LP  0  0  0  0  0  0  0  0  0  0  0  0  # atno 17343 bound_to 10162
  157.6305  130.8726  149.9266 LP  0  0  0  0  0  0  0  0  0  0  0  0  # atno 17370 bound_to 10713
  156.0830  130.3671  150.0542 LP  0  0  0  0  0  0  0  0  0  0  0  0  # atno 17371 bound_to 10713
  140.3123  134.8076  157.4186 LP  0  0  0  0  0  0  0  0  0  0  0  0  # atno 17394 bound_to 11000
  140.1168  134.5273  155.8218 LP  0  0  0  0  0  0  0  0  0  0  0  0  # atno 17395 bound_to 11000

$$$$
