AV-unprocessed.smi:439|AV-procd|sdf|2579|dock3
  -GOLD-   2262022563D 1   1.00000     0.00000
 Structure written by MMmdl.
 46 47  0  0  0  0  0  0  0  0  1 V2000
  145.6901  131.8944  151.2220 C   0  0  0  0  0  0  0  0  0  0  0  0
  146.0923  133.2418  151.8363 C   0  0  0  0  0  0  0  0  0  0  0  0
  146.9447  133.1105  153.1082 C   0  0  0  0  0  0  0  0  0  0  0  0
  148.4418  132.8934  152.8222 C   0  0  0  0  0  0  0  0  0  0  0  0
  149.2794  133.2399  153.9533 N   0  0  0  0  0  0  0  0  0  0  0  0
  149.3395  134.5228  154.5065 C   0  0  0  0  0  0  0  0  0  0  0  0
  148.5564  135.5119  153.9327 N   0  0  0  0  0  0  0  0  0  0  0  0
  150.1263  134.8037  155.5886 C   0  0  0  0  0  0  0  0  0  0  0  0
  150.2091  136.1037  156.1359 N   0  0  0  0  0  0  0  0  0  0  0  0
  148.9589  136.6372  156.7081 C   0  0  0  0  0  0  0  0  0  0  0  0
  148.9769  136.7339  158.2448 C   0  0  0  0  0  0  0  0  0  0  0  0
  151.2941  136.9213  155.9814 C   0  0  0  0  0  0  0  0  0  0  0  0
  152.3912  136.4657  155.6508 O   0  0  0  0  0  0  0  0  0  0  0  0
  151.0825  138.3569  156.1953 C   0  0  0  0  0  0  0  0  0  0  0  0
  151.3925  139.2154  155.1966 C   0  0  0  0  0  0  0  0  0  0  0  0
  151.1861  140.5708  155.2605 O   0  0  0  0  0  0  0  0  0  0  0  0
  150.3846  141.0004  156.3542 C   0  0  0  0  0  0  0  0  0  0  0  0
  150.7404  140.2120  157.6220 C   0  0  0  0  0  0  0  0  0  0  0  0
  150.5747  138.8191  157.3889 O   0  0  0  0  0  0  0  0  0  0  0  0
  150.9788  133.7599  156.1787 C   0  0  0  0  0  0  0  0  0  0  0  0
  151.7390  133.9073  157.1349 O   0  0  0  0  0  0  0  0  0  0  0  0
  150.8932  132.5139  155.5641 N   0  0  0  0  0  0  0  0  0  0  0  0
  150.0897  132.2029  154.4736 C   0  0  0  0  0  0  0  0  0  0  0  0
  150.1177  131.0624  154.0101 O   0  0  0  0  0  0  0  0  0  0  0  0
  151.4708  131.7746  155.9375 H   0  0  0  0  0  0  0  0  0  0  0  0
  145.0383  132.0423  150.3608 H   0  0  0  0  0  0  0  0  0  0  0  0
  145.1526  131.2777  151.9426 H   0  0  0  0  0  0  0  0  0  0  0  0
  146.5592  131.3327  150.8801 H   0  0  0  0  0  0  0  0  0  0  0  0
  146.6226  133.8416  151.0959 H   0  0  0  0  0  0  0  0  0  0  0  0
  145.1848  133.7951  152.0801 H   0  0  0  0  0  0  0  0  0  0  0  0
  146.8235  134.0180  153.7009 H   0  0  0  0  0  0  0  0  0  0  0  0
  146.5603  132.2960  153.7230 H   0  0  0  0  0  0  0  0  0  0  0  0
  148.6637  131.8561  152.5762 H   0  0  0  0  0  0  0  0  0  0  0  0
  148.7813  133.4634  151.9558 H   0  0  0  0  0  0  0  0  0  0  0  0
  147.9585  135.3234  153.1407 H   0  0  0  0  0  0  0  0  0  0  0  0
  148.5631  136.4626  154.2735 H   0  0  0  0  0  0  0  0  0  0  0  0
  148.7532  137.6195  156.2796 H   0  0  0  0  0  0  0  0  0  0  0  0
  148.1162  136.0115  156.4092 H   0  0  0  0  0  0  0  0  0  0  0  0
  148.0200  137.1041  158.6129 H   0  0  0  0  0  0  0  0  0  0  0  0
  149.7466  137.4174  158.6027 H   0  0  0  0  0  0  0  0  0  0  0  0
  149.1505  135.7651  158.7105 H   0  0  0  0  0  0  0  0  0  0  0  0
  151.8006  138.9230  154.2395 H   0  0  0  0  0  0  0  0  0  0  0  0
  150.5389  142.0677  156.5122 H   0  0  0  0  0  0  0  0  0  0  0  0
  149.3324  140.8607  156.1031 H   0  0  0  0  0  0  0  0  0  0  0  0
  151.7716  140.4069  157.9203 H   0  0  0  0  0  0  0  0  0  0  0  0
  150.1024  140.5134  158.4528 H   0  0  0  0  0  0  0  0  0  0  0  0
  1  2  1  0  0  0  0
  1 26  1  0  0  0  0
  1 27  1  0  0  0  0
  1 28  1  0  0  0  0
  2  3  1  0  0  0  0
  2 29  1  0  0  0  0
  2 30  1  0  0  0  0
  3  4  1  0  0  0  0
  3 31  1  0  0  0  0
  3 32  1  0  0  0  0
  4  5  1  0  0  0  0
  4 33  1  0  0  0  0
  4 34  1  0  0  0  0
  5 23  1  0  0  0  0
  5  6  1  0  0  0  0
  6  7  1  0  0  0  0
  6  8  2  0  0  0  0
  7 35  1  0  0  0  0
  7 36  1  0  0  0  0
  8  9  1  0  0  0  0
  8 20  1  0  0  0  0
  9 10  1  0  0  0  0
  9 12  1  0  0  0  0
 10 11  1  0  0  0  0
 10 37  1  0  0  0  0
 10 38  1  0  0  0  0
 11 39  1  0  0  0  0
 11 40  1  0  0  0  0
 11 41  1  0  0  0  0
 12 13  2  0  0  0  0
 12 14  1  0  0  0  0
 14 19  1  0  0  0  0
 14 15  2  0  0  0  0
 15 16  1  0  0  0  0
 15 42  1  0  0  0  0
 16 17  1  0  0  0  0
 17 18  1  0  0  0  0
 17 43  1  0  0  0  0
 17 44  1  0  0  0  0
 18 19  1  0  0  0  0
 18 45  1  0  0  0  0
 18 46  1  0  0  0  0
 20 21  2  0  0  0  0
 20 22  1  0  0  0  0
 22 25  1  0  0  0  0
 22 23  1  0  0  0  0
 23 24  2  0  0  0  0
M  END
> <s_m_source_file>
AV-unprocessed.smi

> <i_m_source_file_index>
439

> <i_lp_mmshare_version>
43012

> <i_f3d_flags>
0

> <s_epik_input>
W0NIM11bQ0gyXVtDSDJdW0NIMl1uMWMoW05IMl0pYyhjKD1PKVtuSF1jMT1PKU4oW0NIMl1bQ0gzXSlDKD1PKUMyPVtDSF1PW0NIMl1bQ0gyXU8y

> <s_epik_cmdline>
J2VwaWtfcHl0aG9uJywgJy1waCcsICc3LjAnLCAnLXRuJywgJzgnLCAnLW1hJywgJzIwMCcsICctbWV0YWxfYmluZGluZycsICctaW1hZScsICc8aW5maWxlLm1hZT4nLCAnLW9tYWUnLCAnPG91dGZpbGUubWFlPic=

> <r_lp_tautomer_probability>
1

> <r_epik_Ionization_Penalty>
3.16361e-05

> <r_epik_Ionization_Penalty_Charging>
2.29435e-05

> <r_epik_Ionization_Penalty_Neutral>
8.69256e-06

> <r_epik_State_Penalty>
-0

> <r_epik_Charging_Adjusted_Penalty>
2.29435e-05

> <i_epik_Tot_Q>
0

> <i_epik_Tot_abs_Q>
0

> <r_epik_Metal_State_Penalty>
0.0222995

> <b_epik_Metal_Only>
0

> <s_epik_Chemistry_Notes>
This compound has an imine and may undergo hydrolysis.

> <s_lp_Force_Field>
OPLS_2005

> <r_lp_Energy>
28.4658

> <b_lp_Chiralities_Consistent>
1

> <s_lp_Variant>
AV-unprocessed.smi:439-1

> <Gold.Version>
5.8.1

> <Gold.Id.Protein>
6NUR|6NUR_protein|mol2

> <Gold.PLP.Fitness>
38.5407

> <Gold.PLP.PLP>
-33.2574

> <Gold.PLP.part.hbond>
-2.5132

> <Gold.PLP.part.metal>
0.0000

> <Gold.PLP.part.buried>
-5.5835

> <Gold.PLP.part.nonpolar>
-25.8653

> <Gold.PLP.part.repulsive>
0.1489

> <Gold.PLP.ligand.clash>
0.0000

> <Gold.PLP.ligand.torsion>
2.8168

> <Gold.PLP.Chemscore.Hbond>
2.3513

> <Gold.PLP.Chemscore.CHOScore>
0.0000

> <Gold.PLP.Chemscore.Metal>
0.0000

> <Gold.Chemscore.Hbonds>
donor molecule, donor type, donor heavy atom, donor atom, acceptor molecule, acceptor atom, score
      P1  H  6896  6907       L1    21  0.23
      P1  H  7989  7998       L1    16  0.67
      P1  H 10752 10763       L1    13  0.64

> <Gold.PLP.Chemscore.Internal.Correction>
3.8632

> <Gold.Rescore>
     Score         DG    S(hbond)    S(metal)    S(lipo)     H(rot)  DE(clash)    DE(int)     intcor
     12.03     -17.14       2.86        0.00      54.29       1.66       0.04       5.07       ----

> <Gold.Chemscore.Fitness>
12.0280

> <Gold.Chemscore.DG>
-17.1373

> <Gold.Chemscore.ZeroCoef>
-5.4800

> <Gold.Chemscore.Hbond>
2.8578

> <Gold.Chemscore.Metal>
0.0000

> <Gold.Chemscore.Lipo>
54.2910

> <Gold.Chemscore.Internal_Hbond>
0.0000

> <Gold.Chemscore.DEClash>
0.0354

> <Gold.Chemscore.DEInternal>
5.0740

> <Gold.Chemscore.Rot>
1.6562

> <Gold.Chemscore.Internal.Correction>
   9.000000E+99

> <Gold.Chemscore.Hbonds>
donor molecule, donor type, donor heavy atom, donor atom, acceptor molecule, acceptor atom, score
      L1  H     7    35       P1  7948  0.04
      P1  H  6896  6907       L1    21  0.23
      P1  H  7989  7998       L1    16  0.08
      P1  H 10752 10763       L1    13  0.61

> <Gold.Chemscore.Hbond.Weighted>
-9.5451

> <Gold.Chemscore.Metal.Weighted>
-0.0000

> <Gold.Chemscore.Lipo.Weighted>
-6.3521

> <Gold.Chemscore.Internal_Hbond.Weighted>
0.0000

> <Gold.Chemscore.DEClash.Weighted>
0.0354

> <Gold.Chemscore.DEInternal.Weighted>
5.0740

> <Gold.Chemscore.Rot.Weighted>
4.2398

> <Gold.Chemscore.Internal.Correction.Weighted>
   9.000000E+99

> <Gold.Protein.RotatedTorsions>
[ 6907 6896 6895 6894 ] final -151.40 input  -60.11 | X-H torsion
[ 7974 7965 7964 7962 ] final   79.71 input  175.53 | X-H torsion
[ 8008 7997 7996 7995 ] final  107.94 input   59.86 | X-H torsion
[ 10167 10162 10161 10158 ] final  -45.95 input  -65.29 | X-H torsion
[ 10718 10713 10712 10709 ] final  -68.69 input   66.30 | X-H torsion
[ 10763 10752 10751 10750 ] final  105.75 input  -60.55 | X-H torsion
[ 11005 11000 10999 10996 ] final -120.22 input  -57.11 | X-H torsion

> <Gold.Protein.ActiveResidues>
 VAL166  LYS551  ARG553  GLY616  TRP617  ASP618  TYR619  PRO620  LYS621  CYS622 
 ASP623  PHE694  ASN695  SER759  ASP760  ASP761  ALA762  ILE779  LEU786  VAL792 
 PHE793  MET794  SER795  GLU796  ALA797  LYS798  CYS799  TRP800  GLU811  SER814 

> <Gold.Protein.RotatedAtoms>
  151.2126  133.4547  159.2598 H   0  0  0  0  0  0  0  0  0  0  0  0  # atno 6907 bound_to 6896
  151.0962  134.9945  159.8436 H   0  0  0  0  0  0  0  0  0  0  0  0  # atno 6908 bound_to 6896
  152.5439  134.2056  159.8782 H   0  0  0  0  0  0  0  0  0  0  0  0  # atno 6909 bound_to 6896
  145.6606  139.2470  143.1924 H   0  0  0  0  0  0  0  0  0  0  0  0  # atno 7974 bound_to 7965
  156.1864  140.3085  155.9246 H   0  0  0  0  0  0  0  0  0  0  0  0  # atno 8008 bound_to 7997
  155.3272  140.0459  157.3058 H   0  0  0  0  0  0  0  0  0  0  0  0  # atno 8009 bound_to 7997
  154.5400  140.2258  155.8666 H   0  0  0  0  0  0  0  0  0  0  0  0  # atno 8010 bound_to 7997
  140.6837  143.2854  151.3712 H   0  0  0  0  0  0  0  0  0  0  0  0  # atno 10167 bound_to 10162
  156.0492  130.4299  150.2038 H   0  0  0  0  0  0  0  0  0  0  0  0  # atno 10718 bound_to 10713
  153.3837  135.3899  155.1874 H   0  0  0  0  0  0  0  0  0  0  0  0  # atno 10763 bound_to 10752
  154.8711  135.3731  154.4825 H   0  0  0  0  0  0  0  0  0  0  0  0  # atno 10764 bound_to 10752
  153.5304  135.7086  153.5747 H   0  0  0  0  0  0  0  0  0  0  0  0  # atno 10765 bound_to 10752
  141.0159  134.0195  157.3350 H   0  0  0  0  0  0  0  0  0  0  0  0  # atno 11005 bound_to 11000
  146.1128  140.7407  142.9495 LP  0  0  0  0  0  0  0  0  0  0  0  0  # atno 17320 bound_to 7965
  144.7090  140.3966  143.7095 LP  0  0  0  0  0  0  0  0  0  0  0  0  # atno 17321 bound_to 7965
  139.6179  144.0965  152.2363 LP  0  0  0  0  0  0  0  0  0  0  0  0  # atno 17342 bound_to 10162
  140.0400  144.6014  150.7418 LP  0  0  0  0  0  0  0  0  0  0  0  0  # atno 17343 bound_to 10162
  157.0123  130.9955  151.3362 LP  0  0  0  0  0  0  0  0  0  0  0  0  # atno 17370 bound_to 10713
  157.5401  130.8114  149.8019 LP  0  0  0  0  0  0  0  0  0  0  0  0  # atno 17371 bound_to 10713
  139.9117  135.0191  156.7718 LP  0  0  0  0  0  0  0  0  0  0  0  0  # atno 17394 bound_to 11000
  140.6655  133.9607  155.7828 LP  0  0  0  0  0  0  0  0  0  0  0  0  # atno 17395 bound_to 11000

$$$$
