#       Name:                AV-unprocessed.smi:229
#       Creating user name   scv26
#       Creation time:       Thu Mar 26 20:29:05 2020


#       File generated by GOLD software.
#

@<TRIPOS>MOLECULE
AV-unprocessed.smi:229
    70    74     1
SMALL
NO_CHARGES


@<TRIPOS>ATOM
      1 ****        -6.8617   1.9029  -0.6750 C.3            1 S1                 0.0000
      2 ****        -5.4993   2.4938  -0.2915 C.3            1 S1                 0.0000
      3 ****        -4.4357   1.4191  -0.0217 C.3            1 S1                 0.0000
      4 ****        -3.0450   2.0349   0.2055 C.3            1 S1                 0.0000
      5 ****        -2.0932   0.9885   0.5613 N.3            1 S1                 0.0000
      6 ****        -0.7674   1.2684   0.4911 C.ar           1 S1                 0.0000
      7 ****        -0.3446   2.5612   0.4809 N.ar           1 S1                 0.0000
      8 ****         0.9594   2.8455   0.4113 C.ar           1 S1                 0.0000
      9 ****         1.9942   2.0060   0.3403 N.ar           1 S1                 0.0000
     10 ****         1.5765   0.7081   0.3431 C.ar           1 S1                 0.0000
     11 ****         0.2292   0.2543   0.4168 C.ar           1 S1                 0.0000
     12 ****         0.1972  -1.1354   0.3812 N.2            1 S1                 0.0000
     13 ****         1.4527  -1.4826   0.3012 C.2            1 S1                 0.0000
     14 ****         2.3477  -0.4376   0.2675 N.pl3          1 S1                 0.0000
     15 ****         3.7935  -0.5310   0.1668 C.3            1 S1                 0.0000
     16 ****         4.2975  -0.3211  -1.2748 C.3            1 S1                 0.0000
     17 ****         3.7135  -1.2967  -2.1184 O.3            1 S1                 0.0000
     18 ****         5.8366  -0.3795  -1.3627 C.3            1 S1                 0.0000
     19 ****         6.4961  -1.7547  -1.2106 C.3            1 S1                 0.0000
     20 ****         7.8001  -1.5391  -1.9451 C.3            1 S1                 0.0000
     21 ****         7.3570  -0.6558  -3.1085 C.3            1 S1                 0.0000
     22 ****         6.3023   0.1558  -2.5990 O.3            1 S1                 0.0000
     23 ****        -2.5090   0.2183   1.7272 C.3            1 S1                 0.0000
     24 ****        -3.9265  -0.3635   1.5218 C.3            1 S1                 0.0000
     25 ****        -4.4570  -0.9825   2.8115 C.3            1 S1                 0.0000
     26 ****        -4.1284  -2.4591   2.6532 C.3            1 S1                 0.0000
     27 ****        -4.4172  -2.6856   1.2867 O.3            1 S1                 0.0000
     28 ****        -3.9532  -1.5634   0.5453 C.3            1 S1                 0.0000
     29 ****        -4.8226   0.6857   1.1425 O.3            1 S1                 0.0000
     30 ****        -7.5864   2.6934  -0.8701 H              1 S1                 0.0000
     31 ****        -7.2607   1.2764   0.1230 H              1 S1                 0.0000
     32 ****        -6.7860   1.2918  -1.5747 H              1 S1                 0.0000
     33 ****        -5.1608   3.1428  -1.0999 H              1 S1                 0.0000
     34 ****        -5.6111   3.1305   0.5868 H              1 S1                 0.0000
     35 ****        -4.3889   0.7549  -0.8851 H              1 S1                 0.0000
     36 ****        -2.7201   2.5481  -0.7008 H              1 S1                 0.0000
     37 ****        -3.0849   2.7761   1.0052 H              1 S1                 0.0000
     38 ****         1.2093   3.8963   0.4117 H              1 S1                 0.0000
     39 ****         1.7622  -2.5167   0.2542 H              1 S1                 0.0000
     40 ****         4.2300   0.2151   0.8318 H              1 S1                 0.0000
     41 ****         4.1058  -1.5053   0.5448 H              1 S1                 0.0000
     42 ****         3.9676   0.6601  -1.6188 H              1 S1                 0.0000
     43 ****         2.7758  -1.1813  -2.1039 H              1 S1                 0.0000
     44 ****         6.2504   0.2782  -0.5965 H              1 S1                 0.0000
     45 ****         6.6353  -2.0463  -0.1694 H              1 S1                 0.0000
     46 ****         5.9243  -2.5373  -1.7097 H              1 S1                 0.0000
     47 ****         8.5047  -1.0003  -1.3099 H              1 S1                 0.0000
     48 ****         8.2704  -2.4681  -2.2687 H              1 S1                 0.0000
     49 ****         8.1706  -0.0503  -3.5084 H              1 S1                 0.0000
     50 ****         6.9603  -1.2685  -3.9192 H              1 S1                 0.0000
     51 ****        -1.8081  -0.5835   1.9566 H              1 S1                 0.0000
     52 ****        -2.5044   0.8877   2.5887 H              1 S1                 0.0000
     53 ****        -4.0332  -0.5462   3.7164 H              1 S1                 0.0000
     54 ****        -5.5404  -0.8660   2.8663 H              1 S1                 0.0000
     55 ****        -3.0723  -2.6528   2.8473 H              1 S1                 0.0000
     56 ****        -4.7257  -3.0983   3.3034 H              1 S1                 0.0000
     57 ****        -4.6161  -1.4077  -0.3053 H              1 S1                 0.0000
     58 ****        -2.9585  -1.7805   0.1536 H              1 S1                 0.0000
     59 ****        -2.1546   0.3725  -0.2240 LP             1 S1                 0.0000
     60 ****        -1.0135   3.3033   0.5258 LP             1 S1                 0.0000
     61 ****         2.9513   2.2916   0.2915 LP             1 S1                 0.0000
     62 ****        -0.6046  -1.7323   0.4103 LP             1 S1                 0.0000
     63 ****         3.9462  -2.2114  -1.7882 LP             1 S1                 0.0000
     64 ****         4.0533  -1.1828  -3.0519 LP             1 S1                 0.0000
     65 ****         6.6399   1.0856  -2.4522 LP             1 S1                 0.0000
     66 ****         5.5498   0.1745  -3.2573 LP             1 S1                 0.0000
     67 ****        -5.4038  -2.7901   1.1616 LP             1 S1                 0.0000
     68 ****        -3.9520  -3.5139   0.9747 LP             1 S1                 0.0000
     69 ****        -5.7200   0.2798   0.9695 LP             1 S1                 0.0000
     70 ****        -4.8890   1.3282   1.9060 LP             1 S1                 0.0000
@<TRIPOS>BOND
    1    1    2 1     
    2    1   30 1     
    3    1   31 1     
    4    1   32 1     
    5    2    3 1     
    6    2   33 1     
    7    2   34 1     
    8    3   29 1     
    9    3    4 1     
   10    3   35 1     
   11    4    5 1     
   12    4   36 1     
   13    4   37 1     
   14    5    6 1     
   15    5   23 1     
   16    6   11 ar    
   17    6    7 ar    
   18    7    8 ar    
   19    8    9 ar    
   20    8   38 1     
   21    9   10 ar    
   22   10   14 1     
   23   10   11 ar    
   24   11   12 1     
   25   12   13 2     
   26   13   14 1     
   27   13   39 1     
   28   14   15 1     
   29   15   16 1     
   30   15   40 1     
   31   15   41 1     
   32   16   17 1     
   33   16   18 1     
   34   16   42 1     
   35   17   43 1     
   36   18   22 1     
   37   18   19 1     
   38   18   44 1     
   39   19   20 1     
   40   19   45 1     
   41   19   46 1     
   42   20   21 1     
   43   20   47 1     
   44   20   48 1     
   45   21   22 1     
   46   21   49 1     
   47   21   50 1     
   48   23   24 1     
   49   23   51 1     
   50   23   52 1     
   51   24   28 1     
   52   24   25 1     
   53   24   29 1     
   54   25   26 1     
   55   25   53 1     
   56   25   54 1     
   57   26   27 1     
   58   26   55 1     
   59   26   56 1     
   60   27   28 1     
   61   28   57 1     
   62   28   58 1     
   63    5   59 1     
   64    7   60 1     
   65    9   61 1     
   66   12   62 1     
   67   17   63 1     
   68   17   64 1     
   69   22   65 1     
   70   22   66 1     
   71   27   67 1     
   72   27   68 1     
   73   29   69 1     
   74   29   70 1     
@<TRIPOS>SUBSTRUCTURE
      1 S1             1
@<TRIPOS>SET
LONE_PAIRS      STATIC     ATOMS    <user>   **** ""
12 59 60 61 62 63 64 65 66 67 68 69 70
DONOR_HYDROGENS      STATIC     ATOMS    <user>   **** ""
1 43
ATOM$BLUE        STATIC     ATOMS    COLORGROUP SYSTEM
12 59 60 61 62 63 64 65 66 67 68 69 70
ATOM$RED        STATIC     ATOMS    COLORGROUP SYSTEM
1 43
