#       Name:                AV-unprocessed.smi:1149
#       Creating user name   scv26
#       Creation time:       Fri Mar 27 03:46:25 2020


#       File generated by GOLD software.
#

@<TRIPOS>MOLECULE
AV-unprocessed.smi:1149
    57    58     1
SMALL
NO_CHARGES


@<TRIPOS>ATOM
      1 ****        -4.3666   6.4449  -3.4163 C.3            1 S1                 0.0000
      2 ****        -3.5737   5.4626  -4.0739 O.3            1 S1                 0.0000
      3 ****        -3.1242   4.3844  -3.3397 C.ar           1 S1                 0.0000
      4 ****        -2.3454   3.4054  -3.9880 C.ar           1 S1                 0.0000
      5 ****        -1.8881   2.2982  -3.2484 C.ar           1 S1                 0.0000
      6 ****        -2.2327   2.2011  -1.8793 C.ar           1 S1                 0.0000
      7 ****        -1.8210   1.1426  -1.0253 N.am           1 S1                 0.0000
      8 ****        -1.4558  -0.1062  -1.3625 C.2            1 S1                 0.0000
      9 ****        -1.4313  -0.5548  -2.5082 O.2            1 S1                 0.0000
     10 ****        -1.1280  -0.8236  -0.2785 N.am           1 S1                 0.0000
     11 ****        -0.6921  -2.2208  -0.2784 C.3            1 S1                 0.0000
     12 ****         0.8503  -2.3884  -0.1283 C.3            1 S1                 0.0000
     13 ****         1.1703  -3.8964   0.0055 C.3            1 S1                 0.0000
     14 ****         1.5144  -1.8596  -1.4253 C.3            1 S1                 0.0000
     15 ****         1.3477  -1.6123   1.0402 N.3            1 S1                 0.0000
     16 ****         2.8109  -1.6144   1.2071 C.3            1 S1                 0.0000
     17 ****         3.2330  -0.5844   2.2741 C.3            1 S1                 0.0000
     18 ****         2.5986  -0.8648   3.5819 N.4            1 S1                 1.0000
     19 ****         3.2136  -1.9934   4.3185 C.3            1 S1                 0.0000
     20 ****         1.1308  -0.9787   3.4239 C.3            1 S1                 0.0000
     21 ****         0.7579  -2.0015   2.3321 C.3            1 S1                 0.0000
     22 ****        -3.0010   3.2432  -1.3206 C.ar           1 S1                 0.0000
     23 ****        -3.4436   4.3067  -2.0240 N.ar           1 S1                 0.0000
     24 ****        -4.6507   7.2167  -4.1315 H              1 S1                 0.0000
     25 ****        -3.8134   6.9287  -2.6100 H              1 S1                 0.0000
     26 ****        -5.2844   6.0139  -3.0137 H              1 S1                 0.0000
     27 ****        -2.0996   3.5028  -5.0351 H              1 S1                 0.0000
     28 ****        -1.2760   1.5586  -3.7404 H              1 S1                 0.0000
     29 ****        -1.8722   1.3401  -0.0366 H              1 S1                 0.0000
     30 ****        -1.1787  -0.3683   0.6207 H              1 S1                 0.0000
     31 ****        -1.2271  -2.7385   0.5168 H              1 S1                 0.0000
     32 ****        -1.0299  -2.7200  -1.1885 H              1 S1                 0.0000
     33 ****         0.8125  -4.4429  -0.8680 H              1 S1                 0.0000
     34 ****         0.6895  -4.3473   0.8735 H              1 S1                 0.0000
     35 ****         2.2403  -4.0900   0.0773 H              1 S1                 0.0000
     36 ****         1.0115  -2.2501  -2.3107 H              1 S1                 0.0000
     37 ****         2.5564  -2.1653  -1.5167 H              1 S1                 0.0000
     38 ****         1.4790  -0.7713  -1.4868 H              1 S1                 0.0000
     39 ****         3.1692  -2.6088   1.4737 H              1 S1                 0.0000
     40 ****         3.3139  -1.3360   0.2836 H              1 S1                 0.0000
     41 ****         4.3181  -0.5682   2.3825 H              1 S1                 0.0000
     42 ****         2.9418   0.4163   1.9512 H              1 S1                 0.0000
     43 ****         3.0983  -2.9387   3.7882 H              1 S1                 0.0000
     44 ****         2.7572  -2.0997   5.3030 H              1 S1                 0.0000
     45 ****         4.2793  -1.8162   4.4668 H              1 S1                 0.0000
     46 ****         0.6734  -1.2510   4.3757 H              1 S1                 0.0000
     47 ****         0.7296   0.0009   3.1594 H              1 S1                 0.0000
     48 ****        -0.3280  -2.0279   2.2780 H              1 S1                 0.0000
     49 ****         1.0827  -3.0012   2.6207 H              1 S1                 0.0000
     50 ****        -3.2754   3.2221  -0.2758 H              1 S1                 0.0000
     51 ****         2.7612  -0.0506   4.1571 H              1 S1                 0.0000
     52 ****        -2.7678   5.9288  -4.4387 LP             1 S1                 0.0000
     53 ****        -4.1191   5.0994  -4.8293 LP             1 S1                 0.0000
     54 ****        -1.6975   0.0253  -3.2781 LP             1 S1                 0.0000
     55 ****        -1.1453  -1.4993  -2.6693 LP             1 S1                 0.0000
     56 ****         1.0445  -0.6902   0.7994 LP             1 S1                 0.0000
     57 ****        -3.9927   5.0188  -1.5864 LP             1 S1                 0.0000
@<TRIPOS>BOND
    1    1    2 1     
    2    1   24 1     
    3    1   25 1     
    4    1   26 1     
    5    2    3 1     
    6    3   23 ar    
    7    3    4 ar    
    8    4    5 ar    
    9    4   27 1     
   10    5    6 ar    
   11    5   28 1     
   12    6    7 1     
   13    6   22 ar    
   14    7    8 am    
   15    7   29 1     
   16    8    9 2     
   17    8   10 am    
   18   10   11 1     
   19   10   30 1     
   20   11   12 1     
   21   11   31 1     
   22   11   32 1     
   23   12   13 1     
   24   12   14 1     
   25   12   15 1     
   26   13   33 1     
   27   13   34 1     
   28   13   35 1     
   29   14   36 1     
   30   14   37 1     
   31   14   38 1     
   32   15   21 1     
   33   15   16 1     
   34   16   17 1     
   35   16   39 1     
   36   16   40 1     
   37   17   18 1     
   38   17   41 1     
   39   17   42 1     
   40   18   19 1     
   41   18   20 1     
   42   18   51 1     
   43   19   43 1     
   44   19   44 1     
   45   19   45 1     
   46   20   21 1     
   47   20   46 1     
   48   20   47 1     
   49   21   48 1     
   50   21   49 1     
   51   22   23 ar    
   52   22   50 1     
   53    2   52 1     
   54    2   53 1     
   55    9   54 1     
   56    9   55 1     
   57   15   56 1     
   58   23   57 1     
@<TRIPOS>SUBSTRUCTURE
      1 S1             1
@<TRIPOS>SET
LONE_PAIRS      STATIC     ATOMS    <user>   **** ""
6 52 53 54 55 56 57
DONOR_HYDROGENS      STATIC     ATOMS    <user>   **** ""
3 29 30 51
ATOM$BLUE        STATIC     ATOMS    COLORGROUP SYSTEM
6 52 53 54 55 56 57
ATOM$RED        STATIC     ATOMS    COLORGROUP SYSTEM
3 29 30 51
