AV-unprocessed.smi:2281|AV-procd|sdf|9193|dock4
  -GOLD-   2272012413D 1   1.00000     0.00000
 Structure written by MMmdl.
 40 41  0  0  0  0  0  0  0  0  1 V2000
  152.6804  143.4770  162.0535 C   0  0  0  0  0  0  0  0  0  0  0  0
  153.2570  142.2014  161.4654 C   0  0  0  0  0  0  0  0  0  0  0  0
  153.8827  141.3455  162.3756 N   0  0  0  0  0  0  0  0  0  0  0  0
  154.4121  140.2408  161.9626 C   0  0  0  0  0  0  0  0  0  0  0  0
  154.3876  139.8681  160.6081 N   0  0  0  0  0  0  0  0  0  0  0  0
  155.0218  138.5746  160.2801 C   0  0  0  0  0  0  0  0  0  0  0  0
  154.0366  137.3809  160.0825 C   0  0  1  0  0  0  0  0  0  0  0  0
  152.6916  137.7544  159.4207 C   0  0  0  0  0  0  0  0  0  0  0  0
  154.6631  136.4961  159.1696 O   0  0  0  0  0  0  0  0  0  0  0  0
  153.7858  136.7043  161.4387 C   0  0  0  0  0  0  0  0  0  0  0  0
  153.2317  137.4095  162.5345 C   0  0  0  0  0  0  0  0  0  0  0  0
  153.0070  136.7610  163.7634 C   0  0  0  0  0  0  0  0  0  0  0  0
  153.3315  135.4008  163.9151 C   0  0  0  0  0  0  0  0  0  0  0  0
  153.8866  134.6800  162.8379 C   0  0  0  0  0  0  0  0  0  0  0  0
  154.2238  133.2051  163.0007 C   0  0  0  0  0  0  0  0  0  0  0  0
  154.6873  132.6857  161.8633 F   0  0  0  0  0  0  0  0  0  0  0  0
  155.1519  133.0377  163.9435 F   0  0  0  0  0  0  0  0  0  0  0  0
  153.1246  132.5420  163.3577 F   0  0  0  0  0  0  0  0  0  0  0  0
  154.1042  135.3359  161.6067 C   0  0  0  0  0  0  0  0  0  0  0  0
  153.7720  140.6338  159.6589 C   0  0  0  0  0  0  0  0  0  0  0  0
  153.7275  140.2899  158.4764 O   0  0  0  0  0  0  0  0  0  0  0  0
  153.1801  141.8916  160.1427 C   0  0  0  0  0  0  0  0  0  0  0  0
  152.5136  142.7863  159.1047 C   0  0  0  0  0  0  0  0  0  0  0  0
  153.1350  144.3521  161.5883 H   0  0  0  0  0  0  0  0  0  0  0  0
  152.8623  143.5375  163.1272 H   0  0  0  0  0  0  0  0  0  0  0  0
  151.6026  143.5172  161.8946 H   0  0  0  0  0  0  0  0  0  0  0  0
  154.9076  139.5365  162.6331 H   0  0  0  0  0  0  0  0  0  0  0  0
  155.6659  138.6710  159.4033 H   0  0  0  0  0  0  0  0  0  0  0  0
  155.7256  138.3333  161.0780 H   0  0  0  0  0  0  0  0  0  0  0  0
  152.1433  138.4976  159.9989 H   0  0  0  0  0  0  0  0  0  0  0  0
  152.0480  136.8792  159.3242 H   0  0  0  0  0  0  0  0  0  0  0  0
  152.8288  138.1600  158.4178 H   0  0  0  0  0  0  0  0  0  0  0  0
  155.5993  136.5718  159.2713 H   0  0  0  0  0  0  0  0  0  0  0  0
  152.9675  138.4531  162.4531 H   0  0  0  0  0  0  0  0  0  0  0  0
  152.5821  137.3087  164.5916 H   0  0  0  0  0  0  0  0  0  0  0  0
  153.1489  134.9120  164.8607 H   0  0  0  0  0  0  0  0  0  0  0  0
  154.5141  134.7795  160.7768 H   0  0  0  0  0  0  0  0  0  0  0  0
  153.2448  143.1079  158.3624 H   0  0  0  0  0  0  0  0  0  0  0  0
  152.0643  143.6807  159.5332 H   0  0  0  0  0  0  0  0  0  0  0  0
  151.7241  142.2401  158.5876 H   0  0  0  0  0  0  0  0  0  0  0  0
  1  2  1  0  0  0  0
  1 24  1  0  0  0  0
  1 25  1  0  0  0  0
  1 26  1  0  0  0  0
  2 22  2  0  0  0  0
  2  3  1  0  0  0  0
  3  4  2  0  0  0  0
  4  5  1  0  0  0  0
  4 27  1  0  0  0  0
  5  6  1  0  0  0  0
  5 20  1  0  0  0  0
  6  7  1  0  0  0  0
  6 28  1  0  0  0  0
  6 29  1  0  0  0  0
  7  8  1  0  0  0  0
  7  9  1  0  0  0  0
  7 10  1  0  0  0  0
  8 30  1  0  0  0  0
  8 31  1  0  0  0  0
  8 32  1  0  0  0  0
  9 33  1  0  0  0  0
 10 19  1  0  0  0  0
 10 11  2  0  0  0  0
 11 12  1  0  0  0  0
 11 34  1  0  0  0  0
 12 13  2  0  0  0  0
 12 35  1  0  0  0  0
 13 14  1  0  0  0  0
 13 36  1  0  0  0  0
 14 15  1  0  0  0  0
 14 19  2  0  0  0  0
 15 16  1  0  0  0  0
 15 17  1  0  0  0  0
 15 18  1  0  0  0  0
 19 37  1  0  0  0  0
 20 21  2  0  0  0  0
 20 22  1  0  0  0  0
 22 23  1  0  0  0  0
 23 38  1  0  0  0  0
 23 39  1  0  0  0  0
 23 40  1  0  0  0  0
M  END
> <s_m_source_file>
AV-unprocessed.smi

> <i_m_source_file_index>
2281

> <i_lp_mmshare_version>
43012

> <i_f3d_flags>
0

> <s_epik_input>
W0NIM11jMW5bY0hdbihjKD1PKWMxW0NIM10pW0NIMl1bQ0BAXShbQ0gzXSkoW09IXSljMltjSF1bY0hdW2NIXWMoQyhGKShGKUYpW2NIXTI=

> <s_epik_cmdline>
J2VwaWtfcHl0aG9uJywgJy1waCcsICc3LjAnLCAnLXRuJywgJzgnLCAnLW1hJywgJzIwMCcsICctbWV0YWxfYmluZGluZycsICctaW1hZScsICc8aW5maWxlLm1hZT4nLCAnLW9tYWUnLCAnPG91dGZpbGUubWFlPic=

> <r_lp_tautomer_probability>
1

> <r_epik_Ionization_Penalty>
5.68222e-05

> <r_epik_Ionization_Penalty_Charging>
9.07816e-08

> <r_epik_Ionization_Penalty_Neutral>
5.67314e-05

> <r_epik_State_Penalty>
-0

> <r_epik_Charging_Adjusted_Penalty>
9.07816e-08

> <i_epik_Tot_Q>
0

> <i_epik_Tot_abs_Q>
0

> <r_epik_Metal_State_Penalty>
-0

> <b_epik_Metal_Only>
0

> <s_lp_Force_Field>
OPLS_2005

> <r_lp_Energy>
23.727

> <b_lp_Chiralities_Consistent>
1

> <s_lp_Variant>
AV-unprocessed.smi:2281-1

> <Gold.Version>
5.8.1

> <Gold.Id.Protein>
6NUR|6NUR_protein|mol2

> <Gold.PLP.Fitness>
49.5182

> <Gold.PLP.PLP>
-47.9911

> <Gold.PLP.part.hbond>
-1.9113

> <Gold.PLP.part.metal>
0.0000

> <Gold.PLP.part.buried>
-4.5789

> <Gold.PLP.part.nonpolar>
-40.6862

> <Gold.PLP.part.repulsive>
0.0000

> <Gold.PLP.ligand.clash>
0.8791

> <Gold.PLP.ligand.torsion>
0.8125

> <Gold.PLP.Chemscore.Hbond>
0.9760

> <Gold.PLP.Chemscore.CHOScore>
0.0000

> <Gold.PLP.Chemscore.Metal>
0.0000

> <Gold.Chemscore.Hbonds>
donor molecule, donor type, donor heavy atom, donor atom, acceptor molecule, acceptor atom, score
      P1  H  7997  8008       L1    21  0.86

> <Gold.PLP.Chemscore.Internal.Correction>
1.1032

> <Gold.Rescore>
     Score         DG    S(hbond)    S(metal)    S(lipo)     H(rot)  DE(clash)    DE(int)     intcor
     16.64     -18.04       1.37        0.00     113.98       2.09       0.34       1.07       ----

> <Gold.Chemscore.Fitness>
16.6355

> <Gold.Chemscore.DG>
-18.0449

> <Gold.Chemscore.ZeroCoef>
-5.4800

> <Gold.Chemscore.Hbond>
1.3682

> <Gold.Chemscore.Metal>
0.0000

> <Gold.Chemscore.Lipo>
113.9758

> <Gold.Chemscore.Internal_Hbond>
0.0000

> <Gold.Chemscore.DEClash>
0.3442

> <Gold.Chemscore.DEInternal>
1.0651

> <Gold.Chemscore.Rot>
2.0860

> <Gold.Chemscore.Internal.Correction>
   9.000000E+99

> <Gold.Chemscore.Hbonds>
donor molecule, donor type, donor heavy atom, donor atom, acceptor molecule, acceptor atom, score
      P1  H  7997  8008       L1    21  0.86

> <Gold.Chemscore.Hbond.Weighted>
-4.5699

> <Gold.Chemscore.Metal.Weighted>
-0.0000

> <Gold.Chemscore.Lipo.Weighted>
-13.3352

> <Gold.Chemscore.Internal_Hbond.Weighted>
0.0000

> <Gold.Chemscore.DEClash.Weighted>
0.3442

> <Gold.Chemscore.DEInternal.Weighted>
1.0651

> <Gold.Chemscore.Rot.Weighted>
5.3402

> <Gold.Chemscore.Internal.Correction.Weighted>
   9.000000E+99

> <Gold.Protein.RotatedTorsions>
[ 6907 6896 6895 6894 ] final  103.79 input  -60.11 | X-H torsion
[ 7974 7965 7964 7962 ] final   95.10 input  175.53 | X-H torsion
[ 8008 7997 7996 7995 ] final  -98.12 input   59.86 | X-H torsion
[ 10167 10162 10161 10158 ] final   59.66 input  -65.29 | X-H torsion
[ 10718 10713 10712 10709 ] final  -50.21 input   66.30 | X-H torsion
[ 10763 10752 10751 10750 ] final  -19.74 input  -60.55 | X-H torsion
[ 11005 11000 10999 10996 ] final -155.29 input  -57.11 | X-H torsion

> <Gold.Protein.ActiveResidues>
 VAL166  LYS551  ARG553  GLY616  TRP617  ASP618  TYR619  PRO620  LYS621  CYS622 
 ASP623  PHE694  ASN695  SER759  ASP760  ASP761  ALA762  ILE779  LEU786  VAL792 
 PHE793  MET794  SER795  GLU796  ALA797  LYS798  CYS799  TRP800  GLU811  SER814 

> <Gold.Protein.RotatedAtoms>
  152.5285  133.9773  159.7790 H   0  0  0  0  0  0  0  0  0  0  0  0  # atno 6907 bound_to 6896
  151.0034  133.6026  159.2699 H   0  0  0  0  0  0  0  0  0  0  0  0  # atno 6908 bound_to 6896
  151.3127  135.0805  159.9331 H   0  0  0  0  0  0  0  0  0  0  0  0  # atno 6909 bound_to 6896
  145.4567  139.2289  143.3010 H   0  0  0  0  0  0  0  0  0  0  0  0  # atno 7974 bound_to 7965
  154.7969  140.0457  157.1243 H   0  0  0  0  0  0  0  0  0  0  0  0  # atno 8008 bound_to 7997
  154.9524  140.3067  155.5049 H   0  0  0  0  0  0  0  0  0  0  0  0  # atno 8009 bound_to 7997
  156.2957  140.2285  156.4603 H   0  0  0  0  0  0  0  0  0  0  0  0  # atno 8010 bound_to 7997
  140.1740  144.4248  150.6647 H   0  0  0  0  0  0  0  0  0  0  0  0  # atno 10167 bound_to 10162
  156.1822  130.4151  149.9491 H   0  0  0  0  0  0  0  0  0  0  0  0  # atno 10718 bound_to 10713
  153.6095  135.6996  153.5352 H   0  0  0  0  0  0  0  0  0  0  0  0  # atno 10763 bound_to 10752
  153.3029  135.4123  155.1268 H   0  0  0  0  0  0  0  0  0  0  0  0  # atno 10764 bound_to 10752
  154.8566  135.3653  154.5632 H   0  0  0  0  0  0  0  0  0  0  0  0  # atno 10765 bound_to 10752
  140.6880  134.4072  157.5221 H   0  0  0  0  0  0  0  0  0  0  0  0  # atno 11005 bound_to 11000
  146.2474  140.5332  142.8908 LP  0  0  0  0  0  0  0  0  0  0  0  0  # atno 17320 bound_to 7965
  144.8028  140.6244  143.6467 LP  0  0  0  0  0  0  0  0  0  0  0  0  # atno 17321 bound_to 7965
  140.6563  143.2238  151.5960 LP  0  0  0  0  0  0  0  0  0  0  0  0  # atno 17342 bound_to 10162
  139.5325  144.2875  152.1179 LP  0  0  0  0  0  0  0  0  0  0  0  0  # atno 17343 bound_to 10162
  156.7258  130.9024  151.3622 LP  0  0  0  0  0  0  0  0  0  0  0  0  # atno 17370 bound_to 10713
  157.6875  130.9200  150.0426 LP  0  0  0  0  0  0  0  0  0  0  0  0  # atno 17371 bound_to 10713
  139.8932  134.8737  156.2236 LP  0  0  0  0  0  0  0  0  0  0  0  0  # atno 17394 bound_to 11000
  141.0264  133.7013  156.1355 LP  0  0  0  0  0  0  0  0  0  0  0  0  # atno 17395 bound_to 11000

$$$$
