AV-unprocessed.smi:3173|AV-procd|sdf|12119|dock1
  -GOLD-   2272017553D 1   1.00000     0.00000
 Structure written by MMmdl.
 36 37  0  0  0  0  0  0  0  0  2 V2000
  153.3163  139.7822  158.0103 O   0  0  0  0  0  0  0  0  0  0  0  0
  152.2946  140.2291  158.5322 C   0  0  0  0  0  0  0  0  0  0  0  0
  152.2975  140.6540  160.0046 C   0  0  0  0  0  0  0  0  0  0  0  0
  153.0160  141.9975  160.2489 C   0  0  2  0  0  0  0  0  0  0  0  0
  152.9648  142.4196  161.6945 C   0  0  0  0  0  0  0  0  0  0  0  0
  152.5339  143.6695  161.8511 C   0  0  0  0  0  0  0  0  0  0  0  0
  152.2089  144.3341  160.5425 C   0  0  0  0  0  0  0  0  0  0  0  0
  152.3902  143.2067  159.5025 C   0  0  0  0  0  0  0  0  0  0  0  0
  151.1370  140.3784  157.8700 N   0  0  0  0  0  0  0  0  0  0  0  0
  150.9353  140.0626  156.4608 C   0  0  0  0  0  0  0  0  0  0  0  0
  150.5124  141.3057  155.6599 C   0  0  0  0  0  0  0  0  0  0  0  0
  149.1827  141.1128  154.9576 C   0  0  0  0  0  0  0  0  0  0  0  0
  148.7714  139.8548  154.4659 C   0  0  0  0  0  0  0  0  0  0  0  0
  147.5198  139.7407  153.8259 C   0  0  0  0  0  0  0  0  0  0  0  0
  146.7063  140.8850  153.6916 C   0  0  0  0  0  0  0  0  0  0  0  0
  147.1655  142.1161  154.2030 C   0  0  0  0  0  0  0  0  0  0  0  0
  148.3705  142.1848  154.8106 N   0  3  0  0  0  0  0  0  0  0  0  0
  151.2715  140.7138  160.3717 H   0  0  0  0  0  0  0  0  0  0  0  0
  152.7850  139.8659  160.5797 H   0  0  0  0  0  0  0  0  0  0  0  0
  154.0710  141.9073  159.9856 H   0  0  0  0  0  0  0  0  0  0  0  0
  153.2685  141.7628  162.4964 H   0  0  0  0  0  0  0  0  0  0  0  0
  152.4341  144.1805  162.7974 H   0  0  0  0  0  0  0  0  0  0  0  0
  151.1904  144.7238  160.5469 H   0  0  0  0  0  0  0  0  0  0  0  0
  152.8991  145.1598  160.3670 H   0  0  0  0  0  0  0  0  0  0  0  0
  153.0143  143.5266  158.6673 H   0  0  0  0  0  0  0  0  0  0  0  0
  151.4156  142.9427  159.0892 H   0  0  0  0  0  0  0  0  0  0  0  0
  150.3444  140.7462  158.3767 H   0  0  0  0  0  0  0  0  0  0  0  0
  151.8460  139.6298  156.0427 H   0  0  0  0  0  0  0  0  0  0  0  0
  150.1660  139.2931  156.3918 H   0  0  0  0  0  0  0  0  0  0  0  0
  150.4431  142.1710  156.3206 H   0  0  0  0  0  0  0  0  0  0  0  0
  151.2698  141.5504  154.9140 H   0  0  0  0  0  0  0  0  0  0  0  0
  149.4056  138.9872  154.5785 H   0  0  0  0  0  0  0  0  0  0  0  0
  147.1878  138.7865  153.4430 H   0  0  0  0  0  0  0  0  0  0  0  0
  145.7447  140.8188  153.2039 H   0  0  0  0  0  0  0  0  0  0  0  0
  146.6096  143.0406  154.1452 H   0  0  0  0  0  0  0  0  0  0  0  0
  148.6820  143.0862  155.1732 H   0  0  0  0  0  0  0  0  0  0  0  0
  1  2  2  0  0  0  0
  2  3  1  0  0  0  0
  2  9  1  0  0  0  0
  3  4  1  0  0  0  0
  3 18  1  0  0  0  0
  3 19  1  0  0  0  0
  4  8  1  0  0  0  0
  4  5  1  0  0  0  0
  4 20  1  0  0  0  0
  5  6  2  0  0  0  0
  5 21  1  0  0  0  0
  6  7  1  0  0  0  0
  6 22  1  0  0  0  0
  7  8  1  0  0  0  0
  7 23  1  0  0  0  0
  7 24  1  0  0  0  0
  8 25  1  0  0  0  0
  8 26  1  0  0  0  0
  9 10  1  0  0  0  0
  9 27  1  0  0  0  0
 10 11  1  0  0  0  0
 10 28  1  0  0  0  0
 10 29  1  0  0  0  0
 11 12  1  0  0  0  0
 11 30  1  0  0  0  0
 11 31  1  0  0  0  0
 12 17  1  0  0  0  0
 12 13  2  0  0  0  0
 13 14  1  0  0  0  0
 13 32  1  0  0  0  0
 14 15  2  0  0  0  0
 14 33  1  0  0  0  0
 15 16  1  0  0  0  0
 15 34  1  0  0  0  0
 16 17  2  0  0  0  0
 16 35  1  0  0  0  0
 17 36  1  0  0  0  0
M  CHG  1  17   1
M  END
> <s_m_source_file>
AV-unprocessed.smi

> <i_m_source_file_index>
3173

> <i_lp_mmshare_version>
43012

> <i_f3d_flags>
0

> <s_epik_input>
W0NIMl0xW0NIMl1bQ0hdPVtDSF1bQ0BIXTFbQ0gyXUMoPU8pW05IXVtDSDJdW0NIMl1jMltjSF1bY0hdW2NIXVtjSF1uMg==

> <s_epik_cmdline>
J2VwaWtfcHl0aG9uJywgJy1waCcsICc3LjAnLCAnLXRuJywgJzgnLCAnLW1hJywgJzIwMCcsICctbWV0YWxfYmluZGluZycsICctaW1hZScsICc8aW5maWxlLm1hZT4nLCAnLW9tYWUnLCAnPG91dGZpbGUubWFlPic=

> <r_epik_Ionization_Penalty>
1.86798

> <r_epik_Ionization_Penalty_Charging>
1.86798

> <r_epik_Ionization_Penalty_Neutral>
1.53848e-08

> <r_epik_State_Penalty>
1.98677

> <r_epik_Charging_Adjusted_Penalty>
3.85475

> <i_epik_Tot_Q>
1

> <i_epik_Tot_abs_Q>
1

> <r_epik_Metal_State_Penalty>
2.01174

> <b_epik_Metal_Only>
0

> <s_lp_Force_Field>
OPLS_2005

> <r_lp_Energy>
19.7802

> <b_lp_Chiralities_Consistent>
1

> <s_lp_Variant>
AV-unprocessed.smi:3173-3

> <Gold.Version>
5.8.1

> <Gold.Id.Protein>
6NUR|6NUR_protein|mol2

> <Gold.PLP.Fitness>
48.3279

> <Gold.PLP.PLP>
-41.1191

> <Gold.PLP.part.hbond>
-2.0000

> <Gold.PLP.part.metal>
0.0000

> <Gold.PLP.part.buried>
-2.7868

> <Gold.PLP.part.nonpolar>
-36.0183

> <Gold.PLP.part.repulsive>
0.2867

> <Gold.PLP.ligand.clash>
0.0000

> <Gold.PLP.ligand.torsion>
0.9324

> <Gold.PLP.Chemscore.Hbond>
3.0000

> <Gold.PLP.Chemscore.CHOScore>
0.0000

> <Gold.PLP.Chemscore.Metal>
0.0000

> <Gold.Chemscore.Hbonds>
donor molecule, donor type, donor heavy atom, donor atom, acceptor molecule, acceptor atom, score
      L1  H    17    36       P1  8028  2.00
      P1  H  7997  8010       L1     1  1.00

> <Gold.PLP.Chemscore.Internal.Correction>
0.0737

> <Gold.Rescore>
     Score         DG    S(hbond)    S(metal)    S(lipo)     H(rot)  DE(clash)    DE(int)     intcor
     20.32     -21.29       1.99        0.00     113.62       1.61       0.03       0.94       ----

> <Gold.Chemscore.Fitness>
20.3152

> <Gold.Chemscore.DG>
-21.2882

> <Gold.Chemscore.ZeroCoef>
-5.4800

> <Gold.Chemscore.Hbond>
1.9886

> <Gold.Chemscore.Metal>
0.0000

> <Gold.Chemscore.Lipo>
113.6204

> <Gold.Chemscore.Internal_Hbond>
0.0000

> <Gold.Chemscore.DEClash>
0.0342

> <Gold.Chemscore.DEInternal>
0.9388

> <Gold.Chemscore.Rot>
1.6122

> <Gold.Chemscore.Internal.Correction>
   9.000000E+99

> <Gold.Chemscore.Hbonds>
donor molecule, donor type, donor heavy atom, donor atom, acceptor molecule, acceptor atom, score
      L1  H    17    36       P1  8028  1.00
      P1  H  7997  8010       L1     1  0.99

> <Gold.Chemscore.Hbond.Weighted>
-6.6418

> <Gold.Chemscore.Metal.Weighted>
-0.0000

> <Gold.Chemscore.Lipo.Weighted>
-13.2936

> <Gold.Chemscore.Internal_Hbond.Weighted>
0.0000

> <Gold.Chemscore.DEClash.Weighted>
0.0342

> <Gold.Chemscore.DEInternal.Weighted>
0.9388

> <Gold.Chemscore.Rot.Weighted>
4.1271

> <Gold.Chemscore.Internal.Correction.Weighted>
   9.000000E+99

> <Gold.Protein.RotatedTorsions>
[ 6907 6896 6895 6894 ] final   26.16 input  -60.11 | X-H torsion
[ 7974 7965 7964 7962 ] final  176.67 input  175.53 | X-H torsion
[ 8008 7997 7996 7995 ] final   27.80 input   59.86 | X-H torsion
[ 10167 10162 10161 10158 ] final  -30.60 input  -65.29 | X-H torsion
[ 10718 10713 10712 10709 ] final -170.10 input   66.30 | X-H torsion
[ 10763 10752 10751 10750 ] final  -17.52 input  -60.55 | X-H torsion
[ 11005 11000 10999 10996 ] final -161.24 input  -57.11 | X-H torsion

> <Gold.Protein.ActiveResidues>
 VAL166  LYS551  ARG553  GLY616  TRP617  ASP618  TYR619  PRO620  LYS621  CYS622 
 ASP623  PHE694  ASN695  SER759  ASP760  ASP761  ALA762  ILE779  LEU786  VAL792 
 PHE793  MET794  SER795  GLU796  ALA797  LYS798  CYS799  TRP800  GLU811  SER814 

> <Gold.Protein.RotatedAtoms>
  151.9834  135.0017  160.0558 H   0  0  0  0  0  0  0  0  0  0  0  0  # atno 6907 bound_to 6896
  152.1675  133.4617  159.4900 H   0  0  0  0  0  0  0  0  0  0  0  0  # atno 6908 bound_to 6896
  150.6896  134.1912  159.4329 H   0  0  0  0  0  0  0  0  0  0  0  0  # atno 6909 bound_to 6896
  144.7180  140.0131  143.6440 H   0  0  0  0  0  0  0  0  0  0  0  0  # atno 7974 bound_to 7965
  155.0486  140.3177  155.4699 H   0  0  0  0  0  0  0  0  0  0  0  0  # atno 8008 bound_to 7997
  156.2839  140.2150  156.5555 H   0  0  0  0  0  0  0  0  0  0  0  0  # atno 8009 bound_to 7997
  154.7229  140.0488  157.0644 H   0  0  0  0  0  0  0  0  0  0  0  0  # atno 8010 bound_to 7997
  140.7247  143.3836  151.1556 H   0  0  0  0  0  0  0  0  0  0  0  0  # atno 10167 bound_to 10162
  156.7213  130.9271  151.3097 H   0  0  0  0  0  0  0  0  0  0  0  0  # atno 10718 bound_to 10713
  153.5751  135.7006  153.5487 H   0  0  0  0  0  0  0  0  0  0  0  0  # atno 10763 bound_to 10752
  153.3310  135.4047  155.1495 H   0  0  0  0  0  0  0  0  0  0  0  0  # atno 10764 bound_to 10752
  154.8627  135.3719  154.5276 H   0  0  0  0  0  0  0  0  0  0  0  0  # atno 10765 bound_to 10752
  140.6226  134.4734  157.5224 H   0  0  0  0  0  0  0  0  0  0  0  0  # atno 11005 bound_to 11000
  146.0242  139.3277  143.0794 LP  0  0  0  0  0  0  0  0  0  0  0  0  # atno 17320 bound_to 7965
  145.8531  140.9517  143.0739 LP  0  0  0  0  0  0  0  0  0  0  0  0  # atno 17321 bound_to 7965
  139.7429  143.8897  152.3055 LP  0  0  0  0  0  0  0  0  0  0  0  0  # atno 17342 bound_to 10162
  139.8724  144.7061  150.8972 LP  0  0  0  0  0  0  0  0  0  0  0  0  # atno 17343 bound_to 10162
  157.6897  130.9221  150.0480 LP  0  0  0  0  0  0  0  0  0  0  0  0  # atno 17370 bound_to 10713
  156.1593  130.3643  149.9323 LP  0  0  0  0  0  0  0  0  0  0  0  0  # atno 17371 bound_to 10713
  139.9147  134.8271  156.1406 LP  0  0  0  0  0  0  0  0  0  0  0  0  # atno 17394 bound_to 11000
  141.0731  133.6787  156.2182 LP  0  0  0  0  0  0  0  0  0  0  0  0  # atno 17395 bound_to 11000

$$$$
