#       Name:                AV-unprocessed.smi:2489
#       Creating user name   scv26
#       Creation time:       Fri Mar 27 13:43:54 2020


#       File generated by GOLD software.
#

@<TRIPOS>MOLECULE
AV-unprocessed.smi:2489
    40    41     1
SMALL
NO_CHARGES


@<TRIPOS>ATOM
      1 ****        -4.3071   1.8453  -0.1202 C.3            1 S1                 0.0000
      2 ****        -4.7821   0.5088  -0.0462 O.3            1 S1                 0.0000
      3 ****        -3.8530  -0.5083  -0.0007 C.ar           1 S1                 0.0000
      4 ****        -4.3437  -1.8289   0.0593 C.ar           1 S1                 0.0000
      5 ****        -3.4405  -2.9064   0.1171 C.ar           1 S1                 0.0000
      6 ****        -2.1120  -2.6699   0.1087 N.pl3          1 S1                 1.0000
      7 ****        -1.5759  -1.4307   0.0377 C.ar           1 S1                 0.0000
      8 ****        -0.1585  -1.3369   0.0550 N.am           1 S1                 0.0000
      9 ****         0.6206  -0.3573  -0.4395 C.2            1 S1                 0.0000
     10 ****         0.1988   0.6457  -1.0164 O.2            1 S1                 0.0000
     11 ****         2.1290  -0.5548  -0.2454 C.3            1 S1                 0.0000
     12 ****         2.9964  -0.0069  -1.3935 C.3            1 S1                 0.0000
     13 ****         3.6043   1.2503  -0.8066 C.3            1 S1                 0.0000
     14 ****         3.7245   0.8744   0.6661 C.3            1 S1                 0.0000
     15 ****         3.8559   2.0736   1.6106 C.3            1 S1                 0.0000
     16 ****         2.5174   0.1698   0.9204 O.3            1 S1                 0.0000
     17 ****        -2.4470  -0.3123  -0.0050 C.ar           1 S1                 0.0000
     18 ****        -5.1568   2.5266  -0.1640 H              1 S1                 0.0000
     19 ****        -3.7080   2.0079  -1.0173 H              1 S1                 0.0000
     20 ****        -3.7192   2.1084   0.7602 H              1 S1                 0.0000
     21 ****        -5.4081  -2.0135   0.0661 H              1 S1                 0.0000
     22 ****        -3.7386  -3.9434   0.1695 H              1 S1                 0.0000
     23 ****         0.3274  -2.1385   0.4302 H              1 S1                 0.0000
     24 ****         2.3491  -1.6135  -0.0979 H              1 S1                 0.0000
     25 ****         3.7844  -0.7231  -1.6304 H              1 S1                 0.0000
     26 ****         2.4502   0.1899  -2.3171 H              1 S1                 0.0000
     27 ****         4.5601   1.5146  -1.2597 H              1 S1                 0.0000
     28 ****         2.9198   2.0901  -0.9341 H              1 S1                 0.0000
     29 ****         4.5627   0.1896   0.8065 H              1 S1                 0.0000
     30 ****         4.7656   2.6370   1.4022 H              1 S1                 0.0000
     31 ****         3.8961   1.7472   2.6501 H              1 S1                 0.0000
     32 ****         3.0091   2.7530   1.5074 H              1 S1                 0.0000
     33 ****        -2.0380   0.6850  -0.0259 H              1 S1                 0.0000
     34 ****        -1.4824  -3.4716   0.1524 H              1 S1                 0.0000
     35 ****        -5.3549   0.3521  -0.8508 LP             1 S1                 0.0000
     36 ****        -5.3412   0.4375   0.7799 LP             1 S1                 0.0000
     37 ****        -0.7849   0.7729  -1.1434 LP             1 S1                 0.0000
     38 ****         0.8400   1.3329  -1.3578 LP             1 S1                 0.0000
     39 ****         2.6582  -0.4687   1.6771 LP             1 S1                 0.0000
     40 ****         1.7975   0.8202   1.1627 LP             1 S1                 0.0000
@<TRIPOS>BOND
    1    1    2 1     
    2    1   18 1     
    3    1   19 1     
    4    1   20 1     
    5    2    3 1     
    6    3   17 ar    
    7    3    4 ar    
    8    4    5 ar    
    9    4   21 1     
   10    5    6 ar    
   11    5   22 1     
   12    6    7 ar    
   13    6   34 1     
   14    7    8 1     
   15    7   17 ar    
   16    8    9 am    
   17    8   23 1     
   18    9   10 2     
   19    9   11 1     
   20   11   16 1     
   21   11   12 1     
   22   11   24 1     
   23   12   13 1     
   24   12   25 1     
   25   12   26 1     
   26   13   14 1     
   27   13   27 1     
   28   13   28 1     
   29   14   15 1     
   30   14   16 1     
   31   14   29 1     
   32   15   30 1     
   33   15   31 1     
   34   15   32 1     
   35   17   33 1     
   36    2   35 1     
   37    2   36 1     
   38   10   37 1     
   39   10   38 1     
   40   16   39 1     
   41   16   40 1     
@<TRIPOS>SUBSTRUCTURE
      1 S1             1
@<TRIPOS>SET
LONE_PAIRS      STATIC     ATOMS    <user>   **** ""
6 35 36 37 38 39 40
DONOR_HYDROGENS      STATIC     ATOMS    <user>   **** ""
2 34 23
ATOM$BLUE        STATIC     ATOMS    COLORGROUP SYSTEM
6 35 36 37 38 39 40
ATOM$RED        STATIC     ATOMS    COLORGROUP SYSTEM
2 34 23
