#       Name:                AV-unprocessed.smi:2553
#       Creating user name   scv26
#       Creation time:       Fri Mar 27 14:06:25 2020


#       File generated by GOLD software.
#

@<TRIPOS>MOLECULE
AV-unprocessed.smi:2553
    35    36     1
SMALL
NO_CHARGES


@<TRIPOS>ATOM
      1 ****        -3.5660   3.9073   0.7973 O.2            1 S1                 0.0000
      2 ****        -3.1916   2.7356   0.7745 C.2            1 S1                 0.0000
      3 ****        -2.9789   2.0081   1.9102 N.pl3          1 S1                -1.0000
      4 ****        -2.5646   0.7036   1.9054 C.2            1 S1                 0.0000
      5 ****        -2.3649   0.0723   2.9436 O.2            1 S1                 0.0000
      6 ****        -2.3625   0.0827   0.7058 N.am           1 S1                 0.0000
      7 ****        -1.9026  -1.3093   0.6052 C.3            1 S1                 0.0000
      8 ****        -0.3712  -1.4018   0.6862 C.3            1 S1                 0.0000
      9 ****         0.1803  -0.7674  -0.4597 O.3            1 S1                 0.0000
     10 ****         1.5501  -0.6583  -0.5609 C.ar           1 S1                 0.0000
     11 ****         2.4595  -1.2404   0.3582 C.ar           1 S1                 0.0000
     12 ****         3.8483  -1.0866   0.1822 C.ar           1 S1                 0.0000
     13 ****         4.3450  -0.3520  -0.9099 C.ar           1 S1                 0.0000
     14 ****         5.6806  -0.2054  -1.0780 F              1 S1                 0.0000
     15 ****         3.4510   0.2290  -1.8276 C.ar           1 S1                 0.0000
     16 ****         2.0614   0.0767  -1.6538 C.ar           1 S1                 0.0000
     17 ****         0.9826   0.8026  -2.7914 Cl             1 S1                 0.0000
     18 ****        -2.5591   0.7888  -0.4930 C.2            1 S1                 0.0000
     19 ****        -2.9580   2.0752  -0.5084 C.2            1 S1                 0.0000
     20 ****        -3.1790   2.9209  -1.9985 Cl             1 S1                 0.0000
     21 ****        -2.3502  -1.9149   1.3947 H              1 S1                 0.0000
     22 ****        -2.2501  -1.7578  -0.3266 H              1 S1                 0.0000
     23 ****        -0.0132  -0.9305   1.6030 H              1 S1                 0.0000
     24 ****        -0.0728  -2.4507   0.7072 H              1 S1                 0.0000
     25 ****         2.1160  -1.8132   1.2060 H              1 S1                 0.0000
     26 ****         4.5334  -1.5344   0.8868 H              1 S1                 0.0000
     27 ****         3.8322   0.7929  -2.6661 H              1 S1                 0.0000
     28 ****        -2.3553   0.2264  -1.3927 H              1 S1                 0.0000
     29 ****        -3.7091   4.4033  -0.0592 LP             1 S1                 0.0000
     30 ****        -3.7273   4.3638   1.6723 LP             1 S1                 0.0000
     31 ****        -3.1341   2.4521   2.7927 LP             1 S1                 0.0000
     32 ****        -2.5052   0.5118   3.8309 LP             1 S1                 0.0000
     33 ****        -2.0625  -0.8798   2.8995 LP             1 S1                 0.0000
     34 ****        -0.1919   0.1603  -0.4902 LP             1 S1                 0.0000
     35 ****        -0.1341  -1.2791  -1.2593 LP             1 S1                 0.0000
@<TRIPOS>BOND
    1    1    2 2     
    2    2   19 1     
    3    2    3 1     
    4    3    4 1     
    5    4    5 2     
    6    4    6 am    
    7    6    7 1     
    8    6   18 1     
    9    7    8 1     
   10    7   21 1     
   11    7   22 1     
   12    8    9 1     
   13    8   23 1     
   14    8   24 1     
   15    9   10 1     
   16   10   16 ar    
   17   10   11 ar    
   18   11   12 ar    
   19   11   25 1     
   20   12   13 ar    
   21   12   26 1     
   22   13   14 1     
   23   13   15 ar    
   24   15   16 ar    
   25   15   27 1     
   26   16   17 1     
   27   18   19 2     
   28   18   28 1     
   29   19   20 1     
   30    1   29 1     
   31    1   30 1     
   32    3   31 1     
   33    5   32 1     
   34    5   33 1     
   35    9   34 1     
   36    9   35 1     
@<TRIPOS>SUBSTRUCTURE
      1 S1             1
@<TRIPOS>SET
LONE_PAIRS      STATIC     ATOMS    <user>   **** ""
7 29 30 31 32 33 34 35
ATOM$BLUE        STATIC     ATOMS    COLORGROUP SYSTEM
7 29 30 31 32 33 34 35
