AV-unprocessed.smi:754|AV-procd|sdf|3609|dock1
  -GOLD-   22720 1 03D 1   1.00000     0.00000
 Structure written by MMmdl.
 37 38  0  0  0  0  0  0  0  0  1 V2000
  151.6326  145.4051  160.0235 C   0  0  0  0  0  0  0  0  0  0  0  0
  150.1643  144.9980  160.1625 C   0  0  0  0  0  0  0  0  0  0  0  0
  150.0504  143.6061  159.9193 O   0  0  0  0  0  0  0  0  0  0  0  0
  150.0435  143.2857  158.5371 C   0  0  2  0  0  0  0  0  0  0  0  0
  149.7982  141.8057  158.2274 C   0  0  0  0  0  0  0  0  0  0  0  0
  150.8369  141.9782  157.1182 C   0  0  2  0  0  0  0  0  0  0  0  0
  151.6994  140.8126  156.9714 N   0  0  0  0  0  0  0  0  0  0  0  0
  151.8273  140.1024  155.8408 C   0  0  0  0  0  0  0  0  0  0  0  0
  151.1483  140.3013  154.8340 O   0  0  0  0  0  0  0  0  0  0  0  0
  152.9073  139.0209  155.8357 C   0  0  0  0  0  0  0  0  0  0  0  0
  152.5422  137.9293  156.7199 N   0  0  0  0  0  0  0  0  0  0  0  0
  152.3163  137.9039  158.0352 C   0  0  0  0  0  0  0  0  0  0  0  0
  152.0351  136.6817  158.4597 N   0  0  0  0  0  0  0  0  0  0  0  0
  152.0984  135.9244  157.3018 N   0  0  0  0  0  0  0  0  0  0  0  0
  152.3989  136.6591  156.2663 N   0  0  0  0  0  0  0  0  0  0  0  0
  151.4640  143.1383  157.9386 C   0  0  0  0  0  0  0  0  0  0  0  0
  151.9660  144.3321  157.1268 C   0  0  0  0  0  0  0  0  0  0  0  0
  152.5819  142.7727  158.9325 C   0  0  0  0  0  0  0  0  0  0  0  0
  151.7595  146.4729  160.2016 H   0  0  0  0  0  0  0  0  0  0  0  0
  152.0062  145.1853  159.0231 H   0  0  0  0  0  0  0  0  0  0  0  0
  152.2563  144.8696  160.7398 H   0  0  0  0  0  0  0  0  0  0  0  0
  149.8054  145.2403  161.1635 H   0  0  0  0  0  0  0  0  0  0  0  0
  149.5551  145.5545  159.4491 H   0  0  0  0  0  0  0  0  0  0  0  0
  149.4120  143.9515  157.9436 H   0  0  0  0  0  0  0  0  0  0  0  0
  150.1124  141.1394  159.0329 H   0  0  0  0  0  0  0  0  0  0  0  0
  148.7912  141.5747  157.8793 H   0  0  0  0  0  0  0  0  0  0  0  0
  150.3778  142.3158  156.1857 H   0  0  0  0  0  0  0  0  0  0  0  0
  152.2885  140.5767  157.7567 H   0  0  0  0  0  0  0  0  0  0  0  0
  153.0426  138.6314  154.8259 H   0  0  0  0  0  0  0  0  0  0  0  0
  153.8638  139.4375  156.1550 H   0  0  0  0  0  0  0  0  0  0  0  0
  152.3674  138.7709  158.6772 H   0  0  0  0  0  0  0  0  0  0  0  0
  152.8806  144.0905  156.5844 H   0  0  0  0  0  0  0  0  0  0  0  0
  152.1774  145.1895  157.7664 H   0  0  0  0  0  0  0  0  0  0  0  0
  151.2301  144.6530  156.3891 H   0  0  0  0  0  0  0  0  0  0  0  0
  153.5121  142.5250  158.4196 H   0  0  0  0  0  0  0  0  0  0  0  0
  152.3189  141.9142  159.5506 H   0  0  0  0  0  0  0  0  0  0  0  0
  152.7968  143.5989  159.6107 H   0  0  0  0  0  0  0  0  0  0  0  0
  1  2  1  0  0  0  0
  1 19  1  0  0  0  0
  1 20  1  0  0  0  0
  1 21  1  0  0  0  0
  2  3  1  0  0  0  0
  2 22  1  0  0  0  0
  2 23  1  0  0  0  0
  3  4  1  0  0  0  0
  4 16  1  0  0  0  0
  4  5  1  0  0  0  0
  4 24  1  0  0  0  0
  5  6  1  0  0  0  0
  5 25  1  0  0  0  0
  5 26  1  0  0  0  0
  6  7  1  0  0  0  0
  6 16  1  0  0  0  0
  6 27  1  0  0  0  0
  7  8  1  0  0  0  0
  7 28  1  0  0  0  0
  8  9  2  0  0  0  0
  8 10  1  0  0  0  0
 10 11  1  0  0  0  0
 10 29  1  0  0  0  0
 10 30  1  0  0  0  0
 11 15  1  0  0  0  0
 11 12  1  0  0  0  0
 12 13  2  0  0  0  0
 12 31  1  0  0  0  0
 13 14  1  0  0  0  0
 14 15  2  0  0  0  0
 16 17  1  0  0  0  0
 16 18  1  0  0  0  0
 17 32  1  0  0  0  0
 17 33  1  0  0  0  0
 17 34  1  0  0  0  0
 18 35  1  0  0  0  0
 18 36  1  0  0  0  0
 18 37  1  0  0  0  0
M  END
> <s_m_source_file>
AV-unprocessed.smi

> <i_m_source_file_index>
754

> <i_lp_mmshare_version>
43012

> <i_f3d_flags>
0

> <s_epik_input>
W0NIM11bQ0gyXU9bQ0BASF0oQzEoW0NIM10pW0NIM10pW0NIMl1bQ0BIXTFbTkhdQyg9TylbQ0gyXW4yW2NIXW5ubjI=

> <s_epik_cmdline>
J2VwaWtfcHl0aG9uJywgJy1waCcsICc3LjAnLCAnLXRuJywgJzgnLCAnLW1hJywgJzIwMCcsICctbWV0YWxfYmluZGluZycsICctaW1hZScsICc8aW5maWxlLm1hZT4nLCAnLW9tYWUnLCAnPG91dGZpbGUubWFlPic=

> <r_lp_tautomer_probability>
1

> <r_epik_Ionization_Penalty>
8.28422e-07

> <r_epik_Ionization_Penalty_Charging>
0

> <r_epik_Ionization_Penalty_Neutral>
8.28422e-07

> <r_epik_State_Penalty>
-0

> <r_epik_Charging_Adjusted_Penalty>
0

> <i_epik_Tot_Q>
0

> <i_epik_Tot_abs_Q>
0

> <r_epik_Metal_State_Penalty>
-0

> <b_epik_Metal_Only>
0

> <s_lp_Force_Field>
OPLS_2005

> <r_lp_Energy>
20.4803

> <b_lp_Chiralities_Consistent>
1

> <s_lp_Variant>
AV-unprocessed.smi:754-3

> <Gold.Version>
5.8.1

> <Gold.Id.Protein>
6NUR|6NUR_protein|mol2

> <Gold.PLP.Fitness>
40.8639

> <Gold.PLP.PLP>
-33.3616

> <Gold.PLP.part.hbond>
-5.0000

> <Gold.PLP.part.metal>
0.0000

> <Gold.PLP.part.buried>
-5.3716

> <Gold.PLP.part.nonpolar>
-24.0162

> <Gold.PLP.part.repulsive>
0.2825

> <Gold.PLP.ligand.clash>
0.0000

> <Gold.PLP.ligand.torsion>
0.4521

> <Gold.PLP.Chemscore.Hbond>
2.6880

> <Gold.PLP.Chemscore.CHOScore>
0.0000

> <Gold.PLP.Chemscore.Metal>
0.0000

> <Gold.Chemscore.Hbonds>
donor molecule, donor type, donor heavy atom, donor atom, acceptor molecule, acceptor atom, score
      P1  H  6896  6908       L1    13  0.41
      P1  H  7989  7998       L1     9  0.99
      P1  H 10752 10764       L1    15  1.00

> <Gold.PLP.Chemscore.Internal.Correction>
0.3424

> <Gold.Rescore>
     Score         DG    S(hbond)    S(metal)    S(lipo)     H(rot)  DE(clash)    DE(int)     intcor
     13.98     -15.99       2.22        0.00      80.25       2.46       1.52       0.49       ----

> <Gold.Chemscore.Fitness>
13.9822

> <Gold.Chemscore.DG>
-15.9875

> <Gold.Chemscore.ZeroCoef>
-5.4800

> <Gold.Chemscore.Hbond>
2.2216

> <Gold.Chemscore.Metal>
0.0000

> <Gold.Chemscore.Lipo>
80.2492

> <Gold.Chemscore.Internal_Hbond>
0.0000

> <Gold.Chemscore.DEClash>
1.5170

> <Gold.Chemscore.DEInternal>
0.4883

> <Gold.Chemscore.Rot>
2.4616

> <Gold.Chemscore.Internal.Correction>
   9.000000E+99

> <Gold.Chemscore.Hbonds>
donor molecule, donor type, donor heavy atom, donor atom, acceptor molecule, acceptor atom, score
      P1  H  6896  6908       L1    13  0.14
      P1  H  7989  7998       L1     9  0.91
      P1  H 10752 10764       L1    15  0.39

> <Gold.Chemscore.Hbond.Weighted>
-7.4200

> <Gold.Chemscore.Metal.Weighted>
-0.0000

> <Gold.Chemscore.Lipo.Weighted>
-9.3892

> <Gold.Chemscore.Internal_Hbond.Weighted>
0.0000

> <Gold.Chemscore.DEClash.Weighted>
1.5170

> <Gold.Chemscore.DEInternal.Weighted>
0.4883

> <Gold.Chemscore.Rot.Weighted>
6.3016

> <Gold.Chemscore.Internal.Correction.Weighted>
   9.000000E+99

> <Gold.Protein.RotatedTorsions>
[ 6907 6896 6895 6894 ] final -119.22 input  -60.11 | X-H torsion
[ 7974 7965 7964 7962 ] final  -12.04 input  175.53 | X-H torsion
[ 8008 7997 7996 7995 ] final   65.98 input   59.86 | X-H torsion
[ 10167 10162 10161 10158 ] final  155.49 input  -65.29 | X-H torsion
[ 10718 10713 10712 10709 ] final -146.28 input   66.30 | X-H torsion
[ 10763 10752 10751 10750 ] final  -24.07 input  -60.55 | X-H torsion
[ 11005 11000 10999 10996 ] final  147.01 input  -57.11 | X-H torsion

> <Gold.Protein.ActiveResidues>
 VAL166  LYS551  ARG553  GLY616  TRP617  ASP618  TYR619  PRO620  LYS621  CYS622 
 ASP623  PHE694  ASN695  SER759  ASP760  ASP761  ALA762  ILE779  LEU786  VAL792 
 PHE793  MET794  SER795  GLU796  ALA797  LYS798  CYS799  TRP800  GLU811  SER814 

> <Gold.Protein.RotatedAtoms>
  150.8286  133.8129  159.3107 H   0  0  0  0  0  0  0  0  0  0  0  0  # atno 6907 bound_to 6896
  151.5866  135.1054  160.0039 H   0  0  0  0  0  0  0  0  0  0  0  0  # atno 6908 bound_to 6896
  152.4368  133.7334  159.6657 H   0  0  0  0  0  0  0  0  0  0  0  0  # atno 6909 bound_to 6896
  146.2166  140.2999  142.8374 H   0  0  0  0  0  0  0  0  0  0  0  0  # atno 7974 bound_to 7965
  155.6703  140.3497  155.4816 H   0  0  0  0  0  0  0  0  0  0  0  0  # atno 8008 bound_to 7997
  155.9694  140.1153  157.0848 H   0  0  0  0  0  0  0  0  0  0  0  0  # atno 8009 bound_to 7997
  154.4162  140.1160  156.5272 H   0  0  0  0  0  0  0  0  0  0  0  0  # atno 8010 bound_to 7997
  139.4821  144.5094  151.8048 H   0  0  0  0  0  0  0  0  0  0  0  0  # atno 10167 bound_to 10162
  156.3930  130.7895  151.2099 H   0  0  0  0  0  0  0  0  0  0  0  0  # atno 10718 bound_to 10713
  153.6778  135.6968  153.5127 H   0  0  0  0  0  0  0  0  0  0  0  0  # atno 10763 bound_to 10752
  153.2508  135.4276  155.0794 H   0  0  0  0  0  0  0  0  0  0  0  0  # atno 10764 bound_to 10752
  154.8408  135.3531  154.6322 H   0  0  0  0  0  0  0  0  0  0  0  0  # atno 10765 bound_to 10752
  140.0840  134.9080  157.1546 H   0  0  0  0  0  0  0  0  0  0  0  0  # atno 11005 bound_to 11000
  144.9065  140.7706  143.5834 LP  0  0  0  0  0  0  0  0  0  0  0  0  # atno 17320 bound_to 7965
  145.2927  139.1878  143.4731 LP  0  0  0  0  0  0  0  0  0  0  0  0  # atno 17321 bound_to 7965
  140.4595  144.1742  150.5905 LP  0  0  0  0  0  0  0  0  0  0  0  0  # atno 17342 bound_to 10162
  140.4499  143.2491  151.9361 LP  0  0  0  0  0  0  0  0  0  0  0  0  # atno 17343 bound_to 10162
  157.7500  131.0310  150.4161 LP  0  0  0  0  0  0  0  0  0  0  0  0  # atno 17370 bound_to 10713
  156.4426  130.3995  149.6687 LP  0  0  0  0  0  0  0  0  0  0  0  0  # atno 17371 bound_to 10713
  140.3447  134.2665  155.7207 LP  0  0  0  0  0  0  0  0  0  0  0  0  # atno 17394 bound_to 11000
  141.2056  133.7855  157.0222 LP  0  0  0  0  0  0  0  0  0  0  0  0  # atno 17395 bound_to 11000

$$$$
