AV-unprocessed.smi:1601|AV-procd|sdf|6433|dock9
  -GOLD-   22720 7 73D 1   1.00000     0.00000
 Structure written by MMmdl.
 41 42  0  0  0  0  0  0  0  0  1 V2000
  151.3928  140.4223  157.6238 C   0  0  0  0  0  0  0  0  0  0  0  0
  150.9788  141.9152  157.5472 C   0  0  2  0  0  0  0  0  0  0  0  0
  151.0231  142.3729  156.0634 C   0  0  0  0  0  0  0  0  0  0  0  0
  149.7229  142.2608  155.4138 N   0  0  0  0  0  0  0  0  0  0  0  0
  149.3128  141.2092  154.6888 C   0  0  0  0  0  0  0  0  0  0  0  0
  150.0316  140.2366  154.4561 O   0  0  0  0  0  0  0  0  0  0  0  0
  147.8746  141.2800  154.1444 C   0  0  1  0  0  0  0  0  0  0  0  0
  147.4270  139.9807  153.4436 C   0  0  0  0  0  0  0  0  0  0  0  0
  146.9436  141.6768  155.1964 N   0  0  0  0  0  0  0  0  0  0  0  0
  145.5743  141.8269  155.1061 C   0  0  0  0  0  0  0  0  0  0  0  0
  145.1258  142.2492  156.3245 C   0  0  0  0  0  0  0  0  0  0  0  0
  146.3101  142.3394  157.1075 C   0  0  0  0  0  0  0  0  0  0  0  0
  147.3953  142.0032  156.4299 N   0  0  0  0  0  0  0  0  0  0  0  0
  151.7766  142.7773  158.4504 N   0  0  0  0  0  0  0  0  0  0  0  0
  151.2608  144.1491  158.5307 C   0  0  0  0  0  0  0  0  0  0  0  0
  152.0691  145.0369  159.4929 C   0  0  0  0  0  0  0  0  0  0  0  0
  152.0923  144.4469  160.7851 O   0  0  0  0  0  0  0  0  0  0  0  0
  152.6609  143.1450  160.7654 C   0  0  0  0  0  0  0  0  0  0  0  0
  151.8551  142.2428  159.8149 C   0  0  0  0  0  0  0  0  0  0  0  0
  150.8448  139.7965  156.9200 H   0  0  0  0  0  0  0  0  0  0  0  0
  151.1913  139.9882  158.6023 H   0  0  0  0  0  0  0  0  0  0  0  0
  152.4552  140.2969  157.4110 H   0  0  0  0  0  0  0  0  0  0  0  0
  149.9365  141.9719  157.8652 H   0  0  0  0  0  0  0  0  0  0  0  0
  151.3082  143.4197  155.9710 H   0  0  0  0  0  0  0  0  0  0  0  0
  151.7660  141.7870  155.5188 H   0  0  0  0  0  0  0  0  0  0  0  0
  149.0751  143.0222  155.5553 H   0  0  0  0  0  0  0  0  0  0  0  0
  147.8651  142.0712  153.3931 H   0  0  0  0  0  0  0  0  0  0  0  0
  148.0834  139.7363  152.6078 H   0  0  0  0  0  0  0  0  0  0  0  0
  146.4179  140.0839  153.0442 H   0  0  0  0  0  0  0  0  0  0  0  0
  147.4272  139.1290  154.1248 H   0  0  0  0  0  0  0  0  0  0  0  0
  145.0384  141.6237  154.1906 H   0  0  0  0  0  0  0  0  0  0  0  0
  144.1074  142.4643  156.6121 H   0  0  0  0  0  0  0  0  0  0  0  0
  146.4136  142.6400  158.1397 H   0  0  0  0  0  0  0  0  0  0  0  0
  151.2942  144.6315  157.5560 H   0  0  0  0  0  0  0  0  0  0  0  0
  150.2157  144.1340  158.8437 H   0  0  0  0  0  0  0  0  0  0  0  0
  153.0881  145.1749  159.1281 H   0  0  0  0  0  0  0  0  0  0  0  0
  151.6178  146.0267  159.5629 H   0  0  0  0  0  0  0  0  0  0  0  0
  153.7055  143.1991  160.4546 H   0  0  0  0  0  0  0  0  0  0  0  0
  152.6487  142.7367  161.7761 H   0  0  0  0  0  0  0  0  0  0  0  0
  150.8498  142.1018  160.2155 H   0  0  0  0  0  0  0  0  0  0  0  0
  152.3371  141.2670  159.8180 H   0  0  0  0  0  0  0  0  0  0  0  0
  1  2  1  0  0  0  0
  1 20  1  0  0  0  0
  1 21  1  0  0  0  0
  1 22  1  0  0  0  0
  2  3  1  0  0  0  0
  2 14  1  0  0  0  0
  2 23  1  0  0  0  0
  3  4  1  0  0  0  0
  3 24  1  0  0  0  0
  3 25  1  0  0  0  0
  4  5  1  0  0  0  0
  4 26  1  0  0  0  0
  5  6  2  0  0  0  0
  5  7  1  0  0  0  0
  7  8  1  0  0  0  0
  7  9  1  0  0  0  0
  7 27  1  0  0  0  0
  8 28  1  0  0  0  0
  8 29  1  0  0  0  0
  8 30  1  0  0  0  0
  9 13  1  0  0  0  0
  9 10  1  0  0  0  0
 10 11  2  0  0  0  0
 10 31  1  0  0  0  0
 11 12  1  0  0  0  0
 11 32  1  0  0  0  0
 12 13  2  0  0  0  0
 12 33  1  0  0  0  0
 14 19  1  0  0  0  0
 14 15  1  0  0  0  0
 15 16  1  0  0  0  0
 15 34  1  0  0  0  0
 15 35  1  0  0  0  0
 16 17  1  0  0  0  0
 16 36  1  0  0  0  0
 16 37  1  0  0  0  0
 17 18  1  0  0  0  0
 18 19  1  0  0  0  0
 18 38  1  0  0  0  0
 18 39  1  0  0  0  0
 19 40  1  0  0  0  0
 19 41  1  0  0  0  0
M  END
> <s_m_source_file>
AV-unprocessed.smi

> <i_m_source_file_index>
1601

> <i_lp_mmshare_version>
43012

> <i_f3d_flags>
0

> <s_epik_input>
W0NIMl0xW0NIMl1PW0NIMl1bQ0gyXU4xW0NASF0oW0NIM10pW0NIMl1bTkhdQyg9TylbQ0BIXShbQ0gzXSluMltjSF1bY0hdW2NIXW4y

> <s_epik_cmdline>
J2VwaWtfcHl0aG9uJywgJy1waCcsICc3LjAnLCAnLXRuJywgJzgnLCAnLW1hJywgJzIwMCcsICctbWV0YWxfYmluZGluZycsICctaW1hZScsICc8aW5maWxlLm1hZT4nLCAnLW9tYWUnLCAnPG91dGZpbGUubWFlPic=

> <r_lp_tautomer_probability>
1

> <r_epik_Ionization_Penalty>
0.203323

> <r_epik_Ionization_Penalty_Charging>
0

> <r_epik_Ionization_Penalty_Neutral>
0.203323

> <r_epik_State_Penalty>
0.193192

> <r_epik_Charging_Adjusted_Penalty>
0.193192

> <i_epik_Tot_Q>
0

> <i_epik_Tot_abs_Q>
0

> <r_epik_Metal_State_Penalty>
0.193187

> <b_epik_Metal_Only>
0

> <s_lp_Force_Field>
OPLS_2005

> <r_lp_Energy>
33.4287

> <b_lp_Chiralities_Consistent>
1

> <s_lp_Variant>
AV-unprocessed.smi:1601-3

> <Gold.Version>
5.8.1

> <Gold.Id.Protein>
6NUR|6NUR_protein|mol2

> <Gold.PLP.Fitness>
42.4381

> <Gold.PLP.PLP>
-35.3895

> <Gold.PLP.part.hbond>
-2.0000

> <Gold.PLP.part.metal>
0.0000

> <Gold.PLP.part.buried>
-5.5647

> <Gold.PLP.part.nonpolar>
-27.9794

> <Gold.PLP.part.repulsive>
0.7079

> <Gold.PLP.ligand.clash>
0.0000

> <Gold.PLP.ligand.torsion>
1.0189

> <Gold.PLP.Chemscore.Hbond>
2.0000

> <Gold.PLP.Chemscore.CHOScore>
0.9729

> <Gold.PLP.Chemscore.Metal>
0.0000

> <Gold.Chemscore.Hbonds>
donor molecule, donor type, donor heavy atom, donor atom, acceptor molecule, acceptor atom, score
      L1  H     4    26       P1  8028  0.93
      P1  H  7989  7998       L1     6  0.98
      L1  C    10    31       P1 10175  1.00

> <Gold.PLP.Chemscore.Internal.Correction>
0.1676

> <Gold.Rescore>
     Score         DG    S(hbond)    S(metal)    S(lipo)     H(rot)  DE(clash)    DE(int)     intcor
     12.95     -16.99       1.65        0.00      90.23       1.79       1.23       2.81       ----

> <Gold.Chemscore.Fitness>
12.9464

> <Gold.Chemscore.DG>
-16.9885

> <Gold.Chemscore.ZeroCoef>
-5.4800

> <Gold.Chemscore.Hbond>
1.6547

> <Gold.Chemscore.Metal>
0.0000

> <Gold.Chemscore.Lipo>
90.2311

> <Gold.Chemscore.Internal_Hbond>
0.0000

> <Gold.Chemscore.DEClash>
1.2348

> <Gold.Chemscore.DEInternal>
2.8073

> <Gold.Chemscore.Rot>
1.7872

> <Gold.Chemscore.Internal.Correction>
   9.000000E+99

> <Gold.Chemscore.Hbonds>
donor molecule, donor type, donor heavy atom, donor atom, acceptor molecule, acceptor atom, score
      L1  H     4    26       P1  8028  0.90
      P1  H  7989  7998       L1     6  0.60

> <Gold.Chemscore.Hbond.Weighted>
-5.5267

> <Gold.Chemscore.Metal.Weighted>
-0.0000

> <Gold.Chemscore.Lipo.Weighted>
-10.5570

> <Gold.Chemscore.Internal_Hbond.Weighted>
0.0000

> <Gold.Chemscore.DEClash.Weighted>
1.2348

> <Gold.Chemscore.DEInternal.Weighted>
2.8073

> <Gold.Chemscore.Rot.Weighted>
4.5752

> <Gold.Chemscore.Internal.Correction.Weighted>
   9.000000E+99

> <Gold.Protein.RotatedTorsions>
[ 6907 6896 6895 6894 ] final  105.19 input  -60.11 | X-H torsion
[ 7974 7965 7964 7962 ] final  -38.99 input  175.53 | X-H torsion
[ 8008 7997 7996 7995 ] final   48.01 input   59.86 | X-H torsion
[ 10167 10162 10161 10158 ] final -137.21 input  -65.29 | X-H torsion
[ 10718 10713 10712 10709 ] final  149.16 input   66.30 | X-H torsion
[ 10763 10752 10751 10750 ] final   62.72 input  -60.55 | X-H torsion
[ 11005 11000 10999 10996 ] final   48.50 input  -57.11 | X-H torsion

> <Gold.Protein.ActiveResidues>
 VAL166  LYS551  ARG553  GLY616  TRP617  ASP618  TYR619  PRO620  LYS621  CYS622 
 ASP623  PHE694  ASN695  SER759  ASP760  ASP761  ALA762  ILE779  LEU786  VAL792 
 PHE793  MET794  SER795  GLU796  ALA797  LYS798  CYS799  TRP800  GLU811  SER814 

> <Gold.Protein.RotatedAtoms>
  152.5239  133.9564  159.7696 H   0  0  0  0  0  0  0  0  0  0  0  0  # atno 6907 bound_to 6896
  150.9864  133.6185  159.2722 H   0  0  0  0  0  0  0  0  0  0  0  0  # atno 6908 bound_to 6896
  151.3344  135.0855  159.9403 H   0  0  0  0  0  0  0  0  0  0  0  0  # atno 6909 bound_to 6896
  146.0437  140.6574  142.9075 H   0  0  0  0  0  0  0  0  0  0  0  0  # atno 7974 bound_to 7965
  155.3785  140.3427  155.4246 H   0  0  0  0  0  0  0  0  0  0  0  0  # atno 8008 bound_to 7997
  156.1624  140.1605  156.8624 H   0  0  0  0  0  0  0  0  0  0  0  0  # atno 8009 bound_to 7997
  154.5152  140.0780  156.8049 H   0  0  0  0  0  0  0  0  0  0  0  0  # atno 8010 bound_to 7997
  139.8600  143.7089  152.2651 H   0  0  0  0  0  0  0  0  0  0  0  0  # atno 10167 bound_to 10162
  157.2995  131.0868  151.1401 H   0  0  0  0  0  0  0  0  0  0  0  0  # atno 10718 bound_to 10713
  152.9992  135.5455  154.6238 H   0  0  0  0  0  0  0  0  0  0  0  0  # atno 10763 bound_to 10752
  154.5531  135.2828  155.0992 H   0  0  0  0  0  0  0  0  0  0  0  0  # atno 10764 bound_to 10752
  154.2224  135.6448  153.5201 H   0  0  0  0  0  0  0  0  0  0  0  0  # atno 10765 bound_to 10752
  140.1185  134.4861  155.8617 H   0  0  0  0  0  0  0  0  0  0  0  0  # atno 11005 bound_to 11000
  144.7087  140.3955  143.7097 LP  0  0  0  0  0  0  0  0  0  0  0  0  # atno 17320 bound_to 7965
  145.6841  139.1625  143.2684 LP  0  0  0  0  0  0  0  0  0  0  0  0  # atno 17321 bound_to 7965
  139.7382  144.7566  151.0694 LP  0  0  0  0  0  0  0  0  0  0  0  0  # atno 17342 bound_to 10162
  140.7776  143.5004  150.9778 LP  0  0  0  0  0  0  0  0  0  0  0  0  # atno 17343 bound_to 10162
  157.2765  130.6729  149.6045 LP  0  0  0  0  0  0  0  0  0  0  0  0  # atno 17370 bound_to 10713
  155.9671  130.4463  150.5535 LP  0  0  0  0  0  0  0  0  0  0  0  0  # atno 17371 bound_to 10713
  141.2146  133.6752  156.6842 LP  0  0  0  0  0  0  0  0  0  0  0  0  # atno 17394 bound_to 11000
  140.2997  134.8174  157.4087 LP  0  0  0  0  0  0  0  0  0  0  0  0  # atno 17395 bound_to 11000

$$$$
