AV-unprocessed.smi:287|AV-procd|sdf|2184|dock2
  -GOLD-   2262021563D 1   1.00000     0.00000
 Structure written by MMmdl.
 55 58  0  0  0  0  0  0  0  0  1 V2000
  152.5032  143.7792  160.1727 C   0  0  0  0  0  0  0  0  0  0  0  0
  152.2611  142.6569  159.2219 C   0  0  0  0  0  0  0  0  0  0  0  0
  152.6026  141.3359  159.2136 C   0  0  0  0  0  0  0  0  0  0  0  0
  152.0733  140.7660  158.0173 C   0  0  0  0  0  0  0  0  0  0  0  0
  152.2070  139.3102  157.5900 C   0  0  2  0  0  0  0  0  0  0  0  0
  151.7080  138.3850  158.7129 C   0  0  0  0  0  0  0  0  0  0  0  0
  153.5478  138.9230  157.3599 O   0  0  0  0  0  0  0  0  0  0  0  0
  151.4428  139.0142  156.2800 C   0  0  0  0  0  0  0  0  0  0  0  0
  151.7740  137.7139  155.7117 N   0  0  0  0  0  0  0  0  0  0  0  0
  150.8396  136.7474  155.5958 C   0  0  0  0  0  0  0  0  0  0  0  0
  151.2684  135.4887  155.8541 N   0  0  0  0  0  0  0  0  0  0  0  0
  150.4234  134.4580  155.7633 C   0  0  0  0  0  0  0  0  0  0  0  0
  149.1302  134.4661  155.4353 N   0  0  0  0  0  0  0  0  0  0  0  0
  148.6900  135.7316  155.1772 C   0  0  0  0  0  0  0  0  0  0  0  0
  149.4709  136.9214  155.2327 C   0  0  0  0  0  0  0  0  0  0  0  0
  148.6682  138.0091  154.9037 N   0  0  0  0  0  0  0  0  0  0  0  0
  147.4950  137.4884  154.6670 C   0  0  0  0  0  0  0  0  0  0  0  0
  147.4220  136.1198  154.8050 N   0  0  0  0  0  0  0  0  0  0  0  0
  146.2478  135.2102  154.6123 C   0  0  1  0  0  0  0  0  0  0  0  0
  145.1087  136.0121  154.5077 O   0  0  0  0  0  0  0  0  0  0  0  0
  144.4469  135.8040  153.2599 C   0  0  1  0  0  0  0  0  0  0  0  0
  143.7720  137.0973  152.7692 C   0  0  0  0  0  0  0  0  0  0  0  0
  144.7455  138.0897  152.5259 O   0  0  0  0  0  0  0  0  0  0  0  0
  145.5254  135.2243  152.3332 C   0  0  1  0  0  0  0  0  0  0  0  0
  146.2787  136.2500  151.7075 O   0  0  0  0  0  0  0  0  0  0  0  0
  146.3557  134.4002  153.3068 C   0  0  1  0  0  0  0  0  0  0  0  0
  147.6711  134.1477  152.8417 O   0  0  0  0  0  0  0  0  0  0  0  0
  151.4430  141.8090  157.3814 C   0  0  0  0  0  0  0  0  0  0  0  0
  150.6839  141.9397  156.1020 C   0  0  0  0  0  0  0  0  0  0  0  0
  151.5528  142.9580  158.1051 O   0  0  0  0  0  0  0  0  0  0  0  0
  146.2218  134.5952  155.5126 H   0  0  0  0  0  0  0  0  0  0  0  0
  143.6948  135.0275  153.4123 H   0  0  0  0  0  0  0  0  0  0  0  0
  145.0912  134.6013  151.5508 H   0  0  0  0  0  0  0  0  0  0  0  0
  145.8564  133.4457  153.4795 H   0  0  0  0  0  0  0  0  0  0  0  0
  152.8220  143.4032  161.1451 H   0  0  0  0  0  0  0  0  0  0  0  0
  151.5964  144.3664  160.3191 H   0  0  0  0  0  0  0  0  0  0  0  0
  153.2804  144.4438  159.7955 H   0  0  0  0  0  0  0  0  0  0  0  0
  153.1671  140.8302  159.9830 H   0  0  0  0  0  0  0  0  0  0  0  0
  150.6577  138.5688  158.9415 H   0  0  0  0  0  0  0  0  0  0  0  0
  152.2747  138.5362  159.6328 H   0  0  0  0  0  0  0  0  0  0  0  0
  151.8011  137.3340  158.4362 H   0  0  0  0  0  0  0  0  0  0  0  0
  153.7584  138.2101  157.9431 H   0  0  0  0  0  0  0  0  0  0  0  0
  150.3660  139.1020  156.4312 H   0  0  0  0  0  0  0  0  0  0  0  0
  151.7227  139.7664  155.5411 H   0  0  0  0  0  0  0  0  0  0  0  0
  152.7207  137.6126  155.3751 H   0  0  0  0  0  0  0  0  0  0  0  0
  150.8444  133.4882  155.9842 H   0  0  0  0  0  0  0  0  0  0  0  0
  146.6480  138.0951  154.3822 H   0  0  0  0  0  0  0  0  0  0  0  0
  143.1787  136.9221  151.8714 H   0  0  0  0  0  0  0  0  0  0  0  0
  143.0986  137.4843  153.5347 H   0  0  0  0  0  0  0  0  0  0  0  0
  144.3768  138.9317  152.7448 H   0  0  0  0  0  0  0  0  0  0  0  0
  147.1920  136.1093  151.9073 H   0  0  0  0  0  0  0  0  0  0  0  0
  147.9817  134.9184  152.3909 H   0  0  0  0  0  0  0  0  0  0  0  0
  151.3089  141.6637  155.2527 H   0  0  0  0  0  0  0  0  0  0  0  0
  150.3420  142.9634  155.9475 H   0  0  0  0  0  0  0  0  0  0  0  0
  149.8080  141.2910  156.1048 H   0  0  0  0  0  0  0  0  0  0  0  0
  1  2  1  0  0  0  0
  1 35  1  0  0  0  0
  1 36  1  0  0  0  0
  1 37  1  0  0  0  0
  2 30  1  0  0  0  0
  2  3  2  0  0  0  0
  3  4  1  0  0  0  0
  3 38  1  0  0  0  0
  4  5  1  0  0  0  0
  4 28  2  0  0  0  0
  5  6  1  0  0  0  0
  5  7  1  0  0  0  0
  5  8  1  0  0  0  0
  6 39  1  0  0  0  0
  6 40  1  0  0  0  0
  6 41  1  0  0  0  0
  7 42  1  0  0  0  0
  8  9  1  0  0  0  0
  8 43  1  0  0  0  0
  8 44  1  0  0  0  0
  9 10  1  0  0  0  0
  9 45  1  0  0  0  0
 10 15  1  0  0  0  0
 10 11  2  0  0  0  0
 11 12  1  0  0  0  0
 12 13  2  0  0  0  0
 12 46  1  0  0  0  0
 13 14  1  0  0  0  0
 14 18  1  0  0  0  0
 14 15  2  0  0  0  0
 15 16  1  0  0  0  0
 16 17  2  0  0  0  0
 17 18  1  0  0  0  0
 17 47  1  0  0  0  0
 18 19  1  0  0  0  0
 19 31  1  0  0  0  0
 19 26  1  0  0  0  0
 19 20  1  0  0  0  0
 20 21  1  0  0  0  0
 21 32  1  0  0  0  0
 21 22  1  0  0  0  0
 21 24  1  0  0  0  0
 22 23  1  0  0  0  0
 22 48  1  0  0  0  0
 22 49  1  0  0  0  0
 23 50  1  0  0  0  0
 24 33  1  0  0  0  0
 24 25  1  0  0  0  0
 24 26  1  0  0  0  0
 25 51  1  0  0  0  0
 26 34  1  0  0  0  0
 26 27  1  0  0  0  0
 27 52  1  0  0  0  0
 28 29  1  0  0  0  0
 28 30  1  0  0  0  0
 29 53  1  0  0  0  0
 29 54  1  0  0  0  0
 29 55  1  0  0  0  0
M  END
> <s_m_source_file>
AV-unprocessed.smi

> <i_m_source_file_index>
287

> <i_lp_mmshare_version>
43012

> <i_f3d_flags>
0

> <s_epik_input>
W0NIM11jMVtjSF1jKGMobzEpW0NIM10pW0NAQF0oW0NIM10pKFtPSF0pW0NIMl1bTkhdYyhuW2NIXW4yKWMoYzIzKW5bY0hdbjNbQ0BASF00T1tDQEhdKFtDSDJdW09IXSlbQ0BASF0oW09IXSlbQ0BIXTRbT0hd

> <s_epik_cmdline>
J2VwaWtfcHl0aG9uJywgJy1waCcsICc3LjAnLCAnLXRuJywgJzgnLCAnLW1hJywgJzIwMCcsICctbWV0YWxfYmluZGluZycsICctaW1hZScsICc8aW5maWxlLm1hZT4nLCAnLW9tYWUnLCAnPG91dGZpbGUubWFlPic=

> <r_lp_tautomer_probability>
1

> <r_epik_Ionization_Penalty>
0.000992612

> <r_epik_Ionization_Penalty_Charging>
0

> <r_epik_Ionization_Penalty_Neutral>
0.000992612

> <r_epik_State_Penalty>
-0

> <r_epik_Charging_Adjusted_Penalty>
0

> <i_epik_Tot_Q>
0

> <i_epik_Tot_abs_Q>
0

> <r_epik_Metal_State_Penalty>
-0

> <b_epik_Metal_Only>
0

> <s_epik_Chemistry_Notes>
This compound contains an acetal/aminal-like group ( X-CH(R)-Y where X, Y are N, S, or O) that may be acid/base labile, releasing an aldehyde.

> <s_lp_Force_Field>
OPLS_2005

> <r_lp_Energy>
46.5399

> <b_lp_Chiralities_Consistent>
1

> <s_lp_Variant>
AV-unprocessed.smi:287-8

> <Gold.Version>
5.8.1

> <Gold.Id.Protein>
6NUR|6NUR_protein|mol2

> <Gold.PLP.Fitness>
52.6279

> <Gold.PLP.PLP>
-38.3684

> <Gold.PLP.part.hbond>
-6.0000

> <Gold.PLP.part.metal>
0.0000

> <Gold.PLP.part.buried>
-6.9857

> <Gold.PLP.part.nonpolar>
-26.3652

> <Gold.PLP.part.repulsive>
0.4085

> <Gold.PLP.ligand.clash>
0.0000

> <Gold.PLP.ligand.torsion>
0.7722

> <Gold.PLP.Chemscore.Hbond>
5.0000

> <Gold.PLP.Chemscore.CHOScore>
0.0000

> <Gold.PLP.Chemscore.Metal>
0.0000

> <Gold.Chemscore.Hbonds>
donor molecule, donor type, donor heavy atom, donor atom, acceptor molecule, acceptor atom, score
      L1  H    23    50       P1 10175  1.00
      L1  H    25    51       P1  7948  1.00
      L1  H    27    52       P1  7948  1.00
      P1  H  7997  8010       L1     7  1.00
      P1  H 10752 10764       L1    11  1.00

> <Gold.PLP.Chemscore.Internal.Correction>
0.8040

> <Gold.Rescore>
     Score         DG    S(hbond)    S(metal)    S(lipo)     H(rot)  DE(clash)    DE(int)     intcor
     13.77     -16.65       4.45        0.00      83.58       5.27       0.02       2.85       ----

> <Gold.Chemscore.Fitness>
13.7730

> <Gold.Chemscore.DG>
-16.6467

> <Gold.Chemscore.ZeroCoef>
-5.4800

> <Gold.Chemscore.Hbond>
4.4527

> <Gold.Chemscore.Metal>
0.0000

> <Gold.Chemscore.Lipo>
83.5785

> <Gold.Chemscore.Internal_Hbond>
0.0000

> <Gold.Chemscore.DEClash>
0.0240

> <Gold.Chemscore.DEInternal>
2.8497

> <Gold.Chemscore.Rot>
5.2672

> <Gold.Chemscore.Internal.Correction>
   9.000000E+99

> <Gold.Chemscore.Hbonds>
donor molecule, donor type, donor heavy atom, donor atom, acceptor molecule, acceptor atom, score
      L1  H    23    50       P1 10175  0.99
      L1  H    25    51       P1  7948  1.00
      L1  H    27    52       P1  7948  0.78
      P1  H  7997  8010       L1     7  0.87
      P1  H 10752 10764       L1    11  0.33

> <Gold.Chemscore.Hbond.Weighted>
-14.8719

> <Gold.Chemscore.Metal.Weighted>
-0.0000

> <Gold.Chemscore.Lipo.Weighted>
-9.7787

> <Gold.Chemscore.Internal_Hbond.Weighted>
0.0000

> <Gold.Chemscore.DEClash.Weighted>
0.0240

> <Gold.Chemscore.DEInternal.Weighted>
2.8497

> <Gold.Chemscore.Rot.Weighted>
13.4839

> <Gold.Chemscore.Internal.Correction.Weighted>
   9.000000E+99

> <Gold.Protein.RotatedTorsions>
[ 6907 6896 6895 6894 ] final   20.64 input  -60.11 | X-H torsion
[ 7974 7965 7964 7962 ] final   22.78 input  175.53 | X-H torsion
[ 8008 7997 7996 7995 ] final   28.08 input   59.86 | X-H torsion
[ 10167 10162 10161 10158 ] final  127.03 input  -65.29 | X-H torsion
[ 10718 10713 10712 10709 ] final   -5.61 input   66.30 | X-H torsion
[ 10763 10752 10751 10750 ] final  -35.35 input  -60.55 | X-H torsion
[ 11005 11000 10999 10996 ] final   44.89 input  -57.11 | X-H torsion

> <Gold.Protein.ActiveResidues>
 VAL166  LYS551  ARG553  GLY616  TRP617  ASP618  TYR619  PRO620  LYS621  CYS622 
 ASP623  PHE694  ASN695  SER759  ASP760  ASP761  ALA762  ILE779  LEU786  VAL792 
 PHE793  MET794  SER795  GLU796  ALA797  LYS798  CYS799  TRP800  GLU811  SER814 

> <Gold.Protein.RotatedAtoms>
  151.8996  135.0384  160.0504 H   0  0  0  0  0  0  0  0  0  0  0  0  # atno 6907 bound_to 6896
  152.2369  133.5099  159.5256 H   0  0  0  0  0  0  0  0  0  0  0  0  # atno 6908 bound_to 6896
  150.7042  134.1057  159.4024 H   0  0  0  0  0  0  0  0  0  0  0  0  # atno 6909 bound_to 6896
  146.2014  139.7837  142.8759 H   0  0  0  0  0  0  0  0  0  0  0  0  # atno 7974 bound_to 7965
  155.0530  140.3182  155.4685 H   0  0  0  0  0  0  0  0  0  0  0  0  # atno 8008 bound_to 7997
  156.2830  140.2142  156.5600 H   0  0  0  0  0  0  0  0  0  0  0  0  # atno 8009 bound_to 7997
  154.7195  140.0491  157.0613 H   0  0  0  0  0  0  0  0  0  0  0  0  # atno 8010 bound_to 7997
  139.5600  144.6875  151.4071 H   0  0  0  0  0  0  0  0  0  0  0  0  # atno 10167 bound_to 10162
  156.7440  130.5218  149.5818 H   0  0  0  0  0  0  0  0  0  0  0  0  # atno 10718 bound_to 10713
  153.8617  135.6839  153.4782 H   0  0  0  0  0  0  0  0  0  0  0  0  # atno 10763 bound_to 10752
  153.1338  135.4686  154.9388 H   0  0  0  0  0  0  0  0  0  0  0  0  # atno 10764 bound_to 10752
  154.7755  135.3252  154.8050 H   0  0  0  0  0  0  0  0  0  0  0  0  # atno 10765 bound_to 10752
  140.1510  134.4462  155.8382 H   0  0  0  0  0  0  0  0  0  0  0  0  # atno 11005 bound_to 11000
  145.3472  141.0300  143.3359 LP  0  0  0  0  0  0  0  0  0  0  0  0  # atno 17320 bound_to 7965
  144.8691  139.5064  143.6776 LP  0  0  0  0  0  0  0  0  0  0  0  0  # atno 17321 bound_to 7965
  140.6878  143.7933  150.7211 LP  0  0  0  0  0  0  0  0  0  0  0  0  # atno 17342 bound_to 10162
  140.1406  143.4445  152.2196 LP  0  0  0  0  0  0  0  0  0  0  0  0  # atno 17343 bound_to 10162
  156.1445  130.6268  151.0513 LP  0  0  0  0  0  0  0  0  0  0  0  0  # atno 17370 bound_to 10713
  157.6806  131.0839  150.7380 LP  0  0  0  0  0  0  0  0  0  0  0  0  # atno 17371 bound_to 10713
  141.2199  133.6872  156.7421 LP  0  0  0  0  0  0  0  0  0  0  0  0  # atno 17394 bound_to 11000
  140.2605  134.8470  157.3754 LP  0  0  0  0  0  0  0  0  0  0  0  0  # atno 17395 bound_to 11000

$$$$
