#       Name:                AV-unprocessed.smi:2360
#       Creating user name   scv26
#       Creation time:       Fri Mar 27 13:04:40 2020


#       File generated by GOLD software.
#

@<TRIPOS>MOLECULE
AV-unprocessed.smi:2360
    39    40     1
SMALL
NO_CHARGES


@<TRIPOS>ATOM
      1 ****        -5.2018   0.1696  -0.7109 C.3            1 S1                 0.0000
      2 ****        -3.6839   0.1920  -0.6733 C.2            1 S1                 0.0000
      3 ****        -3.0999   1.4612  -0.6263 N.2            1 S1                 0.0000
      4 ****        -1.8126   1.5781  -0.5966 C.2            1 S1                 0.0000
      5 ****        -0.9694   0.4552  -0.6118 N.am           1 S1                 0.0000
      6 ****         0.4780   0.7251  -0.5765 C.3            1 S1                 0.0000
      7 ****         1.0748   0.5441   0.8369 C.3            1 S1                 0.0000
      8 ****         0.7465   1.6777   1.6160 O.3            1 S1                 0.0000
      9 ****         2.5803   0.3370   0.7686 C.ar           1 S1                 0.0000
     10 ****         3.1220  -0.9518   0.9631 C.ar           1 S1                 0.0000
     11 ****         4.5139  -1.1554   0.8922 C.ar           1 S1                 0.0000
     12 ****         5.3725  -0.0721   0.6238 C.ar           1 S1                 0.0000
     13 ****         6.7103  -0.2699   0.5558 F              1 S1                 0.0000
     14 ****         4.8378   1.2157   0.4242 C.ar           1 S1                 0.0000
     15 ****         5.6608   2.2590   0.1629 F              1 S1                 0.0000
     16 ****         3.4459   1.4194   0.4949 C.ar           1 S1                 0.0000
     17 ****        -1.4564  -0.8191  -0.6463 C.2            1 S1                 0.0000
     18 ****        -0.7073  -1.7981  -0.6436 O.2            1 S1                 0.0000
     19 ****        -2.9231  -0.9364  -0.6841 C.2            1 S1                 0.0000
     20 ****        -3.5030  -2.3445  -0.7350 C.3            1 S1                 0.0000
     21 ****        -5.5536  -0.3238  -1.6173 H              1 S1                 0.0000
     22 ****        -5.6149   1.1791  -0.6998 H              1 S1                 0.0000
     23 ****        -5.5978  -0.3634   0.1538 H              1 S1                 0.0000
     24 ****        -1.3077   2.5448  -0.5549 H              1 S1                 0.0000
     25 ****         0.9641   0.0277  -1.2618 H              1 S1                 0.0000
     26 ****         0.7286   1.7105  -0.9754 H              1 S1                 0.0000
     27 ****         0.6342  -0.3267   1.3242 H              1 S1                 0.0000
     28 ****         1.0475   1.5304   2.4998 H              1 S1                 0.0000
     29 ****         2.4717  -1.7905   1.1653 H              1 S1                 0.0000
     30 ****         4.9225  -2.1438   1.0424 H              1 S1                 0.0000
     31 ****         3.0444   2.4095   0.3358 H              1 S1                 0.0000
     32 ****        -3.1917  -2.9113   0.1429 H              1 S1                 0.0000
     33 ****        -3.1422  -2.8674  -1.6213 H              1 S1                 0.0000
     34 ****        -4.5912  -2.3605  -0.7662 H              1 S1                 0.0000
     35 ****        -3.6771   2.2777  -0.6157 LP             1 S1                 0.0000
     36 ****        -0.2443   1.8125   1.6150 LP             1 S1                 0.0000
     37 ****         1.1937   2.4882   1.2379 LP             1 S1                 0.0000
     38 ****         0.2840  -1.6692  -0.6157 LP             1 S1                 0.0000
     39 ****        -1.0909  -2.7213  -0.6694 LP             1 S1                 0.0000
@<TRIPOS>BOND
    1    1    2 1     
    2    1   21 1     
    3    1   22 1     
    4    1   23 1     
    5    2   19 2     
    6    2    3 1     
    7    3    4 2     
    8    4    5 1     
    9    4   24 1     
   10    5    6 1     
   11    5   17 am    
   12    6    7 1     
   13    6   25 1     
   14    6   26 1     
   15    7    8 1     
   16    7    9 1     
   17    7   27 1     
   18    8   28 1     
   19    9   16 ar    
   20    9   10 ar    
   21   10   11 ar    
   22   10   29 1     
   23   11   12 ar    
   24   11   30 1     
   25   12   13 1     
   26   12   14 ar    
   27   14   15 1     
   28   14   16 ar    
   29   16   31 1     
   30   17   18 2     
   31   17   19 1     
   32   19   20 1     
   33   20   32 1     
   34   20   33 1     
   35   20   34 1     
   36    3   35 1     
   37    8   36 1     
   38    8   37 1     
   39   18   38 1     
   40   18   39 1     
@<TRIPOS>SUBSTRUCTURE
      1 S1             1
@<TRIPOS>SET
LONE_PAIRS      STATIC     ATOMS    <user>   **** ""
5 35 36 37 38 39
DONOR_HYDROGENS      STATIC     ATOMS    <user>   **** ""
1 28
ATOM$BLUE        STATIC     ATOMS    COLORGROUP SYSTEM
5 35 36 37 38 39
ATOM$RED        STATIC     ATOMS    COLORGROUP SYSTEM
1 28
