AV-unprocessed.smi:148|AV-procd|sdf|1216|dock7
  -GOLD-   2262018403D 1   1.00000     0.00000
 Structure written by MMmdl.
 63 67  0  0  0  0  0  0  0  0  1 V2000
  145.7744  129.8632  153.0926 O   0  0  0  0  0  0  0  0  0  0  0  0
  146.4860  130.9308  153.6830 C   0  0  0  0  0  0  0  0  0  0  0  0
  147.1825  131.8053  152.6134 C   0  0  2  0  0  0  0  0  0  0  0  0
  148.1839  132.7991  153.2572 C   0  0  0  0  0  0  0  0  0  0  0  0
  147.8878  133.0596  154.6546 N   0  0  0  0  0  0  0  0  0  0  0  0
  146.7329  133.6145  155.1585 C   0  0  0  0  0  0  0  0  0  0  0  0
  146.7078  133.7672  156.4546 N   0  0  0  0  0  0  0  0  0  0  0  0
  147.9386  133.2780  156.8727 C   0  0  0  0  0  0  0  0  0  0  0  0
  148.5787  133.1684  158.1341 C   0  0  0  0  0  0  0  0  0  0  0  0
  147.9908  133.6011  159.2730 N   0  0  0  0  0  0  0  0  0  0  0  0
  147.7378  132.4671  160.1622 C   0  0  0  0  0  0  0  0  0  0  0  0
  146.8790  132.8779  161.3641 C   0  0  0  0  0  0  0  0  0  0  0  0
  147.5372  134.0430  162.1081 C   0  0  0  0  0  0  0  0  0  0  0  0
  147.7667  135.2155  161.1456 C   0  0  0  0  0  0  0  0  0  0  0  0
  148.5913  134.7938  159.9004 C   0  0  2  0  0  0  0  0  0  0  0  0
  148.8127  135.9615  158.8856 C   0  0  1  0  0  0  0  0  0  0  0  0
  147.5564  136.7564  158.4774 C   0  0  0  0  0  0  0  0  0  0  0  0
  148.0337  138.1775  158.1353 C   0  0  0  0  0  0  0  0  0  0  0  0
  149.5559  138.1724  158.3072 C   0  0  0  0  0  0  0  0  0  0  0  0
  149.8224  137.0418  159.3002 C   0  0  2  0  0  0  0  0  0  0  0  0
  151.1571  136.5865  159.2171 O   0  0  0  0  0  0  0  0  0  0  0  0
  149.8209  132.6168  158.1740 N   0  0  0  0  0  0  0  0  0  0  0  0
  150.4063  132.2129  157.0423 C   0  0  0  0  0  0  0  0  0  0  0  0
  149.9381  132.2696  155.7932 N   0  0  0  0  0  0  0  0  0  0  0  0
  148.6880  132.8150  155.7565 C   0  0  0  0  0  0  0  0  0  0  0  0
  146.1559  132.4920  151.6708 C   0  0  2  0  0  0  0  0  0  0  0  0
  144.9891  133.2005  152.3610 C   0  0  0  0  0  0  0  0  0  0  0  0
  143.7587  132.7598  151.5658 C   0  0  0  0  0  0  0  0  0  0  0  0
  144.2819  132.2967  150.3308 O   0  0  0  0  0  0  0  0  0  0  0  0
  145.4734  131.5916  150.6342 C   0  0  0  0  0  0  0  0  0  0  0  0
  144.9887  129.7115  153.5955 H   0  0  0  0  0  0  0  0  0  0  0  0
  145.8062  131.5277  154.2914 H   0  0  0  0  0  0  0  0  0  0  0  0
  147.2124  130.4873  154.3632 H   0  0  0  0  0  0  0  0  0  0  0  0
  147.7682  131.1295  151.9878 H   0  0  0  0  0  0  0  0  0  0  0  0
  149.2054  132.4246  153.2054 H   0  0  0  0  0  0  0  0  0  0  0  0
  148.1808  133.7504  152.7258 H   0  0  0  0  0  0  0  0  0  0  0  0
  145.9077  133.9128  154.5281 H   0  0  0  0  0  0  0  0  0  0  0  0
  147.2345  131.6695  159.6133 H   0  0  0  0  0  0  0  0  0  0  0  0
  148.6882  132.0613  160.5122 H   0  0  0  0  0  0  0  0  0  0  0  0
  145.8838  133.1688  161.0253 H   0  0  0  0  0  0  0  0  0  0  0  0
  146.7460  132.0300  162.0365 H   0  0  0  0  0  0  0  0  0  0  0  0
  146.9113  134.3585  162.9434 H   0  0  0  0  0  0  0  0  0  0  0  0
  148.4888  133.7209  162.5328 H   0  0  0  0  0  0  0  0  0  0  0  0
  146.7975  135.6142  160.8479 H   0  0  0  0  0  0  0  0  0  0  0  0
  148.2722  136.0087  161.6940 H   0  0  0  0  0  0  0  0  0  0  0  0
  149.5752  134.4932  160.2640 H   0  0  0  0  0  0  0  0  0  0  0  0
  149.2133  135.5403  157.9621 H   0  0  0  0  0  0  0  0  0  0  0  0
  147.0627  136.2913  157.6242 H   0  0  0  0  0  0  0  0  0  0  0  0
  146.8213  136.8036  159.2794 H   0  0  0  0  0  0  0  0  0  0  0  0
  147.7456  138.4745  157.1264 H   0  0  0  0  0  0  0  0  0  0  0  0
  147.5839  138.8914  158.8263 H   0  0  0  0  0  0  0  0  0  0  0  0
  150.0248  137.9463  157.3480 H   0  0  0  0  0  0  0  0  0  0  0  0
  149.9443  139.1329  158.6472 H   0  0  0  0  0  0  0  0  0  0  0  0
  149.6256  137.4111  160.3055 H   0  0  0  0  0  0  0  0  0  0  0  0
  151.7335  137.3088  159.4149 H   0  0  0  0  0  0  0  0  0  0  0  0
  151.3931  131.7879  157.1527 H   0  0  0  0  0  0  0  0  0  0  0  0
  146.6764  133.2695  151.1104 H   0  0  0  0  0  0  0  0  0  0  0  0
  144.8837  132.9572  153.4176 H   0  0  0  0  0  0  0  0  0  0  0  0
  145.1204  134.2811  152.2937 H   0  0  0  0  0  0  0  0  0  0  0  0
  143.2498  131.9376  152.0710 H   0  0  0  0  0  0  0  0  0  0  0  0
  143.0408  133.5669  151.4192 H   0  0  0  0  0  0  0  0  0  0  0  0
  146.0845  131.4392  149.7444 H   0  0  0  0  0  0  0  0  0  0  0  0
  145.2076  130.6144  151.0365 H   0  0  0  0  0  0  0  0  0  0  0  0
  1  2  1  0  0  0  0
  1 31  1  0  0  0  0
  2  3  1  0  0  0  0
  2 32  1  0  0  0  0
  2 33  1  0  0  0  0
  3  4  1  0  0  0  0
  3 26  1  0  0  0  0
  3 34  1  0  0  0  0
  4  5  1  0  0  0  0
  4 35  1  0  0  0  0
  4 36  1  0  0  0  0
  5 25  1  0  0  0  0
  5  6  1  0  0  0  0
  6  7  2  0  0  0  0
  6 37  1  0  0  0  0
  7  8  1  0  0  0  0
  8 25  2  0  0  0  0
  8  9  1  0  0  0  0
  9 10  1  0  0  0  0
  9 22  2  0  0  0  0
 10 15  1  0  0  0  0
 10 11  1  0  0  0  0
 11 12  1  0  0  0  0
 11 38  1  0  0  0  0
 11 39  1  0  0  0  0
 12 13  1  0  0  0  0
 12 40  1  0  0  0  0
 12 41  1  0  0  0  0
 13 14  1  0  0  0  0
 13 42  1  0  0  0  0
 13 43  1  0  0  0  0
 14 15  1  0  0  0  0
 14 44  1  0  0  0  0
 14 45  1  0  0  0  0
 15 16  1  0  0  0  0
 15 46  1  0  0  0  0
 16 20  1  0  0  0  0
 16 17  1  0  0  0  0
 16 47  1  0  0  0  0
 17 18  1  0  0  0  0
 17 48  1  0  0  0  0
 17 49  1  0  0  0  0
 18 19  1  0  0  0  0
 18 50  1  0  0  0  0
 18 51  1  0  0  0  0
 19 20  1  0  0  0  0
 19 52  1  0  0  0  0
 19 53  1  0  0  0  0
 20 21  1  0  0  0  0
 20 54  1  0  0  0  0
 21 55  1  0  0  0  0
 22 23  1  0  0  0  0
 23 24  2  0  0  0  0
 23 56  1  0  0  0  0
 24 25  1  0  0  0  0
 26 30  1  0  0  0  0
 26 27  1  0  0  0  0
 26 57  1  0  0  0  0
 27 28  1  0  0  0  0
 27 58  1  0  0  0  0
 27 59  1  0  0  0  0
 28 29  1  0  0  0  0
 28 60  1  0  0  0  0
 28 61  1  0  0  0  0
 29 30  1  0  0  0  0
 30 62  1  0  0  0  0
 30 63  1  0  0  0  0
M  END
> <s_m_source_file>
AV-unprocessed.smi

> <i_m_source_file_index>
148

> <i_lp_mmshare_version>
43012

> <i_f3d_flags>
0

> <s_epik_input>
W0NIMl0xT1tDSDJdW0NIMl1bQ0BIXTFbQ0BIXShbQ0gyXVtPSF0pW0NIMl1uKFtjSF1uMiljKGMyMyluW2NIXW5jM040W0NIMl1bQ0gyXVtDSDJdW0NIMl1bQ0BIXTRbQ0BASF01W0NIMl1bQ0gyXVtDSDJdW0NASF01W09IXQ==

> <s_epik_cmdline>
J2VwaWtfcHl0aG9uJywgJy1waCcsICc3LjAnLCAnLXRuJywgJzgnLCAnLW1hJywgJzIwMCcsICctbWV0YWxfYmluZGluZycsICctaW1hZScsICc8aW5maWxlLm1hZT4nLCAnLW9tYWUnLCAnPG91dGZpbGUubWFlPic=

> <r_lp_tautomer_probability>
1

> <r_epik_Ionization_Penalty>
0.00556303

> <r_epik_Ionization_Penalty_Charging>
0

> <r_epik_Ionization_Penalty_Neutral>
0.00556303

> <r_epik_State_Penalty>
0.00401767

> <r_epik_Charging_Adjusted_Penalty>
0.00401767

> <i_epik_Tot_Q>
0

> <i_epik_Tot_abs_Q>
0

> <r_epik_Metal_State_Penalty>
-0

> <b_epik_Metal_Only>
0

> <s_lp_Force_Field>
OPLS_2005

> <r_lp_Energy>
68.7662

> <b_lp_Chiralities_Consistent>
1

> <s_lp_Variant>
AV-unprocessed.smi:148-15

> <Gold.Version>
5.8.1

> <Gold.Id.Protein>
6NUR|6NUR_protein|mol2

> <Gold.PLP.Fitness>
43.0871

> <Gold.PLP.PLP>
-36.0421

> <Gold.PLP.part.hbond>
-3.0000

> <Gold.PLP.part.metal>
0.0000

> <Gold.PLP.part.buried>
-6.3458

> <Gold.PLP.part.nonpolar>
-28.5638

> <Gold.PLP.part.repulsive>
0.1677

> <Gold.PLP.ligand.clash>
0.0000

> <Gold.PLP.ligand.torsion>
1.2095

> <Gold.PLP.Chemscore.Hbond>
3.0000

> <Gold.PLP.Chemscore.CHOScore>
0.0000

> <Gold.PLP.Chemscore.Metal>
0.0000

> <Gold.Chemscore.Hbonds>
donor molecule, donor type, donor heavy atom, donor atom, acceptor molecule, acceptor atom, score
      L1  H     1    31       P1 10956  0.88
      P1  H  6896  6907       L1    21  1.00
      P1  H  6896  6909       L1    22  1.00

> <Gold.PLP.Chemscore.Internal.Correction>
0.4640

> <Gold.Rescore>
     Score         DG    S(hbond)    S(metal)    S(lipo)     H(rot)  DE(clash)    DE(int)     intcor
     11.73     -12.99       1.73        0.00      87.31       3.32       0.01       1.25       ----

> <Gold.Chemscore.Fitness>
11.7255

> <Gold.Chemscore.DG>
-12.9855

> <Gold.Chemscore.ZeroCoef>
-5.4800

> <Gold.Chemscore.Hbond>
1.7338

> <Gold.Chemscore.Metal>
0.0000

> <Gold.Chemscore.Lipo>
87.3050

> <Gold.Chemscore.Internal_Hbond>
0.0000

> <Gold.Chemscore.DEClash>
0.0098

> <Gold.Chemscore.DEInternal>
1.2503

> <Gold.Chemscore.Rot>
3.3203

> <Gold.Chemscore.Internal.Correction>
   9.000000E+99

> <Gold.Chemscore.Hbonds>
donor molecule, donor type, donor heavy atom, donor atom, acceptor molecule, acceptor atom, score
      L1  H     1    31       P1 10956  0.26
      P1  H  6896  6907       L1    21  0.63
      P1  H  6896  6909       L1    22  0.67

> <Gold.Chemscore.Hbond.Weighted>
-5.7909

> <Gold.Chemscore.Metal.Weighted>
-0.0000

> <Gold.Chemscore.Lipo.Weighted>
-10.2147

> <Gold.Chemscore.Internal_Hbond.Weighted>
0.0000

> <Gold.Chemscore.DEClash.Weighted>
0.0098

> <Gold.Chemscore.DEInternal.Weighted>
1.2503

> <Gold.Chemscore.Rot.Weighted>
8.5000

> <Gold.Chemscore.Internal.Correction.Weighted>
   9.000000E+99

> <Gold.Protein.RotatedTorsions>
[ 6907 6896 6895 6894 ] final  -21.72 input  -60.11 | X-H torsion
[ 7974 7965 7964 7962 ] final  108.86 input  175.53 | X-H torsion
[ 8008 7997 7996 7995 ] final    1.67 input   59.86 | X-H torsion
[ 10167 10162 10161 10158 ] final  110.53 input  -65.29 | X-H torsion
[ 10718 10713 10712 10709 ] final  -72.14 input   66.30 | X-H torsion
[ 10763 10752 10751 10750 ] final -129.44 input  -60.55 | X-H torsion
[ 11005 11000 10999 10996 ] final   -7.72 input  -57.11 | X-H torsion

> <Gold.Protein.ActiveResidues>
 VAL166  LYS551  ARG553  GLY616  TRP617  ASP618  TYR619  PRO620  LYS621  CYS622 
 ASP623  PHE694  ASN695  SER759  ASP760  ASP761  ALA762  ILE779  LEU786  VAL792 
 PHE793  MET794  SER795  GLU796  ALA797  LYS798  CYS799  TRP800  GLU811  SER814 

> <Gold.Protein.RotatedAtoms>
  151.2292  135.0548  159.8980 H   0  0  0  0  0  0  0  0  0  0  0  0  # atno 6907 bound_to 6896
  152.5407  134.0556  159.8139 H   0  0  0  0  0  0  0  0  0  0  0  0  # atno 6908 bound_to 6896
  151.0733  133.5400  159.2657 H   0  0  0  0  0  0  0  0  0  0  0  0  # atno 6909 bound_to 6896
  145.2752  139.2652  143.3945 H   0  0  0  0  0  0  0  0  0  0  0  0  # atno 7974 bound_to 7965
  154.6825  140.2636  155.6894 H   0  0  0  0  0  0  0  0  0  0  0  0  # atno 8008 bound_to 7997
  156.2702  140.2807  156.1297 H   0  0  0  0  0  0  0  0  0  0  0  0  # atno 8009 bound_to 7997
  155.1011  140.0374  157.2687 H   0  0  0  0  0  0  0  0  0  0  0  0  # atno 8010 bound_to 7997
  139.6681  144.7126  151.1739 H   0  0  0  0  0  0  0  0  0  0  0  0  # atno 10167 bound_to 10162
  156.0333  130.4366  150.2549 H   0  0  0  0  0  0  0  0  0  0  0  0  # atno 10718 bound_to 10713
  154.8757  135.3895  154.3921 H   0  0  0  0  0  0  0  0  0  0  0  0  # atno 10763 bound_to 10752
  153.4655  135.7029  153.6029 H   0  0  0  0  0  0  0  0  0  0  0  0  # atno 10764 bound_to 10752
  153.4509  135.3834  155.2251 H   0  0  0  0  0  0  0  0  0  0  0  0  # atno 10765 bound_to 10752
  140.7157  133.8870  155.8784 H   0  0  0  0  0  0  0  0  0  0  0  0  # atno 11005 bound_to 11000
  146.3234  140.3205  142.8633 LP  0  0  0  0  0  0  0  0  0  0  0  0  # atno 17320 bound_to 7965
  144.9301  140.7965  143.5695 LP  0  0  0  0  0  0  0  0  0  0  0  0  # atno 17321 bound_to 7965
  140.7607  143.5887  150.8818 LP  0  0  0  0  0  0  0  0  0  0  0  0  # atno 17342 bound_to 10162
  139.9550  143.6228  152.3018 LP  0  0  0  0  0  0  0  0  0  0  0  0  # atno 17343 bound_to 10162
  157.0650  131.0100  151.3210 LP  0  0  0  0  0  0  0  0  0  0  0  0  # atno 17370 bound_to 10713
  157.5042  130.7899  149.7636 LP  0  0  0  0  0  0  0  0  0  0  0  0  # atno 17371 bound_to 10713
  141.0046  134.1103  157.4283 LP  0  0  0  0  0  0  0  0  0  0  0  0  # atno 17394 bound_to 11000
  139.8860  135.0078  156.6472 LP  0  0  0  0  0  0  0  0  0  0  0  0  # atno 17395 bound_to 11000

$$$$
