AV-unprocessed.smi:3046|AV-procd|sdf|11620|dock7
  -GOLD-   2272017 03D 1   1.00000     0.00000
 Structure written by MMmdl.
 37 37  0  0  0  0  0  0  0  0  1 V2000
  145.2795  133.7606  151.3193 C   0  0  0  0  0  0  0  0  0  0  0  0
  145.9085  134.9287  151.1220 C   0  0  0  0  0  0  0  0  0  0  0  0
  145.2587  136.2893  151.2788 C   0  0  0  0  0  0  0  0  0  0  0  0
  145.9743  137.1125  152.2450 N   0  0  0  0  0  0  0  0  0  0  0  0
  146.6877  138.2109  151.9479 C   0  0  0  0  0  0  0  0  0  0  0  0
  146.8222  138.6304  150.7975 O   0  0  0  0  0  0  0  0  0  0  0  0
  147.3400  138.9327  153.1377 C   0  0  1  0  0  0  0  0  0  0  0  0
  146.6612  138.5726  154.4749 C   0  0  0  0  0  0  0  0  0  0  0  0
  148.7772  138.6163  153.1878 N   0  0  0  0  0  0  0  0  0  0  0  0
  149.4744  139.0416  154.3999 C   0  0  1  0  0  0  0  0  0  0  0  0
  150.9451  138.5812  154.4014 C   0  0  0  0  0  0  0  0  0  0  0  0
  149.3224  140.5741  154.5414 C   0  0  0  0  0  0  0  0  0  0  0  0
  149.7091  141.0913  155.8453 N   0  0  0  0  0  0  0  0  0  0  0  0
  150.7237  141.9752  156.1497 C   0  0  0  0  0  0  0  0  0  0  0  0
  150.7075  142.1645  157.5017 C   0  0  0  0  0  0  0  0  0  0  0  0
  149.6364  141.3394  157.9452 C   0  0  0  0  0  0  0  0  0  0  0  0
  149.0430  140.6967  156.9526 N   0  0  0  0  0  0  0  0  0  0  0  0
  144.2408  133.7254  151.6139 H   0  0  0  0  0  0  0  0  0  0  0  0
  145.7983  132.8222  151.1891 H   0  0  0  0  0  0  0  0  0  0  0  0
  146.9478  134.9243  150.8269 H   0  0  0  0  0  0  0  0  0  0  0  0
  145.2773  136.7964  150.3143 H   0  0  0  0  0  0  0  0  0  0  0  0
  144.2099  136.1862  151.5629 H   0  0  0  0  0  0  0  0  0  0  0  0
  145.9098  136.8404  153.2151 H   0  0  0  0  0  0  0  0  0  0  0  0
  147.2000  139.9998  152.9567 H   0  0  0  0  0  0  0  0  0  0  0  0
  145.5941  138.7969  154.4500 H   0  0  0  0  0  0  0  0  0  0  0  0
  147.0846  139.1339  155.3068 H   0  0  0  0  0  0  0  0  0  0  0  0
  146.7733  137.5129  154.7081 H   0  0  0  0  0  0  0  0  0  0  0  0
  148.9674  137.6463  152.9780 H   0  0  0  0  0  0  0  0  0  0  0  0
  148.9656  138.5913  155.2536 H   0  0  0  0  0  0  0  0  0  0  0  0
  151.4803  139.0020  155.2529 H   0  0  0  0  0  0  0  0  0  0  0  0
  151.4681  138.8899  153.4955 H   0  0  0  0  0  0  0  0  0  0  0  0
  151.0261  137.4973  154.4810 H   0  0  0  0  0  0  0  0  0  0  0  0
  149.8947  141.0933  153.7707 H   0  0  0  0  0  0  0  0  0  0  0  0
  148.2798  140.8475  154.3751 H   0  0  0  0  0  0  0  0  0  0  0  0
  151.3632  142.3936  155.3863 H   0  0  0  0  0  0  0  0  0  0  0  0
  151.3612  142.7955  158.0851 H   0  0  0  0  0  0  0  0  0  0  0  0
  149.2752  141.1886  158.9518 H   0  0  0  0  0  0  0  0  0  0  0  0
  1  2  2  0  0  0  0
  1 18  1  0  0  0  0
  1 19  1  0  0  0  0
  2  3  1  0  0  0  0
  2 20  1  0  0  0  0
  3  4  1  0  0  0  0
  3 21  1  0  0  0  0
  3 22  1  0  0  0  0
  4  5  1  0  0  0  0
  4 23  1  0  0  0  0
  5  6  2  0  0  0  0
  5  7  1  0  0  0  0
  7  8  1  0  0  0  0
  7  9  1  0  0  0  0
  7 24  1  0  0  0  0
  8 25  1  0  0  0  0
  8 26  1  0  0  0  0
  8 27  1  0  0  0  0
  9 10  1  0  0  0  0
  9 28  1  0  0  0  0
 10 11  1  0  0  0  0
 10 12  1  0  0  0  0
 10 29  1  0  0  0  0
 11 30  1  0  0  0  0
 11 31  1  0  0  0  0
 11 32  1  0  0  0  0
 12 13  1  0  0  0  0
 12 33  1  0  0  0  0
 12 34  1  0  0  0  0
 13 17  1  0  0  0  0
 13 14  1  0  0  0  0
 14 15  2  0  0  0  0
 14 35  1  0  0  0  0
 15 16  1  0  0  0  0
 15 36  1  0  0  0  0
 16 17  2  0  0  0  0
 16 37  1  0  0  0  0
M  END
> <s_m_source_file>
AV-unprocessed.smi

> <i_m_source_file_index>
3046

> <i_lp_mmshare_version>
43012

> <i_f3d_flags>
0

> <s_epik_input>
W0NIMl09W0NIXVtDSDJdW05IXUMoPU8pW0NASF0oW0NIM10pW05IXVtDQEhdKFtDSDNdKVtDSDJdbjFbY0hdW2NIXVtjSF1uMQ==

> <s_epik_cmdline>
J2VwaWtfcHl0aG9uJywgJy1waCcsICc3LjAnLCAnLXRuJywgJzgnLCAnLW1hJywgJzIwMCcsICctbWV0YWxfYmluZGluZycsICctaW1hZScsICc8aW5maWxlLm1hZT4nLCAnLW9tYWUnLCAnPG91dGZpbGUubWFlPic=

> <r_lp_tautomer_probability>
1

> <r_epik_Ionization_Penalty>
0.950627

> <r_epik_Ionization_Penalty_Charging>
0

> <r_epik_Ionization_Penalty_Neutral>
0.950627

> <r_epik_State_Penalty>
0.994814

> <r_epik_Charging_Adjusted_Penalty>
0.994814

> <i_epik_Tot_Q>
0

> <i_epik_Tot_abs_Q>
0

> <r_epik_Metal_State_Penalty>
0.994788

> <b_epik_Metal_Only>
0

> <s_lp_Force_Field>
OPLS_2005

> <r_lp_Energy>
8.07161

> <b_lp_Chiralities_Consistent>
1

> <s_lp_Variant>
AV-unprocessed.smi:3046-8

> <Gold.Version>
5.8.1

> <Gold.Id.Protein>
6NUR|6NUR_protein|mol2

> <Gold.PLP.Fitness>
36.2768

> <Gold.PLP.PLP>
-31.7214

> <Gold.PLP.part.hbond>
-3.7191

> <Gold.PLP.part.metal>
0.0000

> <Gold.PLP.part.buried>
-2.7976

> <Gold.PLP.part.nonpolar>
-26.4102

> <Gold.PLP.part.repulsive>
0.8335

> <Gold.PLP.ligand.clash>
0.0000

> <Gold.PLP.ligand.torsion>
0.7107

> <Gold.PLP.Chemscore.Hbond>
1.9280

> <Gold.PLP.Chemscore.CHOScore>
0.0000

> <Gold.PLP.Chemscore.Metal>
0.0000

> <Gold.Chemscore.Hbonds>
donor molecule, donor type, donor heavy atom, donor atom, acceptor molecule, acceptor atom, score
      L1  H     9    28       P1  7948  1.00
      P1  H  7954  7966       L1     6  0.90

> <Gold.PLP.Chemscore.Internal.Correction>
0.1928

> <Gold.Rescore>
     Score         DG    S(hbond)    S(metal)    S(lipo)     H(rot)  DE(clash)    DE(int)     intcor
     12.99     -14.12       1.93        0.00      66.42       2.17       0.56       0.57       ----

> <Gold.Chemscore.Fitness>
12.9871

> <Gold.Chemscore.DG>
-14.1195

> <Gold.Chemscore.ZeroCoef>
-5.4800

> <Gold.Chemscore.Hbond>
1.9261

> <Gold.Chemscore.Metal>
0.0000

> <Gold.Chemscore.Lipo>
66.4220

> <Gold.Chemscore.Internal_Hbond>
0.0000

> <Gold.Chemscore.DEClash>
0.5599

> <Gold.Chemscore.DEInternal>
0.5726

> <Gold.Chemscore.Rot>
2.1739

> <Gold.Chemscore.Internal.Correction>
   9.000000E+99

> <Gold.Chemscore.Hbonds>
donor molecule, donor type, donor heavy atom, donor atom, acceptor molecule, acceptor atom, score
      L1  H     9    28       P1  7948  0.95
      P1  H  7954  7966       L1     6  0.80

> <Gold.Chemscore.Hbond.Weighted>
-6.4333

> <Gold.Chemscore.Metal.Weighted>
-0.0000

> <Gold.Chemscore.Lipo.Weighted>
-7.7714

> <Gold.Chemscore.Internal_Hbond.Weighted>
0.0000

> <Gold.Chemscore.DEClash.Weighted>
0.5599

> <Gold.Chemscore.DEInternal.Weighted>
0.5726

> <Gold.Chemscore.Rot.Weighted>
5.5652

> <Gold.Chemscore.Internal.Correction.Weighted>
   9.000000E+99

> <Gold.Protein.RotatedTorsions>
[ 6907 6896 6895 6894 ] final   95.94 input  -60.11 | X-H torsion
[ 7974 7965 7964 7962 ] final -168.93 input  175.53 | X-H torsion
[ 8008 7997 7996 7995 ] final  -65.27 input   59.86 | X-H torsion
[ 10167 10162 10161 10158 ] final -129.85 input  -65.29 | X-H torsion
[ 10718 10713 10712 10709 ] final  -25.14 input   66.30 | X-H torsion
[ 10763 10752 10751 10750 ] final   97.03 input  -60.55 | X-H torsion
[ 11005 11000 10999 10996 ] final -143.51 input  -57.11 | X-H torsion

> <Gold.Protein.ActiveResidues>
 VAL166  LYS551  ARG553  GLY616  TRP617  ASP618  TYR619  PRO620  LYS621  CYS622 
 ASP623  PHE694  ASN695  SER759  ASP760  ASP761  ALA762  ILE779  LEU786  VAL792 
 PHE793  MET794  SER795  GLU796  ALA797  LYS798  CYS799  TRP800  GLU811  SER814 

> <Gold.Protein.RotatedAtoms>
  152.5439  134.0962  159.8298 H   0  0  0  0  0  0  0  0  0  0  0  0  # atno 6907 bound_to 6896
  151.1046  133.5211  159.2615 H   0  0  0  0  0  0  0  0  0  0  0  0  # atno 6908 bound_to 6896
  151.1953  135.0429  159.8904 H   0  0  0  0  0  0  0  0  0  0  0  0  # atno 6909 bound_to 6896
  144.7194  140.2297  143.6305 H   0  0  0  0  0  0  0  0  0  0  0  0  # atno 7974 bound_to 7965
  154.4661  140.0936  156.7025 H   0  0  0  0  0  0  0  0  0  0  0  0  # atno 8008 bound_to 7997
  155.4853  140.3469  155.4328 H   0  0  0  0  0  0  0  0  0  0  0  0  # atno 8009 bound_to 7997
  156.0959  140.1409  156.9520 H   0  0  0  0  0  0  0  0  0  0  0  0  # atno 8010 bound_to 7997
  139.9354  143.6224  152.2518 H   0  0  0  0  0  0  0  0  0  0  0  0  # atno 10167 bound_to 10162
  156.4684  130.4519  149.6885 H   0  0  0  0  0  0  0  0  0  0  0  0  # atno 10718 bound_to 10713
  153.2721  135.4197  155.0997 H   0  0  0  0  0  0  0  0  0  0  0  0  # atno 10763 bound_to 10752
  154.8459  135.3474  154.6230 H   0  0  0  0  0  0  0  0  0  0  0  0  # atno 10764 bound_to 10752
  153.6650  135.7046  153.5222 H   0  0  0  0  0  0  0  0  0  0  0  0  # atno 10765 bound_to 10752
  140.8118  134.2735  157.4937 H   0  0  0  0  0  0  0  0  0  0  0  0  # atno 11005 bound_to 11000
  145.8422  139.2135  143.1821 LP  0  0  0  0  0  0  0  0  0  0  0  0  # atno 17320 bound_to 7965
  146.0336  140.8234  142.9864 LP  0  0  0  0  0  0  0  0  0  0  0  0  # atno 17321 bound_to 7965
  139.6748  144.7659  151.1717 LP  0  0  0  0  0  0  0  0  0  0  0  0  # atno 17342 bound_to 10162
  140.7626  143.5812  150.8893 LP  0  0  0  0  0  0  0  0  0  0  0  0  # atno 17343 bound_to 10162
  156.3644  130.7498  151.2474 LP  0  0  0  0  0  0  0  0  0  0  0  0  # atno 17370 bound_to 10713
  157.7493  131.0341  150.4301 LP  0  0  0  0  0  0  0  0  0  0  0  0  # atno 17371 bound_to 10713
  139.8713  134.9487  156.4004 LP  0  0  0  0  0  0  0  0  0  0  0  0  # atno 17394 bound_to 11000
  140.9190  133.7658  155.9883 LP  0  0  0  0  0  0  0  0  0  0  0  0  # atno 17395 bound_to 11000

$$$$
