AV-unprocessed.smi:2562|AV-procd|sdf|10044|dock4
  -GOLD-   2272014 83D 1   1.00000     0.00000
 Structure written by MMmdl.
 31 32  0  0  0  0  0  0  0  0  2 V2000
  147.6641  141.8123  153.9799 C   0  0  0  0  0  0  0  0  0  0  0  0
  147.0139  140.4323  153.8327 C   0  0  0  0  0  0  0  0  0  0  0  0
  147.1242  139.8765  152.4053 C   0  0  0  0  0  0  0  0  0  0  0  0
  146.4874  138.5323  152.2746 C   0  0  0  0  0  0  0  0  0  0  0  0
  145.8948  137.9445  153.3129 N   0  0  0  0  0  0  0  0  0  0  0  0
  145.5120  136.7628  152.7857 N   0  0  0  0  0  0  0  0  0  0  0  0
  145.8943  136.7037  151.5079 C   0  0  0  0  0  0  0  0  0  0  0  0
  145.6417  135.5012  150.6546 C   0  0  2  0  0  0  0  0  0  0  0  0
  144.1695  135.3969  150.2109 C   0  0  0  0  0  0  0  0  0  0  0  0
  143.9550  134.1434  149.4619 N   0  3  0  0  0  0  0  0  0  0  0  0
  144.3894  132.9679  150.2422 C   0  0  0  0  0  0  0  0  0  0  0  0
  145.8502  133.1428  150.6936 C   0  0  0  0  0  0  0  0  0  0  0  0
  145.9848  134.3543  151.4293 O   0  0  0  0  0  0  0  0  0  0  0  0
  146.5337  137.8030  151.1193 N   0  0  0  0  0  0  0  0  0  0  0  0
  145.0208  136.0573  153.3160 H   0  0  0  0  0  0  0  0  0  0  0  0
  147.5857  142.1701  155.0067 H   0  0  0  0  0  0  0  0  0  0  0  0
  147.1808  142.5460  153.3339 H   0  0  0  0  0  0  0  0  0  0  0  0
  148.7221  141.7798  153.7191 H   0  0  0  0  0  0  0  0  0  0  0  0
  147.4828  139.7385  154.5313 H   0  0  0  0  0  0  0  0  0  0  0  0
  145.9640  140.4982  154.1205 H   0  0  0  0  0  0  0  0  0  0  0  0
  146.6568  140.5639  151.6990 H   0  0  0  0  0  0  0  0  0  0  0  0
  148.1726  139.8003  152.1142 H   0  0  0  0  0  0  0  0  0  0  0  0
  146.2948  135.5531  149.7812 H   0  0  0  0  0  0  0  0  0  0  0  0
  143.5074  135.4094  151.0782 H   0  0  0  0  0  0  0  0  0  0  0  0
  143.8940  136.2451  149.5836 H   0  0  0  0  0  0  0  0  0  0  0  0
  142.9753  134.0518  149.2329 H   0  0  0  0  0  0  0  0  0  0  0  0
  143.7382  132.8528  151.1098 H   0  0  0  0  0  0  0  0  0  0  0  0
  144.2794  132.0693  149.6349 H   0  0  0  0  0  0  0  0  0  0  0  0
  146.1506  132.3086  151.3277 H   0  0  0  0  0  0  0  0  0  0  0  0
  146.5243  133.1497  149.8355 H   0  0  0  0  0  0  0  0  0  0  0  0
  144.4909  134.1801  148.6064 H   0  0  0  0  0  0  0  0  0  0  0  0
  1  2  1  0  0  0  0
  1 16  1  0  0  0  0
  1 17  1  0  0  0  0
  1 18  1  0  0  0  0
  2  3  1  0  0  0  0
  2 19  1  0  0  0  0
  2 20  1  0  0  0  0
  3  4  1  0  0  0  0
  3 21  1  0  0  0  0
  3 22  1  0  0  0  0
  4 14  1  0  0  0  0
  4  5  2  0  0  0  0
  5  6  1  0  0  0  0
  6 15  1  0  0  0  0
  6  7  1  0  0  0  0
  7  8  1  0  0  0  0
  7 14  2  0  0  0  0
  8 13  1  0  0  0  0
  8  9  1  0  0  0  0
  8 23  1  0  0  0  0
  9 10  1  0  0  0  0
  9 24  1  0  0  0  0
  9 25  1  0  0  0  0
 10 11  1  0  0  0  0
 10 26  1  0  0  0  0
 10 31  1  0  0  0  0
 11 12  1  0  0  0  0
 11 27  1  0  0  0  0
 11 28  1  0  0  0  0
 12 13  1  0  0  0  0
 12 29  1  0  0  0  0
 12 30  1  0  0  0  0
M  CHG  1  10   1
M  END
> <s_m_source_file>
AV-unprocessed.smi

> <i_m_source_file_index>
2562

> <i_lp_mmshare_version>
43012

> <i_f3d_flags>
0

> <s_epik_input>
W0NIM11bQ0gyXVtDSDJdYzFuW25IXWMobjEpW0NAQEhdMltDSDJdW05IXVtDSDJdW0NIMl1PMg==

> <s_epik_cmdline>
J2VwaWtfcHl0aG9uJywgJy1waCcsICc3LjAnLCAnLXRuJywgJzgnLCAnLW1hJywgJzIwMCcsICctbWV0YWxfYmluZGluZycsICctaW1hZScsICc8aW5maWxlLm1hZT4nLCAnLW9tYWUnLCAnPG91dGZpbGUubWFlPic=

> <r_epik_Ionization_Penalty>
0.162344

> <r_epik_Ionization_Penalty_Charging>
0.125708

> <r_epik_Ionization_Penalty_Neutral>
0.0366364

> <r_epik_State_Penalty>
0.771409

> <r_epik_Charging_Adjusted_Penalty>
0.897117

> <i_epik_Tot_Q>
1

> <i_epik_Tot_abs_Q>
1

> <r_epik_Metal_State_Penalty>
0.893868

> <b_epik_Metal_Only>
0

> <s_lp_Force_Field>
OPLS_2005

> <r_lp_Energy>
9.76643

> <b_lp_Chiralities_Consistent>
1

> <s_lp_Variant>
AV-unprocessed.smi:2562-3

> <Gold.Version>
5.8.1

> <Gold.Id.Protein>
6NUR|6NUR_protein|mol2

> <Gold.PLP.Fitness>
34.4832

> <Gold.PLP.PLP>
-23.2970

> <Gold.PLP.part.hbond>
-3.0000

> <Gold.PLP.part.metal>
0.0000

> <Gold.PLP.part.buried>
0.3073

> <Gold.PLP.part.nonpolar>
-23.6264

> <Gold.PLP.part.repulsive>
2.4077

> <Gold.PLP.ligand.clash>
0.0000

> <Gold.PLP.ligand.torsion>
0.3620

> <Gold.PLP.Chemscore.Hbond>
3.9670

> <Gold.PLP.Chemscore.CHOScore>
0.0000

> <Gold.PLP.Chemscore.Metal>
0.0000

> <Gold.Chemscore.Hbonds>
donor molecule, donor type, donor heavy atom, donor atom, acceptor molecule, acceptor atom, score
      L1  H    10    26       P1 10186  2.00
      L1  H    10    31       P1  7921  0.99
      P1  H  7954  7966       L1    14  0.98

> <Gold.PLP.Chemscore.Internal.Correction>
0.0090

> <Gold.Rescore>
     Score         DG    S(hbond)    S(metal)    S(lipo)     H(rot)  DE(clash)    DE(int)     intcor
     14.20     -17.37       2.81        0.00      54.54       1.51       2.84       0.33       ----

> <Gold.Chemscore.Fitness>
14.2016

> <Gold.Chemscore.DG>
-17.3721

> <Gold.Chemscore.ZeroCoef>
-5.4800

> <Gold.Chemscore.Hbond>
2.8083

> <Gold.Chemscore.Metal>
0.0000

> <Gold.Chemscore.Lipo>
54.5444

> <Gold.Chemscore.Internal_Hbond>
0.0000

> <Gold.Chemscore.DEClash>
2.8412

> <Gold.Chemscore.DEInternal>
0.3292

> <Gold.Chemscore.Rot>
1.5115

> <Gold.Chemscore.Internal.Correction>
   9.000000E+99

> <Gold.Chemscore.Hbonds>
donor molecule, donor type, donor heavy atom, donor atom, acceptor molecule, acceptor atom, score
      L1  H    10    26       P1 10186  0.92
      L1  H    10    31       P1  7921  0.91
      P1  H  7954  7966       L1    14  0.91

> <Gold.Chemscore.Hbond.Weighted>
-9.3798

> <Gold.Chemscore.Metal.Weighted>
-0.0000

> <Gold.Chemscore.Lipo.Weighted>
-6.3817

> <Gold.Chemscore.Internal_Hbond.Weighted>
0.0000

> <Gold.Chemscore.DEClash.Weighted>
2.8412

> <Gold.Chemscore.DEInternal.Weighted>
0.3292

> <Gold.Chemscore.Rot.Weighted>
3.8695

> <Gold.Chemscore.Internal.Correction.Weighted>
   9.000000E+99

> <Gold.Protein.RotatedTorsions>
[ 6907 6896 6895 6894 ] final   -7.95 input  -60.11 | X-H torsion
[ 7974 7965 7964 7962 ] final  169.64 input  175.53 | X-H torsion
[ 8008 7997 7996 7995 ] final   69.51 input   59.86 | X-H torsion
[ 10167 10162 10161 10158 ] final  129.77 input  -65.29 | X-H torsion
[ 10718 10713 10712 10709 ] final -110.13 input   66.30 | X-H torsion
[ 10763 10752 10751 10750 ] final   40.45 input  -60.55 | X-H torsion
[ 11005 11000 10999 10996 ] final -178.52 input  -57.11 | X-H torsion

> <Gold.Protein.ActiveResidues>
 VAL166  LYS551  ARG553  GLY616  TRP617  ASP618  TYR619  PRO620  LYS621  CYS622 
 ASP623  PHE694  ASN695  SER759  ASP760  ASP761  ALA762  ILE779  LEU786  VAL792 
 PHE793  MET794  SER795  GLU796  ALA797  LYS798  CYS799  TRP800  GLU811  SER814 

> <Gold.Protein.RotatedAtoms>
  151.4415  135.1020  159.9671 H   0  0  0  0  0  0  0  0  0  0  0  0  # atno 6907 bound_to 6896
  152.4921  133.8524  159.7219 H   0  0  0  0  0  0  0  0  0  0  0  0  # atno 6908 bound_to 6896
  150.9085  133.6968  159.2888 H   0  0  0  0  0  0  0  0  0  0  0  0  # atno 6909 bound_to 6896
  144.7349  139.9084  143.6413 H   0  0  0  0  0  0  0  0  0  0  0  0  # atno 7974 bound_to 7965
  155.7247  140.3493  155.5032 H   0  0  0  0  0  0  0  0  0  0  0  0  # atno 8008 bound_to 7997
  155.9238  140.1072  157.1208 H   0  0  0  0  0  0  0  0  0  0  0  0  # atno 8009 bound_to 7997
  154.4074  140.1244  156.4700 H   0  0  0  0  0  0  0  0  0  0  0  0  # atno 8010 bound_to 7997
  139.5462  144.6775  151.4467 H   0  0  0  0  0  0  0  0  0  0  0  0  # atno 10167 bound_to 10162
  156.0574  130.5799  150.8195 H   0  0  0  0  0  0  0  0  0  0  0  0  # atno 10718 bound_to 10713
  152.9936  135.6191  154.2628 H   0  0  0  0  0  0  0  0  0  0  0  0  # atno 10763 bound_to 10752
  154.2363  135.2790  155.2872 H   0  0  0  0  0  0  0  0  0  0  0  0  # atno 10764 bound_to 10752
  154.5407  135.5762  153.6894 H   0  0  0  0  0  0  0  0  0  0  0  0  # atno 10765 bound_to 10752
  140.4288  134.6538  157.4701 H   0  0  0  0  0  0  0  0  0  0  0  0  # atno 11005 bound_to 11000
  146.1019  139.4016  143.0341 LP  0  0  0  0  0  0  0  0  0  0  0  0  # atno 17320 bound_to 7965
  145.7566  140.9952  143.1222 LP  0  0  0  0  0  0  0  0  0  0  0  0  # atno 17321 bound_to 7965
  140.6710  143.8293  150.7000 LP  0  0  0  0  0  0  0  0  0  0  0  0  # atno 17342 bound_to 10162
  140.1717  143.4189  152.1996 LP  0  0  0  0  0  0  0  0  0  0  0  0  # atno 17343 bound_to 10162
  157.5555  131.0945  150.9634 LP  0  0  0  0  0  0  0  0  0  0  0  0  # atno 17370 bound_to 10713
  156.9884  130.5553  149.5301 LP  0  0  0  0  0  0  0  0  0  0  0  0  # atno 17371 bound_to 10713
  140.0148  134.6635  155.9325 LP  0  0  0  0  0  0  0  0  0  0  0  0  # atno 17394 bound_to 11000
  141.1754  133.6540  156.4809 LP  0  0  0  0  0  0  0  0  0  0  0  0  # atno 17395 bound_to 11000

$$$$
