#       Name:                AV-unprocessed.smi:1137
#       Creating user name   scv26
#       Creation time:       Fri Mar 27 03:43:37 2020


#       File generated by GOLD software.
#

@<TRIPOS>MOLECULE
AV-unprocessed.smi:1137
    24    24     1
SMALL
NO_CHARGES


@<TRIPOS>ATOM
      1 ****        -2.1869   1.6077   1.6055 O.co2          1 S1                 0.0000
      2 ****        -1.8498   0.4035   1.5732 C.2            1 S1                 0.0000
      3 ****        -2.6404  -0.5643   1.4963 O.co2          1 S1                -1.0000
      4 ****        -0.3427   0.1085   1.6104 C.3            1 S1                 0.0000
      5 ****        -0.0821  -1.1120   2.2808 O.3            1 S1                 0.0000
      6 ****         0.1573   0.1190   0.1719 C.ar           1 S1                 0.0000
      7 ****         0.0354  -1.0142  -0.6625 C.ar           1 S1                 0.0000
      8 ****         0.5123  -0.9404  -1.9855 C.ar           1 S1                 0.0000
      9 ****         1.0903   0.2674  -2.4228 C.ar           1 S1                 0.0000
     10 ****         1.2105   1.3594  -1.6380 N.ar           1 S1                 0.0000
     11 ****         0.7488   1.2805  -0.3710 C.ar           1 S1                 0.0000
     12 ****         0.1568   0.9002   2.1707 H              1 S1                 0.0000
     13 ****         0.8532  -1.2349   2.3226 H              1 S1                 0.0000
     14 ****        -0.4187  -1.9243  -0.2986 H              1 S1                 0.0000
     15 ****         0.4340  -1.7885  -2.6492 H              1 S1                 0.0000
     16 ****         1.4660   0.3591  -3.4311 H              1 S1                 0.0000
     17 ****         0.8566   2.1729   0.2278 H              1 S1                 0.0000
     18 ****        -3.1546   1.8572   1.5691 LP             1 S1                 0.0000
     19 ****        -1.4887   2.3209   1.6677 LP             1 S1                 0.0000
     20 ****        -3.6264  -0.4024   1.4555 LP             1 S1                 0.0000
     21 ****        -2.2859  -1.4991   1.4757 LP             1 S1                 0.0000
     22 ****        -0.5002  -1.8691   1.7788 LP             1 S1                 0.0000
     23 ****        -0.4599  -1.0765   3.2060 LP             1 S1                 0.0000
     24 ****         1.6280   2.1998  -1.9837 LP             1 S1                 0.0000
@<TRIPOS>BOND
    1    1    2 ar    
    2    2    3 ar    
    3    2    4 1     
    4    4    5 1     
    5    4    6 1     
    6    4   12 1     
    7    5   13 1     
    8    6   11 ar    
    9    6    7 ar    
   10    7    8 ar    
   11    7   14 1     
   12    8    9 ar    
   13    8   15 1     
   14    9   10 ar    
   15    9   16 1     
   16   10   11 ar    
   17   11   17 1     
   18    1   18 1     
   19    1   19 1     
   20    3   20 1     
   21    3   21 1     
   22    5   22 1     
   23    5   23 1     
   24   10   24 1     
@<TRIPOS>SUBSTRUCTURE
      1 S1             1
@<TRIPOS>SET
LONE_PAIRS      STATIC     ATOMS    <user>   **** ""
7 18 19 20 21 22 23 24
DONOR_HYDROGENS      STATIC     ATOMS    <user>   **** ""
1 13
ATOM$BLUE        STATIC     ATOMS    COLORGROUP SYSTEM
7 18 19 20 21 22 23 24
ATOM$RED        STATIC     ATOMS    COLORGROUP SYSTEM
1 13
