AV-unprocessed.smi:243|AV-procd|sdf|1849|dock10
  -GOLD-   2262020473D 1   1.00000     0.00000
 Structure written by MMmdl.
 58 61  0  0  0  0  0  0  0  0  2 V2000
  151.6052  143.9263  157.3978 C   0  0  0  0  0  0  0  0  0  0  0  0
  150.5921  142.9609  158.0303 C   0  0  0  0  0  0  0  0  0  0  0  0
  149.7610  142.2588  157.0192 N   0  3  1  0  0  0  0  0  0  0  0  0
  150.5915  141.5776  155.9937 C   0  0  0  0  0  0  0  0  0  0  0  0
  149.7332  140.9386  154.8842 C   0  0  0  0  0  0  0  0  0  0  0  0
  148.5691  140.0651  155.3975 C   0  0  1  0  0  0  0  0  0  0  0  0
  148.9510  138.6679  155.6751 N   0  0  0  0  0  0  0  0  0  0  0  0
  150.0165  138.2744  156.5929 C   0  0  0  0  0  0  0  0  0  0  0  0
  148.1335  137.6816  155.2248 C   0  0  0  0  0  0  0  0  0  0  0  0
  148.2118  136.4588  155.8121 N   0  0  0  0  0  0  0  0  0  0  0  0
  147.4190  135.4628  155.4064 C   0  0  0  0  0  0  0  0  0  0  0  0
  146.4943  135.4717  154.4451 N   0  0  0  0  0  0  0  0  0  0  0  0
  146.4146  136.6938  153.8454 C   0  0  0  0  0  0  0  0  0  0  0  0
  147.1857  137.8454  154.1726 C   0  0  0  0  0  0  0  0  0  0  0  0
  146.8265  138.9025  153.3435 N   0  0  0  0  0  0  0  0  0  0  0  0
  145.8898  138.4087  152.5816 C   0  0  0  0  0  0  0  0  0  0  0  0
  145.5882  137.0849  152.8061 N   0  0  0  0  0  0  0  0  0  0  0  0
  144.5953  136.2876  152.1033 C   0  0  0  0  0  0  0  0  0  0  0  0
  145.1365  135.5883  150.8302 C   0  0  1  0  0  0  0  0  0  0  0  0
  145.6140  136.5579  149.9171 O   0  0  0  0  0  0  0  0  0  0  0  0
  146.2466  134.6000  151.1492 C   0  0  0  0  0  0  0  0  0  0  0  0
  145.4816  133.3255  151.5025 C   0  0  0  0  0  0  0  0  0  0  0  0
  144.2305  133.4134  150.8257 O   0  0  0  0  0  0  0  0  0  0  0  0
  144.1297  134.6580  150.1426 C   0  0  0  0  0  0  0  0  0  0  0  0
  147.8101  140.7737  156.5457 C   0  0  1  0  0  0  0  0  0  0  0  0
  146.6734  139.9271  157.1442 C   0  0  0  0  0  0  0  0  0  0  0  0
  148.7597  141.3389  157.6201 C   0  0  0  0  0  0  0  0  0  0  0  0
  152.2638  144.3419  158.1608 H   0  0  0  0  0  0  0  0  0  0  0  0
  151.1195  144.7662  156.9019 H   0  0  0  0  0  0  0  0  0  0  0  0
  152.2315  143.4167  156.6649 H   0  0  0  0  0  0  0  0  0  0  0  0
  151.1549  142.2243  158.6055 H   0  0  0  0  0  0  0  0  0  0  0  0
  149.9535  143.4847  158.7432 H   0  0  0  0  0  0  0  0  0  0  0  0
  151.2592  142.3062  155.5328 H   0  0  0  0  0  0  0  0  0  0  0  0
  151.2386  140.8460  156.4721 H   0  0  0  0  0  0  0  0  0  0  0  0
  149.3060  141.7486  154.2916 H   0  0  0  0  0  0  0  0  0  0  0  0
  150.3606  140.3709  154.1959 H   0  0  0  0  0  0  0  0  0  0  0  0
  147.8519  140.0371  154.5765 H   0  0  0  0  0  0  0  0  0  0  0  0
  150.3029  137.2335  156.4365 H   0  0  0  0  0  0  0  0  0  0  0  0
  149.6951  138.3799  157.6287 H   0  0  0  0  0  0  0  0  0  0  0  0
  150.9156  138.8649  156.4492 H   0  0  0  0  0  0  0  0  0  0  0  0
  147.5429  134.5239  155.9260 H   0  0  0  0  0  0  0  0  0  0  0  0
  145.3952  138.9983  151.8233 H   0  0  0  0  0  0  0  0  0  0  0  0
  144.2011  135.5461  152.7993 H   0  0  0  0  0  0  0  0  0  0  0  0
  143.7587  136.9404  151.8519 H   0  0  0  0  0  0  0  0  0  0  0  0
  145.7585  136.1396  149.0823 H   0  0  0  0  0  0  0  0  0  0  0  0
  146.8557  134.4131  150.2631 H   0  0  0  0  0  0  0  0  0  0  0  0
  146.9139  134.9335  151.9446 H   0  0  0  0  0  0  0  0  0  0  0  0
  146.0261  132.4269  151.2112 H   0  0  0  0  0  0  0  0  0  0  0  0
  145.2939  133.2719  152.5751 H   0  0  0  0  0  0  0  0  0  0  0  0
  143.1078  135.0331  150.1298 H   0  0  0  0  0  0  0  0  0  0  0  0
  144.4211  134.4829  149.1056 H   0  0  0  0  0  0  0  0  0  0  0  0
  147.3251  141.6406  156.0933 H   0  0  0  0  0  0  0  0  0  0  0  0
  147.0534  139.0642  157.6903 H   0  0  0  0  0  0  0  0  0  0  0  0
  146.0064  139.5591  156.3641 H   0  0  0  0  0  0  0  0  0  0  0  0
  146.0726  140.5143  157.8392 H   0  0  0  0  0  0  0  0  0  0  0  0
  149.2677  140.5418  158.1615 H   0  0  0  0  0  0  0  0  0  0  0  0
  148.1638  141.8767  158.3564 H   0  0  0  0  0  0  0  0  0  0  0  0
  149.2430  142.9743  156.5292 H   0  0  0  0  0  0  0  0  0  0  0  0
  1  2  1  0  0  0  0
  1 28  1  0  0  0  0
  1 29  1  0  0  0  0
  1 30  1  0  0  0  0
  2  3  1  0  0  0  0
  2 31  1  0  0  0  0
  2 32  1  0  0  0  0
  3 27  1  0  0  0  0
  3  4  1  0  0  0  0
  3 58  1  0  0  0  0
  4  5  1  0  0  0  0
  4 33  1  0  0  0  0
  4 34  1  0  0  0  0
  5  6  1  0  0  0  0
  5 35  1  0  0  0  0
  5 36  1  0  0  0  0
  6  7  1  0  0  0  0
  6 25  1  0  0  0  0
  6 37  1  0  0  0  0
  7  8  1  0  0  0  0
  7  9  1  0  0  0  0
  8 38  1  0  0  0  0
  8 39  1  0  0  0  0
  8 40  1  0  0  0  0
  9 14  1  0  0  0  0
  9 10  2  0  0  0  0
 10 11  1  0  0  0  0
 11 12  2  0  0  0  0
 11 41  1  0  0  0  0
 12 13  1  0  0  0  0
 13 17  1  0  0  0  0
 13 14  2  0  0  0  0
 14 15  1  0  0  0  0
 15 16  2  0  0  0  0
 16 17  1  0  0  0  0
 16 42  1  0  0  0  0
 17 18  1  0  0  0  0
 18 19  1  0  0  0  0
 18 43  1  0  0  0  0
 18 44  1  0  0  0  0
 19 24  1  0  0  0  0
 19 20  1  0  0  0  0
 19 21  1  0  0  0  0
 20 45  1  0  0  0  0
 21 22  1  0  0  0  0
 21 46  1  0  0  0  0
 21 47  1  0  0  0  0
 22 23  1  0  0  0  0
 22 48  1  0  0  0  0
 22 49  1  0  0  0  0
 23 24  1  0  0  0  0
 24 50  1  0  0  0  0
 24 51  1  0  0  0  0
 25 26  1  0  0  0  0
 25 27  1  0  0  0  0
 25 52  1  0  0  0  0
 26 53  1  0  0  0  0
 26 54  1  0  0  0  0
 26 55  1  0  0  0  0
 27 56  1  0  0  0  0
 27 57  1  0  0  0  0
M  CHG  1   3   1
M  END
> <s_m_source_file>
AV-unprocessed.smi

> <i_m_source_file_index>
243

> <i_lp_mmshare_version>
43012

> <i_f3d_flags>
0

> <s_epik_input>
W0NIM11bQ0gyXU4xW0NIMl1bQ0gyXVtDQEhdKFtDQEBIXShbQ0gzXSlbQ0gyXTEpTihbQ0gzXSljKG5bY0hdbjIpYyhjMjMpbltjSF1uM1tDSDJdW0NAQF00KFtPSF0pW0NIMl1bQ0gyXU9bQ0gyXTQ=

> <s_epik_cmdline>
J2VwaWtfcHl0aG9uJywgJy1waCcsICc3LjAnLCAnLXRuJywgJzgnLCAnLW1hJywgJzIwMCcsICctbWV0YWxfYmluZGluZycsICctaW1hZScsICc8aW5maWxlLm1hZT4nLCAnLW9tYWUnLCAnPG91dGZpbGUubWFlPic=

> <r_lp_tautomer_probability>
1

> <r_epik_Ionization_Penalty>
0.00253099

> <r_epik_Ionization_Penalty_Charging>
0.00137877

> <r_epik_Ionization_Penalty_Neutral>
0.00115221

> <r_epik_State_Penalty>
-0

> <r_epik_Charging_Adjusted_Penalty>
0.00137877

> <i_epik_Tot_Q>
1

> <i_epik_Tot_abs_Q>
1

> <r_epik_Metal_State_Penalty>
-0

> <b_epik_Metal_Only>
0

> <s_lp_Force_Field>
OPLS_2005

> <r_lp_Energy>
52.4655

> <b_lp_Chiralities_Consistent>
1

> <s_lp_Variant>
AV-unprocessed.smi:243-2

> <Gold.Version>
5.8.1

> <Gold.Id.Protein>
6NUR|6NUR_protein|mol2

> <Gold.PLP.Fitness>
44.0112

> <Gold.PLP.PLP>
-31.0559

> <Gold.PLP.part.hbond>
-3.0000

> <Gold.PLP.part.metal>
0.0000

> <Gold.PLP.part.buried>
-2.0314

> <Gold.PLP.part.nonpolar>
-26.5039

> <Gold.PLP.part.repulsive>
0.5242

> <Gold.PLP.ligand.clash>
0.0000

> <Gold.PLP.ligand.torsion>
0.8399

> <Gold.PLP.Chemscore.Hbond>
3.0000

> <Gold.PLP.Chemscore.CHOScore>
1.7822

> <Gold.PLP.Chemscore.Metal>
0.0000

> <Gold.Chemscore.Hbonds>
donor molecule, donor type, donor heavy atom, donor atom, acceptor molecule, acceptor atom, score
      L1  H     3    58       P1  8028  2.00
      L1  H    20    45       P1  7921  1.00
      L1  C    16    42       P1 10171  0.97
      L1  C    16    42       P1 10175  0.80

> <Gold.PLP.Chemscore.Internal.Correction>
0.2884

> <Gold.Rescore>
     Score         DG    S(hbond)    S(metal)    S(lipo)     H(rot)  DE(clash)    DE(int)     intcor
     13.03     -15.48       1.96        0.00      78.61       2.24       0.46       2.00       ----

> <Gold.Chemscore.Fitness>
13.0289

> <Gold.Chemscore.DG>
-15.4846

> <Gold.Chemscore.ZeroCoef>
-5.4800

> <Gold.Chemscore.Hbond>
1.9569

> <Gold.Chemscore.Metal>
0.0000

> <Gold.Chemscore.Lipo>
78.6129

> <Gold.Chemscore.Internal_Hbond>
0.0000

> <Gold.Chemscore.DEClash>
0.4561

> <Gold.Chemscore.DEInternal>
1.9995

> <Gold.Chemscore.Rot>
2.2379

> <Gold.Chemscore.Internal.Correction>
   9.000000E+99

> <Gold.Chemscore.Hbonds>
donor molecule, donor type, donor heavy atom, donor atom, acceptor molecule, acceptor atom, score
      L1  H     3    58       P1  8028  0.96
      L1  H    20    45       P1  7921  0.98

> <Gold.Chemscore.Hbond.Weighted>
-6.5360

> <Gold.Chemscore.Metal.Weighted>
-0.0000

> <Gold.Chemscore.Lipo.Weighted>
-9.1977

> <Gold.Chemscore.Internal_Hbond.Weighted>
0.0000

> <Gold.Chemscore.DEClash.Weighted>
0.4561

> <Gold.Chemscore.DEInternal.Weighted>
1.9995

> <Gold.Chemscore.Rot.Weighted>
5.7291

> <Gold.Chemscore.Internal.Correction.Weighted>
   9.000000E+99

> <Gold.Protein.RotatedTorsions>
[ 6907 6896 6895 6894 ] final -164.24 input  -60.11 | X-H torsion
[ 7974 7965 7964 7962 ] final  -17.68 input  175.53 | X-H torsion
[ 8008 7997 7996 7995 ] final  -61.93 input   59.86 | X-H torsion
[ 10167 10162 10161 10158 ] final -133.54 input  -65.29 | X-H torsion
[ 10718 10713 10712 10709 ] final    0.58 input   66.30 | X-H torsion
[ 10763 10752 10751 10750 ] final  -81.94 input  -60.55 | X-H torsion
[ 11005 11000 10999 10996 ] final -116.88 input  -57.11 | X-H torsion

> <Gold.Protein.ActiveResidues>
 VAL166  LYS551  ARG553  GLY616  TRP617  ASP618  TYR619  PRO620  LYS621  CYS622 
 ASP623  PHE694  ASN695  SER759  ASP760  ASP761  ALA762  ILE779  LEU786  VAL792 
 PHE793  MET794  SER795  GLU796  ALA797  LYS798  CYS799  TRP800  GLU811  SER814 

> <Gold.Protein.RotatedAtoms>
  151.4086  133.3734  159.2740 H   0  0  0  0  0  0  0  0  0  0  0  0  # atno 6907 bound_to 6896
  150.9379  134.8792  159.7604 H   0  0  0  0  0  0  0  0  0  0  0  0  # atno 6908 bound_to 6896
  152.5058  134.4035  159.9477 H   0  0  0  0  0  0  0  0  0  0  0  0  # atno 6909 bound_to 6896
  146.1929  140.3814  142.8451 H   0  0  0  0  0  0  0  0  0  0  0  0  # atno 7974 bound_to 7965
  154.4473  140.1007  156.6508 H   0  0  0  0  0  0  0  0  0  0  0  0  # atno 8008 bound_to 7997
  155.5399  140.3483  155.4426 H   0  0  0  0  0  0  0  0  0  0  0  0  # atno 8009 bound_to 7997
  156.0604  140.1325  156.9937 H   0  0  0  0  0  0  0  0  0  0  0  0  # atno 8010 bound_to 7997
  139.8972  143.6651  152.2601 H   0  0  0  0  0  0  0  0  0  0  0  0  # atno 10167 bound_to 10162
  156.8355  130.5503  149.5682 H   0  0  0  0  0  0  0  0  0  0  0  0  # atno 10718 bound_to 10713
  154.5697  135.5609  153.7083 H   0  0  0  0  0  0  0  0  0  0  0  0  # atno 10763 bound_to 10752
  153.0044  135.6294  154.2131 H   0  0  0  0  0  0  0  0  0  0  0  0  # atno 10764 bound_to 10752
  154.2071  135.2875  155.2951 H   0  0  0  0  0  0  0  0  0  0  0  0  # atno 10765 bound_to 10752
  141.0392  133.9862  157.3021 H   0  0  0  0  0  0  0  0  0  0  0  0  # atno 11005 bound_to 11000
  144.8522  140.7018  143.6161 LP  0  0  0  0  0  0  0  0  0  0  0  0  # atno 17320 bound_to 7965
  145.3736  139.1653  143.4319 LP  0  0  0  0  0  0  0  0  0  0  0  0  # atno 17321 bound_to 7965
  139.7057  144.7628  151.1197 LP  0  0  0  0  0  0  0  0  0  0  0  0  # atno 17342 bound_to 10162
  140.7714  143.5398  150.9326 LP  0  0  0  0  0  0  0  0  0  0  0  0  # atno 17343 bound_to 10162
  156.0910  130.5895  150.9732 LP  0  0  0  0  0  0  0  0  0  0  0  0  # atno 17370 bound_to 10713
  157.6384  131.0913  150.8302 LP  0  0  0  0  0  0  0  0  0  0  0  0  # atno 17371 bound_to 10713
  139.9263  135.0201  156.8246 LP  0  0  0  0  0  0  0  0  0  0  0  0  # atno 17394 bound_to 11000
  140.6265  133.9945  155.7642 LP  0  0  0  0  0  0  0  0  0  0  0  0  # atno 17395 bound_to 11000

$$$$
