#       Name:                AV-unprocessed.smi:3032
#       Creating user name   scv26
#       Creation time:       Fri Mar 27 16:52:47 2020


#       File generated by GOLD software.
#

@<TRIPOS>MOLECULE
AV-unprocessed.smi:3032
    41    42     1
SMALL
NO_CHARGES


@<TRIPOS>ATOM
      1 ****        -3.1007   2.6718  -1.0249 C.3            1 S1                 0.0000
      2 ****        -2.3828   1.7967   0.0125 C.3            1 S1                 0.0000
      3 ****        -3.0662   1.8853   1.3896 C.3            1 S1                 0.0000
      4 ****        -2.3526   1.0120   2.4321 C.3            1 S1                 0.0000
      5 ****        -2.2655  -0.4540   1.9699 C.3            1 S1                 0.0000
      6 ****        -1.6364  -0.6241   0.5672 C.3            1 S1                 0.0000
      7 ****        -0.1010  -0.4993   0.5788 C.2            1 S1                 0.0000
      8 ****         0.4486   0.5339   0.9599 O.2            1 S1                 0.0000
      9 ****         0.5848  -1.5704   0.1494 N.am           1 S1                 0.0000
     10 ****         2.0378  -1.6554   0.0570 C.3            1 S1                 0.0000
     11 ****         2.5642  -0.9630  -1.2106 C.3            1 S1                 0.0000
     12 ****         4.0459  -1.0821  -1.3557 C.2            1 S1                 0.0000
     13 ****         4.6150  -2.0185  -2.1175 N.pl3          1 S1                 0.0000
     14 ****         5.9572  -1.8945  -2.0480 N.2            1 S1                 0.0000
     15 ****         6.0991  -0.8616  -1.2194 C.2            1 S1                 0.0000
     16 ****         4.9406  -0.3110  -0.7471 N.2            1 S1                 0.0000
     17 ****        -2.3015   0.3271  -0.4559 C.3            1 S1                 0.0000
     18 ****         4.1539  -2.7246  -2.6735 H              1 S1                 0.0000
     19 ****        -4.1293   2.3437  -1.1781 H              1 S1                 0.0000
     20 ****        -2.5919   2.6346  -1.9884 H              1 S1                 0.0000
     21 ****        -3.1281   3.7144  -0.7076 H              1 S1                 0.0000
     22 ****        -1.3708   2.1887   0.1128 H              1 S1                 0.0000
     23 ****        -3.0822   2.9205   1.7324 H              1 S1                 0.0000
     24 ****        -4.1078   1.5721   1.3055 H              1 S1                 0.0000
     25 ****        -1.3564   1.4093   2.6258 H              1 S1                 0.0000
     26 ****        -2.8859   1.0648   3.3817 H              1 S1                 0.0000
     27 ****        -1.7120  -1.0382   2.7064 H              1 S1                 0.0000
     28 ****        -3.2715  -0.8752   1.9544 H              1 S1                 0.0000
     29 ****        -1.8606  -1.6423   0.2441 H              1 S1                 0.0000
     30 ****         0.0606  -2.3829  -0.1418 H              1 S1                 0.0000
     31 ****         2.4974  -1.2254   0.9485 H              1 S1                 0.0000
     32 ****         2.3124  -2.7103   0.0437 H              1 S1                 0.0000
     33 ****         2.0877  -1.3875  -2.0951 H              1 S1                 0.0000
     34 ****         2.3050   0.0965  -1.1982 H              1 S1                 0.0000
     35 ****         7.0749  -0.4902  -0.9421 H              1 S1                 0.0000
     36 ****        -3.3100  -0.0354  -0.6602 H              1 S1                 0.0000
     37 ****        -1.7716   0.2746  -1.4084 H              1 S1                 0.0000
     38 ****        -0.1028   1.3090   1.2684 LP             1 S1                 0.0000
     39 ****         1.4465   0.5982   0.9611 LP             1 S1                 0.0000
     40 ****         6.6632  -2.4382  -2.5018 LP             1 S1                 0.0000
     41 ****         4.8047   0.4561  -0.1201 LP             1 S1                 0.0000
@<TRIPOS>BOND
    1    1    2 1     
    2    1   19 1     
    3    1   20 1     
    4    1   21 1     
    5    2   17 1     
    6    2    3 1     
    7    2   22 1     
    8    3    4 1     
    9    3   23 1     
   10    3   24 1     
   11    4    5 1     
   12    4   25 1     
   13    4   26 1     
   14    5    6 1     
   15    5   27 1     
   16    5   28 1     
   17    6    7 1     
   18    6   17 1     
   19    6   29 1     
   20    7    8 2     
   21    7    9 am    
   22    9   10 1     
   23    9   30 1     
   24   10   11 1     
   25   10   31 1     
   26   10   32 1     
   27   11   33 1     
   28   11   34 1     
   29   11   12 1     
   30   12   16 2     
   31   12   13 1     
   32   13   18 1     
   33   13   14 1     
   34   14   15 2     
   35   15   16 1     
   36   15   35 1     
   37   17   36 1     
   38   17   37 1     
   39    8   38 1     
   40    8   39 1     
   41   14   40 1     
   42   16   41 1     
@<TRIPOS>SUBSTRUCTURE
      1 S1             1
@<TRIPOS>SET
LONE_PAIRS      STATIC     ATOMS    <user>   **** ""
4 38 39 40 41
DONOR_HYDROGENS      STATIC     ATOMS    <user>   **** ""
2 30 18
ATOM$BLUE        STATIC     ATOMS    COLORGROUP SYSTEM
4 38 39 40 41
ATOM$RED        STATIC     ATOMS    COLORGROUP SYSTEM
2 30 18
