AV-unprocessed.smi:290|AV-procd|sdf|2227|dock7
  -GOLD-   2262022 83D 1   1.00000     0.00000
 Structure written by MMmdl.
 59 62  0  0  0  0  0  0  0  0  2 V2000
  152.2983  144.7703  157.6798 C   0  0  0  0  0  0  0  0  0  0  0  0
  152.1041  143.7917  158.8485 C   0  0  2  0  0  0  0  0  0  0  0  0
  153.3581  143.6485  159.5098 O   0  0  0  0  0  0  0  0  0  0  0  0
  153.4160  142.3612  160.0975 C   0  0  0  0  0  0  0  0  0  0  0  0
  152.7959  141.4862  159.0194 C   0  0  0  0  0  0  0  0  0  0  0  0
  151.6512  142.3474  158.4896 C   0  0  1  0  0  0  0  0  0  0  0  0
  150.4986  142.0509  159.2605 O   0  0  0  0  0  0  0  0  0  0  0  0
  151.3166  142.0800  156.9983 C   0  0  0  0  0  0  0  0  0  0  0  0
  150.9300  140.7030  156.7318 N   0  0  0  0  0  0  0  0  0  0  0  0
  149.7471  140.0951  157.0866 C   0  0  0  0  0  0  0  0  0  0  0  0
  149.6318  138.8477  156.7216 N   0  0  0  0  0  0  0  0  0  0  0  0
  150.8315  138.5680  156.0771 C   0  0  0  0  0  0  0  0  0  0  0  0
  151.3687  137.4145  155.4363 C   0  0  0  0  0  0  0  0  0  0  0  0
  150.6974  136.2353  155.3521 N   0  0  0  0  0  0  0  0  0  0  0  0
  151.4888  135.0350  155.0921 C   0  0  0  0  0  0  0  0  0  0  0  0
  150.6294  134.1291  154.2042 C   0  0  0  0  0  0  0  0  0  0  0  0
  149.2070  134.6252  154.4849 C   0  0  2  0  0  0  0  0  0  0  0  0
  148.1788  134.2636  153.4678 N   0  3  2  0  0  0  0  0  0  0  0  0
  146.8085  134.6081  153.9154 C   0  0  0  0  0  0  0  0  0  0  0  0
  148.2717  132.8834  152.9181 C   0  0  0  0  0  0  0  0  0  0  0  0
  147.0331  132.5209  152.0843 C   0  0  0  0  0  0  0  0  0  0  0  0
  147.1939  131.2385  151.5147 O   0  0  0  0  0  0  0  0  0  0  0  0
  149.3982  136.1347  154.6882 C   0  0  1  0  0  0  0  0  0  0  0  0
  148.2625  136.7755  155.5063 C   0  0  0  0  0  0  0  0  0  0  0  0
  152.6107  137.5266  154.8941 N   0  0  0  0  0  0  0  0  0  0  0  0
  153.2837  138.6783  154.9726 C   0  0  0  0  0  0  0  0  0  0  0  0
  152.9082  139.8266  155.5379 N   0  0  0  0  0  0  0  0  0  0  0  0
  151.6607  139.7255  156.0791 C   0  0  0  0  0  0  0  0  0  0  0  0
  148.8963  134.2081  155.4453 H   0  0  0  0  0  0  0  0  0  0  0  0
  149.4699  136.6389  153.7253 H   0  0  0  0  0  0  0  0  0  0  0  0
  151.3666  144.9363  157.1390 H   0  0  0  0  0  0  0  0  0  0  0  0
  153.0453  144.4081  156.9734 H   0  0  0  0  0  0  0  0  0  0  0  0
  152.6395  145.7392  158.0449 H   0  0  0  0  0  0  0  0  0  0  0  0
  151.4092  144.2412  159.5609 H   0  0  0  0  0  0  0  0  0  0  0  0
  154.4387  142.0725  160.3404 H   0  0  0  0  0  0  0  0  0  0  0  0
  152.8214  142.3424  161.0122 H   0  0  0  0  0  0  0  0  0  0  0  0
  153.5367  141.3221  158.2358 H   0  0  0  0  0  0  0  0  0  0  0  0
  152.4808  140.5086  159.3877 H   0  0  0  0  0  0  0  0  0  0  0  0
  149.8301  142.6880  159.0593 H   0  0  0  0  0  0  0  0  0  0  0  0
  150.5078  142.7317  156.6649 H   0  0  0  0  0  0  0  0  0  0  0  0
  152.1763  142.3072  156.3675 H   0  0  0  0  0  0  0  0  0  0  0  0
  148.9635  140.6114  157.6218 H   0  0  0  0  0  0  0  0  0  0  0  0
  152.4431  135.2602  154.6133 H   0  0  0  0  0  0  0  0  0  0  0  0
  151.6968  134.5453  156.0440 H   0  0  0  0  0  0  0  0  0  0  0  0
  150.9144  134.2847  153.1639 H   0  0  0  0  0  0  0  0  0  0  0  0
  150.7641  133.0714  154.4318 H   0  0  0  0  0  0  0  0  0  0  0  0
  146.5209  134.0174  154.7858 H   0  0  0  0  0  0  0  0  0  0  0  0
  146.0775  134.4274  153.1276 H   0  0  0  0  0  0  0  0  0  0  0  0
  146.7423  135.6630  154.1831 H   0  0  0  0  0  0  0  0  0  0  0  0
  149.1525  132.7567  152.2902 H   0  0  0  0  0  0  0  0  0  0  0  0
  148.3914  132.1747  153.7390 H   0  0  0  0  0  0  0  0  0  0  0  0
  146.1467  132.5046  152.7193 H   0  0  0  0  0  0  0  0  0  0  0  0
  146.8465  133.2505  151.2967 H   0  0  0  0  0  0  0  0  0  0  0  0
  148.0322  131.2021  151.0787 H   0  0  0  0  0  0  0  0  0  0  0  0
  147.3033  136.6498  155.0038 H   0  0  0  0  0  0  0  0  0  0  0  0
  148.4165  137.8451  155.6461 H   0  0  0  0  0  0  0  0  0  0  0  0
  148.1817  136.3226  156.4950 H   0  0  0  0  0  0  0  0  0  0  0  0
  154.2627  138.6807  154.5163 H   0  0  0  0  0  0  0  0  0  0  0  0
  148.3701  134.8736  152.6851 H   0  0  0  0  0  0  0  0  0  0  0  0
  1  2  1  0  0  0  0
  1 31  1  0  0  0  0
  1 32  1  0  0  0  0
  1 33  1  0  0  0  0
  2  6  1  0  0  0  0
  2  3  1  0  0  0  0
  2 34  1  0  0  0  0
  3  4  1  0  0  0  0
  4  5  1  0  0  0  0
  4 35  1  0  0  0  0
  4 36  1  0  0  0  0
  5  6  1  0  0  0  0
  5 37  1  0  0  0  0
  5 38  1  0  0  0  0
  6  7  1  0  0  0  0
  6  8  1  0  0  0  0
  7 39  1  0  0  0  0
  8  9  1  0  0  0  0
  8 40  1  0  0  0  0
  8 41  1  0  0  0  0
  9 28  1  0  0  0  0
  9 10  1  0  0  0  0
 10 11  2  0  0  0  0
 10 42  1  0  0  0  0
 11 12  1  0  0  0  0
 12 28  2  0  0  0  0
 12 13  1  0  0  0  0
 13 14  1  0  0  0  0
 13 25  2  0  0  0  0
 14 23  1  0  0  0  0
 14 15  1  0  0  0  0
 15 16  1  0  0  0  0
 15 43  1  0  0  0  0
 15 44  1  0  0  0  0
 16 17  1  0  0  0  0
 16 45  1  0  0  0  0
 16 46  1  0  0  0  0
 17 29  1  0  0  0  0
 17 18  1  0  0  0  0
 17 23  1  0  0  0  0
 18 19  1  0  0  0  0
 18 20  1  0  0  0  0
 18 59  1  0  0  0  0
 19 47  1  0  0  0  0
 19 48  1  0  0  0  0
 19 49  1  0  0  0  0
 20 21  1  0  0  0  0
 20 50  1  0  0  0  0
 20 51  1  0  0  0  0
 21 22  1  0  0  0  0
 21 52  1  0  0  0  0
 21 53  1  0  0  0  0
 22 54  1  0  0  0  0
 23 30  1  0  0  0  0
 23 24  1  0  0  0  0
 24 55  1  0  0  0  0
 24 56  1  0  0  0  0
 24 57  1  0  0  0  0
 25 26  1  0  0  0  0
 26 27  2  0  0  0  0
 26 58  1  0  0  0  0
 27 28  1  0  0  0  0
M  CHG  1  18   1
M  END
> <s_m_source_file>
AV-unprocessed.smi

> <i_m_source_file_index>
290

> <i_lp_mmshare_version>
43012

> <i_f3d_flags>
0

> <s_epik_input>
W0NIMl0xW0NIMl1PW0NAQEhdKFtDSDNdKVtDQEBdMShbT0hdKVtDSDJdbihbY0hdbjIpYyhjMjMpbltjSF1uYzNONFtDSDJdW0NIMl1bQ0BIXShbQ0BIXTRbQ0gzXSlOKFtDSDNdKVtDSDJdW0NIMl1bT0hd

> <s_epik_cmdline>
J2VwaWtfcHl0aG9uJywgJy1waCcsICc3LjAnLCAnLXRuJywgJzgnLCAnLW1hJywgJzIwMCcsICctbWV0YWxfYmluZGluZycsICctaW1hZScsICc8aW5maWxlLm1hZT4nLCAnLW9tYWUnLCAnPG91dGZpbGUubWFlPic=

> <r_lp_tautomer_probability>
1

> <r_epik_Ionization_Penalty>
0.0036983

> <r_epik_Ionization_Penalty_Charging>
0.0032725

> <r_epik_Ionization_Penalty_Neutral>
0.000425798

> <r_epik_State_Penalty>
-0

> <r_epik_Charging_Adjusted_Penalty>
0.0032725

> <i_epik_Tot_Q>
1

> <i_epik_Tot_abs_Q>
1

> <r_epik_Metal_State_Penalty>
-0

> <b_epik_Metal_Only>
0

> <s_lp_Force_Field>
OPLS_2005

> <r_lp_Energy>
58.7997

> <b_lp_Chiralities_Consistent>
1

> <s_lp_Variant>
AV-unprocessed.smi:290-13

> <Gold.Version>
5.8.1

> <Gold.Id.Protein>
6NUR|6NUR_protein|mol2

> <Gold.PLP.Fitness>
56.1710

> <Gold.PLP.PLP>
-42.4200

> <Gold.PLP.part.hbond>
-4.9742

> <Gold.PLP.part.metal>
0.0000

> <Gold.PLP.part.buried>
-4.5170

> <Gold.PLP.part.nonpolar>
-33.2566

> <Gold.PLP.part.repulsive>
0.0951

> <Gold.PLP.ligand.clash>
0.0000

> <Gold.PLP.ligand.torsion>
0.7709

> <Gold.PLP.Chemscore.Hbond>
4.8800

> <Gold.PLP.Chemscore.CHOScore>
0.0000

> <Gold.PLP.Chemscore.Metal>
0.0000

> <Gold.Chemscore.Hbonds>
donor molecule, donor type, donor heavy atom, donor atom, acceptor molecule, acceptor atom, score
      L1  H    18    59       P1  7948  2.00
      L1  H    22    54       P1 10747  0.39
      P1  H  7997  8008       L1    27  0.73
      P1  H 10752 10765       L1    25  0.37

> <Gold.PLP.Chemscore.Internal.Correction>
0.6527

> <Gold.Rescore>
     Score         DG    S(hbond)    S(metal)    S(lipo)     H(rot)  DE(clash)    DE(int)     intcor
     16.12     -19.34       3.49        0.00      99.17       3.67       0.13       3.09       ----

> <Gold.Chemscore.Fitness>
16.1198

> <Gold.Chemscore.DG>
-19.3409

> <Gold.Chemscore.ZeroCoef>
-5.4800

> <Gold.Chemscore.Hbond>
3.4857

> <Gold.Chemscore.Metal>
0.0000

> <Gold.Chemscore.Lipo>
99.1701

> <Gold.Chemscore.Internal_Hbond>
0.0000

> <Gold.Chemscore.DEClash>
0.1293

> <Gold.Chemscore.DEInternal>
3.0917

> <Gold.Chemscore.Rot>
3.6658

> <Gold.Chemscore.Internal.Correction>
   9.000000E+99

> <Gold.Chemscore.Hbonds>
donor molecule, donor type, donor heavy atom, donor atom, acceptor molecule, acceptor atom, score
      L1  H    18    59       P1  7948  0.50
      L1  H    22    54       P1 10747  0.39
      P1  H  7997  8008       L1    27  0.14
      P1  H 10752 10765       L1    25  0.07

> <Gold.Chemscore.Hbond.Weighted>
-11.6424

> <Gold.Chemscore.Metal.Weighted>
-0.0000

> <Gold.Chemscore.Lipo.Weighted>
-11.6029

> <Gold.Chemscore.Internal_Hbond.Weighted>
0.0000

> <Gold.Chemscore.DEClash.Weighted>
0.1293

> <Gold.Chemscore.DEInternal.Weighted>
3.0917

> <Gold.Chemscore.Rot.Weighted>
9.3844

> <Gold.Chemscore.Internal.Correction.Weighted>
   9.000000E+99

> <Gold.Protein.RotatedTorsions>
[ 6907 6896 6895 6894 ] final   25.31 input  -60.11 | X-H torsion
[ 7974 7965 7964 7962 ] final -115.74 input  175.53 | X-H torsion
[ 8008 7997 7996 7995 ] final  -53.00 input   59.86 | X-H torsion
[ 10167 10162 10161 10158 ] final    6.05 input  -65.29 | X-H torsion
[ 10718 10713 10712 10709 ] final  -61.13 input   66.30 | X-H torsion
[ 10763 10752 10751 10750 ] final -161.32 input  -60.55 | X-H torsion
[ 11005 11000 10999 10996 ] final  130.30 input  -57.11 | X-H torsion

> <Gold.Protein.ActiveResidues>
 VAL166  LYS551  ARG553  GLY616  TRP617  ASP618  TYR619  PRO620  LYS621  CYS622 
 ASP623  PHE694  ASN695  SER759  ASP760  ASP761  ALA762  ILE779  LEU786  VAL792 
 PHE793  MET794  SER795  GLU796  ALA797  LYS798  CYS799  TRP800  GLU811  SER814 

> <Gold.Protein.RotatedAtoms>
  151.9706  135.0079  160.0552 H   0  0  0  0  0  0  0  0  0  0  0  0  # atno 6907 bound_to 6896
  152.1787  133.4687  159.4955 H   0  0  0  0  0  0  0  0  0  0  0  0  # atno 6908 bound_to 6896
  150.6913  134.1779  159.4280 H   0  0  0  0  0  0  0  0  0  0  0  0  # atno 6909 bound_to 6896
  145.1048  140.8575  143.3904 H   0  0  0  0  0  0  0  0  0  0  0  0  # atno 7974 bound_to 7965
  154.4121  140.1210  156.5083 H   0  0  0  0  0  0  0  0  0  0  0  0  # atno 8008 bound_to 7997
  155.6825  140.3496  155.4841 H   0  0  0  0  0  0  0  0  0  0  0  0  # atno 8009 bound_to 7997
  155.9539  140.1110  157.0943 H   0  0  0  0  0  0  0  0  0  0  0  0  # atno 8010 bound_to 7997
  140.6449  143.7687  150.7483 H   0  0  0  0  0  0  0  0  0  0  0  0  # atno 10167 bound_to 10162
  156.0942  130.4195  150.0951 H   0  0  0  0  0  0  0  0  0  0  0  0  # atno 10718 bound_to 10713
  154.7314  135.3047  154.8885 H   0  0  0  0  0  0  0  0  0  0  0  0  # atno 10763 bound_to 10752
  153.9727  135.6740  153.4751 H   0  0  0  0  0  0  0  0  0  0  0  0  # atno 10764 bound_to 10752
  153.0922  135.4954  154.8632 H   0  0  0  0  0  0  0  0  0  0  0  0  # atno 10765 bound_to 10752
  139.9664  134.9589  156.9273 H   0  0  0  0  0  0  0  0  0  0  0  0  # atno 11005 bound_to 11000
  145.0914  139.2888  143.5733 LP  0  0  0  0  0  0  0  0  0  0  0  0  # atno 17320 bound_to 7965
  146.3528  140.0452  142.8640 LP  0  0  0  0  0  0  0  0  0  0  0  0  # atno 17321 bound_to 7965
  140.1326  143.4512  152.2245 LP  0  0  0  0  0  0  0  0  0  0  0  0  # atno 17342 bound_to 10162
  139.5659  144.7434  151.4025 LP  0  0  0  0  0  0  0  0  0  0  0  0  # atno 17343 bound_to 10162
  156.8954  130.9602  151.3583 LP  0  0  0  0  0  0  0  0  0  0  0  0  # atno 17370 bound_to 10713
  157.6099  130.8575  149.8935 LP  0  0  0  0  0  0  0  0  0  0  0  0  # atno 17371 bound_to 10713
  140.5388  134.0741  155.7335 LP  0  0  0  0  0  0  0  0  0  0  0  0  # atno 17394 bound_to 11000
  141.1343  133.9248  157.2467 LP  0  0  0  0  0  0  0  0  0  0  0  0  # atno 17395 bound_to 11000

$$$$
