AV-unprocessed.smi:355|AV-procd|sdf|2407|dock1
  -GOLD-   2262022343D 1   1.00000     0.00000
 Structure written by MMmdl.
 39 40  0  0  0  0  0  0  0  0  1 V2000
  146.3748  142.7712  153.9674 C   0  0  0  0  0  0  0  0  0  0  0  0
  147.3243  141.5911  153.9952 C   0  0  0  0  0  0  0  0  0  0  0  0
  146.9455  140.3642  153.4150 C   0  0  0  0  0  0  0  0  0  0  0  0
  147.8304  139.2707  153.4432 C   0  0  0  0  0  0  0  0  0  0  0  0
  149.0928  139.4017  154.0519 C   0  0  0  0  0  0  0  0  0  0  0  0
  149.4863  140.6207  154.6409 C   0  0  0  0  0  0  0  0  0  0  0  0
  150.7384  140.6597  155.2149 O   0  0  0  0  0  0  0  0  0  0  0  0
  151.0586  141.7515  156.0656 C   0  0  0  0  0  0  0  0  0  0  0  0
  150.5866  141.4604  157.5043 C   0  0  0  0  0  0  0  0  0  0  0  0
  151.7047  141.4643  158.4787 N   0  0  0  0  0  0  0  0  0  0  0  0
  152.0380  142.6660  159.1811 C   0  0  0  0  0  0  0  0  0  0  0  0
  151.2808  143.9648  158.8652 C   0  0  0  0  0  0  0  0  0  0  0  0
  151.7181  144.9738  159.6197 F   0  0  0  0  0  0  0  0  0  0  0  0
  151.4683  144.3253  157.5951 F   0  0  0  0  0  0  0  0  0  0  0  0
  149.9741  143.8545  159.1008 F   0  0  0  0  0  0  0  0  0  0  0  0
  153.0167  142.6510  160.1049 C   0  0  0  0  0  0  0  0  0  0  0  0
  153.7318  141.4365  160.3816 C   0  0  0  0  0  0  0  0  0  0  0  0
  153.4496  140.2997  159.7059 C   0  0  0  0  0  0  0  0  0  0  0  0
  154.1607  139.0245  159.9551 C   0  0  0  0  0  0  0  0  0  0  0  0
  155.1336  139.1071  160.8712 N   0  0  0  0  0  0  0  0  0  0  0  0
  153.9473  137.9386  159.4161 O   0  0  0  0  0  0  0  0  0  0  0  0
  152.3859  140.2825  158.6685 C   0  0  0  0  0  0  0  0  0  0  0  0
  152.0997  139.2858  157.9986 O   0  0  0  0  0  0  0  0  0  0  0  0
  148.5886  141.7180  154.6075 C   0  0  0  0  0  0  0  0  0  0  0  0
  145.6624  142.6822  153.1465 H   0  0  0  0  0  0  0  0  0  0  0  0
  146.9228  143.7051  153.8379 H   0  0  0  0  0  0  0  0  0  0  0  0
  145.8166  142.8268  154.9021 H   0  0  0  0  0  0  0  0  0  0  0  0
  145.9776  140.2578  152.9474 H   0  0  0  0  0  0  0  0  0  0  0  0
  147.5414  138.3301  152.9983 H   0  0  0  0  0  0  0  0  0  0  0  0
  149.7661  138.5572  154.0696 H   0  0  0  0  0  0  0  0  0  0  0  0
  152.1403  141.8936  156.0726 H   0  0  0  0  0  0  0  0  0  0  0  0
  150.6026  142.6682  155.6902 H   0  0  0  0  0  0  0  0  0  0  0  0
  149.8074  142.1723  157.7818 H   0  0  0  0  0  0  0  0  0  0  0  0
  150.0477  140.5184  157.5121 H   0  0  0  0  0  0  0  0  0  0  0  0
  153.2889  143.5465  160.6435 H   0  0  0  0  0  0  0  0  0  0  0  0
  154.4956  141.4777  161.1441 H   0  0  0  0  0  0  0  0  0  0  0  0
  155.6737  138.2887  161.1108 H   0  0  0  0  0  0  0  0  0  0  0  0
  155.3216  139.9913  161.3214 H   0  0  0  0  0  0  0  0  0  0  0  0
  148.8505  142.6693  155.0450 H   0  0  0  0  0  0  0  0  0  0  0  0
  1  2  1  0  0  0  0
  1 25  1  0  0  0  0
  1 26  1  0  0  0  0
  1 27  1  0  0  0  0
  2 24  1  0  0  0  0
  2  3  2  0  0  0  0
  3  4  1  0  0  0  0
  3 28  1  0  0  0  0
  4  5  2  0  0  0  0
  4 29  1  0  0  0  0
  5  6  1  0  0  0  0
  5 30  1  0  0  0  0
  6  7  1  0  0  0  0
  6 24  2  0  0  0  0
  7  8  1  0  0  0  0
  8  9  1  0  0  0  0
  8 31  1  0  0  0  0
  8 32  1  0  0  0  0
  9 10  1  0  0  0  0
  9 33  1  0  0  0  0
  9 34  1  0  0  0  0
 10 22  1  0  0  0  0
 10 11  1  0  0  0  0
 11 12  1  0  0  0  0
 11 16  2  0  0  0  0
 12 13  1  0  0  0  0
 12 14  1  0  0  0  0
 12 15  1  0  0  0  0
 16 17  1  0  0  0  0
 16 35  1  0  0  0  0
 17 18  2  0  0  0  0
 17 36  1  0  0  0  0
 18 19  1  0  0  0  0
 18 22  1  0  0  0  0
 19 20  1  0  0  0  0
 19 21  2  0  0  0  0
 20 37  1  0  0  0  0
 20 38  1  0  0  0  0
 22 23  2  0  0  0  0
 24 39  1  0  0  0  0
M  END
> <s_m_source_file>
AV-unprocessed.smi

> <i_m_source_file_index>
355

> <i_lp_mmshare_version>
43012

> <i_f3d_flags>
0

> <s_epik_input>
W0NIM11jMVtjSF1bY0hdW2NIXWMoW2NIXTEpT1tDSDJdW0NIMl1uMmMoQyhGKShGKUYpW2NIXVtjSF1jKGMyPU8pQyg9TylbTkgyXQ==

> <s_epik_cmdline>
J2VwaWtfcHl0aG9uJywgJy1waCcsICc3LjAnLCAnLXRuJywgJzgnLCAnLW1hJywgJzIwMCcsICctbWV0YWxfYmluZGluZycsICctaW1hZScsICc8aW5maWxlLm1hZT4nLCAnLW9tYWUnLCAnPG91dGZpbGUubWFlPic=

> <r_lp_tautomer_probability>
1

> <r_epik_Ionization_Penalty>
1.75992e-06

> <r_epik_Ionization_Penalty_Charging>
1.13667e-09

> <r_epik_Ionization_Penalty_Neutral>
1.75878e-06

> <r_epik_State_Penalty>
-0

> <r_epik_Charging_Adjusted_Penalty>
1.13667e-09

> <i_epik_Tot_Q>
0

> <i_epik_Tot_abs_Q>
0

> <r_epik_Metal_State_Penalty>
-0

> <b_epik_Metal_Only>
0

> <s_lp_Force_Field>
OPLS_2005

> <r_lp_Energy>
35.0119

> <b_lp_Chiralities_Consistent>
1

> <s_lp_Variant>
AV-unprocessed.smi:355-1

> <Gold.Version>
5.8.1

> <Gold.Id.Protein>
6NUR|6NUR_protein|mol2

> <Gold.PLP.Fitness>
55.1711

> <Gold.PLP.PLP>
-55.1397

> <Gold.PLP.part.hbond>
-1.0000

> <Gold.PLP.part.metal>
0.0000

> <Gold.PLP.part.buried>
-6.4430

> <Gold.PLP.part.nonpolar>
-48.3079

> <Gold.PLP.part.repulsive>
0.0652

> <Gold.PLP.ligand.clash>
3.5703

> <Gold.PLP.ligand.torsion>
1.0614

> <Gold.PLP.Chemscore.Hbond>
0.6944

> <Gold.PLP.Chemscore.CHOScore>
0.0000

> <Gold.PLP.Chemscore.Metal>
0.0000

> <Gold.Chemscore.Hbonds>
donor molecule, donor type, donor heavy atom, donor atom, acceptor molecule, acceptor atom, score
      P1  H  7989  7998       L1     7  0.59

> <Gold.PLP.Chemscore.Internal.Correction>
3.6412

> <Gold.Rescore>
     Score         DG    S(hbond)    S(metal)    S(lipo)     H(rot)  DE(clash)    DE(int)     intcor
      9.66     -13.69       0.01        0.00     110.16       1.84       0.04       3.99       ----

> <Gold.Chemscore.Fitness>
9.6624

> <Gold.Chemscore.DG>
-13.6893

> <Gold.Chemscore.ZeroCoef>
-5.4800

> <Gold.Chemscore.Hbond>
0.0100

> <Gold.Chemscore.Metal>
0.0000

> <Gold.Chemscore.Lipo>
110.1634

> <Gold.Chemscore.Internal_Hbond>
0.0000

> <Gold.Chemscore.DEClash>
0.0409

> <Gold.Chemscore.DEInternal>
3.9861

> <Gold.Chemscore.Rot>
1.8412

> <Gold.Chemscore.Internal.Correction>
   9.000000E+99

> <Gold.Chemscore.Hbonds>
donor molecule, donor type, donor heavy atom, donor atom, acceptor molecule, acceptor atom, score
      P1  H  7989  7998       L1     7  0.03

> <Gold.Chemscore.Hbond.Weighted>
-0.0336

> <Gold.Chemscore.Metal.Weighted>
-0.0000

> <Gold.Chemscore.Lipo.Weighted>
-12.8891

> <Gold.Chemscore.Internal_Hbond.Weighted>
0.0000

> <Gold.Chemscore.DEClash.Weighted>
0.0409

> <Gold.Chemscore.DEInternal.Weighted>
3.9861

> <Gold.Chemscore.Rot.Weighted>
4.7134

> <Gold.Chemscore.Internal.Correction.Weighted>
   9.000000E+99

> <Gold.Protein.RotatedTorsions>
[ 6907 6896 6895 6894 ] final -178.96 input  -60.11 | X-H torsion
[ 7974 7965 7964 7962 ] final  137.71 input  175.53 | X-H torsion
[ 8008 7997 7996 7995 ] final -159.68 input   59.86 | X-H torsion
[ 10167 10162 10161 10158 ] final   46.78 input  -65.29 | X-H torsion
[ 10718 10713 10712 10709 ] final -143.89 input   66.30 | X-H torsion
[ 10763 10752 10751 10750 ] final  110.87 input  -60.55 | X-H torsion
[ 11005 11000 10999 10996 ] final -157.33 input  -57.11 | X-H torsion

> <Gold.Protein.ActiveResidues>
 VAL166  LYS551  ARG553  GLY616  TRP617  ASP618  TYR619  PRO620  LYS621  CYS622 
 ASP623  PHE694  ASN695  SER759  ASP760  ASP761  ALA762  ILE779  LEU786  VAL792 
 PHE793  MET794  SER795  GLU796  ALA797  LYS798  CYS799  TRP800  GLU811  SER814 

> <Gold.Protein.RotatedAtoms>
  151.6457  133.3323  159.3140 H   0  0  0  0  0  0  0  0  0  0  0  0  # atno 6907 bound_to 6896
  150.7985  134.7066  159.6589 H   0  0  0  0  0  0  0  0  0  0  0  0  # atno 6908 bound_to 6896
  152.4075  134.6186  160.0096 H   0  0  0  0  0  0  0  0  0  0  0  0  # atno 6909 bound_to 6896
  144.9442  139.4895  143.5557 H   0  0  0  0  0  0  0  0  0  0  0  0  # atno 7974 bound_to 7965
  155.7661  140.0845  157.2131 H   0  0  0  0  0  0  0  0  0  0  0  0  # atno 8008 bound_to 7997
  154.3999  140.1534  156.2945 H   0  0  0  0  0  0  0  0  0  0  0  0  # atno 8009 bound_to 7997
  155.8792  140.3421  155.5878 H   0  0  0  0  0  0  0  0  0  0  0  0  # atno 8010 bound_to 7997
  140.3104  144.2828  150.6201 H   0  0  0  0  0  0  0  0  0  0  0  0  # atno 10167 bound_to 10162
  156.3635  130.7750  151.1921 H   0  0  0  0  0  0  0  0  0  0  0  0  # atno 10718 bound_to 10713
  153.4551  135.3735  155.2306 H   0  0  0  0  0  0  0  0  0  0  0  0  # atno 10763 bound_to 10752
  154.8757  135.3895  154.3991 H   0  0  0  0  0  0  0  0  0  0  0  0  # atno 10764 bound_to 10752
  153.4556  135.7086  153.6146 H   0  0  0  0  0  0  0  0  0  0  0  0  # atno 10765 bound_to 10752
  140.6658  134.4300  157.5233 H   0  0  0  0  0  0  0  0  0  0  0  0  # atno 11005 bound_to 11000
  146.3297  139.8482  142.8878 LP  0  0  0  0  0  0  0  0  0  0  0  0  # atno 17320 bound_to 7965
  145.2944  141.0176  143.3644 LP  0  0  0  0  0  0  0  0  0  0  0  0  # atno 17321 bound_to 7965
  140.5573  143.2197  151.7825 LP  0  0  0  0  0  0  0  0  0  0  0  0  # atno 17342 bound_to 10162
  139.4895  144.4396  151.9780 LP  0  0  0  0  0  0  0  0  0  0  0  0  # atno 17343 bound_to 10162
  157.7476  131.0393  150.4544 LP  0  0  0  0  0  0  0  0  0  0  0  0  # atno 17370 bound_to 10713
  156.4759  130.4063  149.6490 LP  0  0  0  0  0  0  0  0  0  0  0  0  # atno 17371 bound_to 10713
  139.8997  134.8584  156.1947 LP  0  0  0  0  0  0  0  0  0  0  0  0  # atno 17394 bound_to 11000
  141.0430  133.6928  156.1632 LP  0  0  0  0  0  0  0  0  0  0  0  0  # atno 17395 bound_to 11000

$$$$
