AV-unprocessed.smi:649|AV-procd|sdf|3181|dock3
  -GOLD-   22720 0103D 1   1.00000     0.00000
 Structure written by MMmdl.
 34 35  0  0  0  0  0  0  0  0  2 V2000
  151.3179  144.8896  159.9569 C   0  0  0  0  0  0  0  0  0  0  0  0
  152.1838  143.8028  160.5590 C   0  0  0  0  0  0  0  0  0  0  0  0
  152.5672  143.8643  161.9108 C   0  0  0  0  0  0  0  0  0  0  0  0
  153.3571  142.8401  162.4626 C   0  0  0  0  0  0  0  0  0  0  0  0
  153.7707  141.7415  161.6781 C   0  0  0  0  0  0  0  0  0  0  0  0
  154.6092  140.6661  162.3501 C   0  0  0  0  0  0  0  0  0  0  0  0
  153.3896  141.6757  160.3078 C   0  0  0  0  0  0  0  0  0  0  0  0
  153.7544  140.5116  159.3788 C   0  0  1  0  0  0  0  0  0  0  0  0
  155.1442  140.3656  159.1713 O   0  0  0  0  0  0  0  0  0  0  0  0
  153.1459  139.1520  159.8008 C   0  0  0  0  0  0  0  0  0  0  0  0
  152.7344  138.3319  158.6503 N   0  0  0  0  0  0  0  0  0  0  0  0
  152.0672  138.9726  157.5915 C   0  0  0  0  0  0  0  0  0  0  0  0
  151.6902  138.3120  156.4801 C   0  0  0  0  0  0  0  0  0  0  0  0
  150.8875  139.1303  155.1877 Cl  0  0  0  0  0  0  0  0  0  0  0  0
  151.9881  136.8837  156.3970 C   0  0  0  0  0  0  0  0  0  0  0  0
  151.6566  136.2495  155.3963 O   0  0  0  0  0  0  0  0  0  0  0  0
  152.6329  136.3077  157.4538 N   0  5  0  0  0  0  0  0  0  0  0  0
  153.0152  136.9977  158.5723 C   0  0  0  0  0  0  0  0  0  0  0  0
  153.6094  136.4599  159.5069 O   0  0  0  0  0  0  0  0  0  0  0  0
  152.5987  142.7154  159.7676 C   0  0  0  0  0  0  0  0  0  0  0  0
  151.3565  145.8007  160.5545 H   0  0  0  0  0  0  0  0  0  0  0  0
  150.2812  144.5560  159.9043 H   0  0  0  0  0  0  0  0  0  0  0  0
  151.6523  145.1321  158.9478 H   0  0  0  0  0  0  0  0  0  0  0  0
  152.2541  144.6920  162.5300 H   0  0  0  0  0  0  0  0  0  0  0  0
  153.6403  142.9010  163.5030 H   0  0  0  0  0  0  0  0  0  0  0  0
  155.6371  140.7007  161.9897 H   0  0  0  0  0  0  0  0  0  0  0  0
  154.2052  139.6729  162.1661 H   0  0  0  0  0  0  0  0  0  0  0  0
  154.6359  140.8062  163.4309 H   0  0  0  0  0  0  0  0  0  0  0  0
  153.3541  140.7512  158.3931 H   0  0  0  0  0  0  0  0  0  0  0  0
  155.4834  139.7860  159.8359 H   0  0  0  0  0  0  0  0  0  0  0  0
  153.8570  138.6029  160.4205 H   0  0  0  0  0  0  0  0  0  0  0  0
  152.2865  139.3101  160.4510 H   0  0  0  0  0  0  0  0  0  0  0  0
  151.8966  140.0301  157.7301 H   0  0  0  0  0  0  0  0  0  0  0  0
  152.2875  142.6709  158.7337 H   0  0  0  0  0  0  0  0  0  0  0  0
  1  2  1  0  0  0  0
  1 21  1  0  0  0  0
  1 22  1  0  0  0  0
  1 23  1  0  0  0  0
  2 20  1  0  0  0  0
  2  3  2  0  0  0  0
  3  4  1  0  0  0  0
  3 24  1  0  0  0  0
  4  5  2  0  0  0  0
  4 25  1  0  0  0  0
  5  6  1  0  0  0  0
  5  7  1  0  0  0  0
  6 26  1  0  0  0  0
  6 27  1  0  0  0  0
  6 28  1  0  0  0  0
  7  8  1  0  0  0  0
  7 20  2  0  0  0  0
  8  9  1  0  0  0  0
  8 10  1  0  0  0  0
  8 29  1  0  0  0  0
  9 30  1  0  0  0  0
 10 11  1  0  0  0  0
 10 31  1  0  0  0  0
 10 32  1  0  0  0  0
 11 18  1  0  0  0  0
 11 12  1  0  0  0  0
 12 13  2  0  0  0  0
 12 33  1  0  0  0  0
 13 14  1  0  0  0  0
 13 15  1  0  0  0  0
 15 16  2  0  0  0  0
 15 17  1  0  0  0  0
 17 18  1  0  0  0  0
 18 19  2  0  0  0  0
 20 34  1  0  0  0  0
M  CHG  1  17  -1
M  END
> <s_m_source_file>
AV-unprocessed.smi

> <i_m_source_file_index>
649

> <i_lp_mmshare_version>
43012

> <i_f3d_flags>
0

> <s_epik_input>
W0NIM11jMVtjSF1bY0hdYyhbQ0gzXSljKFtjSF0xKVtDQEhdKFtPSF0pW0NIMl1uMltjSF1jKENsKWMoPU8pW25IXWMyPU8=

> <s_epik_cmdline>
J2VwaWtfcHl0aG9uJywgJy1waCcsICc3LjAnLCAnLXRuJywgJzgnLCAnLW1hJywgJzIwMCcsICctbWV0YWxfYmluZGluZycsICctaW1hZScsICc8aW5maWxlLm1hZT4nLCAnLW9tYWUnLCAnPG91dGZpbGUubWFlPic=

> <r_epik_Ionization_Penalty>
1.7979

> <r_epik_Ionization_Penalty_Charging>
3.23819e-08

> <r_epik_Ionization_Penalty_Neutral>
1.7979

> <r_epik_State_Penalty>
1.91135

> <r_epik_Charging_Adjusted_Penalty>
1.91135

> <i_epik_Tot_Q>
-1

> <i_epik_Tot_abs_Q>
1

> <r_epik_Metal_State_Penalty>
0.014155

> <b_epik_Metal_Only>
0

> <s_lp_Force_Field>
OPLS_2005

> <r_lp_Energy>
20.3663

> <b_lp_Chiralities_Consistent>
1

> <s_lp_Variant>
AV-unprocessed.smi:649-4

> <Gold.Version>
5.8.1

> <Gold.Id.Protein>
6NUR|6NUR_protein|mol2

> <Gold.PLP.Fitness>
48.5531

> <Gold.PLP.PLP>
-41.2370

> <Gold.PLP.part.hbond>
-3.0000

> <Gold.PLP.part.metal>
0.0000

> <Gold.PLP.part.buried>
-4.0614

> <Gold.PLP.part.nonpolar>
-34.3284

> <Gold.PLP.part.repulsive>
0.0898

> <Gold.PLP.ligand.clash>
0.0000

> <Gold.PLP.ligand.torsion>
0.6634

> <Gold.PLP.Chemscore.Hbond>
2.8560

> <Gold.PLP.Chemscore.CHOScore>
0.0000

> <Gold.PLP.Chemscore.Metal>
0.0000

> <Gold.Chemscore.Hbonds>
donor molecule, donor type, donor heavy atom, donor atom, acceptor molecule, acceptor atom, score
      P1  H  6896  6908       L1    19  0.60
      P1  H  7997  8010       L1     9  0.83
      P1  H 10752 10765       L1    16  1.00

> <Gold.PLP.Chemscore.Internal.Correction>
0.0748

> <Gold.Rescore>
     Score         DG    S(hbond)    S(metal)    S(lipo)     H(rot)  DE(clash)    DE(int)     intcor
     19.82     -20.75       1.95        0.00     120.53       2.09       0.18       0.76       ----

> <Gold.Chemscore.Fitness>
19.8152

> <Gold.Chemscore.DG>
-20.7522

> <Gold.Chemscore.ZeroCoef>
-5.4800

> <Gold.Chemscore.Hbond>
1.9497

> <Gold.Chemscore.Metal>
0.0000

> <Gold.Chemscore.Lipo>
120.5342

> <Gold.Chemscore.Internal_Hbond>
0.0000

> <Gold.Chemscore.DEClash>
0.1818

> <Gold.Chemscore.DEInternal>
0.7553

> <Gold.Chemscore.Rot>
2.0868

> <Gold.Chemscore.Internal.Correction>
   9.000000E+99

> <Gold.Chemscore.Hbonds>
donor molecule, donor type, donor heavy atom, donor atom, acceptor molecule, acceptor atom, score
      P1  H  6896  6908       L1    19  0.31
      P1  H  7997  8010       L1     9  0.28
      P1  H 10752 10765       L1    16  0.65

> <Gold.Chemscore.Hbond.Weighted>
-6.5120

> <Gold.Chemscore.Metal.Weighted>
-0.0000

> <Gold.Chemscore.Lipo.Weighted>
-14.1025

> <Gold.Chemscore.Internal_Hbond.Weighted>
0.0000

> <Gold.Chemscore.DEClash.Weighted>
0.1818

> <Gold.Chemscore.DEInternal.Weighted>
0.7553

> <Gold.Chemscore.Rot.Weighted>
5.3423

> <Gold.Chemscore.Internal.Correction.Weighted>
   9.000000E+99

> <Gold.Protein.RotatedTorsions>
[ 6907 6896 6895 6894 ] final  -58.09 input  -60.11 | X-H torsion
[ 7974 7965 7964 7962 ] final  112.30 input  175.53 | X-H torsion
[ 8008 7997 7996 7995 ] final   -6.36 input   59.86 | X-H torsion
[ 10167 10162 10161 10158 ] final   37.78 input  -65.29 | X-H torsion
[ 10718 10713 10712 10709 ] final  -44.78 input   66.30 | X-H torsion
[ 10763 10752 10751 10750 ] final -169.05 input  -60.55 | X-H torsion
[ 11005 11000 10999 10996 ] final   17.18 input  -57.11 | X-H torsion

> <Gold.Protein.ActiveResidues>
 VAL166  LYS551  ARG553  GLY616  TRP617  ASP618  TYR619  PRO620  LYS621  CYS622 
 ASP623  PHE694  ASN695  SER759  ASP760  ASP761  ALA762  ILE779  LEU786  VAL792 
 PHE793  MET794  SER795  GLU796  ALA797  LYS798  CYS799  TRP800  GLU811  SER814 

> <Gold.Protein.RotatedAtoms>
  150.8034  134.7143  159.6621 H   0  0  0  0  0  0  0  0  0  0  0  0  # atno 6907 bound_to 6896
  152.4152  134.6050  160.0020 H   0  0  0  0  0  0  0  0  0  0  0  0  # atno 6908 bound_to 6896
  151.6282  133.3297  159.3139 H   0  0  0  0  0  0  0  0  0  0  0  0  # atno 6909 bound_to 6896
  145.2313  139.2818  143.4166 H   0  0  0  0  0  0  0  0  0  0  0  0  # atno 7974 bound_to 7965
  154.5945  140.2435  155.7875 H   0  0  0  0  0  0  0  0  0  0  0  0  # atno 8008 bound_to 7997
  156.2270  140.2979  156.0045 H   0  0  0  0  0  0  0  0  0  0  0  0  # atno 8009 bound_to 7997
  155.2316  140.0404  157.2953 H   0  0  0  0  0  0  0  0  0  0  0  0  # atno 8010 bound_to 7997
  140.4000  144.1736  150.6133 H   0  0  0  0  0  0  0  0  0  0  0  0  # atno 10167 bound_to 10162
  156.2350  130.4175  149.8828 H   0  0  0  0  0  0  0  0  0  0  0  0  # atno 10718 bound_to 10713
  154.6564  135.2918  154.9922 H   0  0  0  0  0  0  0  0  0  0  0  0  # atno 10763 bound_to 10752
  154.0998  135.6578  153.4870 H   0  0  0  0  0  0  0  0  0  0  0  0  # atno 10764 bound_to 10752
  153.0405  135.5239  154.7495 H   0  0  0  0  0  0  0  0  0  0  0  0  # atno 10765 bound_to 10752
  140.4388  134.1343  155.7688 H   0  0  0  0  0  0  0  0  0  0  0  0  # atno 11005 bound_to 11000
  146.3352  140.2649  142.8603 LP  0  0  0  0  0  0  0  0  0  0  0  0  # atno 17320 bound_to 7965
  144.9674  140.8335  143.5476 LP  0  0  0  0  0  0  0  0  0  0  0  0  # atno 17321 bound_to 7965
  140.4750  143.2399  151.9036 LP  0  0  0  0  0  0  0  0  0  0  0  0  # atno 17342 bound_to 10162
  139.4785  144.5330  151.8639 LP  0  0  0  0  0  0  0  0  0  0  0  0  # atno 17343 bound_to 10162
  156.6429  130.8712  151.3517 LP  0  0  0  0  0  0  0  0  0  0  0  0  # atno 17370 bound_to 10713
  157.7150  130.9486  150.1224 LP  0  0  0  0  0  0  0  0  0  0  0  0  # atno 17371 bound_to 10713
  141.1714  133.8600  157.1557 LP  0  0  0  0  0  0  0  0  0  0  0  0  # atno 17394 bound_to 11000
  140.0084  134.9998  157.0342 LP  0  0  0  0  0  0  0  0  0  0  0  0  # atno 17395 bound_to 11000

$$$$
