AV-unprocessed.smi:109|AV-procd|sdf|1044|dock3
  -GOLD-   2262018 83D 1   1.00000     0.00000
 Structure written by MMmdl.
 58 61  0  0  0  0  0  0  0  0  1 V2000
  148.9835  141.1024  154.1002 O   0  0  0  0  0  0  0  0  0  0  0  0
  149.3838  141.3979  155.4210 C   0  0  0  0  0  0  0  0  0  0  0  0
  150.6836  140.6453  155.7557 C   0  0  0  0  0  0  0  0  0  0  0  0
  150.9811  140.5405  157.2717 C   0  0  1  0  0  0  0  0  0  0  0  0
  151.7016  139.2929  157.5395 N   0  0  0  0  0  0  0  0  0  0  0  0
  151.0545  138.1420  157.8303 C   0  0  0  0  0  0  0  0  0  0  0  0
  150.9255  137.7044  159.1096 N   0  0  0  0  0  0  0  0  0  0  0  0
  150.2766  136.5646  159.3653 C   0  0  0  0  0  0  0  0  0  0  0  0
  149.6893  135.7282  158.5062 N   0  0  0  0  0  0  0  0  0  0  0  0
  149.8139  136.1651  157.2193 C   0  0  0  0  0  0  0  0  0  0  0  0
  150.4819  137.3493  156.8024 C   0  0  0  0  0  0  0  0  0  0  0  0
  150.4121  137.4653  155.4212 N   0  0  0  0  0  0  0  0  0  0  0  0
  149.7431  136.4072  155.0490 C   0  0  0  0  0  0  0  0  0  0  0  0
  149.3288  135.5757  156.0712 N   0  0  0  0  0  0  0  0  0  0  0  0
  148.5729  134.2780  156.0184 C   0  0  2  0  0  0  0  0  0  0  0  0
  149.2487  133.4227  155.1540 O   0  0  0  0  0  0  0  0  0  0  0  0
  148.7775  133.6262  153.8299 C   0  0  1  0  0  0  0  0  0  0  0  0
  149.1037  132.3888  152.9796 C   0  0  0  0  0  0  0  0  0  0  0  0
  148.3105  132.3703  151.8120 O   0  0  0  0  0  0  0  0  0  0  0  0
  147.2759  133.9031  154.0179 C   0  0  2  0  0  0  0  0  0  0  0  0
  146.8349  134.8597  153.0743 O   0  0  0  0  0  0  0  0  0  0  0  0
  147.1584  134.4587  155.4423 C   0  0  1  0  0  0  0  0  0  0  0  0
  146.2104  133.7230  156.1887 O   0  0  0  0  0  0  0  0  0  0  0  0
  151.7947  141.7400  157.8367 C   0  0  0  0  0  0  0  0  0  0  0  0
  152.3030  141.4361  159.2696 C   0  0  0  0  0  0  0  0  0  0  0  0
  153.1065  142.5996  159.8716 C   0  0  0  0  0  0  0  0  0  0  0  0
  152.2843  143.8938  159.8803 C   0  0  0  0  0  0  0  0  0  0  0  0
  151.7956  144.2296  158.4666 C   0  0  0  0  0  0  0  0  0  0  0  0
  150.9952  143.0673  157.8557 C   0  0  0  0  0  0  0  0  0  0  0  0
  148.5859  133.9079  157.0442 H   0  0  0  0  0  0  0  0  0  0  0  0
  149.2906  134.5003  153.4252 H   0  0  0  0  0  0  0  0  0  0  0  0
  146.6969  132.9847  153.9073 H   0  0  0  0  0  0  0  0  0  0  0  0
  146.8638  135.5087  155.4734 H   0  0  0  0  0  0  0  0  0  0  0  0
  149.4389  140.3251  153.8145 H   0  0  0  0  0  0  0  0  0  0  0  0
  149.5276  142.4747  155.5152 H   0  0  0  0  0  0  0  0  0  0  0  0
  148.5765  141.1149  156.0961 H   0  0  0  0  0  0  0  0  0  0  0  0
  150.6561  139.6476  155.3153 H   0  0  0  0  0  0  0  0  0  0  0  0
  151.4910  141.1799  155.2578 H   0  0  0  0  0  0  0  0  0  0  0  0
  150.0214  140.5515  157.7873 H   0  0  0  0  0  0  0  0  0  0  0  0
  152.6879  139.3140  157.3233 H   0  0  0  0  0  0  0  0  0  0  0  0
  150.2182  136.2836  160.4065 H   0  0  0  0  0  0  0  0  0  0  0  0
  149.5356  136.2131  154.0076 H   0  0  0  0  0  0  0  0  0  0  0  0
  150.1516  132.4081  152.6787 H   0  0  0  0  0  0  0  0  0  0  0  0
  148.9477  131.4704  153.5462 H   0  0  0  0  0  0  0  0  0  0  0  0
  148.6509  131.7103  151.2272 H   0  0  0  0  0  0  0  0  0  0  0  0
  147.5392  135.4658  152.9047 H   0  0  0  0  0  0  0  0  0  0  0  0
  145.7658  134.3152  156.7761 H   0  0  0  0  0  0  0  0  0  0  0  0
  152.6650  141.8902  157.1954 H   0  0  0  0  0  0  0  0  0  0  0  0
  151.4547  141.2114  159.9176 H   0  0  0  0  0  0  0  0  0  0  0  0
  152.9321  140.5458  159.2754 H   0  0  0  0  0  0  0  0  0  0  0  0
  153.4153  142.3505  160.8872 H   0  0  0  0  0  0  0  0  0  0  0  0
  154.0218  142.7492  159.2976 H   0  0  0  0  0  0  0  0  0  0  0  0
  151.4291  143.7834  160.5483 H   0  0  0  0  0  0  0  0  0  0  0  0
  152.8832  144.7156  160.2738 H   0  0  0  0  0  0  0  0  0  0  0  0
  151.1806  145.1295  158.4912 H   0  0  0  0  0  0  0  0  0  0  0  0
  152.6512  144.4584  157.8297 H   0  0  0  0  0  0  0  0  0  0  0  0
  150.7132  143.3639  156.8468 H   0  0  0  0  0  0  0  0  0  0  0  0
  150.0671  142.9305  158.4124 H   0  0  0  0  0  0  0  0  0  0  0  0
  1  2  1  0  0  0  0
  1 34  1  0  0  0  0
  2  3  1  0  0  0  0
  2 35  1  0  0  0  0
  2 36  1  0  0  0  0
  3  4  1  0  0  0  0
  3 37  1  0  0  0  0
  3 38  1  0  0  0  0
  4  5  1  0  0  0  0
  4 24  1  0  0  0  0
  4 39  1  0  0  0  0
  5  6  1  0  0  0  0
  5 40  1  0  0  0  0
  6 11  1  0  0  0  0
  6  7  2  0  0  0  0
  7  8  1  0  0  0  0
  8  9  2  0  0  0  0
  8 41  1  0  0  0  0
  9 10  1  0  0  0  0
 10 14  1  0  0  0  0
 10 11  2  0  0  0  0
 11 12  1  0  0  0  0
 12 13  2  0  0  0  0
 13 14  1  0  0  0  0
 13 42  1  0  0  0  0
 14 15  1  0  0  0  0
 15 30  1  0  0  0  0
 15 22  1  0  0  0  0
 15 16  1  0  0  0  0
 16 17  1  0  0  0  0
 17 31  1  0  0  0  0
 17 18  1  0  0  0  0
 17 20  1  0  0  0  0
 18 19  1  0  0  0  0
 18 43  1  0  0  0  0
 18 44  1  0  0  0  0
 19 45  1  0  0  0  0
 20 32  1  0  0  0  0
 20 21  1  0  0  0  0
 20 22  1  0  0  0  0
 21 46  1  0  0  0  0
 22 33  1  0  0  0  0
 22 23  1  0  0  0  0
 23 47  1  0  0  0  0
 24 29  1  0  0  0  0
 24 25  1  0  0  0  0
 24 48  1  0  0  0  0
 25 26  1  0  0  0  0
 25 49  1  0  0  0  0
 25 50  1  0  0  0  0
 26 27  1  0  0  0  0
 26 51  1  0  0  0  0
 26 52  1  0  0  0  0
 27 28  1  0  0  0  0
 27 53  1  0  0  0  0
 27 54  1  0  0  0  0
 28 29  1  0  0  0  0
 28 55  1  0  0  0  0
 28 56  1  0  0  0  0
 29 57  1  0  0  0  0
 29 58  1  0  0  0  0
M  END
> <s_m_source_file>
AV-unprocessed.smi

> <i_m_source_file_index>
109

> <i_lp_mmshare_version>
43012

> <i_f3d_flags>
0

> <s_epik_input>
W0NIMl0xW0NIMl1bQ0gyXVtDSDJdW0NIMl1bQ0hdMVtDQEhdKFtDSDJdW0NIMl1bT0hdKVtOSF1jKG5bY0hdbjIpYyhjMjMpbltjSF1uM1tDQEBIXTRPW0NASF0oW0NIMl1bT0hdKVtDQEBIXShbT0hdKVtDQEhdNFtPSF0=

> <s_epik_cmdline>
J2VwaWtfcHl0aG9uJywgJy1waCcsICc3LjAnLCAnLXRuJywgJzgnLCAnLW1hJywgJzIwMCcsICctbWV0YWxfYmluZGluZycsICctaW1hZScsICc8aW5maWxlLm1hZT4nLCAnLW9tYWUnLCAnPG91dGZpbGUubWFlPic=

> <r_lp_tautomer_probability>
1

> <r_epik_Ionization_Penalty>
0.000793976

> <r_epik_Ionization_Penalty_Charging>
0

> <r_epik_Ionization_Penalty_Neutral>
0.000793976

> <r_epik_State_Penalty>
-0

> <r_epik_Charging_Adjusted_Penalty>
0

> <i_epik_Tot_Q>
0

> <i_epik_Tot_abs_Q>
0

> <r_epik_Metal_State_Penalty>
-0

> <b_epik_Metal_Only>
0

> <s_epik_Chemistry_Notes>
This compound contains an acetal/aminal-like group ( X-CH(R)-Y where X, Y are N, S, or O) that may be acid/base labile, releasing an aldehyde.

> <s_lp_Force_Field>
OPLS_2005

> <r_lp_Energy>
47.5037

> <b_lp_Chiralities_Consistent>
1

> <s_lp_Variant>
AV-unprocessed.smi:109-14

> <Gold.Version>
5.8.1

> <Gold.Id.Protein>
6NUR|6NUR_protein|mol2

> <Gold.PLP.Fitness>
53.5394

> <Gold.PLP.PLP>
-45.3258

> <Gold.PLP.part.hbond>
-5.4370

> <Gold.PLP.part.metal>
0.0000

> <Gold.PLP.part.buried>
-6.0897

> <Gold.PLP.part.nonpolar>
-33.7894

> <Gold.PLP.part.repulsive>
0.1588

> <Gold.PLP.ligand.clash>
0.0000

> <Gold.PLP.ligand.torsion>
1.8356

> <Gold.PLP.Chemscore.Hbond>
2.9280

> <Gold.PLP.Chemscore.CHOScore>
1.0000

> <Gold.PLP.Chemscore.Metal>
0.0000

> <Gold.Chemscore.Hbonds>
donor molecule, donor type, donor heavy atom, donor atom, acceptor molecule, acceptor atom, score
      L1  H    19    45       P1 10747  0.44
      L1  H    21    46       P1  7948  1.00
      P1  H  8011  8017       L1     1  0.12
      L1  C    13    42       P1  7948  1.00

> <Gold.PLP.Chemscore.Internal.Correction>
0.1007

> <Gold.Rescore>
     Score         DG    S(hbond)    S(metal)    S(lipo)     H(rot)  DE(clash)    DE(int)     intcor
     10.46     -12.43       2.80        0.00      99.18       5.47       0.06       1.91       ----

> <Gold.Chemscore.Fitness>
10.4612

> <Gold.Chemscore.DG>
-12.4341

> <Gold.Chemscore.ZeroCoef>
-5.4800

> <Gold.Chemscore.Hbond>
2.7973

> <Gold.Chemscore.Metal>
0.0000

> <Gold.Chemscore.Lipo>
99.1850

> <Gold.Chemscore.Internal_Hbond>
0.0000

> <Gold.Chemscore.DEClash>
0.0589

> <Gold.Chemscore.DEInternal>
1.9141

> <Gold.Chemscore.Rot>
5.4662

> <Gold.Chemscore.Internal.Correction>
   9.000000E+99

> <Gold.Chemscore.Hbonds>
donor molecule, donor type, donor heavy atom, donor atom, acceptor molecule, acceptor atom, score
      L1  H    19    45       P1 10747  0.44
      L1  H    21    46       P1  7948  0.97
      P1  H  8011  8017       L1     1  0.01

> <Gold.Chemscore.Hbond.Weighted>
-9.3430

> <Gold.Chemscore.Metal.Weighted>
-0.0000

> <Gold.Chemscore.Lipo.Weighted>
-11.6046

> <Gold.Chemscore.Internal_Hbond.Weighted>
0.0000

> <Gold.Chemscore.DEClash.Weighted>
0.0589

> <Gold.Chemscore.DEInternal.Weighted>
1.9141

> <Gold.Chemscore.Rot.Weighted>
13.9935

> <Gold.Chemscore.Internal.Correction.Weighted>
   9.000000E+99

> <Gold.Protein.RotatedTorsions>
[ 6907 6896 6895 6894 ] final -176.42 input  -60.11 | X-H torsion
[ 7974 7965 7964 7962 ] final -128.70 input  175.53 | X-H torsion
[ 8008 7997 7996 7995 ] final  129.00 input   59.86 | X-H torsion
[ 10167 10162 10161 10158 ] final -149.05 input  -65.29 | X-H torsion
[ 10718 10713 10712 10709 ] final  139.84 input   66.30 | X-H torsion
[ 10763 10752 10751 10750 ] final  138.70 input  -60.55 | X-H torsion
[ 11005 11000 10999 10996 ] final    4.57 input  -57.11 | X-H torsion

> <Gold.Protein.ActiveResidues>
 VAL166  LYS551  ARG553  GLY616  TRP617  ASP618  TYR619  PRO620  LYS621  CYS622 
 ASP623  PHE694  ASN695  SER759  ASP760  ASP761  ALA762  ILE779  LEU786  VAL792 
 PHE793  MET794  SER795  GLU796  ALA797  LYS798  CYS799  TRP800  GLU811  SER814 

> <Gold.Protein.RotatedAtoms>
  151.6046  133.3353  159.3054 H   0  0  0  0  0  0  0  0  0  0  0  0  # atno 6907 bound_to 6896
  150.8189  134.7390  159.6766 H   0  0  0  0  0  0  0  0  0  0  0  0  # atno 6908 bound_to 6896
  152.4284  134.5830  160.0004 H   0  0  0  0  0  0  0  0  0  0  0  0  # atno 6909 bound_to 6896
  144.9645  140.7481  143.4709 H   0  0  0  0  0  0  0  0  0  0  0  0  # atno 7974 bound_to 7965
  156.2927  140.2631  156.2528 H   0  0  0  0  0  0  0  0  0  0  0  0  # atno 8008 bound_to 7997
  154.9866  140.0389  157.2319 H   0  0  0  0  0  0  0  0  0  0  0  0  # atno 8009 bound_to 7997
  154.7724  140.2780  155.6132 H   0  0  0  0  0  0  0  0  0  0  0  0  # atno 8010 bound_to 7997
  139.7477  143.8565  152.2579 H   0  0  0  0  0  0  0  0  0  0  0  0  # atno 10167 bound_to 10162
  157.4100  131.1027  151.0464 H   0  0  0  0  0  0  0  0  0  0  0  0  # atno 10718 bound_to 10713
  153.8939  135.3030  155.3448 H   0  0  0  0  0  0  0  0  0  0  0  0  # atno 10763 bound_to 10752
  154.7703  135.4889  153.9639 H   0  0  0  0  0  0  0  0  0  0  0  0  # atno 10764 bound_to 10752
  153.1282  135.6798  153.9320 H   0  0  0  0  0  0  0  0  0  0  0  0  # atno 10765 bound_to 10752
  140.5804  134.0018  155.8045 H   0  0  0  0  0  0  0  0  0  0  0  0  # atno 11005 bound_to 11000
  145.2651  139.1977  143.4871 LP  0  0  0  0  0  0  0  0  0  0  0  0  # atno 17320 bound_to 7965
  146.3363  140.2587  142.8601 LP  0  0  0  0  0  0  0  0  0  0  0  0  # atno 17321 bound_to 7965
  139.8534  144.7153  150.9186 LP  0  0  0  0  0  0  0  0  0  0  0  0  # atno 17342 bound_to 10162
  140.7794  143.3879  151.1361 LP  0  0  0  0  0  0  0  0  0  0  0  0  # atno 17343 bound_to 10162
  157.1432  130.6152  149.5561 LP  0  0  0  0  0  0  0  0  0  0  0  0  # atno 17370 bound_to 10713
  155.9848  130.4874  150.6999 LP  0  0  0  0  0  0  0  0  0  0  0  0  # atno 17371 bound_to 10713
  141.1000  133.9783  157.3095 LP  0  0  0  0  0  0  0  0  0  0  0  0  # atno 17394 bound_to 11000
  139.9320  135.0199  156.8431 LP  0  0  0  0  0  0  0  0  0  0  0  0  # atno 17395 bound_to 11000

$$$$
