AV-unprocessed.smi:3047|AV-procd|sdf|11622|dock3
  -GOLD-   2272017 03D 1   1.00000     0.00000
 Structure written by MMmdl.
 38 39  0  0  0  0  0  0  0  0  2 V2000
  151.1567  129.9752  155.4458 C   0  0  0  0  0  0  0  0  0  0  0  0
  149.4699  130.7045  155.3419 S   0  0  0  0  0  0  0  0  0  0  0  0
  148.9102  130.3652  154.0248 O   0  0  0  0  0  0  0  0  0  0  0  0
  148.7304  130.3609  156.5664 O   0  0  0  0  0  0  0  0  0  0  0  0
  149.7711  132.4136  155.3521 N   0  0  0  0  0  0  0  0  0  0  0  0
  150.2536  133.1119  156.5410 C   0  0  0  0  0  0  0  0  0  0  0  0
  150.5849  134.5151  156.0418 C   0  0  0  0  0  0  0  0  0  0  0  0
  149.5861  134.7489  154.9114 C   0  0  0  0  0  0  0  0  0  0  0  0
  149.3436  133.3527  154.2991 C   0  0  2  0  0  0  0  0  0  0  0  0
  147.8981  133.1753  153.8079 C   0  0  0  0  0  0  0  0  0  0  0  0
  147.1684  132.3119  154.2965 O   0  0  0  0  0  0  0  0  0  0  0  0
  147.5044  133.9853  152.8150 N   0  0  0  0  0  0  0  0  0  0  0  0
  146.2000  133.9242  152.1728 C   0  0  0  0  0  0  0  0  0  0  0  0
  146.0962  132.6790  151.2827 C   0  0  0  0  0  0  0  0  0  0  0  0
  145.1196  132.8635  150.2083 N   0  0  0  0  0  0  0  0  0  0  0  0
  145.2889  132.5941  148.8746 C   0  0  0  0  0  0  0  0  0  0  0  0
  144.1115  132.9289  148.2563 C   0  0  0  0  0  0  0  0  0  0  0  0
  143.2747  133.3887  149.2380 N   0  3  0  0  0  0  0  0  0  0  0  0
  143.8903  133.3490  150.4244 C   0  0  0  0  0  0  0  0  0  0  0  0
  151.0847  128.8917  155.3558 H   0  0  0  0  0  0  0  0  0  0  0  0
  151.6152  130.2220  156.4016 H   0  0  0  0  0  0  0  0  0  0  0  0
  151.7729  130.3629  154.6351 H   0  0  0  0  0  0  0  0  0  0  0  0
  149.4600  133.1363  157.2886 H   0  0  0  0  0  0  0  0  0  0  0  0
  151.1226  132.6109  156.9682 H   0  0  0  0  0  0  0  0  0  0  0  0
  150.5206  135.2689  156.8267 H   0  0  0  0  0  0  0  0  0  0  0  0
  151.6000  134.5314  155.6431 H   0  0  0  0  0  0  0  0  0  0  0  0
  148.6752  135.1797  155.3294 H   0  0  0  0  0  0  0  0  0  0  0  0
  149.9702  135.4570  154.1765 H   0  0  0  0  0  0  0  0  0  0  0  0
  150.0242  133.2188  153.4566 H   0  0  0  0  0  0  0  0  0  0  0  0
  148.1660  134.6606  152.4595 H   0  0  0  0  0  0  0  0  0  0  0  0
  145.4219  133.9020  152.9378 H   0  0  0  0  0  0  0  0  0  0  0  0
  146.0461  134.8272  151.5798 H   0  0  0  0  0  0  0  0  0  0  0  0
  147.0591  132.4490  150.8244 H   0  0  0  0  0  0  0  0  0  0  0  0
  145.8004  131.8062  151.8674 H   0  0  0  0  0  0  0  0  0  0  0  0
  146.2102  132.1953  148.4750 H   0  0  0  0  0  0  0  0  0  0  0  0
  143.8145  132.8763  147.2189 H   0  0  0  0  0  0  0  0  0  0  0  0
  143.4759  133.6508  151.3701 H   0  0  0  0  0  0  0  0  0  0  0  0
  142.3269  133.7123  149.0900 H   0  0  0  0  0  0  0  0  0  0  0  0
  1  2  1  0  0  0  0
  1 20  1  0  0  0  0
  1 21  1  0  0  0  0
  1 22  1  0  0  0  0
  2  3  2  0  0  0  0
  2  4  2  0  0  0  0
  2  5  1  0  0  0  0
  5  9  1  0  0  0  0
  5  6  1  0  0  0  0
  6  7  1  0  0  0  0
  6 23  1  0  0  0  0
  6 24  1  0  0  0  0
  7  8  1  0  0  0  0
  7 25  1  0  0  0  0
  7 26  1  0  0  0  0
  8  9  1  0  0  0  0
  8 27  1  0  0  0  0
  8 28  1  0  0  0  0
  9 10  1  0  0  0  0
  9 29  1  0  0  0  0
 10 11  2  0  0  0  0
 10 12  1  0  0  0  0
 12 13  1  0  0  0  0
 12 30  1  0  0  0  0
 13 14  1  0  0  0  0
 13 31  1  0  0  0  0
 13 32  1  0  0  0  0
 14 15  1  0  0  0  0
 14 33  1  0  0  0  0
 14 34  1  0  0  0  0
 15 19  1  0  0  0  0
 15 16  1  0  0  0  0
 16 17  2  0  0  0  0
 16 35  1  0  0  0  0
 17 18  1  0  0  0  0
 17 36  1  0  0  0  0
 18 19  2  0  0  0  0
 18 38  1  0  0  0  0
 19 37  1  0  0  0  0
M  CHG  1  18   1
M  END
> <s_m_source_file>
AV-unprocessed.smi

> <i_m_source_file_index>
3047

> <i_lp_mmshare_version>
43012

> <i_f3d_flags>
0

> <s_epik_input>
W0NIM11TKD1PKSg9TylOMVtDSDJdW0NIMl1bQ0gyXVtDQEhdMUMoPU8pW05IXVtDSDJdW0NIMl1uMltjSF1bY0hdbltjSF0y

> <s_epik_cmdline>
J2VwaWtfcHl0aG9uJywgJy1waCcsICc3LjAnLCAnLXRuJywgJzgnLCAnLW1hJywgJzIwMCcsICctbWV0YWxfYmluZGluZycsICctaW1hZScsICc8aW5maWxlLm1hZT4nLCAnLW9tYWUnLCAnPG91dGZpbGUubWFlPic=

> <r_lp_tautomer_probability>
1

> <r_epik_Ionization_Penalty>
0.281738

> <r_epik_Ionization_Penalty_Charging>
0

> <r_epik_Ionization_Penalty_Neutral>
0.281738

> <r_epik_State_Penalty>
0.274352

> <r_epik_Charging_Adjusted_Penalty>
0.274352

> <i_epik_Tot_Q>
1

> <i_epik_Tot_abs_Q>
1

> <r_epik_Metal_State_Penalty>
0.555562

> <b_epik_Metal_Only>
0

> <s_lp_Force_Field>
OPLS_2005

> <r_lp_Energy>
11.563

> <b_lp_Chiralities_Consistent>
1

> <s_lp_Variant>
AV-unprocessed.smi:3047-2

> <Gold.Version>
5.8.1

> <Gold.Id.Protein>
6NUR|6NUR_protein|mol2

> <Gold.PLP.Fitness>
45.1171

> <Gold.PLP.PLP>
-36.8852

> <Gold.PLP.part.hbond>
-1.8040

> <Gold.PLP.part.metal>
0.0000

> <Gold.PLP.part.buried>
-4.3159

> <Gold.PLP.part.nonpolar>
-29.8969

> <Gold.PLP.part.repulsive>
0.2338

> <Gold.PLP.ligand.clash>
0.0000

> <Gold.PLP.ligand.torsion>
1.4082

> <Gold.PLP.Chemscore.Hbond>
3.0000

> <Gold.PLP.Chemscore.CHOScore>
0.0000

> <Gold.PLP.Chemscore.Metal>
0.0000

> <Gold.Chemscore.Hbonds>
donor molecule, donor type, donor heavy atom, donor atom, acceptor molecule, acceptor atom, score
      L1  H    12    30       P1  7948  1.00
      L1  H    18    38       P1 10186  2.00

> <Gold.PLP.Chemscore.Internal.Correction>
2.0482

> <Gold.Rescore>
     Score         DG    S(hbond)    S(metal)    S(lipo)     H(rot)  DE(clash)    DE(int)     intcor
      9.32     -13.53       1.88        0.00      60.99       2.10       0.02       4.19       ----

> <Gold.Chemscore.Fitness>
9.3215

> <Gold.Chemscore.DG>
-13.5314

> <Gold.Chemscore.ZeroCoef>
-5.4800

> <Gold.Chemscore.Hbond>
1.8801

> <Gold.Chemscore.Metal>
0.0000

> <Gold.Chemscore.Lipo>
60.9928

> <Gold.Chemscore.Internal_Hbond>
0.0000

> <Gold.Chemscore.DEClash>
0.0166

> <Gold.Chemscore.DEInternal>
4.1932

> <Gold.Chemscore.Rot>
2.0954

> <Gold.Chemscore.Internal.Correction>
   9.000000E+99

> <Gold.Chemscore.Hbonds>
donor molecule, donor type, donor heavy atom, donor atom, acceptor molecule, acceptor atom, score
      L1  H    12    30       P1  7948  0.40
      L1  H    18    38       P1 10186  0.94

> <Gold.Chemscore.Hbond.Weighted>
-6.2795

> <Gold.Chemscore.Metal.Weighted>
-0.0000

> <Gold.Chemscore.Lipo.Weighted>
-7.1362

> <Gold.Chemscore.Internal_Hbond.Weighted>
0.0000

> <Gold.Chemscore.DEClash.Weighted>
0.0166

> <Gold.Chemscore.DEInternal.Weighted>
4.1932

> <Gold.Chemscore.Rot.Weighted>
5.3643

> <Gold.Chemscore.Internal.Correction.Weighted>
   9.000000E+99

> <Gold.Protein.RotatedTorsions>
[ 6907 6896 6895 6894 ] final -104.28 input  -60.11 | X-H torsion
[ 7974 7965 7964 7962 ] final   64.79 input  175.53 | X-H torsion
[ 8008 7997 7996 7995 ] final  -74.12 input   59.86 | X-H torsion
[ 10167 10162 10161 10158 ] final  -32.34 input  -65.29 | X-H torsion
[ 10718 10713 10712 10709 ] final   70.01 input   66.30 | X-H torsion
[ 10763 10752 10751 10750 ] final   12.21 input  -60.55 | X-H torsion
[ 11005 11000 10999 10996 ] final -111.90 input  -57.11 | X-H torsion

> <Gold.Protein.ActiveResidues>
 VAL166  LYS551  ARG553  GLY616  TRP617  ASP618  TYR619  PRO620  LYS621  CYS622 
 ASP623  PHE694  ASN695  SER759  ASP760  ASP761  ALA762  ILE779  LEU786  VAL792 
 PHE793  MET794  SER795  GLU796  ALA797  LYS798  CYS799  TRP800  GLU811  SER814 

> <Gold.Protein.RotatedAtoms>
  150.7280  134.0302  159.3730 H   0  0  0  0  0  0  0  0  0  0  0  0  # atno 6907 bound_to 6896
  151.8270  135.0631  160.0441 H   0  0  0  0  0  0  0  0  0  0  0  0  # atno 6908 bound_to 6896
  152.2961  133.5573  159.5625 H   0  0  0  0  0  0  0  0  0  0  0  0  # atno 6909 bound_to 6896
  145.8461  139.3225  143.0903 H   0  0  0  0  0  0  0  0  0  0  0  0  # atno 7974 bound_to 7965
  154.5304  140.0767  156.8334 H   0  0  0  0  0  0  0  0  0  0  0  0  # atno 8008 bound_to 7997
  155.3388  140.3406  155.4221 H   0  0  0  0  0  0  0  0  0  0  0  0  # atno 8009 bound_to 7997
  156.1775  140.1640  156.8323 H   0  0  0  0  0  0  0  0  0  0  0  0  # atno 8010 bound_to 7997
  140.7223  143.3702  151.1793 H   0  0  0  0  0  0  0  0  0  0  0  0  # atno 10167 bound_to 10162
  157.6377  130.9455  150.0592 H   0  0  0  0  0  0  0  0  0  0  0  0  # atno 10718 bound_to 10713
  153.1846  135.6833  153.8433 H   0  0  0  0  0  0  0  0  0  0  0  0  # atno 10763 bound_to 10752
  153.7753  135.3190  155.3359 H   0  0  0  0  0  0  0  0  0  0  0  0  # atno 10764 bound_to 10752
  154.8080  135.4736  154.0539 H   0  0  0  0  0  0  0  0  0  0  0  0  # atno 10765 bound_to 10752
  141.0707  133.9384  157.2490 H   0  0  0  0  0  0  0  0  0  0  0  0  # atno 11005 bound_to 11000
  145.9410  140.8979  143.0307 LP  0  0  0  0  0  0  0  0  0  0  0  0  # atno 17320 bound_to 7965
  144.6731  140.1549  143.7427 LP  0  0  0  0  0  0  0  0  0  0  0  0  # atno 17321 bound_to 7965
  139.7272  143.9130  152.3007 LP  0  0  0  0  0  0  0  0  0  0  0  0  # atno 17342 bound_to 10162
  139.8907  144.6967  150.8774 LP  0  0  0  0  0  0  0  0  0  0  0  0  # atno 17343 bound_to 10162
  156.1630  130.3644  149.9272 LP  0  0  0  0  0  0  0  0  0  0  0  0  # atno 17370 bound_to 10713
  156.7266  130.9027  151.3622 LP  0  0  0  0  0  0  0  0  0  0  0  0  # atno 17371 bound_to 10713
  139.9521  135.0173  156.9022 LP  0  0  0  0  0  0  0  0  0  0  0  0  # atno 17394 bound_to 11000
  140.5679  134.0471  155.7420 LP  0  0  0  0  0  0  0  0  0  0  0  0  # atno 17395 bound_to 11000

$$$$
