AV-unprocessed.smi:3306|AV-procd|sdf|12702|dock10
  -GOLD-   2272019 33D 1   1.00000     0.00000
 Structure written by MMmdl.
 45 46  0  0  0  0  0  0  0  0  3 V2000
  149.6995  133.9604  154.5642 C   0  0  0  0  0  0  0  0  0  0  0  0
  148.7100  135.1168  154.8072 C   0  0  0  0  0  0  0  0  0  0  0  0
  147.3553  134.8554  154.1281 C   0  0  0  0  0  0  0  0  0  0  0  0
  149.2534  136.4558  154.4336 N   0  3  2  0  0  0  0  0  0  0  0  0
  150.6090  136.7626  154.9654 C   0  0  0  0  0  0  0  0  0  0  0  0
  151.1675  138.0482  154.3300 C   0  0  0  0  0  0  0  0  0  0  0  0
  150.2270  139.2549  154.5332 C   0  0  2  0  0  0  0  0  0  0  0  0
  150.2020  139.7370  155.9356 N   0  3  0  0  0  0  0  0  0  0  0  0
  151.3821  140.5202  156.3592 C   0  0  0  0  0  0  0  0  0  0  0  0
  151.0123  141.9937  156.5776 C   0  0  0  0  0  0  0  0  0  0  0  0
  151.5126  142.5190  157.9100 C   0  0  0  0  0  0  0  0  0  0  0  0
  151.9868  141.6357  158.9032 C   0  0  0  0  0  0  0  0  0  0  0  0
  152.4425  142.1786  160.1204 C   0  0  0  0  0  0  0  0  0  0  0  0
  152.4080  143.5757  160.2955 C   0  0  0  0  0  0  0  0  0  0  0  0
  151.9166  144.3715  159.2415 C   0  0  0  0  0  0  0  0  0  0  0  0
  151.4775  143.8609  158.0702 N   0  0  0  0  0  0  0  0  0  0  0  0
  148.8098  138.8842  154.0579 C   0  0  0  0  0  0  0  0  0  0  0  0
  148.3030  137.5711  154.6844 C   0  0  0  0  0  0  0  0  0  0  0  0
  149.2964  133.0245  154.9528 H   0  0  0  0  0  0  0  0  0  0  0  0
  150.6532  134.1308  155.0634 H   0  0  0  0  0  0  0  0  0  0  0  0
  149.8960  133.8071  153.5029 H   0  0  0  0  0  0  0  0  0  0  0  0
  148.5025  135.1457  155.8778 H   0  0  0  0  0  0  0  0  0  0  0  0
  146.9001  133.9424  154.5135 H   0  0  0  0  0  0  0  0  0  0  0  0
  147.4521  134.7358  153.0492 H   0  0  0  0  0  0  0  0  0  0  0  0
  146.6563  135.6713  154.3140 H   0  0  0  0  0  0  0  0  0  0  0  0
  150.5709  136.8760  156.0495 H   0  0  0  0  0  0  0  0  0  0  0  0
  151.2926  135.9400  154.7576 H   0  0  0  0  0  0  0  0  0  0  0  0
  152.1662  138.2543  154.7135 H   0  0  0  0  0  0  0  0  0  0  0  0
  151.2956  137.8798  153.2596 H   0  0  0  0  0  0  0  0  0  0  0  0
  150.5776  140.0832  153.9154 H   0  0  0  0  0  0  0  0  0  0  0  0
  149.3987  140.3421  156.0333 H   0  0  0  0  0  0  0  0  0  0  0  0
  151.7922  140.1072  157.2808 H   0  0  0  0  0  0  0  0  0  0  0  0
  152.1578  140.4430  155.5960 H   0  0  0  0  0  0  0  0  0  0  0  0
  151.4310  142.6078  155.7786 H   0  0  0  0  0  0  0  0  0  0  0  0
  149.9298  142.1190  156.5259 H   0  0  0  0  0  0  0  0  0  0  0  0
  152.0014  140.5679  158.7417 H   0  0  0  0  0  0  0  0  0  0  0  0
  152.8115  141.5353  160.9058 H   0  0  0  0  0  0  0  0  0  0  0  0
  152.7493  144.0265  161.2156 H   0  0  0  0  0  0  0  0  0  0  0  0
  151.8765  145.4462  159.3410 H   0  0  0  0  0  0  0  0  0  0  0  0
  148.1131  139.6958  154.2724 H   0  0  0  0  0  0  0  0  0  0  0  0
  148.8168  138.7747  152.9724 H   0  0  0  0  0  0  0  0  0  0  0  0
  147.3282  137.3305  154.2587 H   0  0  0  0  0  0  0  0  0  0  0  0
  148.1547  137.6992  155.7573 H   0  0  0  0  0  0  0  0  0  0  0  0
  149.3542  136.4182  153.4289 H   0  0  0  0  0  0  0  0  0  0  0  0
  150.0857  138.9507  156.5586 H   0  0  0  0  0  0  0  0  0  0  0  0
  1  2  1  0  0  0  0
  1 19  1  0  0  0  0
  1 20  1  0  0  0  0
  1 21  1  0  0  0  0
  2  3  1  0  0  0  0
  2  4  1  0  0  0  0
  2 22  1  0  0  0  0
  3 23  1  0  0  0  0
  3 24  1  0  0  0  0
  3 25  1  0  0  0  0
  4 18  1  0  0  0  0
  4  5  1  0  0  0  0
  4 44  1  0  0  0  0
  5  6  1  0  0  0  0
  5 26  1  0  0  0  0
  5 27  1  0  0  0  0
  6  7  1  0  0  0  0
  6 28  1  0  0  0  0
  6 29  1  0  0  0  0
  7  8  1  0  0  0  0
  7 17  1  0  0  0  0
  7 30  1  0  0  0  0
  8  9  1  0  0  0  0
  8 31  1  0  0  0  0
  8 45  1  0  0  0  0
  9 10  1  0  0  0  0
  9 32  1  0  0  0  0
  9 33  1  0  0  0  0
 10 11  1  0  0  0  0
 10 34  1  0  0  0  0
 10 35  1  0  0  0  0
 11 16  1  0  0  0  0
 11 12  2  0  0  0  0
 12 13  1  0  0  0  0
 12 36  1  0  0  0  0
 13 14  2  0  0  0  0
 13 37  1  0  0  0  0
 14 15  1  0  0  0  0
 14 38  1  0  0  0  0
 15 16  2  0  0  0  0
 15 39  1  0  0  0  0
 17 18  1  0  0  0  0
 17 40  1  0  0  0  0
 17 41  1  0  0  0  0
 18 42  1  0  0  0  0
 18 43  1  0  0  0  0
M  CHG  1   4   1
M  CHG  1   8   1
M  END
> <s_m_source_file>
AV-unprocessed.smi

> <i_m_source_file_index>
3306

> <i_lp_mmshare_version>
43012

> <i_f3d_flags>
0

> <s_epik_input>
W0NIM11bQ0hdKFtDSDNdKU4xW0NIMl1bQ0gyXVtDSF0oW0NIMl1bQ0gyXTEpW05IXVtDSDJdW0NIMl1jMltjSF1bY0hdW2NIXVtjSF1uMg==

> <s_epik_cmdline>
J2VwaWtfcHl0aG9uJywgJy1waCcsICc3LjAnLCAnLXRuJywgJzgnLCAnLW1hJywgJzIwMCcsICctbWV0YWxfYmluZGluZycsICctaW1hZScsICc8aW5maWxlLm1hZT4nLCAnLW9tYWUnLCAnPG91dGZpbGUubWFlPic=

> <r_epik_Ionization_Penalty>
0.0800465

> <r_epik_Ionization_Penalty_Charging>
0.0790817

> <r_epik_Ionization_Penalty_Neutral>
0.000964829

> <r_epik_State_Penalty>
0.0665964

> <r_epik_Charging_Adjusted_Penalty>
0.145678

> <i_epik_Tot_Q>
2

> <i_epik_Tot_abs_Q>
2

> <r_epik_Metal_State_Penalty>
0.0683331

> <b_epik_Metal_Only>
0

> <s_lp_Force_Field>
OPLS_2005

> <r_lp_Energy>
31.8931

> <b_lp_Chiralities_Consistent>
1

> <s_lp_Variant>
AV-unprocessed.smi:3306-2

> <Gold.Version>
5.8.1

> <Gold.Id.Protein>
6NUR|6NUR_protein|mol2

> <Gold.PLP.Fitness>
42.2245

> <Gold.PLP.PLP>
-38.1965

> <Gold.PLP.part.hbond>
-1.0000

> <Gold.PLP.part.metal>
0.0000

> <Gold.PLP.part.buried>
-4.8837

> <Gold.PLP.part.nonpolar>
-31.6971

> <Gold.PLP.part.repulsive>
0.2157

> <Gold.PLP.ligand.clash>
0.0000

> <Gold.PLP.ligand.torsion>
1.0389

> <Gold.PLP.Chemscore.Hbond>
2.0000

> <Gold.PLP.Chemscore.CHOScore>
0.0000

> <Gold.PLP.Chemscore.Metal>
0.0000

> <Gold.Chemscore.Hbonds>
donor molecule, donor type, donor heavy atom, donor atom, acceptor molecule, acceptor atom, score
      L1  H     4    44       P1  7948  2.00

> <Gold.PLP.Chemscore.Internal.Correction>
0.1058

> <Gold.Rescore>
     Score         DG    S(hbond)    S(metal)    S(lipo)     H(rot)  DE(clash)    DE(int)     intcor
     17.21     -18.39       0.96        0.00     115.18       1.47       0.13       1.05       ----

> <Gold.Chemscore.Fitness>
17.2117

> <Gold.Chemscore.DG>
-18.3938

> <Gold.Chemscore.ZeroCoef>
-5.4800

> <Gold.Chemscore.Hbond>
0.9569

> <Gold.Chemscore.Metal>
0.0000

> <Gold.Chemscore.Lipo>
115.1761

> <Gold.Chemscore.Internal_Hbond>
0.0000

> <Gold.Chemscore.DEClash>
0.1283

> <Gold.Chemscore.DEInternal>
1.0538

> <Gold.Chemscore.Rot>
1.4679

> <Gold.Chemscore.Internal.Correction>
   9.000000E+99

> <Gold.Chemscore.Hbonds>
donor molecule, donor type, donor heavy atom, donor atom, acceptor molecule, acceptor atom, score
      L1  H     4    44       P1  7948  0.81

> <Gold.Chemscore.Hbond.Weighted>
-3.1961

> <Gold.Chemscore.Metal.Weighted>
-0.0000

> <Gold.Chemscore.Lipo.Weighted>
-13.4756

> <Gold.Chemscore.Internal_Hbond.Weighted>
0.0000

> <Gold.Chemscore.DEClash.Weighted>
0.1283

> <Gold.Chemscore.DEInternal.Weighted>
1.0538

> <Gold.Chemscore.Rot.Weighted>
3.7579

> <Gold.Chemscore.Internal.Correction.Weighted>
   9.000000E+99

> <Gold.Protein.RotatedTorsions>
[ 6907 6896 6895 6894 ] final  -11.23 input  -60.11 | X-H torsion
[ 7974 7965 7964 7962 ] final    9.87 input  175.53 | X-H torsion
[ 8008 7997 7996 7995 ] final   66.97 input   59.86 | X-H torsion
[ 10167 10162 10161 10158 ] final  -44.32 input  -65.29 | X-H torsion
[ 10718 10713 10712 10709 ] final  162.95 input   66.30 | X-H torsion
[ 10763 10752 10751 10750 ] final  -31.33 input  -60.55 | X-H torsion
[ 11005 11000 10999 10996 ] final  -26.49 input  -57.11 | X-H torsion

> <Gold.Protein.ActiveResidues>
 VAL166  LYS551  ARG553  GLY616  TRP617  ASP618  TYR619  PRO620  LYS621  CYS622 
 ASP623  PHE694  ASN695  SER759  ASP760  ASP761  ALA762  ILE779  LEU786  VAL792 
 PHE793  MET794  SER795  GLU796  ALA797  LYS798  CYS799  TRP800  GLU811  SER814 

> <Gold.Protein.RotatedAtoms>
  151.3895  135.0953  159.9521 H   0  0  0  0  0  0  0  0  0  0  0  0  # atno 6907 bound_to 6896
  152.5084  133.8993  159.7443 H   0  0  0  0  0  0  0  0  0  0  0  0  # atno 6908 bound_to 6896
  150.9444  133.6564  159.2813 H   0  0  0  0  0  0  0  0  0  0  0  0  # atno 6909 bound_to 6896
  146.2397  139.9719  142.8446 H   0  0  0  0  0  0  0  0  0  0  0  0  # atno 7974 bound_to 7965
  155.6857  140.3496  155.4873 H   0  0  0  0  0  0  0  0  0  0  0  0  # atno 8008 bound_to 7997
  155.9568  140.1130  157.0952 H   0  0  0  0  0  0  0  0  0  0  0  0  # atno 8009 bound_to 7997
  154.4134  140.1183  156.5112 H   0  0  0  0  0  0  0  0  0  0  0  0  # atno 8010 bound_to 7997
  140.6901  143.2936  151.3479 H   0  0  0  0  0  0  0  0  0  0  0  0  # atno 10167 bound_to 10162
  157.1153  131.0478  151.2439 H   0  0  0  0  0  0  0  0  0  0  0  0  # atno 10718 bound_to 10713
  153.7956  135.6894  153.4864 H   0  0  0  0  0  0  0  0  0  0  0  0  # atno 10763 bound_to 10752
  153.1721  135.4538  154.9915 H   0  0  0  0  0  0  0  0  0  0  0  0  # atno 10764 bound_to 10752
  154.8027  135.3344  154.7449 H   0  0  0  0  0  0  0  0  0  0  0  0  # atno 10765 bound_to 10752
  140.9034  133.7509  156.0573 H   0  0  0  0  0  0  0  0  0  0  0  0  # atno 11005 bound_to 11000
  145.1673  140.9703  143.4342 LP  0  0  0  0  0  0  0  0  0  0  0  0  # atno 17320 bound_to 7965
  145.0061  139.3553  143.6143 LP  0  0  0  0  0  0  0  0  0  0  0  0  # atno 17321 bound_to 7965
  139.6295  144.0748  152.2464 LP  0  0  0  0  0  0  0  0  0  0  0  0  # atno 17342 bound_to 10162
  140.0218  144.6147  150.7560 LP  0  0  0  0  0  0  0  0  0  0  0  0  # atno 17343 bound_to 10162
  157.4524  130.7606  149.7163 LP  0  0  0  0  0  0  0  0  0  0  0  0  # atno 17370 bound_to 10713
  155.9841  130.3994  150.3330 LP  0  0  0  0  0  0  0  0  0  0  0  0  # atno 17371 bound_to 10713
  140.8202  134.3298  157.5384 LP  0  0  0  0  0  0  0  0  0  0  0  0  # atno 17394 bound_to 11000
  139.8745  134.9305  156.3503 LP  0  0  0  0  0  0  0  0  0  0  0  0  # atno 17395 bound_to 11000

$$$$
