#       Name:                AV-unprocessed.smi:1419
#       Creating user name   scv26
#       Creation time:       Fri Mar 27 05:42:56 2020


#       File generated by GOLD software.
#

@<TRIPOS>MOLECULE
AV-unprocessed.smi:1419
    46    47     1
SMALL
NO_CHARGES


@<TRIPOS>ATOM
      1 ****        -2.8095  -0.9200  -1.5317 C.3            1 S1                 0.0000
      2 ****        -2.0750  -0.0750  -0.4780 C.3            1 S1                 0.0000
      3 ****        -2.1141  -0.6981   0.9343 C.3            1 S1                 0.0000
      4 ****        -3.4656  -0.9066   1.4175 N.pl3          1 S1                 0.0000
      5 ****        -4.1561  -2.1093   1.4928 C.2            1 S1                 0.0000
      6 ****        -5.3968  -1.8178   2.0132 C.2            1 S1                 0.0000
      7 ****        -5.4890  -0.4516   2.2685 N.2            1 S1                 0.0000
      8 ****        -4.3074   0.0212   1.8929 C.2            1 S1                 0.0000
      9 ****        -0.6916   0.1171  -0.9012 N.am           1 S1                 0.0000
     10 ****         0.1015   1.1435  -0.5492 C.2            1 S1                 0.0000
     11 ****        -0.2945   2.0631   0.1682 O.2            1 S1                 0.0000
     12 ****         1.3583   1.0844  -1.0552 N.am           1 S1                 0.0000
     13 ****         1.9702  -0.0472  -1.7655 C.3            1 S1                 0.0000
     14 ****         3.0347  -0.6948  -0.8552 C.3            1 S1                 0.0000
     15 ****         2.4485  -1.4571   0.3475 C.3            1 S1                 0.0000
     16 ****         3.9791   0.2965  -0.4381 O.3            1 S1                 0.0000
     17 ****         3.4258   1.4634   0.1770 C.3            1 S1                 0.0000
     18 ****         4.5777   2.4265   0.4834 C.3            1 S1                 0.0000
     19 ****         2.3768   2.0938  -0.7603 C.3            1 S1                 0.0000
     20 ****        -3.8713  -1.0118  -1.3022 H              1 S1                 0.0000
     21 ****        -2.3933  -1.9261  -1.5930 H              1 S1                 0.0000
     22 ****        -2.7319  -0.4670  -2.5207 H              1 S1                 0.0000
     23 ****        -2.5653   0.8998  -0.4431 H              1 S1                 0.0000
     24 ****        -1.5926  -1.6565   0.9406 H              1 S1                 0.0000
     25 ****        -1.5961  -0.0578   1.6497 H              1 S1                 0.0000
     26 ****        -3.7216  -3.0459   1.1754 H              1 S1                 0.0000
     27 ****        -6.2230  -2.4810   2.2227 H              1 S1                 0.0000
     28 ****        -4.0482   1.0676   1.9628 H              1 S1                 0.0000
     29 ****        -0.2975  -0.5950  -1.4986 H              1 S1                 0.0000
     30 ****         1.2593  -0.8016  -2.1026 H              1 S1                 0.0000
     31 ****         2.4443   0.3255  -2.6748 H              1 S1                 0.0000
     32 ****         3.5920  -1.4169  -1.4523 H              1 S1                 0.0000
     33 ****         1.7979  -2.2653   0.0126 H              1 S1                 0.0000
     34 ****         1.8570  -0.8157   1.0002 H              1 S1                 0.0000
     35 ****         3.2423  -1.9002   0.9490 H              1 S1                 0.0000
     36 ****         2.9540   1.1875   1.1206 H              1 S1                 0.0000
     37 ****         4.2138   3.3309   0.9713 H              1 S1                 0.0000
     38 ****         5.0970   2.7231  -0.4283 H              1 S1                 0.0000
     39 ****         5.3083   1.9620   1.1463 H              1 S1                 0.0000
     40 ****         2.8440   2.4209  -1.6905 H              1 S1                 0.0000
     41 ****         1.9577   2.9923  -0.3049 H              1 S1                 0.0000
     42 ****        -6.2643   0.0545   2.6464 LP             1 S1                 0.0000
     43 ****        -1.2346   2.0620   0.5091 LP             1 S1                 0.0000
     44 ****         0.3241   2.8107   0.4097 LP             1 S1                 0.0000
     45 ****         4.4931   0.5891  -1.2445 LP             1 S1                 0.0000
     46 ****         4.6021  -0.1299   0.2176 LP             1 S1                 0.0000
@<TRIPOS>BOND
    1    1    2 1     
    2    1   20 1     
    3    1   21 1     
    4    1   22 1     
    5    2    3 1     
    6    2    9 1     
    7    2   23 1     
    8    3    4 1     
    9    3   24 1     
   10    3   25 1     
   11    4    8 1     
   12    4    5 1     
   13    5    6 2     
   14    5   26 1     
   15    6    7 1     
   16    6   27 1     
   17    7    8 2     
   18    8   28 1     
   19    9   10 am    
   20    9   29 1     
   21   10   11 2     
   22   10   12 am    
   23   12   19 1     
   24   12   13 1     
   25   13   14 1     
   26   13   30 1     
   27   13   31 1     
   28   14   15 1     
   29   14   16 1     
   30   14   32 1     
   31   15   33 1     
   32   15   34 1     
   33   15   35 1     
   34   16   17 1     
   35   17   18 1     
   36   17   19 1     
   37   17   36 1     
   38   18   37 1     
   39   18   38 1     
   40   18   39 1     
   41   19   40 1     
   42   19   41 1     
   43    7   42 1     
   44   11   43 1     
   45   11   44 1     
   46   16   45 1     
   47   16   46 1     
@<TRIPOS>SUBSTRUCTURE
      1 S1             1
@<TRIPOS>SET
LONE_PAIRS      STATIC     ATOMS    <user>   **** ""
5 42 43 44 45 46
DONOR_HYDROGENS      STATIC     ATOMS    <user>   **** ""
1 29
ATOM$BLUE        STATIC     ATOMS    COLORGROUP SYSTEM
5 42 43 44 45 46
ATOM$RED        STATIC     ATOMS    COLORGROUP SYSTEM
1 29
