#       Name:                AV-unprocessed.smi:1008
#       Creating user name   scv26
#       Creation time:       Fri Mar 27 02:35:34 2020


#       File generated by GOLD software.
#

@<TRIPOS>MOLECULE
AV-unprocessed.smi:1008
    28    28     1
SMALL
NO_CHARGES


@<TRIPOS>ATOM
      1 ****         0.1981   2.3161   0.3642 C.3            1 S1                 0.0000
      2 ****        -0.4553   0.9454   0.3443 C.2            1 S1                 0.0000
      3 ****        -1.8568   0.9416   0.3381 N.2            1 S1                 0.0000
      4 ****        -2.4940  -0.1837   0.3230 C.2            1 S1                 0.0000
      5 ****        -3.8653  -0.3349   0.3163 N.pl3          1 S1                 0.0000
      6 ****        -1.8106  -1.3997   0.3109 N.am           1 S1                 0.0000
      7 ****        -0.4622  -1.4999   0.3101 C.2            1 S1                 0.0000
      8 ****         0.0809  -2.6035   0.2912 O.2            1 S1                 0.0000
      9 ****         0.2593  -0.2156   0.3283 C.2            1 S1                 0.0000
     10 ****         1.7847  -0.2582   0.3503 C.3            1 S1                 0.0000
     11 ****         2.3801  -0.3997  -1.0579 C.3            1 S1                 0.0000
     12 ****         3.7887  -0.4178  -0.9814 O.3            1 S1                 0.0000
     13 ****        -2.3437  -2.2567   0.2994 H              1 S1                 0.0000
     14 ****         0.9276   2.4078  -0.4408 H              1 S1                 0.0000
     15 ****         0.7063   2.4804   1.3146 H              1 S1                 0.0000
     16 ****        -0.5398   3.1089   0.2366 H              1 S1                 0.0000
     17 ****        -4.5082   0.4440   0.3228 H              1 S1                 0.0000
     18 ****        -4.3314  -1.2305   0.3047 H              1 S1                 0.0000
     19 ****         2.1783   0.6403   0.8248 H              1 S1                 0.0000
     20 ****         2.1174  -1.0830   0.9825 H              1 S1                 0.0000
     21 ****         2.0391  -1.3201  -1.5327 H              1 S1                 0.0000
     22 ****         2.0704   0.4306  -1.6932 H              1 S1                 0.0000
     23 ****         4.1361  -0.5122  -1.8551 H              1 S1                 0.0000
     24 ****        -2.3616   1.8048   0.3453 LP             1 S1                 0.0000
     25 ****        -0.4754  -3.4343   0.2762 LP             1 S1                 0.0000
     26 ****         1.0787  -2.6698   0.2907 LP             1 S1                 0.0000
     27 ****         4.0857  -1.1870  -0.4156 LP             1 S1                 0.0000
     28 ****         4.1155   0.4375  -0.5793 LP             1 S1                 0.0000
@<TRIPOS>BOND
    1    1    2 1     
    2    1   14 1     
    3    1   15 1     
    4    1   16 1     
    5    2    9 2     
    6    2    3 1     
    7    3    4 2     
    8    4    5 1     
    9    4    6 1     
   10    5   17 1     
   11    5   18 1     
   12    6   13 1     
   13    6    7 am    
   14    7    8 2     
   15    7    9 1     
   16    9   10 1     
   17   10   11 1     
   18   10   19 1     
   19   10   20 1     
   20   11   12 1     
   21   11   21 1     
   22   11   22 1     
   23   12   23 1     
   24    3   24 1     
   25    8   25 1     
   26    8   26 1     
   27   12   27 1     
   28   12   28 1     
@<TRIPOS>SUBSTRUCTURE
      1 S1             1
@<TRIPOS>SET
LONE_PAIRS      STATIC     ATOMS    <user>   **** ""
5 24 25 26 27 28
DONOR_HYDROGENS      STATIC     ATOMS    <user>   **** ""
4 17 18 13 23
ATOM$BLUE        STATIC     ATOMS    COLORGROUP SYSTEM
5 24 25 26 27 28
ATOM$RED        STATIC     ATOMS    COLORGROUP SYSTEM
4 17 18 13 23
