AV-unprocessed.smi:2105|AV-procd|sdf|8591|dock9
  -GOLD-   2272011323D 1   1.00000     0.00000
 Structure written by MMmdl.
 42 43  0  0  0  0  0  0  0  0  1 V2000
  150.9930  140.9034  156.0198 C   0  0  0  0  0  0  0  0  0  0  0  0
  151.6618  139.6807  155.4019 C   0  0  0  0  0  0  0  0  0  0  0  0
  152.7692  139.7842  154.8748 O   0  0  0  0  0  0  0  0  0  0  0  0
  150.9776  138.5287  155.4751 N   0  0  0  0  0  0  0  0  0  0  0  0
  151.4442  137.2466  154.9591 C   0  0  0  0  0  0  0  0  0  0  0  0
  150.6591  136.0622  155.5586 C   0  0  0  0  0  0  0  0  0  0  0  0
  149.7719  135.4463  154.5780 N   0  0  0  0  0  0  0  0  0  0  0  0
  149.2627  134.2097  154.6591 C   0  0  0  0  0  0  0  0  0  0  0  0
  149.4398  133.4615  155.6206 O   0  0  0  0  0  0  0  0  0  0  0  0
  148.5722  133.9014  153.5495 N   0  0  0  0  0  0  0  0  0  0  0  0
  147.9606  132.6629  153.2061 C   0  0  0  0  0  0  0  0  0  0  0  0
  148.5431  131.4090  153.5103 C   0  0  0  0  0  0  0  0  0  0  0  0
  147.8585  130.2322  153.1557 C   0  0  0  0  0  0  0  0  0  0  0  0
  146.6103  130.3506  152.5183 C   0  0  0  0  0  0  0  0  0  0  0  0
  146.0349  131.5371  152.2354 N   0  0  0  0  0  0  0  0  0  0  0  0
  146.6934  132.6737  152.5690 C   0  0  0  0  0  0  0  0  0  0  0  0
  146.0642  133.8982  152.2812 N   0  0  0  0  0  0  0  0  0  0  0  0
  145.8294  134.2078  150.8755 C   0  0  0  0  0  0  0  0  0  0  0  0
  144.6178  135.1360  150.8626 C   0  0  0  0  0  0  0  0  0  0  0  0
  143.7872  134.6072  152.0265 C   0  0  0  0  0  0  0  0  0  0  0  0
  144.8411  134.1449  153.0372 C   0  0  0  0  0  0  0  0  0  0  0  0
  149.9969  141.0481  155.6011 H   0  0  0  0  0  0  0  0  0  0  0  0
  151.5777  141.8033  155.8267 H   0  0  0  0  0  0  0  0  0  0  0  0
  150.9015  140.7807  157.0991 H   0  0  0  0  0  0  0  0  0  0  0  0
  150.0756  138.5384  155.9286 H   0  0  0  0  0  0  0  0  0  0  0  0
  151.4440  137.2345  153.8678 H   0  0  0  0  0  0  0  0  0  0  0  0
  152.4890  137.1582  155.2574 H   0  0  0  0  0  0  0  0  0  0  0  0
  151.3590  135.3056  155.9170 H   0  0  0  0  0  0  0  0  0  0  0  0
  150.0808  136.3734  156.4294 H   0  0  0  0  0  0  0  0  0  0  0  0
  149.5756  135.9839  153.7463 H   0  0  0  0  0  0  0  0  0  0  0  0
  148.5920  134.5896  152.8111 H   0  0  0  0  0  0  0  0  0  0  0  0
  149.4905  131.3296  154.0206 H   0  0  0  0  0  0  0  0  0  0  0  0
  148.2783  129.2614  153.3735 H   0  0  0  0  0  0  0  0  0  0  0  0
  146.0546  129.4688  152.2352 H   0  0  0  0  0  0  0  0  0  0  0  0
  146.7029  134.6872  150.4331 H   0  0  0  0  0  0  0  0  0  0  0  0
  145.6144  133.3079  150.2984 H   0  0  0  0  0  0  0  0  0  0  0  0
  144.9310  136.1615  151.0647 H   0  0  0  0  0  0  0  0  0  0  0  0
  144.0831  135.1235  149.9128 H   0  0  0  0  0  0  0  0  0  0  0  0
  143.1037  135.3513  152.4368 H   0  0  0  0  0  0  0  0  0  0  0  0
  143.1963  133.7521  151.6950 H   0  0  0  0  0  0  0  0  0  0  0  0
  144.5021  133.2687  153.5920 H   0  0  0  0  0  0  0  0  0  0  0  0
  145.0446  134.9350  153.7607 H   0  0  0  0  0  0  0  0  0  0  0  0
  1  2  1  0  0  0  0
  1 22  1  0  0  0  0
  1 23  1  0  0  0  0
  1 24  1  0  0  0  0
  2  3  2  0  0  0  0
  2  4  1  0  0  0  0
  4  5  1  0  0  0  0
  4 25  1  0  0  0  0
  5  6  1  0  0  0  0
  5 26  1  0  0  0  0
  5 27  1  0  0  0  0
  6  7  1  0  0  0  0
  6 28  1  0  0  0  0
  6 29  1  0  0  0  0
  7  8  1  0  0  0  0
  7 30  1  0  0  0  0
  8  9  2  0  0  0  0
  8 10  1  0  0  0  0
 10 11  1  0  0  0  0
 10 31  1  0  0  0  0
 11 16  1  0  0  0  0
 11 12  2  0  0  0  0
 12 13  1  0  0  0  0
 12 32  1  0  0  0  0
 13 14  2  0  0  0  0
 13 33  1  0  0  0  0
 14 15  1  0  0  0  0
 14 34  1  0  0  0  0
 15 16  2  0  0  0  0
 16 17  1  0  0  0  0
 17 21  1  0  0  0  0
 17 18  1  0  0  0  0
 18 19  1  0  0  0  0
 18 35  1  0  0  0  0
 18 36  1  0  0  0  0
 19 20  1  0  0  0  0
 19 37  1  0  0  0  0
 19 38  1  0  0  0  0
 20 21  1  0  0  0  0
 20 39  1  0  0  0  0
 20 40  1  0  0  0  0
 21 41  1  0  0  0  0
 21 42  1  0  0  0  0
M  END
> <s_m_source_file>
AV-unprocessed.smi

> <i_m_source_file_index>
2105

> <i_lp_mmshare_version>
43012

> <i_f3d_flags>
0

> <s_epik_input>
W0NIM11DKD1PKVtOSF1bQ0gyXVtDSDJdW05IXUMoPU8pW05IXWMxW2NIXVtjSF1bY0hdbmMxTjJbQ0gyXVtDSDJdW0NIMl1bQ0gyXTI=

> <s_epik_cmdline>
J2VwaWtfcHl0aG9uJywgJy1waCcsICc3LjAnLCAnLXRuJywgJzgnLCAnLW1hJywgJzIwMCcsICctbWV0YWxfYmluZGluZycsICctaW1hZScsICc8aW5maWxlLm1hZT4nLCAnLW9tYWUnLCAnPG91dGZpbGUubWFlPic=

> <r_lp_tautomer_probability>
1

> <r_epik_Ionization_Penalty>
0.0963551

> <r_epik_Ionization_Penalty_Charging>
0

> <r_epik_Ionization_Penalty_Neutral>
0.0963551

> <r_epik_State_Penalty>
0.0859578

> <r_epik_Charging_Adjusted_Penalty>
0.0859578

> <i_epik_Tot_Q>
0

> <i_epik_Tot_abs_Q>
0

> <r_epik_Metal_State_Penalty>
0.0739032

> <b_epik_Metal_Only>
0

> <s_lp_Force_Field>
OPLS_2005

> <r_lp_Energy>
32.5144

> <b_lp_Chiralities_Consistent>
1

> <s_lp_Variant>
AV-unprocessed.smi:2105-1

> <Gold.Version>
5.8.1

> <Gold.Id.Protein>
6NUR|6NUR_protein|mol2

> <Gold.PLP.Fitness>
42.1450

> <Gold.PLP.PLP>
-34.9154

> <Gold.PLP.part.hbond>
-4.0000

> <Gold.PLP.part.metal>
0.0000

> <Gold.PLP.part.buried>
-3.3473

> <Gold.PLP.part.nonpolar>
-27.7636

> <Gold.PLP.part.repulsive>
0.4049

> <Gold.PLP.ligand.clash>
0.0000

> <Gold.PLP.ligand.torsion>
0.9455

> <Gold.PLP.Chemscore.Hbond>
3.0012

> <Gold.PLP.Chemscore.CHOScore>
0.0000

> <Gold.PLP.Chemscore.Metal>
0.0000

> <Gold.Chemscore.Hbonds>
donor molecule, donor type, donor heavy atom, donor atom, acceptor molecule, acceptor atom, score
      L1  H     7    30       P1  7948  1.00
      L1  H    10    31       P1  7948  0.85
      P1  H  7989  7998       L1     3  0.05
      P1  H  7997  8009       L1     3  1.00

> <Gold.PLP.Chemscore.Internal.Correction>
0.1168

> <Gold.Rescore>
     Score         DG    S(hbond)    S(metal)    S(lipo)     H(rot)  DE(clash)    DE(int)     intcor
     11.73     -12.72       1.46        0.00      62.85       1.94       0.02       0.97       ----

> <Gold.Chemscore.Fitness>
11.7311

> <Gold.Chemscore.DG>
-12.7245

> <Gold.Chemscore.ZeroCoef>
-5.4800

> <Gold.Chemscore.Hbond>
1.4571

> <Gold.Chemscore.Metal>
0.0000

> <Gold.Chemscore.Lipo>
62.8518

> <Gold.Chemscore.Internal_Hbond>
0.0000

> <Gold.Chemscore.DEClash>
0.0188

> <Gold.Chemscore.DEInternal>
0.9747

> <Gold.Chemscore.Rot>
1.9437

> <Gold.Chemscore.Internal.Correction>
   9.000000E+99

> <Gold.Chemscore.Hbonds>
donor molecule, donor type, donor heavy atom, donor atom, acceptor molecule, acceptor atom, score
      L1  H     7    30       P1  7948  0.38
      L1  H    10    31       P1  7948  0.15
      P1  H  7997  8009       L1     3  0.93

> <Gold.Chemscore.Hbond.Weighted>
-4.8667

> <Gold.Chemscore.Metal.Weighted>
-0.0000

> <Gold.Chemscore.Lipo.Weighted>
-7.3537

> <Gold.Chemscore.Internal_Hbond.Weighted>
0.0000

> <Gold.Chemscore.DEClash.Weighted>
0.0188

> <Gold.Chemscore.DEInternal.Weighted>
0.9747

> <Gold.Chemscore.Rot.Weighted>
4.9759

> <Gold.Chemscore.Internal.Correction.Weighted>
   9.000000E+99

> <Gold.Protein.RotatedTorsions>
[ 6907 6896 6895 6894 ] final -148.64 input  -60.11 | X-H torsion
[ 7974 7965 7964 7962 ] final  -54.60 input  175.53 | X-H torsion
[ 8008 7997 7996 7995 ] final -142.61 input   59.86 | X-H torsion
[ 10167 10162 10161 10158 ] final   -0.49 input  -65.29 | X-H torsion
[ 10718 10713 10712 10709 ] final  -84.81 input   66.30 | X-H torsion
[ 10763 10752 10751 10750 ] final  -52.71 input  -60.55 | X-H torsion
[ 11005 11000 10999 10996 ] final    5.96 input  -57.11 | X-H torsion

> <Gold.Protein.ActiveResidues>
 VAL166  LYS551  ARG553  GLY616  TRP617  ASP618  TYR619  PRO620  LYS621  CYS622 
 ASP623  PHE694  ASN695  SER759  ASP760  ASP761  ALA762  ILE779  LEU786  VAL792 
 PHE793  MET794  SER795  GLU796  ALA797  LYS798  CYS799  TRP800  GLU811  SER814 

> <Gold.Protein.RotatedAtoms>
  151.1727  133.4774  159.2593 H   0  0  0  0  0  0  0  0  0  0  0  0  # atno 6907 bound_to 6896
  151.1339  135.0144  159.8605 H   0  0  0  0  0  0  0  0  0  0  0  0  # atno 6908 bound_to 6896
  152.5461  134.1627  159.8617 H   0  0  0  0  0  0  0  0  0  0  0  0  # atno 6909 bound_to 6896
  145.8837  140.8125  142.9827 H   0  0  0  0  0  0  0  0  0  0  0  0  # atno 7974 bound_to 7965
  155.4970  140.0572  157.2945 H   0  0  0  0  0  0  0  0  0  0  0  0  # atno 8008 bound_to 7997
  154.4601  140.1992  156.0218 H   0  0  0  0  0  0  0  0  0  0  0  0  # atno 8009 bound_to 7997
  156.0874  140.3238  155.7776 H   0  0  0  0  0  0  0  0  0  0  0  0  # atno 8010 bound_to 7997
  140.6769  143.6888  150.8044 H   0  0  0  0  0  0  0  0  0  0  0  0  # atno 10167 bound_to 10162
  156.0002  130.4710  150.4466 H   0  0  0  0  0  0  0  0  0  0  0  0  # atno 10718 bound_to 10713
  154.1472  135.6496  153.4955 H   0  0  0  0  0  0  0  0  0  0  0  0  # atno 10763 bound_to 10752
  153.0148  135.5329  154.6845 H   0  0  0  0  0  0  0  0  0  0  0  0  # atno 10764 bound_to 10752
  154.6123  135.2955  155.0390 H   0  0  0  0  0  0  0  0  0  0  0  0  # atno 10765 bound_to 10752
  140.5648  134.0158  155.7985 H   0  0  0  0  0  0  0  0  0  0  0  0  # atno 11005 bound_to 11000
  144.6728  140.1423  143.7436 LP  0  0  0  0  0  0  0  0  0  0  0  0  # atno 17320 bound_to 7965
  145.8992  139.2421  143.1503 LP  0  0  0  0  0  0  0  0  0  0  0  0  # atno 17321 bound_to 7965
  140.0583  143.5180  152.2640 LP  0  0  0  0  0  0  0  0  0  0  0  0  # atno 17342 bound_to 10162
  139.6067  144.7598  151.3045 LP  0  0  0  0  0  0  0  0  0  0  0  0  # atno 17343 bound_to 10162
  157.2503  131.0545  151.2383 LP  0  0  0  0  0  0  0  0  0  0  0  0  # atno 17370 bound_to 10713
  157.3535  130.7094  149.6455 LP  0  0  0  0  0  0  0  0  0  0  0  0  # atno 17371 bound_to 10713
  141.1092  133.9643  157.2940 LP  0  0  0  0  0  0  0  0  0  0  0  0  # atno 17394 bound_to 11000
  139.9390  135.0193  156.8649 LP  0  0  0  0  0  0  0  0  0  0  0  0  # atno 17395 bound_to 11000

$$$$
