AV-unprocessed.smi:110|AV-procd|sdf|1064|dock8
  -GOLD-   2262018143D 1   1.00000     0.00000
 Structure written by MMmdl.
 46 50  0  0  0  0  0  0  0  0  1 V2000
  144.9628  143.0146  154.1284 O   0  0  0  0  0  0  0  0  0  0  0  0
  146.2580  142.9543  153.5695 C   0  0  0  0  0  0  0  0  0  0  0  0
  147.1508  141.8533  154.1809 C   0  0  2  0  0  0  0  0  0  0  0  0
  148.5083  141.9373  153.7724 O   0  0  0  0  0  0  0  0  0  0  0  0
  149.1754  140.7833  154.1947 C   0  0  1  0  0  0  0  0  0  0  0  0
  149.8865  141.1012  155.4748 N   0  0  0  0  0  0  0  0  0  0  0  0
  149.6307  142.0908  156.4001 C   0  0  0  0  0  0  0  0  0  0  0  0
  150.4390  142.1171  157.4248 N   0  0  0  0  0  0  0  0  0  0  0  0
  151.3419  141.0894  157.1779 C   0  0  0  0  0  0  0  0  0  0  0  0
  152.4722  140.5607  157.8653 C   0  0  0  0  0  0  0  0  0  0  0  0
  152.9419  141.0240  159.0472 N   0  0  0  0  0  0  0  0  0  0  0  0
  153.5822  140.0839  159.9786 C   0  0  0  0  0  0  0  0  0  0  0  0
  153.5757  140.7339  161.3751 C   0  0  0  0  0  0  0  0  0  0  0  0
  152.9958  142.0756  161.0629 C   0  0  0  0  0  0  0  0  0  0  0  0
  152.8021  143.1474  161.9517 C   0  0  0  0  0  0  0  0  0  0  0  0
  152.2569  144.3447  161.4407 C   0  0  0  0  0  0  0  0  0  0  0  0
  151.9290  144.4524  160.0691 C   0  0  0  0  0  0  0  0  0  0  0  0
  152.1345  143.3627  159.1944 C   0  0  0  0  0  0  0  0  0  0  0  0
  152.6586  142.1619  159.7158 C   0  0  0  0  0  0  0  0  0  0  0  0
  153.0912  139.4824  157.3204 N   0  0  0  0  0  0  0  0  0  0  0  0
  152.6646  138.9776  156.1594 C   0  0  0  0  0  0  0  0  0  0  0  0
  151.6441  139.3800  155.4001 N   0  0  0  0  0  0  0  0  0  0  0  0
  150.9968  140.4433  155.9575 C   0  0  0  0  0  0  0  0  0  0  0  0
  148.1030  139.6968  154.4436 C   0  0  2  0  0  0  0  0  0  0  0  0
  148.3635  138.4900  153.7510 O   0  0  0  0  0  0  0  0  0  0  0  0
  146.8001  140.3706  154.0004 C   0  0  2  0  0  0  0  0  0  0  0  0
  146.4645  140.0577  152.6597 O   0  0  0  0  0  0  0  0  0  0  0  0
  147.1514  142.0425  155.2559 H   0  0  0  0  0  0  0  0  0  0  0  0
  149.9654  140.5005  153.4977 H   0  0  0  0  0  0  0  0  0  0  0  0
  148.0468  139.4810  155.5118 H   0  0  0  0  0  0  0  0  0  0  0  0
  145.9614  140.0810  154.6341 H   0  0  0  0  0  0  0  0  0  0  0  0
  145.0341  143.3136  155.0222 H   0  0  0  0  0  0  0  0  0  0  0  0
  146.1686  142.8047  152.4932 H   0  0  0  0  0  0  0  0  0  0  0  0
  146.7286  143.9271  153.7135 H   0  0  0  0  0  0  0  0  0  0  0  0
  148.8202  142.7978  156.3006 H   0  0  0  0  0  0  0  0  0  0  0  0
  153.0533  139.1298  159.9907 H   0  0  0  0  0  0  0  0  0  0  0  0
  154.6049  139.8936  159.6506 H   0  0  0  0  0  0  0  0  0  0  0  0
  152.9356  140.1954  162.0744 H   0  0  0  0  0  0  0  0  0  0  0  0
  154.5784  140.8241  161.7942 H   0  0  0  0  0  0  0  0  0  0  0  0
  153.0671  143.0591  162.9949 H   0  0  0  0  0  0  0  0  0  0  0  0
  152.0971  145.1860  162.0989 H   0  0  0  0  0  0  0  0  0  0  0  0
  151.5228  145.3769  159.6860 H   0  0  0  0  0  0  0  0  0  0  0  0
  151.8963  143.4575  158.1453 H   0  0  0  0  0  0  0  0  0  0  0  0
  153.2190  138.1291  155.7865 H   0  0  0  0  0  0  0  0  0  0  0  0
  148.4106  137.7873  154.3808 H   0  0  0  0  0  0  0  0  0  0  0  0
  145.5238  139.9871  152.5946 H   0  0  0  0  0  0  0  0  0  0  0  0
  1  2  1  0  0  0  0
  1 32  1  0  0  0  0
  2  3  1  0  0  0  0
  2 33  1  0  0  0  0
  2 34  1  0  0  0  0
  3 28  1  0  0  0  0
  3 26  1  0  0  0  0
  3  4  1  0  0  0  0
  4  5  1  0  0  0  0
  5 29  1  0  0  0  0
  5  6  1  0  0  0  0
  5 24  1  0  0  0  0
  6 23  1  0  0  0  0
  6  7  1  0  0  0  0
  7  8  2  0  0  0  0
  7 35  1  0  0  0  0
  8  9  1  0  0  0  0
  9 23  2  0  0  0  0
  9 10  1  0  0  0  0
 10 11  1  0  0  0  0
 10 20  2  0  0  0  0
 11 19  1  0  0  0  0
 11 12  1  0  0  0  0
 12 13  1  0  0  0  0
 12 36  1  0  0  0  0
 12 37  1  0  0  0  0
 13 14  1  0  0  0  0
 13 38  1  0  0  0  0
 13 39  1  0  0  0  0
 14 19  2  0  0  0  0
 14 15  1  0  0  0  0
 15 16  2  0  0  0  0
 15 40  1  0  0  0  0
 16 17  1  0  0  0  0
 16 41  1  0  0  0  0
 17 18  2  0  0  0  0
 17 42  1  0  0  0  0
 18 19  1  0  0  0  0
 18 43  1  0  0  0  0
 20 21  1  0  0  0  0
 21 22  2  0  0  0  0
 21 44  1  0  0  0  0
 22 23  1  0  0  0  0
 24 30  1  0  0  0  0
 24 25  1  0  0  0  0
 24 26  1  0  0  0  0
 25 45  1  0  0  0  0
 26 31  1  0  0  0  0
 26 27  1  0  0  0  0
 27 46  1  0  0  0  0
M  END
> <s_m_source_file>
AV-unprocessed.smi

> <i_m_source_file_index>
110

> <i_lp_mmshare_version>
43012

> <i_f3d_flags>
0

> <s_epik_input>
W09IXVtDSDJdW0NASF0xT1tDQEhdKFtDQEhdKFtPSF0pW0NAQEhdMVtPSF0pbihbY0hdbjIpYyhjMjMpbltjSF1uYzNOKFtDSDJdW0NIMl00KWMoYzQ1KVtjSF1bY0hdW2NIXVtjSF01

> <s_epik_cmdline>
J2VwaWtfcHl0aG9uJywgJy1waCcsICc3LjAnLCAnLXRuJywgJzgnLCAnLW1hJywgJzIwMCcsICctbWV0YWxfYmluZGluZycsICctaW1hZScsICc8aW5maWxlLm1hZT4nLCAnLW9tYWUnLCAnPG91dGZpbGUubWFlPic=

> <r_lp_tautomer_probability>
1

> <r_epik_Ionization_Penalty>
0.00068475

> <r_epik_Ionization_Penalty_Charging>
0

> <r_epik_Ionization_Penalty_Neutral>
0.00068475

> <r_epik_State_Penalty>
0.000417442

> <r_epik_Charging_Adjusted_Penalty>
0.000417442

> <i_epik_Tot_Q>
0

> <i_epik_Tot_abs_Q>
0

> <r_epik_Metal_State_Penalty>
-0

> <b_epik_Metal_Only>
0

> <s_epik_Chemistry_Notes>
This compound contains an acetal/aminal-like group ( X-CH(R)-Y where X, Y are N, S, or O) that may be acid/base labile, releasing an aldehyde.

> <s_lp_Force_Field>
OPLS_2005

> <r_lp_Energy>
64.7575

> <b_lp_Chiralities_Consistent>
1

> <s_lp_Variant>
AV-unprocessed.smi:110-2

> <Gold.Version>
5.8.1

> <Gold.Id.Protein>
6NUR|6NUR_protein|mol2

> <Gold.PLP.Fitness>
63.5786

> <Gold.PLP.PLP>
-55.0572

> <Gold.PLP.part.hbond>
-5.4995

> <Gold.PLP.part.metal>
0.0000

> <Gold.PLP.part.buried>
-1.5719

> <Gold.PLP.part.nonpolar>
-46.6389

> <Gold.PLP.part.repulsive>
0.2884

> <Gold.PLP.ligand.clash>
0.0309

> <Gold.PLP.ligand.torsion>
0.9536

> <Gold.PLP.Chemscore.Hbond>
2.4864

> <Gold.PLP.Chemscore.CHOScore>
0.9675

> <Gold.PLP.Chemscore.Metal>
0.0000

> <Gold.Chemscore.Hbonds>
donor molecule, donor type, donor heavy atom, donor atom, acceptor molecule, acceptor atom, score
      L1  H    27    46       P1 10175  1.00
      P1  H  7997  8010       L1    20  0.99
      P1  H  8011  8017       L1     4  0.39
      L1  C     7    35       P1  8028  0.97

> <Gold.PLP.Chemscore.Internal.Correction>
0.0976

> <Gold.Rescore>
     Score         DG    S(hbond)    S(metal)    S(lipo)     H(rot)  DE(clash)    DE(int)     intcor
     11.29     -15.13       1.43        0.00     115.66       3.38       1.39       2.45       ----

> <Gold.Chemscore.Fitness>
11.2886

> <Gold.Chemscore.DG>
-15.1348

> <Gold.Chemscore.ZeroCoef>
-5.4800

> <Gold.Chemscore.Hbond>
1.4324

> <Gold.Chemscore.Metal>
0.0000

> <Gold.Chemscore.Lipo>
115.6638

> <Gold.Chemscore.Internal_Hbond>
0.0000

> <Gold.Chemscore.DEClash>
1.3936

> <Gold.Chemscore.DEInternal>
2.4526

> <Gold.Chemscore.Rot>
3.3837

> <Gold.Chemscore.Internal.Correction>
   9.000000E+99

> <Gold.Chemscore.Hbonds>
donor molecule, donor type, donor heavy atom, donor atom, acceptor molecule, acceptor atom, score
      L1  H    27    46       P1 10175  0.96
      P1  H  7997  8010       L1    20  0.21
      P1  H  8011  8017       L1     4  0.07

> <Gold.Chemscore.Hbond.Weighted>
-4.7843

> <Gold.Chemscore.Metal.Weighted>
-0.0000

> <Gold.Chemscore.Lipo.Weighted>
-13.5327

> <Gold.Chemscore.Internal_Hbond.Weighted>
0.0000

> <Gold.Chemscore.DEClash.Weighted>
1.3936

> <Gold.Chemscore.DEInternal.Weighted>
2.4526

> <Gold.Chemscore.Rot.Weighted>
8.6622

> <Gold.Chemscore.Internal.Correction.Weighted>
   9.000000E+99

> <Gold.Protein.RotatedTorsions>
[ 6907 6896 6895 6894 ] final  157.27 input  -60.11 | X-H torsion
[ 7974 7965 7964 7962 ] final -161.36 input  175.53 | X-H torsion
[ 8008 7997 7996 7995 ] final   31.76 input   59.86 | X-H torsion
[ 10167 10162 10161 10158 ] final  121.87 input  -65.29 | X-H torsion
[ 10718 10713 10712 10709 ] final  126.75 input   66.30 | X-H torsion
[ 10763 10752 10751 10750 ] final   50.36 input  -60.55 | X-H torsion
[ 11005 11000 10999 10996 ] final  -13.52 input  -57.11 | X-H torsion

> <Gold.Protein.ActiveResidues>
 VAL166  LYS551  ARG553  GLY616  TRP617  ASP618  TYR619  PRO620  LYS621  CYS622 
 ASP623  PHE694  ASN695  SER759  ASP760  ASP761  ALA762  ILE779  LEU786  VAL792 
 PHE793  MET794  SER795  GLU796  ALA797  LYS798  CYS799  TRP800  GLU811  SER814 

> <Gold.Protein.RotatedAtoms>
  152.0176  133.3886  159.4244 H   0  0  0  0  0  0  0  0  0  0  0  0  # atno 6907 bound_to 6896
  150.6893  134.3661  159.4981 H   0  0  0  0  0  0  0  0  0  0  0  0  # atno 6908 bound_to 6896
  152.1431  134.9047  160.0603 H   0  0  0  0  0  0  0  0  0  0  0  0  # atno 6909 bound_to 6896
  144.7394  140.3409  143.6135 H   0  0  0  0  0  0  0  0  0  0  0  0  # atno 7974 bound_to 7965
  155.1116  140.3239  155.4520 H   0  0  0  0  0  0  0  0  0  0  0  0  # atno 8008 bound_to 7997
  156.2689  140.2043  156.6187 H   0  0  0  0  0  0  0  0  0  0  0  0  # atno 8009 bound_to 7997
  154.6752  140.0532  157.0195 H   0  0  0  0  0  0  0  0  0  0  0  0  # atno 8010 bound_to 7997
  139.5893  144.7019  151.3331 H   0  0  0  0  0  0  0  0  0  0  0  0  # atno 10167 bound_to 10162
  157.5392  131.1097  150.8886 H   0  0  0  0  0  0  0  0  0  0  0  0  # atno 10718 bound_to 10713
  152.9785  135.5881  154.4240 H   0  0  0  0  0  0  0  0  0  0  0  0  # atno 10763 bound_to 10752
  154.3861  135.2767  155.2185 H   0  0  0  0  0  0  0  0  0  0  0  0  # atno 10764 bound_to 10752
  154.4077  135.6088  153.5989 H   0  0  0  0  0  0  0  0  0  0  0  0  # atno 10765 bound_to 10752
  140.7770  133.8393  155.9257 H   0  0  0  0  0  0  0  0  0  0  0  0  # atno 11005 bound_to 11000
  145.7375  139.1754  143.2395 LP  0  0  0  0  0  0  0  0  0  0  0  0  # atno 17320 bound_to 7965
  146.1159  140.7370  142.9481 LP  0  0  0  0  0  0  0  0  0  0  0  0  # atno 17321 bound_to 7965
  140.7159  143.7268  150.7654 LP  0  0  0  0  0  0  0  0  0  0  0  0  # atno 17342 bound_to 10162
  140.0820  143.4960  152.2525 LP  0  0  0  0  0  0  0  0  0  0  0  0  # atno 17343 bound_to 10162
  156.9444  130.5396  149.5281 LP  0  0  0  0  0  0  0  0  0  0  0  0  # atno 17370 bound_to 10713
  156.0483  130.5556  150.8931 LP  0  0  0  0  0  0  0  0  0  0  0  0  # atno 17371 bound_to 10713
  140.9519  134.1767  157.4721 LP  0  0  0  0  0  0  0  0  0  0  0  0  # atno 17394 bound_to 11000
  139.8748  134.9912  156.5540 LP  0  0  0  0  0  0  0  0  0  0  0  0  # atno 17395 bound_to 11000

$$$$
