AV-unprocessed.smi:3030|AV-procd|sdf|11538|dock10
  -GOLD-   2272016483D 1   1.00000     0.00000
 Structure written by MMmdl.
 52 53  0  0  0  0  0  0  0  0  1 V2000
  148.8417  131.2215  161.0360 C   0  0  0  0  0  0  0  0  0  0  0  0
  147.4780  131.8039  161.4238 C   0  0  0  0  0  0  0  0  0  0  0  0
  147.4856  133.2593  161.3970 N   0  0  0  0  0  0  0  0  0  0  0  0
  147.2328  134.0043  162.5443 C   0  0  0  0  0  0  0  0  0  0  0  0
  147.1665  135.3493  162.5711 C   0  0  0  0  0  0  0  0  0  0  0  0
  147.3655  136.1087  161.3202 C   0  0  0  0  0  0  0  0  0  0  0  0
  147.3122  137.3386  161.3089 O   0  0  0  0  0  0  0  0  0  0  0  0
  147.6304  135.3125  160.0923 C   0  0  0  0  0  0  0  0  0  0  0  0
  147.8280  136.0446  158.9099 N   0  0  0  0  0  0  0  0  0  0  0  0
  148.5028  137.1926  158.7170 C   0  0  0  0  0  0  0  0  0  0  0  0
  149.1181  137.8235  159.5759 O   0  0  0  0  0  0  0  0  0  0  0  0
  148.4274  137.5757  157.4348 N   0  0  0  0  0  0  0  0  0  0  0  0
  149.0344  138.7784  156.8677 C   0  0  1  0  0  0  0  0  0  0  0  0
  148.3906  140.0215  157.5153 C   0  0  0  0  0  0  0  0  0  0  0  0
  149.0105  141.3303  156.9960 C   0  0  1  0  0  0  0  0  0  0  0  0
  148.3584  142.5579  157.6482 C   0  0  0  0  0  0  0  0  0  0  0  0
  150.5326  141.3168  157.2149 C   0  0  0  0  0  0  0  0  0  0  0  0
  151.1843  140.0919  156.5560 C   0  0  0  0  0  0  0  0  0  0  0  0
  150.5747  138.7659  157.0696 C   0  0  2  0  0  0  0  0  0  0  0  0
  151.2765  137.5003  156.4907 C   0  0  0  0  0  0  0  0  0  0  0  0
  152.7485  137.3944  156.9253 C   0  0  0  0  0  0  0  0  0  0  0  0
  151.1487  137.3529  154.9632 C   0  0  0  0  0  0  0  0  0  0  0  0
  147.6735  133.9604  160.2074 C   0  0  0  0  0  0  0  0  0  0  0  0
  148.8189  130.1321  161.0620 H   0  0  0  0  0  0  0  0  0  0  0  0
  149.6215  131.5551  161.7213 H   0  0  0  0  0  0  0  0  0  0  0  0
  149.1275  131.5250  160.0284 H   0  0  0  0  0  0  0  0  0  0  0  0
  146.7097  131.4314  160.7451 H   0  0  0  0  0  0  0  0  0  0  0  0
  147.1979  131.4593  162.4198 H   0  0  0  0  0  0  0  0  0  0  0  0
  147.0961  133.4130  163.4382 H   0  0  0  0  0  0  0  0  0  0  0  0
  146.9704  135.8861  163.4877 H   0  0  0  0  0  0  0  0  0  0  0  0
  147.4025  135.6345  158.0912 H   0  0  0  0  0  0  0  0  0  0  0  0
  147.9024  136.9939  156.7984 H   0  0  0  0  0  0  0  0  0  0  0  0
  148.8304  138.8184  155.7967 H   0  0  0  0  0  0  0  0  0  0  0  0
  147.3175  140.0240  157.3178 H   0  0  0  0  0  0  0  0  0  0  0  0
  148.5023  139.9700  158.5995 H   0  0  0  0  0  0  0  0  0  0  0  0
  148.8238  141.3900  155.9227 H   0  0  0  0  0  0  0  0  0  0  0  0
  148.5052  142.5583  158.7288 H   0  0  0  0  0  0  0  0  0  0  0  0
  147.2849  142.5789  157.4585 H   0  0  0  0  0  0  0  0  0  0  0  0
  148.7801  143.4830  157.2543 H   0  0  0  0  0  0  0  0  0  0  0  0
  150.9754  142.2272  156.8094 H   0  0  0  0  0  0  0  0  0  0  0  0
  150.7538  141.3163  158.2833 H   0  0  0  0  0  0  0  0  0  0  0  0
  151.0652  140.1672  155.4749 H   0  0  0  0  0  0  0  0  0  0  0  0
  152.2555  140.1234  156.7512 H   0  0  0  0  0  0  0  0  0  0  0  0
  150.7438  138.7426  158.1477 H   0  0  0  0  0  0  0  0  0  0  0  0
  150.7898  136.6274  156.9261 H   0  0  0  0  0  0  0  0  0  0  0  0
  153.3671  138.1615  156.4596 H   0  0  0  0  0  0  0  0  0  0  0  0
  153.1670  136.4276  156.6441 H   0  0  0  0  0  0  0  0  0  0  0  0
  152.8502  137.4909  158.0066 H   0  0  0  0  0  0  0  0  0  0  0  0
  151.6446  138.1661  154.4338 H   0  0  0  0  0  0  0  0  0  0  0  0
  150.1071  137.3288  154.6443 H   0  0  0  0  0  0  0  0  0  0  0  0
  151.6053  136.4220  154.6260 H   0  0  0  0  0  0  0  0  0  0  0  0
  147.8754  133.3050  159.3756 H   0  0  0  0  0  0  0  0  0  0  0  0
  1  2  1  0  0  0  0
  1 24  1  0  0  0  0
  1 25  1  0  0  0  0
  1 26  1  0  0  0  0
  2  3  1  0  0  0  0
  2 27  1  0  0  0  0
  2 28  1  0  0  0  0
  3 23  1  0  0  0  0
  3  4  1  0  0  0  0
  4  5  2  0  0  0  0
  4 29  1  0  0  0  0
  5  6  1  0  0  0  0
  5 30  1  0  0  0  0
  6  7  2  0  0  0  0
  6  8  1  0  0  0  0
  8  9  1  0  0  0  0
  8 23  2  0  0  0  0
  9 10  1  0  0  0  0
  9 31  1  0  0  0  0
 10 11  2  0  0  0  0
 10 12  1  0  0  0  0
 12 13  1  0  0  0  0
 12 32  1  0  0  0  0
 13 19  1  0  0  0  0
 13 14  1  0  0  0  0
 13 33  1  0  0  0  0
 14 15  1  0  0  0  0
 14 34  1  0  0  0  0
 14 35  1  0  0  0  0
 15 16  1  0  0  0  0
 15 17  1  0  0  0  0
 15 36  1  0  0  0  0
 16 37  1  0  0  0  0
 16 38  1  0  0  0  0
 16 39  1  0  0  0  0
 17 18  1  0  0  0  0
 17 40  1  0  0  0  0
 17 41  1  0  0  0  0
 18 19  1  0  0  0  0
 18 42  1  0  0  0  0
 18 43  1  0  0  0  0
 19 20  1  0  0  0  0
 19 44  1  0  0  0  0
 20 21  1  0  0  0  0
 20 22  1  0  0  0  0
 20 45  1  0  0  0  0
 21 46  1  0  0  0  0
 21 47  1  0  0  0  0
 21 48  1  0  0  0  0
 22 49  1  0  0  0  0
 22 50  1  0  0  0  0
 22 51  1  0  0  0  0
 23 52  1  0  0  0  0
M  END
> <s_m_source_file>
AV-unprocessed.smi

> <i_m_source_file_index>
3030

> <i_lp_mmshare_version>
43012

> <i_f3d_flags>
0

> <s_epik_input>
W0NIM11bQ0gyXW4xW2NIXVtjSF1jKD1PKWMoW2NIXTEpW05IXUMoPU8pW05IXVtDQEBIXTJbQ0gyXVtDQEBIXShbQ0gzXSlbQ0gyXVtDSDJdW0NASF0yW0NIXShbQ0gzXSlbQ0gzXQ==

> <s_epik_cmdline>
J2VwaWtfcHl0aG9uJywgJy1waCcsICc3LjAnLCAnLXRuJywgJzgnLCAnLW1hJywgJzIwMCcsICctbWV0YWxfYmluZGluZycsICctaW1hZScsICc8aW5maWxlLm1hZT4nLCAnLW9tYWUnLCAnPG91dGZpbGUubWFlPic=

> <r_lp_tautomer_probability>
1

> <r_epik_Ionization_Penalty>
0.00147933

> <r_epik_Ionization_Penalty_Charging>
0.00145753

> <r_epik_Ionization_Penalty_Neutral>
2.17987e-05

> <r_epik_State_Penalty>
0.00097457

> <r_epik_Charging_Adjusted_Penalty>
0.0024321

> <i_epik_Tot_Q>
0

> <i_epik_Tot_abs_Q>
0

> <r_epik_Metal_State_Penalty>
-0

> <b_epik_Metal_Only>
0

> <s_lp_Force_Field>
OPLS_2005

> <r_lp_Energy>
9.50568

> <b_lp_Chiralities_Consistent>
1

> <s_lp_Variant>
AV-unprocessed.smi:3030-6

> <Gold.Version>
5.8.1

> <Gold.Id.Protein>
6NUR|6NUR_protein|mol2

> <Gold.PLP.Fitness>
39.6817

> <Gold.PLP.PLP>
-34.9820

> <Gold.PLP.part.hbond>
-3.6145

> <Gold.PLP.part.metal>
0.0000

> <Gold.PLP.part.buried>
-3.0739

> <Gold.PLP.part.nonpolar>
-27.7244

> <Gold.PLP.part.repulsive>
0.1223

> <Gold.PLP.ligand.clash>
0.0000

> <Gold.PLP.ligand.torsion>
0.3727

> <Gold.PLP.Chemscore.Hbond>
1.7920

> <Gold.PLP.Chemscore.CHOScore>
0.0000

> <Gold.PLP.Chemscore.Metal>
0.0000

> <Gold.Chemscore.Hbonds>
donor molecule, donor type, donor heavy atom, donor atom, acceptor molecule, acceptor atom, score
      P1  H  6931  6943       L1     7  0.79
      P1  H  6934  6947       L1     7  0.99

> <Gold.PLP.Chemscore.Internal.Correction>
0.0691

> <Gold.Rescore>
     Score         DG    S(hbond)    S(metal)    S(lipo)     H(rot)  DE(clash)    DE(int)     intcor
     11.92     -17.10       1.71        0.00      78.34       1.27       0.06       5.12       ----

> <Gold.Chemscore.Fitness>
11.9190

> <Gold.Chemscore.DG>
-17.0954

> <Gold.Chemscore.ZeroCoef>
-5.4800

> <Gold.Chemscore.Hbond>
1.7058

> <Gold.Chemscore.Metal>
0.0000

> <Gold.Chemscore.Lipo>
78.3380

> <Gold.Chemscore.Internal_Hbond>
0.0000

> <Gold.Chemscore.DEClash>
0.0601

> <Gold.Chemscore.DEInternal>
5.1164

> <Gold.Chemscore.Rot>
1.2685

> <Gold.Chemscore.Internal.Correction>
   9.000000E+99

> <Gold.Chemscore.Hbonds>
donor molecule, donor type, donor heavy atom, donor atom, acceptor molecule, acceptor atom, score
      P1  H  6931  6943       L1     7  0.67
      P1  H  6934  6947       L1     7  0.94

> <Gold.Chemscore.Hbond.Weighted>
-5.6973

> <Gold.Chemscore.Metal.Weighted>
-0.0000

> <Gold.Chemscore.Lipo.Weighted>
-9.1655

> <Gold.Chemscore.Internal_Hbond.Weighted>
0.0000

> <Gold.Chemscore.DEClash.Weighted>
0.0601

> <Gold.Chemscore.DEInternal.Weighted>
5.1164

> <Gold.Chemscore.Rot.Weighted>
3.2474

> <Gold.Chemscore.Internal.Correction.Weighted>
   9.000000E+99

> <Gold.Protein.RotatedTorsions>
[ 6907 6896 6895 6894 ] final  -89.85 input  -60.11 | X-H torsion
[ 7974 7965 7964 7962 ] final -119.62 input  175.53 | X-H torsion
[ 8008 7997 7996 7995 ] final   68.88 input   59.86 | X-H torsion
[ 10167 10162 10161 10158 ] final  -89.77 input  -65.29 | X-H torsion
[ 10718 10713 10712 10709 ] final -149.12 input   66.30 | X-H torsion
[ 10763 10752 10751 10750 ] final   38.34 input  -60.55 | X-H torsion
[ 11005 11000 10999 10996 ] final   44.74 input  -57.11 | X-H torsion

> <Gold.Protein.ActiveResidues>
 VAL166  LYS551  ARG553  GLY616  TRP617  ASP618  TYR619  PRO620  LYS621  CYS622 
 ASP623  PHE694  ASN695  SER759  ASP760  ASP761  ALA762  ILE779  LEU786  VAL792 
 PHE793  MET794  SER795  GLU796  ALA797  LYS798  CYS799  TRP800  GLU811  SER814 

> <Gold.Protein.RotatedAtoms>
  150.6877  134.2524  159.4515 H   0  0  0  0  0  0  0  0  0  0  0  0  # atno 6907 bound_to 6896
  152.0460  134.9680  160.0583 H   0  0  0  0  0  0  0  0  0  0  0  0  # atno 6908 bound_to 6896
  152.1163  133.4293  159.4691 H   0  0  0  0  0  0  0  0  0  0  0  0  # atno 6909 bound_to 6896
  145.0605  140.8286  143.4155 H   0  0  0  0  0  0  0  0  0  0  0  0  # atno 7974 bound_to 7965
  155.7150  140.3494  155.4990 H   0  0  0  0  0  0  0  0  0  0  0  0  # atno 8008 bound_to 7997
  155.9321  140.1086  157.1145 H   0  0  0  0  0  0  0  0  0  0  0  0  # atno 8009 bound_to 7997
  154.4087  140.1229  156.4803 H   0  0  0  0  0  0  0  0  0  0  0  0  # atno 8010 bound_to 7997
  140.3615  143.2839  151.9609 H   0  0  0  0  0  0  0  0  0  0  0  0  # atno 10167 bound_to 10162
  156.4290  130.8066  151.2292 H   0  0  0  0  0  0  0  0  0  0  0  0  # atno 10718 bound_to 10713
  153.0004  135.6252  154.2290 H   0  0  0  0  0  0  0  0  0  0  0  0  # atno 10763 bound_to 10752
  154.2032  135.2803  155.2985 H   0  0  0  0  0  0  0  0  0  0  0  0  # atno 10764 bound_to 10752
  154.5667  135.5689  153.7116 H   0  0  0  0  0  0  0  0  0  0  0  0  # atno 10765 bound_to 10752
  140.1524  134.4445  155.8373 H   0  0  0  0  0  0  0  0  0  0  0  0  # atno 11005 bound_to 11000
  145.1415  139.2569  143.5487 LP  0  0  0  0  0  0  0  0  0  0  0  0  # atno 17320 bound_to 7965
  146.3524  140.1094  142.8604 LP  0  0  0  0  0  0  0  0  0  0  0  0  # atno 17321 bound_to 7965
  139.4813  144.5988  151.7642 LP  0  0  0  0  0  0  0  0  0  0  0  0  # atno 17342 bound_to 10162
  140.5122  144.1007  150.5998 LP  0  0  0  0  0  0  0  0  0  0  0  0  # atno 17343 bound_to 10162
  157.7508  131.0204  150.3708 LP  0  0  0  0  0  0  0  0  0  0  0  0  # atno 17370 bound_to 10713
  156.4041  130.3921  149.6938 LP  0  0  0  0  0  0  0  0  0  0  0  0  # atno 17371 bound_to 10713
  141.2200  133.6878  156.7445 LP  0  0  0  0  0  0  0  0  0  0  0  0  # atno 17394 bound_to 11000
  140.2589  134.8482  157.3739 LP  0  0  0  0  0  0  0  0  0  0  0  0  # atno 17395 bound_to 11000

$$$$
