AV-unprocessed.smi:3161|AV-procd|sdf|12062|dock3
  -GOLD-   2272017493D 1   1.00000     0.00000
 Structure written by MMmdl.
 40 41  0  0  0  0  0  0  0  0  1 V2000
  143.8361  144.5472  154.3111 C   0  0  0  0  0  0  0  0  0  0  0  0
  144.9189  143.5470  154.5973 C   0  0  0  0  0  0  0  0  0  0  0  0
  145.0410  142.6880  155.7262 C   0  0  0  0  0  0  0  0  0  0  0  0
  146.1165  141.9201  155.6747 N   0  0  0  0  0  0  0  0  0  0  0  0
  146.7239  142.2650  154.5190 N   0  0  0  0  0  0  0  0  0  0  0  0
  147.9615  141.6095  154.1263 C   0  0  0  0  0  0  0  0  0  0  0  0
  148.8361  141.1484  155.3204 C   0  0  1  0  0  0  0  0  0  0  0  0
  150.0719  140.3540  154.8696 C   0  0  0  0  0  0  0  0  0  0  0  0
  149.2604  142.2540  156.1865 N   0  0  0  0  0  0  0  0  0  0  0  0
  149.6069  141.8853  157.5580 C   0  0  0  0  0  0  0  0  0  0  0  0
  150.9709  142.4680  157.9528 C   0  0  1  0  0  0  0  0  0  0  0  0
  150.9597  144.0086  157.9211 C   0  0  0  0  0  0  0  0  0  0  0  0
  152.2992  144.5694  158.4124 C   0  0  0  0  0  0  0  0  0  0  0  0
  152.6348  143.9750  159.7839 C   0  0  0  0  0  0  0  0  0  0  0  0
  152.5556  142.4411  159.7339 C   0  0  0  0  0  0  0  0  0  0  0  0
  151.2673  142.0376  159.2805 O   0  0  0  0  0  0  0  0  0  0  0  0
  146.0180  143.2402  153.8461 C   0  0  0  0  0  0  0  0  0  0  0  0
  143.0851  144.5697  155.1011 H   0  0  0  0  0  0  0  0  0  0  0  0
  143.3159  144.3210  153.3803 H   0  0  0  0  0  0  0  0  0  0  0  0
  144.2359  145.5573  154.2200 H   0  0  0  0  0  0  0  0  0  0  0  0
  144.3811  142.5994  156.5767 H   0  0  0  0  0  0  0  0  0  0  0  0
  147.7281  140.7819  153.4565 H   0  0  0  0  0  0  0  0  0  0  0  0
  148.5305  142.3163  153.5211 H   0  0  0  0  0  0  0  0  0  0  0  0
  148.2266  140.4677  155.9160 H   0  0  0  0  0  0  0  0  0  0  0  0
  149.7890  139.5205  154.2263 H   0  0  0  0  0  0  0  0  0  0  0  0
  150.6041  139.9402  155.7266 H   0  0  0  0  0  0  0  0  0  0  0  0
  150.7749  140.9787  154.3176 H   0  0  0  0  0  0  0  0  0  0  0  0
  150.0453  142.7373  155.7610 H   0  0  0  0  0  0  0  0  0  0  0  0
  148.8520  142.2664  158.2450 H   0  0  0  0  0  0  0  0  0  0  0  0
  149.6209  140.8007  157.6730 H   0  0  0  0  0  0  0  0  0  0  0  0
  151.7354  142.1000  157.2654 H   0  0  0  0  0  0  0  0  0  0  0  0
  150.7560  144.3647  156.9107 H   0  0  0  0  0  0  0  0  0  0  0  0
  150.1535  144.3839  158.5529 H   0  0  0  0  0  0  0  0  0  0  0  0
  153.0866  144.3182  157.7005 H   0  0  0  0  0  0  0  0  0  0  0  0
  152.2599  145.6576  158.4675 H   0  0  0  0  0  0  0  0  0  0  0  0
  153.6281  144.2932  160.1015 H   0  0  0  0  0  0  0  0  0  0  0  0
  151.9316  144.3515  160.5280 H   0  0  0  0  0  0  0  0  0  0  0  0
  153.3280  142.0313  159.0813 H   0  0  0  0  0  0  0  0  0  0  0  0
  152.7246  142.0250  160.7272 H   0  0  0  0  0  0  0  0  0  0  0  0
  146.3558  143.6341  152.8988 H   0  0  0  0  0  0  0  0  0  0  0  0
  1  2  1  0  0  0  0
  1 18  1  0  0  0  0
  1 19  1  0  0  0  0
  1 20  1  0  0  0  0
  2 17  2  0  0  0  0
  2  3  1  0  0  0  0
  3  4  2  0  0  0  0
  3 21  1  0  0  0  0
  4  5  1  0  0  0  0
  5  6  1  0  0  0  0
  5 17  1  0  0  0  0
  6  7  1  0  0  0  0
  6 22  1  0  0  0  0
  6 23  1  0  0  0  0
  7  8  1  0  0  0  0
  7  9  1  0  0  0  0
  7 24  1  0  0  0  0
  8 25  1  0  0  0  0
  8 26  1  0  0  0  0
  8 27  1  0  0  0  0
  9 10  1  0  0  0  0
  9 28  1  0  0  0  0
 10 11  1  0  0  0  0
 10 29  1  0  0  0  0
 10 30  1  0  0  0  0
 11 16  1  0  0  0  0
 11 12  1  0  0  0  0
 11 31  1  0  0  0  0
 12 13  1  0  0  0  0
 12 32  1  0  0  0  0
 12 33  1  0  0  0  0
 13 14  1  0  0  0  0
 13 34  1  0  0  0  0
 13 35  1  0  0  0  0
 14 15  1  0  0  0  0
 14 36  1  0  0  0  0
 14 37  1  0  0  0  0
 15 16  1  0  0  0  0
 15 38  1  0  0  0  0
 15 39  1  0  0  0  0
 17 40  1  0  0  0  0
M  END
> <s_m_source_file>
AV-unprocessed.smi

> <i_m_source_file_index>
3161

> <i_lp_mmshare_version>
43012

> <i_f3d_flags>
0

> <s_epik_input>
W0NIM11jMVtjSF1ubihbY0hdMSlbQ0gyXVtDQEhdKFtDSDNdKVtOSF1bQ0gyXVtDQEBIXTJbQ0gyXVtDSDJdW0NIMl1bQ0gyXU8y

> <s_epik_cmdline>
J2VwaWtfcHl0aG9uJywgJy1waCcsICc3LjAnLCAnLXRuJywgJzgnLCAnLW1hJywgJzIwMCcsICctbWV0YWxfYmluZGluZycsICctaW1hZScsICc8aW5maWxlLm1hZT4nLCAnLW9tYWUnLCAnPG91dGZpbGUubWFlPic=

> <r_lp_tautomer_probability>
1

> <r_epik_Ionization_Penalty>
2.51986

> <r_epik_Ionization_Penalty_Charging>
0

> <r_epik_Ionization_Penalty_Neutral>
2.51986

> <r_epik_State_Penalty>
2.68614

> <r_epik_Charging_Adjusted_Penalty>
2.68614

> <i_epik_Tot_Q>
0

> <i_epik_Tot_abs_Q>
0

> <r_epik_Metal_State_Penalty>
2.68606

> <b_epik_Metal_Only>
0

> <s_lp_Force_Field>
OPLS_2005

> <r_lp_Energy>
14.0123

> <b_lp_Chiralities_Consistent>
1

> <s_lp_Variant>
AV-unprocessed.smi:3161-8

> <Gold.Version>
5.8.1

> <Gold.Id.Protein>
6NUR|6NUR_protein|mol2

> <Gold.PLP.Fitness>
40.3263

> <Gold.PLP.PLP>
-42.0587

> <Gold.PLP.part.hbond>
-1.0944

> <Gold.PLP.part.metal>
0.0000

> <Gold.PLP.part.buried>
-4.4853

> <Gold.PLP.part.nonpolar>
-37.0286

> <Gold.PLP.part.repulsive>
0.1279

> <Gold.PLP.ligand.clash>
0.0000

> <Gold.PLP.ligand.torsion>
0.9268

> <Gold.PLP.Chemscore.Hbond>
0.0000

> <Gold.PLP.Chemscore.CHOScore>
0.0000

> <Gold.PLP.Chemscore.Metal>
0.0000

> <Gold.PLP.Chemscore.Internal.Correction>
0.1212

> <Gold.Rescore>
     Score         DG    S(hbond)    S(metal)    S(lipo)     H(rot)  DE(clash)    DE(int)     intcor
     12.89     -13.76       0.00        0.00     103.68       1.50       0.06       0.81       ----

> <Gold.Chemscore.Fitness>
12.8902

> <Gold.Chemscore.DG>
-13.7626

> <Gold.Chemscore.ZeroCoef>
-5.4800

> <Gold.Chemscore.Hbond>
0.0000

> <Gold.Chemscore.Metal>
0.0000

> <Gold.Chemscore.Lipo>
103.6781

> <Gold.Chemscore.Internal_Hbond>
0.0000

> <Gold.Chemscore.DEClash>
0.0628

> <Gold.Chemscore.DEInternal>
0.8096

> <Gold.Chemscore.Rot>
1.5030

> <Gold.Chemscore.Internal.Correction>
   9.000000E+99

> <Gold.Chemscore.Hbond.Weighted>
-0.0000

> <Gold.Chemscore.Metal.Weighted>
-0.0000

> <Gold.Chemscore.Lipo.Weighted>
-12.1303

> <Gold.Chemscore.Internal_Hbond.Weighted>
0.0000

> <Gold.Chemscore.DEClash.Weighted>
0.0628

> <Gold.Chemscore.DEInternal.Weighted>
0.8096

> <Gold.Chemscore.Rot.Weighted>
3.8477

> <Gold.Chemscore.Internal.Correction.Weighted>
   9.000000E+99

> <Gold.Protein.RotatedTorsions>
[ 6907 6896 6895 6894 ] final   33.32 input  -60.11 | X-H torsion
[ 7974 7965 7964 7962 ] final   50.42 input  175.53 | X-H torsion
[ 8008 7997 7996 7995 ] final -165.46 input   59.86 | X-H torsion
[ 10167 10162 10161 10158 ] final   65.18 input  -65.29 | X-H torsion
[ 10718 10713 10712 10709 ] final -150.85 input   66.30 | X-H torsion
[ 10763 10752 10751 10750 ] final  -30.87 input  -60.55 | X-H torsion
[ 11005 11000 10999 10996 ] final  156.22 input  -57.11 | X-H torsion

> <Gold.Protein.ActiveResidues>
 VAL166  LYS551  ARG553  GLY616  TRP617  ASP618  TYR619  PRO620  LYS621  CYS622 
 ASP623  PHE694  ASN695  SER759  ASP760  ASP761  ALA762  ILE779  LEU786  VAL792 
 PHE793  MET794  SER795  GLU796  ALA797  LYS798  CYS799  TRP800  GLU811  SER814 

> <Gold.Protein.RotatedAtoms>
  152.0868  134.9434  160.0572 H   0  0  0  0  0  0  0  0  0  0  0  0  # atno 6907 bound_to 6896
  152.0701  133.4097  159.4463 H   0  0  0  0  0  0  0  0  0  0  0  0  # atno 6908 bound_to 6896
  150.6836  134.3022  159.4754 H   0  0  0  0  0  0  0  0  0  0  0  0  # atno 6909 bound_to 6896
  146.0013  139.4443  143.0013 H   0  0  0  0  0  0  0  0  0  0  0  0  # atno 7974 bound_to 7965
  155.8500  140.0961  157.1680 H   0  0  0  0  0  0  0  0  0  0  0  0  # atno 8008 bound_to 7997
  154.3985  140.1385  156.3895 H   0  0  0  0  0  0  0  0  0  0  0  0  # atno 8009 bound_to 7997
  155.7971  140.3454  155.5384 H   0  0  0  0  0  0  0  0  0  0  0  0  # atno 8010 bound_to 7997
  140.1141  144.4791  150.6960 H   0  0  0  0  0  0  0  0  0  0  0  0  # atno 10167 bound_to 10162
  156.4515  130.8170  151.2401 H   0  0  0  0  0  0  0  0  0  0  0  0  # atno 10718 bound_to 10713
  153.7881  135.6900  153.4876 H   0  0  0  0  0  0  0  0  0  0  0  0  # atno 10763 bound_to 10752
  153.1767  135.4522  154.9973 H   0  0  0  0  0  0  0  0  0  0  0  0  # atno 10764 bound_to 10752
  154.8055  135.3355  154.7379 H   0  0  0  0  0  0  0  0  0  0  0  0  # atno 10765 bound_to 10752
  140.1655  134.8580  157.2626 H   0  0  0  0  0  0  0  0  0  0  0  0  # atno 11005 bound_to 11000
  145.7483  140.9982  143.1264 LP  0  0  0  0  0  0  0  0  0  0  0  0  # atno 17320 bound_to 7965
  144.6920  139.9183  143.7466 LP  0  0  0  0  0  0  0  0  0  0  0  0  # atno 17321 bound_to 7965
  140.6909  143.2375  151.5133 LP  0  0  0  0  0  0  0  0  0  0  0  0  # atno 17342 bound_to 10162
  139.5603  144.2172  152.1681 LP  0  0  0  0  0  0  0  0  0  0  0  0  # atno 17343 bound_to 10162
  157.7502  131.0136  150.3432 LP  0  0  0  0  0  0  0  0  0  0  0  0  # atno 17370 bound_to 10713
  156.3811  130.3881  149.7101 LP  0  0  0  0  0  0  0  0  0  0  0  0  # atno 17371 bound_to 10713
  140.2439  134.3762  155.7469 LP  0  0  0  0  0  0  0  0  0  0  0  0  # atno 17394 bound_to 11000
  141.2213  133.7280  156.8832 LP  0  0  0  0  0  0  0  0  0  0  0  0  # atno 17395 bound_to 11000

$$$$
