AV-unprocessed.smi:2140|AV-procd|sdf|8716|dock7
  -GOLD-   2272011483D 1   1.00000     0.00000
 Structure written by MMmdl.
 40 41  0  0  0  0  0  0  0  0  2 V2000
  147.5201  140.0198  153.5754 C   0  0  0  0  0  0  0  0  0  0  0  0
  148.1804  141.3838  153.8930 C   0  0  2  0  0  0  0  0  0  0  0  0
  149.4659  141.1682  154.7369 C   0  0  0  0  0  0  0  0  0  0  0  0
  149.7234  142.2564  155.6760 N   0  0  0  0  0  0  0  0  0  0  0  0
  150.3687  142.1218  156.8434 C   0  0  0  0  0  0  0  0  0  0  0  0
  150.8210  141.0494  157.2432 O   0  0  0  0  0  0  0  0  0  0  0  0
  150.4288  143.2914  157.5029 N   0  0  0  0  0  0  0  0  0  0  0  0
  150.9975  143.5707  158.7757 C   0  0  0  0  0  0  0  0  0  0  0  0
  151.9578  142.7560  159.4243 C   0  0  0  0  0  0  0  0  0  0  0  0
  152.4507  143.1559  160.6814 C   0  0  0  0  0  0  0  0  0  0  0  0
  151.9737  144.3570  161.2410 C   0  0  0  0  0  0  0  0  0  0  0  0
  151.0681  145.1489  160.6297 N   0  0  0  0  0  0  0  0  0  0  0  0
  150.5997  144.7590  159.4250 C   0  0  0  0  0  0  0  0  0  0  0  0
  147.2580  142.3474  154.5789 N   0  3  0  0  0  0  0  0  0  0  0  0
  146.1136  142.7529  153.7168 C   0  0  0  0  0  0  0  0  0  0  0  0
  145.2386  143.8056  154.4157 C   0  0  0  0  0  0  0  0  0  0  0  0
  144.7621  143.2811  155.6458 O   0  0  0  0  0  0  0  0  0  0  0  0
  145.8303  142.9777  156.5303 C   0  0  0  0  0  0  0  0  0  0  0  0
  146.7437  141.9083  155.9059 C   0  0  0  0  0  0  0  0  0  0  0  0
  148.2223  139.3291  153.1093 H   0  0  0  0  0  0  0  0  0  0  0  0
  146.6959  140.1186  152.8689 H   0  0  0  0  0  0  0  0  0  0  0  0
  147.1422  139.5395  154.4784 H   0  0  0  0  0  0  0  0  0  0  0  0
  148.4564  141.8277  152.9352 H   0  0  0  0  0  0  0  0  0  0  0  0
  149.4348  140.2400  155.3055 H   0  0  0  0  0  0  0  0  0  0  0  0
  150.3294  141.0864  154.0761 H   0  0  0  0  0  0  0  0  0  0  0  0
  149.3805  143.1716  155.4221 H   0  0  0  0  0  0  0  0  0  0  0  0
  149.9576  144.0696  157.0652 H   0  0  0  0  0  0  0  0  0  0  0  0
  152.3353  141.8461  158.9857 H   0  0  0  0  0  0  0  0  0  0  0  0
  153.1824  142.5570  161.2032 H   0  0  0  0  0  0  0  0  0  0  0  0
  152.3326  144.6926  162.2025 H   0  0  0  0  0  0  0  0  0  0  0  0
  149.8785  145.4188  158.9650 H   0  0  0  0  0  0  0  0  0  0  0  0
  146.4560  143.1657  152.7702 H   0  0  0  0  0  0  0  0  0  0  0  0
  145.5101  141.8761  153.4763 H   0  0  0  0  0  0  0  0  0  0  0  0
  145.7956  144.7286  154.5853 H   0  0  0  0  0  0  0  0  0  0  0  0
  144.3844  144.0601  153.7878 H   0  0  0  0  0  0  0  0  0  0  0  0
  146.3937  143.8826  156.7637 H   0  0  0  0  0  0  0  0  0  0  0  0
  145.4146  142.6127  157.4696 H   0  0  0  0  0  0  0  0  0  0  0  0
  146.1994  140.9689  155.7952 H   0  0  0  0  0  0  0  0  0  0  0  0
  147.5625  141.7335  156.6033 H   0  0  0  0  0  0  0  0  0  0  0  0
  147.8012  143.1800  154.7578 H   0  0  0  0  0  0  0  0  0  0  0  0
  1  2  1  0  0  0  0
  1 20  1  0  0  0  0
  1 21  1  0  0  0  0
  1 22  1  0  0  0  0
  2  3  1  0  0  0  0
  2 14  1  0  0  0  0
  2 23  1  0  0  0  0
  3  4  1  0  0  0  0
  3 24  1  0  0  0  0
  3 25  1  0  0  0  0
  4  5  1  0  0  0  0
  4 26  1  0  0  0  0
  5  6  2  0  0  0  0
  5  7  1  0  0  0  0
  7  8  1  0  0  0  0
  7 27  1  0  0  0  0
  8 13  1  0  0  0  0
  8  9  2  0  0  0  0
  9 10  1  0  0  0  0
  9 28  1  0  0  0  0
 10 11  2  0  0  0  0
 10 29  1  0  0  0  0
 11 12  1  0  0  0  0
 11 30  1  0  0  0  0
 12 13  2  0  0  0  0
 13 31  1  0  0  0  0
 14 19  1  0  0  0  0
 14 15  1  0  0  0  0
 14 40  1  0  0  0  0
 15 16  1  0  0  0  0
 15 32  1  0  0  0  0
 15 33  1  0  0  0  0
 16 17  1  0  0  0  0
 16 34  1  0  0  0  0
 16 35  1  0  0  0  0
 17 18  1  0  0  0  0
 18 19  1  0  0  0  0
 18 36  1  0  0  0  0
 18 37  1  0  0  0  0
 19 38  1  0  0  0  0
 19 39  1  0  0  0  0
M  CHG  1  14   1
M  END
> <s_m_source_file>
AV-unprocessed.smi

> <i_m_source_file_index>
2140

> <i_lp_mmshare_version>
43012

> <i_f3d_flags>
0

> <s_epik_input>
W0NIMl0xW0NIMl1PW0NIMl1bQ0gyXU4xW0NASF0oW0NIM10pW0NIMl1bTkhdQyg9TylbTkhdYzJbY0hdW2NIXVtjSF1uW2NIXTI=

> <s_epik_cmdline>
J2VwaWtfcHl0aG9uJywgJy1waCcsICc3LjAnLCAnLXRuJywgJzgnLCAnLW1hJywgJzIwMCcsICctbWV0YWxfYmluZGluZycsICctaW1hZScsICc8aW5maWxlLm1hZT4nLCAnLW9tYWUnLCAnPG91dGZpbGUubWFlPic=

> <r_epik_Ionization_Penalty>
0.60672

> <r_epik_Ionization_Penalty_Charging>
0.602531

> <r_epik_Ionization_Penalty_Neutral>
0.00418997

> <r_epik_State_Penalty>
0.607459

> <r_epik_Charging_Adjusted_Penalty>
1.20999

> <i_epik_Tot_Q>
1

> <i_epik_Tot_abs_Q>
1

> <r_epik_Metal_State_Penalty>
0.604586

> <b_epik_Metal_Only>
0

> <s_lp_Force_Field>
OPLS_2005

> <r_lp_Energy>
23.5262

> <b_lp_Chiralities_Consistent>
1

> <s_lp_Variant>
AV-unprocessed.smi:2140-3

> <Gold.Version>
5.8.1

> <Gold.Id.Protein>
6NUR|6NUR_protein|mol2

> <Gold.PLP.Fitness>
51.9638

> <Gold.PLP.PLP>
-39.2454

> <Gold.PLP.part.hbond>
-3.0000

> <Gold.PLP.part.metal>
0.0000

> <Gold.PLP.part.buried>
-5.9948

> <Gold.PLP.part.nonpolar>
-29.8229

> <Gold.PLP.part.repulsive>
0.7012

> <Gold.PLP.ligand.clash>
0.0000

> <Gold.PLP.ligand.torsion>
0.7734

> <Gold.PLP.Chemscore.Hbond>
3.9825

> <Gold.PLP.Chemscore.CHOScore>
0.7556

> <Gold.PLP.Chemscore.Metal>
0.0000

> <Gold.Chemscore.Hbonds>
donor molecule, donor type, donor heavy atom, donor atom, acceptor molecule, acceptor atom, score
      L1  H     4    26       P1  8028  1.00
      L1  H     7    27       P1  8028  1.00
      L1  H    14    40       P1  8028  1.92
      L1  C    13    31       P1  8029  0.71

> <Gold.PLP.Chemscore.Internal.Correction>
0.0510

> <Gold.Rescore>
     Score         DG    S(hbond)    S(metal)    S(lipo)     H(rot)  DE(clash)    DE(int)     intcor
     18.91     -21.68       2.63        0.00      96.54       1.52       0.76       2.01       ----

> <Gold.Chemscore.Fitness>
18.9130

> <Gold.Chemscore.DG>
-21.6838

> <Gold.Chemscore.ZeroCoef>
-5.4800

> <Gold.Chemscore.Hbond>
2.6330

> <Gold.Chemscore.Metal>
0.0000

> <Gold.Chemscore.Lipo>
96.5422

> <Gold.Chemscore.Internal_Hbond>
0.0000

> <Gold.Chemscore.DEClash>
0.7584

> <Gold.Chemscore.DEInternal>
2.0124

> <Gold.Chemscore.Rot>
1.5179

> <Gold.Chemscore.Internal.Correction>
   9.000000E+99

> <Gold.Chemscore.Hbonds>
donor molecule, donor type, donor heavy atom, donor atom, acceptor molecule, acceptor atom, score
      L1  H     4    26       P1  8028  0.99
      L1  H     7    27       P1  8028  0.81
      L1  H    14    40       P1  8028  0.68

> <Gold.Chemscore.Hbond.Weighted>
-8.7943

> <Gold.Chemscore.Metal.Weighted>
-0.0000

> <Gold.Chemscore.Lipo.Weighted>
-11.2954

> <Gold.Chemscore.Internal_Hbond.Weighted>
0.0000

> <Gold.Chemscore.DEClash.Weighted>
0.7584

> <Gold.Chemscore.DEInternal.Weighted>
2.0124

> <Gold.Chemscore.Rot.Weighted>
3.8859

> <Gold.Chemscore.Internal.Correction.Weighted>
   9.000000E+99

> <Gold.Protein.RotatedTorsions>
[ 6907 6896 6895 6894 ] final   -2.06 input  -60.11 | X-H torsion
[ 7974 7965 7964 7962 ] final  157.42 input  175.53 | X-H torsion
[ 8008 7997 7996 7995 ] final  -43.93 input   59.86 | X-H torsion
[ 10167 10162 10161 10158 ] final  102.48 input  -65.29 | X-H torsion
[ 10718 10713 10712 10709 ] final  -40.66 input   66.30 | X-H torsion
[ 10763 10752 10751 10750 ] final   55.51 input  -60.55 | X-H torsion
[ 11005 11000 10999 10996 ] final   29.59 input  -57.11 | X-H torsion

> <Gold.Protein.ActiveResidues>
 VAL166  LYS551  ARG553  GLY616  TRP617  ASP618  TYR619  PRO620  LYS621  CYS622 
 ASP623  PHE694  ASN695  SER759  ASP760  ASP761  ALA762  ILE779  LEU786  VAL792 
 PHE793  MET794  SER795  GLU796  ALA797  LYS798  CYS799  TRP800  GLU811  SER814 

> <Gold.Protein.RotatedAtoms>
  151.5361  135.1068  159.9914 H   0  0  0  0  0  0  0  0  0  0  0  0  # atno 6907 bound_to 6896
  152.4557  133.7713  159.6811 H   0  0  0  0  0  0  0  0  0  0  0  0  # atno 6908 bound_to 6896
  150.8499  133.7737  159.3054 H   0  0  0  0  0  0  0  0  0  0  0  0  # atno 6909 bound_to 6896
  144.7905  139.7337  143.6223 H   0  0  0  0  0  0  0  0  0  0  0  0  # atno 7974 bound_to 7965
  154.3997  140.1435  156.3600 H   0  0  0  0  0  0  0  0  0  0  0  0  # atno 8008 bound_to 7997
  155.8190  140.3470  155.5482 H   0  0  0  0  0  0  0  0  0  0  0  0  # atno 8009 bound_to 7997
  155.8308  140.0912  157.1784 H   0  0  0  0  0  0  0  0  0  0  0  0  # atno 8010 bound_to 7997
  139.7346  144.7027  151.0669 H   0  0  0  0  0  0  0  0  0  0  0  0  # atno 10167 bound_to 10162
  156.2789  130.4215  149.8358 H   0  0  0  0  0  0  0  0  0  0  0  0  # atno 10718 bound_to 10713
  152.9818  135.5708  154.5079 H   0  0  0  0  0  0  0  0  0  0  0  0  # atno 10763 bound_to 10752
  154.4587  135.2781  155.1730 H   0  0  0  0  0  0  0  0  0  0  0  0  # atno 10764 bound_to 10752
  154.3327  135.6246  153.5612 H   0  0  0  0  0  0  0  0  0  0  0  0  # atno 10765 bound_to 10752
  140.3033  134.2731  155.7749 H   0  0  0  0  0  0  0  0  0  0  0  0  # atno 11005 bound_to 11000
  146.2154  139.5540  142.9653 LP  0  0  0  0  0  0  0  0  0  0  0  0  # atno 17320 bound_to 7965
  145.5808  141.0383  143.2123 LP  0  0  0  0  0  0  0  0  0  0  0  0  # atno 17321 bound_to 7965
  140.7777  143.5000  150.9783 LP  0  0  0  0  0  0  0  0  0  0  0  0  # atno 17342 bound_to 10162
  139.8688  143.7219  152.3168 LP  0  0  0  0  0  0  0  0  0  0  0  0  # atno 17343 bound_to 10162
  156.5812  130.8466  151.3383 LP  0  0  0  0  0  0  0  0  0  0  0  0  # atno 17370 bound_to 10713
  157.7308  130.9691  150.1850 LP  0  0  0  0  0  0  0  0  0  0  0  0  # atno 17371 bound_to 10713
  141.2123  133.7660  156.9800 LP  0  0  0  0  0  0  0  0  0  0  0  0  # atno 17394 bound_to 11000
  140.1089  134.9489  157.2036 LP  0  0  0  0  0  0  0  0  0  0  0  0  # atno 17395 bound_to 11000

$$$$
