AV-unprocessed.smi:1406|AV-procd|sdf|5722|dock7
  -GOLD-   22720 5353D 1   1.00000     0.00000
 Structure written by MMmdl.
 41 43  0  0  0  0  0  0  0  0  2 V2000
  153.5292  138.0678  160.3954 C   0  0  0  0  0  0  0  0  0  0  0  0
  154.6382  138.5215  161.3663 C   0  0  1  0  0  0  0  0  0  0  0  0
  154.6734  140.0448  161.5696 C   0  0  0  0  0  0  0  0  0  0  0  0
  155.6177  140.5862  162.1456 O   0  0  0  0  0  0  0  0  0  0  0  0
  153.6405  140.7335  161.0587 N   0  0  0  0  0  0  0  0  0  0  0  0
  153.5456  142.1894  161.0292 C   0  0  2  0  0  0  0  0  0  0  0  0
  152.5544  142.7521  162.0396 C   0  0  0  0  0  0  0  0  0  0  0  0
  152.2755  144.1591  161.5007 C   0  0  0  0  0  0  0  0  0  0  0  0
  152.5001  144.1102  160.0348 N   0  3  2  0  0  0  0  0  0  0  0  0
  151.3304  144.5523  159.2290 C   0  0  0  0  0  0  0  0  0  0  0  0
  151.4750  144.1155  157.7637 C   0  0  0  0  0  0  0  0  0  0  0  0
  151.5298  142.5815  157.6346 C   0  0  0  0  0  0  0  0  0  0  0  0
  152.0093  141.8978  158.9289 C   0  0  0  0  0  0  0  0  0  0  0  0
  153.0432  142.7653  159.6904 C   0  0  2  0  0  0  0  0  0  0  0  0
  154.5415  137.8507  162.6577 N   0  0  0  0  0  0  0  0  0  0  0  0
  153.7023  136.8980  163.0691 C   0  0  0  0  0  0  0  0  0  0  0  0
  153.9386  136.4663  164.2998 N   0  0  0  0  0  0  0  0  0  0  0  0
  155.0147  137.2472  164.6131 C   0  0  0  0  0  0  0  0  0  0  0  0
  155.4243  138.0850  163.6608 N   0  0  0  0  0  0  0  0  0  0  0  0
  153.6489  138.5333  159.4163 H   0  0  0  0  0  0  0  0  0  0  0  0
  152.5337  138.3209  160.7627 H   0  0  0  0  0  0  0  0  0  0  0  0
  153.5608  136.9879  160.2482 H   0  0  0  0  0  0  0  0  0  0  0  0
  155.5938  138.2343  160.9246 H   0  0  0  0  0  0  0  0  0  0  0  0
  152.8997  140.2155  160.6084 H   0  0  0  0  0  0  0  0  0  0  0  0
  154.5261  142.6157  161.2523 H   0  0  0  0  0  0  0  0  0  0  0  0
  151.6341  142.1658  162.0351 H   0  0  0  0  0  0  0  0  0  0  0  0
  152.9434  142.7605  163.0583 H   0  0  0  0  0  0  0  0  0  0  0  0
  151.2764  144.5023  161.7725 H   0  0  0  0  0  0  0  0  0  0  0  0
  152.9875  144.8684  161.9240 H   0  0  0  0  0  0  0  0  0  0  0  0
  150.4101  144.1317  159.6383 H   0  0  0  0  0  0  0  0  0  0  0  0
  151.2405  145.6368  159.2998 H   0  0  0  0  0  0  0  0  0  0  0  0
  150.6549  144.5103  157.1632 H   0  0  0  0  0  0  0  0  0  0  0  0
  152.3882  144.5490  157.3533 H   0  0  0  0  0  0  0  0  0  0  0  0
  150.5458  142.1911  157.3728 H   0  0  0  0  0  0  0  0  0  0  0  0
  152.1897  142.3185  156.8070 H   0  0  0  0  0  0  0  0  0  0  0  0
  151.1520  141.7067  159.5757 H   0  0  0  0  0  0  0  0  0  0  0  0
  152.4204  140.9205  158.6764 H   0  0  0  0  0  0  0  0  0  0  0  0
  153.8987  142.9089  159.0287 H   0  0  0  0  0  0  0  0  0  0  0  0
  152.9082  136.5045  162.4516 H   0  0  0  0  0  0  0  0  0  0  0  0
  155.5170  137.1901  165.5675 H   0  0  0  0  0  0  0  0  0  0  0  0
  153.2461  144.7635  159.8416 H   0  0  0  0  0  0  0  0  0  0  0  0
  1  2  1  0  0  0  0
  1 20  1  0  0  0  0
  1 21  1  0  0  0  0
  1 22  1  0  0  0  0
  2  3  1  0  0  0  0
  2 15  1  0  0  0  0
  2 23  1  0  0  0  0
  3  4  2  0  0  0  0
  3  5  1  0  0  0  0
  5  6  1  0  0  0  0
  5 24  1  0  0  0  0
  6 14  1  0  0  0  0
  6  7  1  0  0  0  0
  6 25  1  0  0  0  0
  7  8  1  0  0  0  0
  7 26  1  0  0  0  0
  7 27  1  0  0  0  0
  8  9  1  0  0  0  0
  8 28  1  0  0  0  0
  8 29  1  0  0  0  0
  9 14  1  0  0  0  0
  9 10  1  0  0  0  0
  9 41  1  0  0  0  0
 10 11  1  0  0  0  0
 10 30  1  0  0  0  0
 10 31  1  0  0  0  0
 11 12  1  0  0  0  0
 11 32  1  0  0  0  0
 11 33  1  0  0  0  0
 12 13  1  0  0  0  0
 12 34  1  0  0  0  0
 12 35  1  0  0  0  0
 13 14  1  0  0  0  0
 13 36  1  0  0  0  0
 13 37  1  0  0  0  0
 14 38  1  0  0  0  0
 15 19  1  0  0  0  0
 15 16  1  0  0  0  0
 16 17  2  0  0  0  0
 16 39  1  0  0  0  0
 17 18  1  0  0  0  0
 18 19  2  0  0  0  0
 18 40  1  0  0  0  0
M  CHG  1   9   1
M  END
> <s_m_source_file>
AV-unprocessed.smi

> <i_m_source_file_index>
1406

> <i_lp_mmshare_version>
43012

> <i_f3d_flags>
0

> <s_epik_input>
bjFbY0hdbltjSF1uMVtDQEhdKFtDSDNdKUMoPU8pW05IXVtDQEhdKFtDSDJdW0NIMl0yKVtDQEBIXShOMjMpW0NIMl1bQ0gyXVtDSDJdW0NIMl0z

> <s_epik_cmdline>
J2VwaWtfcHl0aG9uJywgJy1waCcsICc3LjAnLCAnLXRuJywgJzgnLCAnLW1hJywgJzIwMCcsICctbWV0YWxfYmluZGluZycsICctaW1hZScsICc8aW5maWxlLm1hZT4nLCAnLW9tYWUnLCAnPG91dGZpbGUubWFlPic=

> <r_lp_tautomer_probability>
1

> <r_epik_Ionization_Penalty>
0.00197066

> <r_epik_Ionization_Penalty_Charging>
0.00196223

> <r_epik_Ionization_Penalty_Neutral>
8.43107e-06

> <r_epik_State_Penalty>
0.00133866

> <r_epik_Charging_Adjusted_Penalty>
0.00330089

> <i_epik_Tot_Q>
1

> <i_epik_Tot_abs_Q>
1

> <r_epik_Metal_State_Penalty>
-0

> <b_epik_Metal_Only>
0

> <s_lp_Force_Field>
OPLS_2005

> <r_lp_Energy>
45.0436

> <b_lp_Chiralities_Consistent>
1

> <s_lp_Variant>
AV-unprocessed.smi:1406-14

> <Gold.Version>
5.8.1

> <Gold.Id.Protein>
6NUR|6NUR_protein|mol2

> <Gold.PLP.Fitness>
44.1757

> <Gold.PLP.PLP>
-44.8611

> <Gold.PLP.part.hbond>
-1.0000

> <Gold.PLP.part.metal>
0.0000

> <Gold.PLP.part.buried>
-7.4639

> <Gold.PLP.part.nonpolar>
-36.7177

> <Gold.PLP.part.repulsive>
0.1595

> <Gold.PLP.ligand.clash>
0.0297

> <Gold.PLP.ligand.torsion>
0.3791

> <Gold.PLP.Chemscore.Hbond>
0.0000

> <Gold.PLP.Chemscore.CHOScore>
0.0000

> <Gold.PLP.Chemscore.Metal>
0.0000

> <Gold.PLP.Chemscore.Internal.Correction>
0.1025

> <Gold.Rescore>
     Score         DG    S(hbond)    S(metal)    S(lipo)     H(rot)  DE(clash)    DE(int)     intcor
     11.21     -13.08       0.00        0.00     106.23       1.89       1.38       0.49       ----

> <Gold.Chemscore.Fitness>
11.2052

> <Gold.Chemscore.DG>
-13.0791

> <Gold.Chemscore.ZeroCoef>
-5.4800

> <Gold.Chemscore.Hbond>
0.0000

> <Gold.Chemscore.Metal>
0.0000

> <Gold.Chemscore.Lipo>
106.2278

> <Gold.Chemscore.Internal_Hbond>
0.0000

> <Gold.Chemscore.DEClash>
1.3842

> <Gold.Chemscore.DEInternal>
0.4898

> <Gold.Chemscore.Rot>
1.8865

> <Gold.Chemscore.Internal.Correction>
   9.000000E+99

> <Gold.Chemscore.Hbond.Weighted>
-0.0000

> <Gold.Chemscore.Metal.Weighted>
-0.0000

> <Gold.Chemscore.Lipo.Weighted>
-12.4287

> <Gold.Chemscore.Internal_Hbond.Weighted>
0.0000

> <Gold.Chemscore.DEClash.Weighted>
1.3842

> <Gold.Chemscore.DEInternal.Weighted>
0.4898

> <Gold.Chemscore.Rot.Weighted>
4.8295

> <Gold.Chemscore.Internal.Correction.Weighted>
   9.000000E+99

> <Gold.Protein.RotatedTorsions>
[ 6907 6896 6895 6894 ] final -105.12 input  -60.11 | X-H torsion
[ 7974 7965 7964 7962 ] final   78.52 input  175.53 | X-H torsion
[ 8008 7997 7996 7995 ] final  -16.18 input   59.86 | X-H torsion
[ 10167 10162 10161 10158 ] final   -9.86 input  -65.29 | X-H torsion
[ 10718 10713 10712 10709 ] final  102.65 input   66.30 | X-H torsion
[ 10763 10752 10751 10750 ] final   36.70 input  -60.55 | X-H torsion
[ 11005 11000 10999 10996 ] final -109.50 input  -57.11 | X-H torsion

> <Gold.Protein.ActiveResidues>
 VAL166  LYS551  ARG553  GLY616  TRP617  ASP618  TYR619  PRO620  LYS621  CYS622 
 ASP623  PHE694  ASN695  SER759  ASP760  ASP761  ALA762  ILE779  LEU786  VAL792 
 PHE793  MET794  SER795  GLU796  ALA797  LYS798  CYS799  TRP800  GLU811  SER814 

> <Gold.Protein.RotatedAtoms>
  150.7321  134.0174  159.3689 H   0  0  0  0  0  0  0  0  0  0  0  0  # atno 6907 bound_to 6896
  151.8137  135.0671  160.0425 H   0  0  0  0  0  0  0  0  0  0  0  0  # atno 6908 bound_to 6896
  152.3054  133.5661  159.5682 H   0  0  0  0  0  0  0  0  0  0  0  0  # atno 6909 bound_to 6896
  145.6761  139.2510  143.1841 H   0  0  0  0  0  0  0  0  0  0  0  0  # atno 7974 bound_to 7965
  154.5073  140.2176  155.9226 H   0  0  0  0  0  0  0  0  0  0  0  0  # atno 8008 bound_to 7997
  156.1509  140.3161  155.8613 H   0  0  0  0  0  0  0  0  0  0  0  0  # atno 8009 bound_to 7997
  155.3941  140.0480  157.3030 H   0  0  0  0  0  0  0  0  0  0  0  0  # atno 8010 bound_to 7997
  140.7099  143.5811  150.8991 H   0  0  0  0  0  0  0  0  0  0  0  0  # atno 10167 bound_to 10162
  157.6796  131.0758  150.5436 H   0  0  0  0  0  0  0  0  0  0  0  0  # atno 10718 bound_to 10713
  153.0066  135.6298  154.2028 H   0  0  0  0  0  0  0  0  0  0  0  0  # atno 10763 bound_to 10752
  154.1771  135.2815  155.3065 H   0  0  0  0  0  0  0  0  0  0  0  0  # atno 10764 bound_to 10752
  154.5864  135.5631  153.7295 H   0  0  0  0  0  0  0  0  0  0  0  0  # atno 10765 bound_to 10752
  141.0844  133.9164  157.2218 H   0  0  0  0  0  0  0  0  0  0  0  0  # atno 11005 bound_to 11000
  146.1004  140.7550  142.9552 LP  0  0  0  0  0  0  0  0  0  0  0  0  # atno 17320 bound_to 7965
  144.7041  140.3779  143.7132 LP  0  0  0  0  0  0  0  0  0  0  0  0  # atno 17321 bound_to 7965
  139.9537  143.6243  152.3022 LP  0  0  0  0  0  0  0  0  0  0  0  0  # atno 17342 bound_to 10162
  139.6771  144.7658  151.1677 LP  0  0  0  0  0  0  0  0  0  0  0  0  # atno 17343 bound_to 10162
  156.5742  130.4287  149.6006 LP  0  0  0  0  0  0  0  0  0  0  0  0  # atno 17370 bound_to 10713
  156.2715  130.7019  151.1818 LP  0  0  0  0  0  0  0  0  0  0  0  0  # atno 17371 bound_to 10713
  139.9661  135.0141  156.9390 LP  0  0  0  0  0  0  0  0  0  0  0  0  # atno 17394 bound_to 11000
  140.5396  134.0733  155.7338 LP  0  0  0  0  0  0  0  0  0  0  0  0  # atno 17395 bound_to 11000

$$$$
