AV-unprocessed.smi:275|AV-procd|sdf|2066|dock10
  -GOLD-   2262021323D 1   1.00000     0.00000
 Structure written by MMmdl.
 65 69  0  0  0  0  0  0  0  0  1 V2000
  149.0664  135.6535  155.9508 C   0  0  0  0  0  0  0  0  0  0  0  0
  148.1098  135.2707  157.0938 C   0  0  0  0  0  0  0  0  0  0  0  0
  146.6773  135.1929  156.5397 C   0  0  0  0  0  0  0  0  0  0  0  0
  148.1955  136.2488  158.2783 C   0  0  2  0  0  0  0  0  0  0  0  0
  149.4880  136.2363  158.9590 N   0  0  0  0  0  0  0  0  0  0  0  0
  150.4396  137.1879  158.5009 C   0  0  0  0  0  0  0  0  0  0  0  0
  151.7508  136.8613  158.3362 N   0  0  0  0  0  0  0  0  0  0  0  0
  152.6351  137.7695  157.9132 C   0  0  0  0  0  0  0  0  0  0  0  0
  152.4308  139.0506  157.6033 N   0  0  0  0  0  0  0  0  0  0  0  0
  151.1208  139.3890  157.7672 C   0  0  0  0  0  0  0  0  0  0  0  0
  150.0751  138.5283  158.2031 C   0  0  0  0  0  0  0  0  0  0  0  0
  148.8748  139.2263  158.2514 N   0  0  0  0  0  0  0  0  0  0  0  0
  149.1928  140.4328  157.8680 C   0  0  0  0  0  0  0  0  0  0  0  0
  150.5224  140.6187  157.5630 N   0  0  0  0  0  0  0  0  0  0  0  0
  151.1527  141.8485  157.1188 C   0  0  0  0  0  0  0  0  0  0  0  0
  151.0955  142.9777  158.1775 C   0  0  2  0  0  0  0  0  0  0  0  0
  151.1476  144.3904  157.5463 C   0  0  0  0  0  0  0  0  0  0  0  0
  150.4087  145.3247  158.3063 O   0  0  0  0  0  0  0  0  0  0  0  0
  152.1676  142.7784  159.2779 C   0  0  1  0  0  0  0  0  0  0  0  0
  151.8520  143.4393  160.6084 C   0  0  0  0  0  0  0  0  0  0  0  0
  152.7756  142.6973  161.5690 C   0  0  0  0  0  0  0  0  0  0  0  0
  152.9177  141.3855  161.0357 O   0  0  0  0  0  0  0  0  0  0  0  0
  152.3514  141.3262  159.7310 C   0  0  0  0  0  0  0  0  0  0  0  0
  148.8509  136.5832  160.2207 C   0  0  0  0  0  0  0  0  0  0  0  0
  147.5748  135.9336  159.6618 C   0  0  0  0  0  0  0  0  0  0  0  0
  146.2570  136.6616  159.9724 C   0  0  0  0  0  0  0  0  0  0  0  0
  145.8327  136.5255  161.4442 C   0  0  0  0  0  0  0  0  0  0  0  0
  145.6943  135.0519  161.8475 C   0  0  0  0  0  0  0  0  0  0  0  0
  146.9714  134.2668  161.5222 C   0  0  0  0  0  0  0  0  0  0  0  0
  147.3765  134.4500  160.0492 C   0  0  0  0  0  0  0  0  0  0  0  0
  148.8790  136.6688  155.5997 H   0  0  0  0  0  0  0  0  0  0  0  0
  148.9513  134.9807  155.1004 H   0  0  0  0  0  0  0  0  0  0  0  0
  150.1084  135.5944  156.2607 H   0  0  0  0  0  0  0  0  0  0  0  0
  148.3844  134.2702  157.4302 H   0  0  0  0  0  0  0  0  0  0  0  0
  146.3485  136.1636  156.1673 H   0  0  0  0  0  0  0  0  0  0  0  0
  145.9609  134.8740  157.2940 H   0  0  0  0  0  0  0  0  0  0  0  0
  146.6135  134.4827  155.7147 H   0  0  0  0  0  0  0  0  0  0  0  0
  147.9201  137.2629  157.9814 H   0  0  0  0  0  0  0  0  0  0  0  0
  153.6518  137.4198  157.8105 H   0  0  0  0  0  0  0  0  0  0  0  0
  148.4639  141.2277  157.8046 H   0  0  0  0  0  0  0  0  0  0  0  0
  152.1857  141.6130  156.8617 H   0  0  0  0  0  0  0  0  0  0  0  0
  150.6707  142.1707  156.1948 H   0  0  0  0  0  0  0  0  0  0  0  0
  150.1228  142.9020  158.6659 H   0  0  0  0  0  0  0  0  0  0  0  0
  152.1755  144.7439  157.4625 H   0  0  0  0  0  0  0  0  0  0  0  0
  150.7559  144.3774  156.5296 H   0  0  0  0  0  0  0  0  0  0  0  0
  149.6418  145.5733  157.8131 H   0  0  0  0  0  0  0  0  0  0  0  0
  153.1295  143.1530  158.9247 H   0  0  0  0  0  0  0  0  0  0  0  0
  152.0308  144.5149  160.6095 H   0  0  0  0  0  0  0  0  0  0  0  0
  150.8106  143.2656  160.8838 H   0  0  0  0  0  0  0  0  0  0  0  0
  153.7584  143.1692  161.5937 H   0  0  0  0  0  0  0  0  0  0  0  0
  152.3853  142.6742  162.5867 H   0  0  0  0  0  0  0  0  0  0  0  0
  151.3892  140.8166  159.7993 H   0  0  0  0  0  0  0  0  0  0  0  0
  152.9883  140.7545  159.0557 H   0  0  0  0  0  0  0  0  0  0  0  0
  149.2862  136.0739  161.0805 H   0  0  0  0  0  0  0  0  0  0  0  0
  148.7470  137.6557  160.3936 H   0  0  0  0  0  0  0  0  0  0  0  0
  146.3444  137.7208  159.7287 H   0  0  0  0  0  0  0  0  0  0  0  0
  145.4603  136.2793  159.3333 H   0  0  0  0  0  0  0  0  0  0  0  0
  146.5702  137.0121  162.0839 H   0  0  0  0  0  0  0  0  0  0  0  0
  144.8893  137.0462  161.6104 H   0  0  0  0  0  0  0  0  0  0  0  0
  145.4651  134.9729  162.9106 H   0  0  0  0  0  0  0  0  0  0  0  0
  144.8516  134.6087  161.3153 H   0  0  0  0  0  0  0  0  0  0  0  0
  147.7806  134.6003  162.1724 H   0  0  0  0  0  0  0  0  0  0  0  0
  146.8209  133.2087  161.7381 H   0  0  0  0  0  0  0  0  0  0  0  0
  146.6129  133.9890  159.4245 H   0  0  0  0  0  0  0  0  0  0  0  0
  148.2879  133.8804  159.8644 H   0  0  0  0  0  0  0  0  0  0  0  0
  1  2  1  0  0  0  0
  1 31  1  0  0  0  0
  1 32  1  0  0  0  0
  1 33  1  0  0  0  0
  2  3  1  0  0  0  0
  2  4  1  0  0  0  0
  2 34  1  0  0  0  0
  3 35  1  0  0  0  0
  3 36  1  0  0  0  0
  3 37  1  0  0  0  0
  4 25  1  0  0  0  0
  4  5  1  0  0  0  0
  4 38  1  0  0  0  0
  5  6  1  0  0  0  0
  5 24  1  0  0  0  0
  6 11  1  0  0  0  0
  6  7  2  0  0  0  0
  7  8  1  0  0  0  0
  8  9  2  0  0  0  0
  8 39  1  0  0  0  0
  9 10  1  0  0  0  0
 10 14  1  0  0  0  0
 10 11  2  0  0  0  0
 11 12  1  0  0  0  0
 12 13  2  0  0  0  0
 13 14  1  0  0  0  0
 13 40  1  0  0  0  0
 14 15  1  0  0  0  0
 15 16  1  0  0  0  0
 15 41  1  0  0  0  0
 15 42  1  0  0  0  0
 16 17  1  0  0  0  0
 16 19  1  0  0  0  0
 16 43  1  0  0  0  0
 17 18  1  0  0  0  0
 17 44  1  0  0  0  0
 17 45  1  0  0  0  0
 18 46  1  0  0  0  0
 19 23  1  0  0  0  0
 19 20  1  0  0  0  0
 19 47  1  0  0  0  0
 20 21  1  0  0  0  0
 20 48  1  0  0  0  0
 20 49  1  0  0  0  0
 21 22  1  0  0  0  0
 21 50  1  0  0  0  0
 21 51  1  0  0  0  0
 22 23  1  0  0  0  0
 23 52  1  0  0  0  0
 23 53  1  0  0  0  0
 24 25  1  0  0  0  0
 24 54  1  0  0  0  0
 24 55  1  0  0  0  0
 25 30  1  0  0  0  0
 25 26  1  0  0  0  0
 26 27  1  0  0  0  0
 26 56  1  0  0  0  0
 26 57  1  0  0  0  0
 27 28  1  0  0  0  0
 27 58  1  0  0  0  0
 27 59  1  0  0  0  0
 28 29  1  0  0  0  0
 28 60  1  0  0  0  0
 28 61  1  0  0  0  0
 29 30  1  0  0  0  0
 29 62  1  0  0  0  0
 29 63  1  0  0  0  0
 30 64  1  0  0  0  0
 30 65  1  0  0  0  0
M  END
> <s_m_source_file>
AV-unprocessed.smi

> <i_m_source_file_index>
275

> <i_lp_mmshare_version>
43012

> <i_f3d_flags>
0

> <s_epik_input>
W0NIMl0xW0NIMl1bQ0gyXVtDSDJdW0NIMl1DMTJbQ0BIXShbQ0hdKFtDSDNdKVtDSDNdKU4oW0NIMl0yKWMobltjSF1uMyljKGMzNCluW2NIXW40W0NIMl1bQ0BIXShbQ0gyXVtPSF0pW0NAQEhdNVtDSDJdW0NIMl1PW0NIMl01

> <s_epik_cmdline>
J2VwaWtfcHl0aG9uJywgJy1waCcsICc3LjAnLCAnLXRuJywgJzgnLCAnLW1hJywgJzIwMCcsICctbWV0YWxfYmluZGluZycsICctaW1hZScsICc8aW5maWxlLm1hZT4nLCAnLW9tYWUnLCAnPG91dGZpbGUubWFlPic=

> <r_lp_tautomer_probability>
1

> <r_epik_Ionization_Penalty>
0.00375122

> <r_epik_Ionization_Penalty_Charging>
0

> <r_epik_Ionization_Penalty_Neutral>
0.00375122

> <r_epik_State_Penalty>
0.00260593

> <r_epik_Charging_Adjusted_Penalty>
0.00260593

> <i_epik_Tot_Q>
0

> <i_epik_Tot_abs_Q>
0

> <r_epik_Metal_State_Penalty>
-0

> <b_epik_Metal_Only>
0

> <s_lp_Force_Field>
OPLS_2005

> <r_lp_Energy>
62.8916

> <b_lp_Chiralities_Consistent>
1

> <s_lp_Variant>
AV-unprocessed.smi:275-5

> <Gold.Version>
5.8.1

> <Gold.Id.Protein>
6NUR|6NUR_protein|mol2

> <Gold.PLP.Fitness>
48.3423

> <Gold.PLP.PLP>
-44.7360

> <Gold.PLP.part.hbond>
-4.3904

> <Gold.PLP.part.metal>
0.0000

> <Gold.PLP.part.buried>
-3.9896

> <Gold.PLP.part.nonpolar>
-37.0786

> <Gold.PLP.part.repulsive>
0.0000

> <Gold.PLP.ligand.clash>
0.0000

> <Gold.PLP.ligand.torsion>
1.2494

> <Gold.PLP.Chemscore.Hbond>
1.8287

> <Gold.PLP.Chemscore.CHOScore>
0.0000

> <Gold.PLP.Chemscore.Metal>
0.0000

> <Gold.Chemscore.Hbonds>
donor molecule, donor type, donor heavy atom, donor atom, acceptor molecule, acceptor atom, score
      L1  H    18    46       P1  8029  0.80
      P1  H  6896  6907       L1     5  0.86

> <Gold.PLP.Chemscore.Internal.Correction>
0.6187

> <Gold.Rescore>
     Score         DG    S(hbond)    S(metal)    S(lipo)     H(rot)  DE(clash)    DE(int)     intcor
     13.57     -15.91       0.99        0.00     116.55       2.54       0.19       2.15       ----

> <Gold.Chemscore.Fitness>
13.5719

> <Gold.Chemscore.DG>
-15.9130

> <Gold.Chemscore.ZeroCoef>
-5.4800

> <Gold.Chemscore.Hbond>
0.9860

> <Gold.Chemscore.Metal>
0.0000

> <Gold.Chemscore.Lipo>
116.5484

> <Gold.Chemscore.Internal_Hbond>
0.0000

> <Gold.Chemscore.DEClash>
0.1904

> <Gold.Chemscore.DEInternal>
2.1507

> <Gold.Chemscore.Rot>
2.5377

> <Gold.Chemscore.Internal.Correction>
   9.000000E+99

> <Gold.Chemscore.Hbonds>
donor molecule, donor type, donor heavy atom, donor atom, acceptor molecule, acceptor atom, score
      L1  H    18    46       P1  8029  0.12
      P1  H  6896  6907       L1     5  0.05

> <Gold.Chemscore.Hbond.Weighted>
-3.2934

> <Gold.Chemscore.Metal.Weighted>
-0.0000

> <Gold.Chemscore.Lipo.Weighted>
-13.6362

> <Gold.Chemscore.Internal_Hbond.Weighted>
0.0000

> <Gold.Chemscore.DEClash.Weighted>
0.1904

> <Gold.Chemscore.DEInternal.Weighted>
2.1507

> <Gold.Chemscore.Rot.Weighted>
6.4966

> <Gold.Chemscore.Internal.Correction.Weighted>
   9.000000E+99

> <Gold.Protein.RotatedTorsions>
[ 6907 6896 6895 6894 ] final  -59.15 input  -60.11 | X-H torsion
[ 7974 7965 7964 7962 ] final  -52.38 input  175.53 | X-H torsion
[ 8008 7997 7996 7995 ] final  129.65 input   59.86 | X-H torsion
[ 10167 10162 10161 10158 ] final -105.97 input  -65.29 | X-H torsion
[ 10718 10713 10712 10709 ] final  138.32 input   66.30 | X-H torsion
[ 10763 10752 10751 10750 ] final  -90.35 input  -60.55 | X-H torsion
[ 11005 11000 10999 10996 ] final   37.60 input  -57.11 | X-H torsion

> <Gold.Protein.ActiveResidues>
 VAL166  LYS551  ARG553  GLY616  TRP617  ASP618  TYR619  PRO620  LYS621  CYS622 
 ASP623  PHE694  ASN695  SER759  ASP760  ASP761  ALA762  ILE779  LEU786  VAL792 
 PHE793  MET794  SER795  GLU796  ALA797  LYS798  CYS799  TRP800  GLU811  SER814 

> <Gold.Protein.RotatedAtoms>
  150.7952  134.7007  159.6547 H   0  0  0  0  0  0  0  0  0  0  0  0  # atno 6907 bound_to 6896
  152.4064  134.6197  160.0057 H   0  0  0  0  0  0  0  0  0  0  0  0  # atno 6908 bound_to 6896
  151.6453  133.3287  159.3175 H   0  0  0  0  0  0  0  0  0  0  0  0  # atno 6909 bound_to 6896
  145.9086  140.7934  142.9707 H   0  0  0  0  0  0  0  0  0  0  0  0  # atno 7974 bound_to 7965
  156.2940  140.2615  156.2633 H   0  0  0  0  0  0  0  0  0  0  0  0  # atno 8008 bound_to 7997
  154.9767  140.0390  157.2278 H   0  0  0  0  0  0  0  0  0  0  0  0  # atno 8009 bound_to 7997
  154.7809  140.2795  155.6069 H   0  0  0  0  0  0  0  0  0  0  0  0  # atno 8010 bound_to 7997
  140.1928  143.3878  152.1192 H   0  0  0  0  0  0  0  0  0  0  0  0  # atno 10167 bound_to 10162
  157.4266  131.1044  151.0296 H   0  0  0  0  0  0  0  0  0  0  0  0  # atno 10718 bound_to 10713
  154.6649  135.5307  153.8064 H   0  0  0  0  0  0  0  0  0  0  0  0  # atno 10763 bound_to 10752
  153.0464  135.6514  154.0815 H   0  0  0  0  0  0  0  0  0  0  0  0  # atno 10764 bound_to 10752
  154.0720  135.2953  155.3286 H   0  0  0  0  0  0  0  0  0  0  0  0  # atno 10765 bound_to 10752
  140.2209  134.3642  155.8005 H   0  0  0  0  0  0  0  0  0  0  0  0  # atno 11005 bound_to 11000
  144.6741  140.1789  143.7407 LP  0  0  0  0  0  0  0  0  0  0  0  0  # atno 17320 bound_to 7965
  145.8701  139.2267  143.1666 LP  0  0  0  0  0  0  0  0  0  0  0  0  # atno 17321 bound_to 7965
  139.5249  144.7089  151.5268 LP  0  0  0  0  0  0  0  0  0  0  0  0  # atno 17342 bound_to 10162
  140.6444  143.8825  150.6722 LP  0  0  0  0  0  0  0  0  0  0  0  0  # atno 17343 bound_to 10162
  157.1207  130.6060  149.5504 LP  0  0  0  0  0  0  0  0  0  0  0  0  # atno 17370 bound_to 10713
  155.9898  130.4947  150.7232 LP  0  0  0  0  0  0  0  0  0  0  0  0  # atno 17371 bound_to 10713
  141.2223  133.7193  156.8574 LP  0  0  0  0  0  0  0  0  0  0  0  0  # atno 17394 bound_to 11000
  140.1850  134.9006  157.2994 LP  0  0  0  0  0  0  0  0  0  0  0  0  # atno 17395 bound_to 11000

$$$$
