AV-unprocessed.smi:87|AV-procd|sdf|820|dock2
  -GOLD-   2262017223D 1   1.00000     0.00000
 Structure written by MMmdl.
 58 60  0  0  0  0  0  0  0  0  1 V2000
  146.4286  137.7401  155.2997 C   0  0  0  0  0  0  0  0  0  0  0  0
  147.2203  136.4243  155.3209 C   0  0  0  0  0  0  0  0  0  0  0  0
  148.3093  136.3514  156.4179 C   0  0  0  0  0  0  0  0  0  0  0  0
  149.1096  135.0309  156.3308 C   0  0  0  0  0  0  0  0  0  0  0  0
  149.9115  134.8655  155.0312 C   0  0  0  0  0  0  0  0  0  0  0  0
  147.6982  136.5247  157.8328 C   0  0  0  0  0  0  0  0  0  0  0  0
  148.6596  136.3567  158.9267 N   0  0  0  0  0  0  0  0  0  0  0  0
  148.3103  135.5124  160.0685 C   0  0  0  0  0  0  0  0  0  0  0  0
  147.9041  136.3295  161.3043 C   0  0  0  0  0  0  0  0  0  0  0  0
  147.5918  135.4775  162.4607 C   0  0  0  0  0  0  0  0  0  0  0  0
  147.3463  134.8070  163.3708 N   0  0  0  0  0  0  0  0  0  0  0  0
  149.7294  137.1970  158.9825 C   0  0  0  0  0  0  0  0  0  0  0  0
  150.7983  136.8122  159.7294 N   0  0  0  0  0  0  0  0  0  0  0  0
  151.8803  137.5892  159.8227 C   0  0  0  0  0  0  0  0  0  0  0  0
  152.1044  138.7764  159.2592 N   0  0  0  0  0  0  0  0  0  0  0  0
  151.0426  139.1694  158.4999 C   0  0  0  0  0  0  0  0  0  0  0  0
  149.8278  138.4499  158.3045 C   0  0  0  0  0  0  0  0  0  0  0  0
  148.9982  139.1688  157.4494 N   0  0  0  0  0  0  0  0  0  0  0  0
  149.6745  140.2478  157.1672 C   0  0  0  0  0  0  0  0  0  0  0  0
  150.9137  140.3292  157.7565 N   0  0  0  0  0  0  0  0  0  0  0  0
  151.8738  141.4107  157.6118 C   0  0  0  0  0  0  0  0  0  0  0  0
  151.2280  142.8068  157.7678 C   0  0  2  0  0  0  0  0  0  0  0  0
  150.7442  143.2065  156.4985 O   0  0  0  0  0  0  0  0  0  0  0  0
  152.2024  143.9084  158.2506 C   0  0  2  0  0  0  0  0  0  0  0  0
  152.9316  143.6165  159.5736 C   0  0  0  0  0  0  0  0  0  0  0  0
  152.0271  144.2338  160.6145 C   0  0  0  0  0  0  0  0  0  0  0  0
  151.5589  145.4814  159.8836 C   0  0  0  0  0  0  0  0  0  0  0  0
  151.4177  145.0725  158.5287 O   0  0  0  0  0  0  0  0  0  0  0  0
  145.6204  137.6881  154.5699 H   0  0  0  0  0  0  0  0  0  0  0  0
  147.0517  138.5912  155.0286 H   0  0  0  0  0  0  0  0  0  0  0  0
  145.9804  137.9451  156.2723 H   0  0  0  0  0  0  0  0  0  0  0  0
  146.4942  135.6270  155.4716 H   0  0  0  0  0  0  0  0  0  0  0  0
  147.6646  136.2432  154.3416 H   0  0  0  0  0  0  0  0  0  0  0  0
  149.0101  137.1681  156.2410 H   0  0  0  0  0  0  0  0  0  0  0  0
  149.7782  134.9449  157.1883 H   0  0  0  0  0  0  0  0  0  0  0  0
  148.4322  134.1811  156.3954 H   0  0  0  0  0  0  0  0  0  0  0  0
  150.3741  133.8793  154.9895 H   0  0  0  0  0  0  0  0  0  0  0  0
  150.7115  135.5998  154.9460 H   0  0  0  0  0  0  0  0  0  0  0  0
  149.2677  134.9649  154.1569 H   0  0  0  0  0  0  0  0  0  0  0  0
  147.2333  137.5084  157.9040 H   0  0  0  0  0  0  0  0  0  0  0  0
  146.8862  135.8167  157.9917 H   0  0  0  0  0  0  0  0  0  0  0  0
  147.5189  134.8169  159.7925 H   0  0  0  0  0  0  0  0  0  0  0  0
  149.1662  134.8904  160.3314 H   0  0  0  0  0  0  0  0  0  0  0  0
  148.7112  137.0021  161.5948 H   0  0  0  0  0  0  0  0  0  0  0  0
  147.0273  136.9457  161.1095 H   0  0  0  0  0  0  0  0  0  0  0  0
  152.6810  137.2037  160.4364 H   0  0  0  0  0  0  0  0  0  0  0  0
  149.2878  141.0163  156.5137 H   0  0  0  0  0  0  0  0  0  0  0  0
  152.6489  141.2538  158.3609 H   0  0  0  0  0  0  0  0  0  0  0  0
  152.3570  141.3216  156.6382 H   0  0  0  0  0  0  0  0  0  0  0  0
  150.3820  142.7339  158.4524 H   0  0  0  0  0  0  0  0  0  0  0  0
  150.1492  143.9311  156.6176 H   0  0  0  0  0  0  0  0  0  0  0  0
  152.9355  144.1274  157.4725 H   0  0  0  0  0  0  0  0  0  0  0  0
  153.1449  142.5670  159.7653 H   0  0  0  0  0  0  0  0  0  0  0  0
  153.8885  144.1406  159.5791 H   0  0  0  0  0  0  0  0  0  0  0  0
  151.1839  143.5748  160.8249 H   0  0  0  0  0  0  0  0  0  0  0  0
  152.5373  144.4547  161.5523 H   0  0  0  0  0  0  0  0  0  0  0  0
  150.6257  145.8796  160.2825 H   0  0  0  0  0  0  0  0  0  0  0  0
  152.3164  146.2643  159.9390 H   0  0  0  0  0  0  0  0  0  0  0  0
  1  2  1  0  0  0  0
  1 29  1  0  0  0  0
  1 30  1  0  0  0  0
  1 31  1  0  0  0  0
  2  3  1  0  0  0  0
  2 32  1  0  0  0  0
  2 33  1  0  0  0  0
  3  4  1  0  0  0  0
  3  6  1  0  0  0  0
  3 34  1  0  0  0  0
  4  5  1  0  0  0  0
  4 35  1  0  0  0  0
  4 36  1  0  0  0  0
  5 37  1  0  0  0  0
  5 38  1  0  0  0  0
  5 39  1  0  0  0  0
  6  7  1  0  0  0  0
  6 40  1  0  0  0  0
  6 41  1  0  0  0  0
  7  8  1  0  0  0  0
  7 12  1  0  0  0  0
  8  9  1  0  0  0  0
  8 42  1  0  0  0  0
  8 43  1  0  0  0  0
  9 10  1  0  0  0  0
  9 44  1  0  0  0  0
  9 45  1  0  0  0  0
 10 11  3  0  0  0  0
 12 17  1  0  0  0  0
 12 13  2  0  0  0  0
 13 14  1  0  0  0  0
 14 15  2  0  0  0  0
 14 46  1  0  0  0  0
 15 16  1  0  0  0  0
 16 20  1  0  0  0  0
 16 17  2  0  0  0  0
 17 18  1  0  0  0  0
 18 19  2  0  0  0  0
 19 20  1  0  0  0  0
 19 47  1  0  0  0  0
 20 21  1  0  0  0  0
 21 22  1  0  0  0  0
 21 48  1  0  0  0  0
 21 49  1  0  0  0  0
 22 23  1  0  0  0  0
 22 24  1  0  0  0  0
 22 50  1  0  0  0  0
 23 51  1  0  0  0  0
 24 28  1  0  0  0  0
 24 25  1  0  0  0  0
 24 52  1  0  0  0  0
 25 26  1  0  0  0  0
 25 53  1  0  0  0  0
 25 54  1  0  0  0  0
 26 27  1  0  0  0  0
 26 55  1  0  0  0  0
 26 56  1  0  0  0  0
 27 28  1  0  0  0  0
 27 57  1  0  0  0  0
 27 58  1  0  0  0  0
M  END
> <s_m_source_file>
AV-unprocessed.smi

> <i_m_source_file_index>
87

> <i_lp_mmshare_version>
43012

> <i_f3d_flags>
0

> <s_epik_input>
W0NIM11bQ0gyXVtDSF0oW0NIMl1bQ0gzXSlbQ0gyXU4oW0NIMl1bQ0gyXUMjTiljKG5bY0hdbjEpYyhjMTIpbltjSF1uMltDSDJdW0NASF0oW09IXSlbQ0BASF0zW0NIMl1bQ0gyXVtDSDJdTzM=

> <s_epik_cmdline>
J2VwaWtfcHl0aG9uJywgJy1waCcsICc3LjAnLCAnLXRuJywgJzgnLCAnLW1hJywgJzIwMCcsICctbWV0YWxfYmluZGluZycsICctaW1hZScsICc8aW5maWxlLm1hZT4nLCAnLW9tYWUnLCAnPG91dGZpbGUubWFlPic=

> <r_lp_tautomer_probability>
1

> <r_epik_Ionization_Penalty>
0.000348566

> <r_epik_Ionization_Penalty_Charging>
0

> <r_epik_Ionization_Penalty_Neutral>
0.000348566

> <r_epik_State_Penalty>
-0

> <r_epik_Charging_Adjusted_Penalty>
0

> <i_epik_Tot_Q>
0

> <i_epik_Tot_abs_Q>
0

> <r_epik_Metal_State_Penalty>
-0

> <b_epik_Metal_Only>
0

> <s_lp_Force_Field>
OPLS_2005

> <r_lp_Energy>
36.7846

> <b_lp_Chiralities_Consistent>
1

> <s_lp_Variant>
AV-unprocessed.smi:87-1

> <Gold.Version>
5.8.1

> <Gold.Id.Protein>
6NUR|6NUR_protein|mol2

> <Gold.PLP.Fitness>
51.5186

> <Gold.PLP.PLP>
-47.7666

> <Gold.PLP.part.hbond>
-3.3575

> <Gold.PLP.part.metal>
0.0000

> <Gold.PLP.part.buried>
-8.9697

> <Gold.PLP.part.nonpolar>
-36.2722

> <Gold.PLP.part.repulsive>
0.1461

> <Gold.PLP.ligand.clash>
0.0000

> <Gold.PLP.ligand.torsion>
1.0465

> <Gold.PLP.Chemscore.Hbond>
1.7040

> <Gold.PLP.Chemscore.CHOScore>
0.0000

> <Gold.PLP.Chemscore.Metal>
0.0000

> <Gold.Chemscore.Hbonds>
donor molecule, donor type, donor heavy atom, donor atom, acceptor molecule, acceptor atom, score
      L1  H    23    51       P1  8028  0.75
      P1  H  6896  6909       L1    13  1.00

> <Gold.PLP.Chemscore.Internal.Correction>
0.7331

> <Gold.Rescore>
     Score         DG    S(hbond)    S(metal)    S(lipo)     H(rot)  DE(clash)    DE(int)     intcor
     11.39     -13.58       1.70        0.00      94.53       3.37       0.07       2.11       ----

> <Gold.Chemscore.Fitness>
11.3924

> <Gold.Chemscore.DG>
-13.5814

> <Gold.Chemscore.ZeroCoef>
-5.4800

> <Gold.Chemscore.Hbond>
1.6950

> <Gold.Chemscore.Metal>
0.0000

> <Gold.Chemscore.Lipo>
94.5306

> <Gold.Chemscore.Internal_Hbond>
0.0000

> <Gold.Chemscore.DEClash>
0.0745

> <Gold.Chemscore.DEInternal>
2.1145

> <Gold.Chemscore.Rot>
3.3672

> <Gold.Chemscore.Internal.Correction>
   9.000000E+99

> <Gold.Chemscore.Hbonds>
donor molecule, donor type, donor heavy atom, donor atom, acceptor molecule, acceptor atom, score
      L1  H    23    51       P1  8028  0.74
      P1  H  6896  6909       L1    13  0.85

> <Gold.Chemscore.Hbond.Weighted>
-5.6614

> <Gold.Chemscore.Metal.Weighted>
-0.0000

> <Gold.Chemscore.Lipo.Weighted>
-11.0601

> <Gold.Chemscore.Internal_Hbond.Weighted>
0.0000

> <Gold.Chemscore.DEClash.Weighted>
0.0745

> <Gold.Chemscore.DEInternal.Weighted>
2.1145

> <Gold.Chemscore.Rot.Weighted>
8.6201

> <Gold.Chemscore.Internal.Correction.Weighted>
   9.000000E+99

> <Gold.Protein.RotatedTorsions>
[ 6907 6896 6895 6894 ] final   93.64 input  -60.11 | X-H torsion
[ 7974 7965 7964 7962 ] final   44.13 input  175.53 | X-H torsion
[ 8008 7997 7996 7995 ] final -157.75 input   59.86 | X-H torsion
[ 10167 10162 10161 10158 ] final  122.58 input  -65.29 | X-H torsion
[ 10718 10713 10712 10709 ] final  117.11 input   66.30 | X-H torsion
[ 10763 10752 10751 10750 ] final  143.96 input  -60.55 | X-H torsion
[ 11005 11000 10999 10996 ] final   64.03 input  -57.11 | X-H torsion

> <Gold.Protein.ActiveResidues>
 VAL166  LYS551  ARG553  GLY616  TRP617  ASP618  TYR619  PRO620  LYS621  CYS622 
 ASP623  PHE694  ASN695  SER759  ASP760  ASP761  ALA762  ILE779  LEU786  VAL792 
 PHE793  MET794  SER795  GLU796  ALA797  LYS798  CYS799  TRP800  GLU811  SER814 

> <Gold.Protein.RotatedAtoms>
  152.5452  134.1316  159.8441 H   0  0  0  0  0  0  0  0  0  0  0  0  # atno 6907 bound_to 6896
  151.1361  133.4996  159.2605 H   0  0  0  0  0  0  0  0  0  0  0  0  # atno 6908 bound_to 6896
  151.1623  135.0289  159.8770 H   0  0  0  0  0  0  0  0  0  0  0  0  # atno 6909 bound_to 6896
  146.0595  139.5109  142.9667 H   0  0  0  0  0  0  0  0  0  0  0  0  # atno 7974 bound_to 7965
  155.7371  140.0809  157.2262 H   0  0  0  0  0  0  0  0  0  0  0  0  # atno 8008 bound_to 7997
  154.4026  140.1584  156.2629 H   0  0  0  0  0  0  0  0  0  0  0  0  # atno 8009 bound_to 7997
  155.9055  140.3407  155.6061 H   0  0  0  0  0  0  0  0  0  0  0  0  # atno 8010 bound_to 7997
  139.5850  144.7002  151.3432 H   0  0  0  0  0  0  0  0  0  0  0  0  # atno 10167 bound_to 10162
  157.6117  131.1033  150.7568 H   0  0  0  0  0  0  0  0  0  0  0  0  # atno 10718 bound_to 10713
  153.9809  135.2941  155.3420 H   0  0  0  0  0  0  0  0  0  0  0  0  # atno 10763 bound_to 10752
  154.7269  135.5085  153.8904 H   0  0  0  0  0  0  0  0  0  0  0  0  # atno 10764 bound_to 10752
  153.0855  135.6692  154.0073 H   0  0  0  0  0  0  0  0  0  0  0  0  # atno 10765 bound_to 10752
  139.9986  134.6478  155.9969 H   0  0  0  0  0  0  0  0  0  0  0  0  # atno 11005 bound_to 11000
  145.6585  141.0246  143.1722 LP  0  0  0  0  0  0  0  0  0  0  0  0  # atno 17320 bound_to 7965
  144.7167  139.8173  143.7396 LP  0  0  0  0  0  0  0  0  0  0  0  0  # atno 17321 bound_to 7965
  140.7123  143.7358  150.7590 LP  0  0  0  0  0  0  0  0  0  0  0  0  # atno 17342 bound_to 10162
  140.0900  143.4887  152.2484 LP  0  0  0  0  0  0  0  0  0  0  0  0  # atno 17343 bound_to 10162
  156.7944  130.4900  149.5379 LP  0  0  0  0  0  0  0  0  0  0  0  0  # atno 17370 bound_to 10713
  156.1223  130.6119  151.0212 LP  0  0  0  0  0  0  0  0  0  0  0  0  # atno 17371 bound_to 10713
  141.1624  133.6538  156.4363 LP  0  0  0  0  0  0  0  0  0  0  0  0  # atno 17394 bound_to 11000
  140.4771  134.6699  157.5155 LP  0  0  0  0  0  0  0  0  0  0  0  0  # atno 17395 bound_to 11000

$$$$
