AV-unprocessed.smi:396|AV-procd|sdf|2487|dock3
  -GOLD-   2262022433D 1   1.00000     0.00000
 Structure written by MMmdl.
 40 42  0  0  0  0  0  0  0  0  1 V2000
  152.9840  136.6844  156.4285 N   0  0  0  0  0  0  0  0  0  0  0  0
  152.6943  137.7597  156.7440 C   0  0  0  0  0  0  0  0  0  0  0  0
  152.3143  139.0832  157.1119 C   0  0  0  0  0  0  0  0  0  0  0  0
  152.6016  139.5933  158.3272 C   0  0  0  0  0  0  0  0  0  0  0  0
  152.2527  140.8746  158.6942 N   0  0  0  0  0  0  0  0  0  0  0  0
  152.4481  141.3501  160.0348 C   0  0  0  0  0  0  0  0  0  0  0  0
  153.1244  142.6849  160.2813 C   0  0  0  0  0  0  0  0  0  0  0  0
  153.8517  141.4013  160.5982 C   0  0  0  0  0  0  0  0  0  0  0  0
  151.4917  141.6813  157.8203 C   0  0  0  0  0  0  0  0  0  0  0  0
  151.1000  142.8000  158.1626 O   0  0  0  0  0  0  0  0  0  0  0  0
  151.1915  141.1660  156.5358 N   0  0  0  0  0  0  0  0  0  0  0  0
  150.4564  142.0268  155.5831 C   0  0  0  0  0  0  0  0  0  0  0  0
  149.0892  141.4571  155.1753 C   0  0  0  0  0  0  0  0  0  0  0  0
  148.9436  140.2560  154.9423 O   0  0  0  0  0  0  0  0  0  0  0  0
  148.0855  142.3438  155.1010 N   0  0  0  0  0  0  0  0  0  0  0  0
  146.7085  142.0203  154.7372 C   0  0  0  0  0  0  0  0  0  0  0  0
  146.2647  142.8391  153.5114 C   0  0  0  0  0  0  0  0  0  0  0  0
  145.2664  143.8723  154.0346 C   0  0  0  0  0  0  0  0  0  0  0  0
  144.5937  143.1748  155.2125 C   0  0  0  0  0  0  0  0  0  0  0  0
  145.7191  142.3726  155.8679 C   0  0  0  0  0  0  0  0  0  0  0  0
  151.5934  139.8723  156.1157 C   0  0  0  0  0  0  0  0  0  0  0  0
  151.3399  139.4655  154.9804 O   0  0  0  0  0  0  0  0  0  0  0  0
  153.1336  138.9789  159.0393 H   0  0  0  0  0  0  0  0  0  0  0  0
  151.6655  141.0789  160.7413 H   0  0  0  0  0  0  0  0  0  0  0  0
  153.4727  143.2530  159.4206 H   0  0  0  0  0  0  0  0  0  0  0  0
  152.7652  143.2808  161.1176 H   0  0  0  0  0  0  0  0  0  0  0  0
  153.9801  141.1415  161.6469 H   0  0  0  0  0  0  0  0  0  0  0  0
  154.6775  141.1241  159.9456 H   0  0  0  0  0  0  0  0  0  0  0  0
  150.3031  143.0268  155.9919 H   0  0  0  0  0  0  0  0  0  0  0  0
  151.0461  142.1997  154.6812 H   0  0  0  0  0  0  0  0  0  0  0  0
  148.2880  143.3107  155.3095 H   0  0  0  0  0  0  0  0  0  0  0  0
  146.6407  140.9583  154.4935 H   0  0  0  0  0  0  0  0  0  0  0  0
  147.0936  143.3037  152.9754 H   0  0  0  0  0  0  0  0  0  0  0  0
  145.7582  142.1799  152.8048 H   0  0  0  0  0  0  0  0  0  0  0  0
  145.8007  144.7558  154.3867 H   0  0  0  0  0  0  0  0  0  0  0  0
  144.5550  144.1925  153.2728 H   0  0  0  0  0  0  0  0  0  0  0  0
  144.1201  143.8743  155.9020 H   0  0  0  0  0  0  0  0  0  0  0  0
  143.8236  142.4954  154.8447 H   0  0  0  0  0  0  0  0  0  0  0  0
  145.3436  141.4841  156.3762 H   0  0  0  0  0  0  0  0  0  0  0  0
  146.2027  142.9942  156.6236 H   0  0  0  0  0  0  0  0  0  0  0  0
  1  2  3  0  0  0  0
  2  3  1  0  0  0  0
  3 21  1  0  0  0  0
  3  4  2  0  0  0  0
  4  5  1  0  0  0  0
  4 23  1  0  0  0  0
  5  6  1  0  0  0  0
  5  9  1  0  0  0  0
  6  8  1  0  0  0  0
  6  7  1  0  0  0  0
  6 24  1  0  0  0  0
  7  8  1  0  0  0  0
  7 25  1  0  0  0  0
  7 26  1  0  0  0  0
  8 27  1  0  0  0  0
  8 28  1  0  0  0  0
  9 10  2  0  0  0  0
  9 11  1  0  0  0  0
 11 12  1  0  0  0  0
 11 21  1  0  0  0  0
 12 13  1  0  0  0  0
 12 29  1  0  0  0  0
 12 30  1  0  0  0  0
 13 14  2  0  0  0  0
 13 15  1  0  0  0  0
 15 16  1  0  0  0  0
 15 31  1  0  0  0  0
 16 20  1  0  0  0  0
 16 17  1  0  0  0  0
 16 32  1  0  0  0  0
 17 18  1  0  0  0  0
 17 33  1  0  0  0  0
 17 34  1  0  0  0  0
 18 19  1  0  0  0  0
 18 35  1  0  0  0  0
 18 36  1  0  0  0  0
 19 20  1  0  0  0  0
 19 37  1  0  0  0  0
 19 38  1  0  0  0  0
 20 39  1  0  0  0  0
 20 40  1  0  0  0  0
 21 22  2  0  0  0  0
M  END
> <s_m_source_file>
AV-unprocessed.smi

> <i_m_source_file_index>
396

> <i_lp_mmshare_version>
43012

> <i_f3d_flags>
0

> <s_epik_input>
TiNDYzFbY0hdbihbQ0hdMltDSDJdW0NIMl0yKWMoPU8pbihjMT1PKVtDSDJdQyg9TylbTkhdW0NIXTNbQ0gyXVtDSDJdW0NIMl1bQ0gyXTM=

> <s_epik_cmdline>
J2VwaWtfcHl0aG9uJywgJy1waCcsICc3LjAnLCAnLXRuJywgJzgnLCAnLW1hJywgJzIwMCcsICctbWV0YWxfYmluZGluZycsICctaW1hZScsICc8aW5maWxlLm1hZT4nLCAnLW9tYWUnLCAnPG91dGZpbGUubWFlPic=

> <r_lp_tautomer_probability>
1

> <r_epik_Ionization_Penalty>
1.93885e-08

> <r_epik_Ionization_Penalty_Charging>
8.67893e-11

> <r_epik_Ionization_Penalty_Neutral>
1.93017e-08

> <r_epik_State_Penalty>
-0

> <r_epik_Charging_Adjusted_Penalty>
8.67893e-11

> <i_epik_Tot_Q>
0

> <i_epik_Tot_abs_Q>
0

> <r_epik_Metal_State_Penalty>
-0

> <b_epik_Metal_Only>
0

> <s_lp_Force_Field>
OPLS_2005

> <r_lp_Energy>
43.3866

> <b_lp_Chiralities_Consistent>
1

> <s_lp_Variant>
AV-unprocessed.smi:396-1

> <Gold.Version>
5.8.1

> <Gold.Id.Protein>
6NUR|6NUR_protein|mol2

> <Gold.PLP.Fitness>
49.3029

> <Gold.PLP.PLP>
-41.2230

> <Gold.PLP.part.hbond>
-3.0000

> <Gold.PLP.part.metal>
0.0000

> <Gold.PLP.part.buried>
-5.8959

> <Gold.PLP.part.nonpolar>
-32.9801

> <Gold.PLP.part.repulsive>
0.3406

> <Gold.PLP.ligand.clash>
0.0000

> <Gold.PLP.ligand.torsion>
0.3671

> <Gold.PLP.Chemscore.Hbond>
2.8713

> <Gold.PLP.Chemscore.CHOScore>
0.0000

> <Gold.PLP.Chemscore.Metal>
0.0000

> <Gold.Chemscore.Hbonds>
donor molecule, donor type, donor heavy atom, donor atom, acceptor molecule, acceptor atom, score
      L1  H    15    31       P1  8028  1.00
      P1  H  7989  7998       L1    22  0.93
      P1  H 10752 10765       L1     1  0.94

> <Gold.PLP.Chemscore.Internal.Correction>
0.2002

> <Gold.Rescore>
     Score         DG    S(hbond)    S(metal)    S(lipo)     H(rot)  DE(clash)    DE(int)     intcor
     14.34     -18.36       2.57        0.00      75.18       1.76       0.71       3.31       ----

> <Gold.Chemscore.Fitness>
14.3404

> <Gold.Chemscore.DG>
-18.3625

> <Gold.Chemscore.ZeroCoef>
-5.4800

> <Gold.Chemscore.Hbond>
2.5746

> <Gold.Chemscore.Metal>
0.0000

> <Gold.Chemscore.Lipo>
75.1775

> <Gold.Chemscore.Internal_Hbond>
0.0000

> <Gold.Chemscore.DEClash>
0.7102

> <Gold.Chemscore.DEInternal>
3.3119

> <Gold.Chemscore.Rot>
1.7627

> <Gold.Chemscore.Internal.Correction>
   9.000000E+99

> <Gold.Chemscore.Hbonds>
donor molecule, donor type, donor heavy atom, donor atom, acceptor molecule, acceptor atom, score
      L1  H    15    31       P1  8028  0.91
      P1  H  7989  7998       L1    22  0.78
      P1  H 10752 10765       L1     1  0.91

> <Gold.Chemscore.Hbond.Weighted>
-8.5993

> <Gold.Chemscore.Metal.Weighted>
-0.0000

> <Gold.Chemscore.Lipo.Weighted>
-8.7958

> <Gold.Chemscore.Internal_Hbond.Weighted>
0.0000

> <Gold.Chemscore.DEClash.Weighted>
0.7102

> <Gold.Chemscore.DEInternal.Weighted>
3.3119

> <Gold.Chemscore.Rot.Weighted>
4.5126

> <Gold.Chemscore.Internal.Correction.Weighted>
   9.000000E+99

> <Gold.Protein.RotatedTorsions>
[ 6907 6896 6895 6894 ] final  -51.77 input  -60.11 | X-H torsion
[ 7974 7965 7964 7962 ] final -156.26 input  175.53 | X-H torsion
[ 8008 7997 7996 7995 ] final   47.73 input   59.86 | X-H torsion
[ 10167 10162 10161 10158 ] final -162.48 input  -65.29 | X-H torsion
[ 10718 10713 10712 10709 ] final -107.21 input   66.30 | X-H torsion
[ 10763 10752 10751 10750 ] final -130.97 input  -60.55 | X-H torsion
[ 11005 11000 10999 10996 ] final  -13.85 input  -57.11 | X-H torsion

> <Gold.Protein.ActiveResidues>
 VAL166  LYS551  ARG553  GLY616  TRP617  ASP618  TYR619  PRO620  LYS621  CYS622 
 ASP623  PHE694  ASN695  SER759  ASP760  ASP761  ALA762  ILE779  LEU786  VAL792 
 PHE793  MET794  SER795  GLU796  ALA797  LYS798  CYS799  TRP800  GLU811  SER814 

> <Gold.Protein.RotatedAtoms>
  150.8580  134.7924  159.7060 H   0  0  0  0  0  0  0  0  0  0  0  0  # atno 6907 bound_to 6896
  152.4625  134.5147  159.9774 H   0  0  0  0  0  0  0  0  0  0  0  0  # atno 6908 bound_to 6896
  151.5256  133.3420  159.2944 H   0  0  0  0  0  0  0  0  0  0  0  0  # atno 6909 bound_to 6896
  144.7601  140.4134  143.5983 H   0  0  0  0  0  0  0  0  0  0  0  0  # atno 7974 bound_to 7965
  155.3740  140.3425  155.4244 H   0  0  0  0  0  0  0  0  0  0  0  0  # atno 8008 bound_to 7997
  156.1647  140.1612  156.8586 H   0  0  0  0  0  0  0  0  0  0  0  0  # atno 8009 bound_to 7997
  154.5173  140.0775  156.8088 H   0  0  0  0  0  0  0  0  0  0  0  0  # atno 8010 bound_to 7997
  139.6389  144.0297  152.2076 H   0  0  0  0  0  0  0  0  0  0  0  0  # atno 10167 bound_to 10162
  156.0426  130.5651  150.7790 H   0  0  0  0  0  0  0  0  0  0  0  0  # atno 10718 bound_to 10713
  154.8753  135.3845  154.4169 H   0  0  0  0  0  0  0  0  0  0  0  0  # atno 10763 bound_to 10752
  153.4877  135.7030  153.5907 H   0  0  0  0  0  0  0  0  0  0  0  0  # atno 10764 bound_to 10752
  153.4294  135.3882  155.2128 H   0  0  0  0  0  0  0  0  0  0  0  0  # atno 10765 bound_to 10752
  140.7804  133.8367  155.9287 H   0  0  0  0  0  0  0  0  0  0  0  0  # atno 11005 bound_to 11000
  145.6647  139.1588  143.2788 LP  0  0  0  0  0  0  0  0  0  0  0  0  # atno 17320 bound_to 7965
  146.1655  140.6724  142.9257 LP  0  0  0  0  0  0  0  0  0  0  0  0  # atno 17321 bound_to 7965
  139.9981  144.6313  150.7754 LP  0  0  0  0  0  0  0  0  0  0  0  0  # atno 17342 bound_to 10162
  140.7480  143.2916  151.3316 LP  0  0  0  0  0  0  0  0  0  0  0  0  # atno 17343 bound_to 10162
  157.5262  131.0934  151.0014 LP  0  0  0  0  0  0  0  0  0  0  0  0  # atno 17370 bound_to 10713
  157.0332  130.5719  149.5346 LP  0  0  0  0  0  0  0  0  0  0  0  0  # atno 17371 bound_to 10713
  140.9488  134.1806  157.4743 LP  0  0  0  0  0  0  0  0  0  0  0  0  # atno 17394 bound_to 11000
  139.8743  134.9901  156.5487 LP  0  0  0  0  0  0  0  0  0  0  0  0  # atno 17395 bound_to 11000

$$$$
