#       Name:                AV-unprocessed.smi:1116
#       Creating user name   scv26
#       Creation time:       Fri Mar 27 03:36:26 2020


#       File generated by GOLD software.
#

@<TRIPOS>MOLECULE
AV-unprocessed.smi:1116
    43    44     1
SMALL
NO_CHARGES


@<TRIPOS>ATOM
      1 ****        -6.5340   1.4866  -2.4106 C.3            1 S1                 0.0000
      2 ****        -5.5598   1.4420  -1.2835 C.2            1 S1                 0.0000
      3 ****        -4.2348   1.4231  -1.4509 N.2            1 S1                 0.0000
      4 ****        -3.5396   1.3853  -0.2380 C.2            1 S1                 0.0000
      5 ****        -2.0413   1.3575  -0.2327 C.3            1 S1                 0.0000
      6 ****        -1.4844  -0.0487  -0.5107 C.3            1 S1                 0.0000
      7 ****        -0.0259  -0.0575  -0.5196 N.am           1 S1                 0.0000
      8 ****         0.7523  -0.0777   0.5735 C.2            1 S1                 0.0000
      9 ****         0.3029  -0.0952   1.7198 O.2            1 S1                 0.0000
     10 ****         2.2640  -0.0603   0.3285 C.3            1 S1                 0.0000
     11 ****         3.0518  -0.9126   1.3424 C.3            1 S1                 0.0000
     12 ****         4.5743  -0.8716   1.1037 C.3            1 S1                 0.0000
     13 ****         4.9313  -1.5496  -0.1236 N.am           1 S1                 0.0000
     14 ****         5.7989  -2.5342   0.1002 C.2            1 S1                 0.0000
     15 ****         6.2474  -3.2200  -0.8157 O.2            1 S1                 0.0000
     16 ****         6.0635  -2.6292   1.4178 N.pl3          1 S1                -1.0000
     17 ****         5.3782  -1.6941   2.1106 C.2            1 S1                 0.0000
     18 ****         5.3484  -1.4614   3.3179 O.2            1 S1                 0.0000
     19 ****        -4.3651   1.3705   0.8585 C.2            1 S1                 0.0000
     20 ****        -6.0471   1.4084   0.4066 S.3            1 S1                 0.0000
     21 ****        -6.0139   1.5093  -3.3688 H              1 S1                 0.0000
     22 ****        -7.1559   2.3782  -2.3296 H              1 S1                 0.0000
     23 ****        -7.1766   0.6067  -2.3817 H              1 S1                 0.0000
     24 ****        -1.6557   2.0549  -0.9777 H              1 S1                 0.0000
     25 ****        -1.6721   1.7161   0.7288 H              1 S1                 0.0000
     26 ****        -1.8580  -0.7607   0.2273 H              1 S1                 0.0000
     27 ****        -1.8298  -0.4002  -1.4833 H              1 S1                 0.0000
     28 ****         0.4255  -0.0453  -1.4228 H              1 S1                 0.0000
     29 ****         2.4664  -0.4120  -0.6842 H              1 S1                 0.0000
     30 ****         2.6038   0.9748   0.3727 H              1 S1                 0.0000
     31 ****         2.8490  -0.5478   2.3507 H              1 S1                 0.0000
     32 ****         2.6969  -1.9446   1.3158 H              1 S1                 0.0000
     33 ****         4.9463   0.1537   1.0885 H              1 S1                 0.0000
     34 ****         4.5800  -1.2836  -1.0314 H              1 S1                 0.0000
     35 ****        -4.0860   1.3390   1.9015 H              1 S1                 0.0000
     36 ****        -3.7886   1.4347  -2.3458 LP             1 S1                 0.0000
     37 ****        -0.6859  -0.0948   1.8693 LP             1 S1                 0.0000
     38 ****         0.9267  -0.1098   2.5012 LP             1 S1                 0.0000
     39 ****         5.9617  -3.0446  -1.7578 LP             1 S1                 0.0000
     40 ****         6.8980  -3.9534  -0.6188 LP             1 S1                 0.0000
     41 ****         6.6823  -3.2999   1.8267 LP             1 S1                 0.0000
     42 ****         4.7852  -0.7135   3.6692 LP             1 S1                 0.0000
     43 ****         5.8874  -2.0201   3.9482 LP             1 S1                 0.0000
@<TRIPOS>BOND
    1    1    2 1     
    2    1   21 1     
    3    1   22 1     
    4    1   23 1     
    5    2   20 1     
    6    2    3 2     
    7    3    4 1     
    8    4    5 1     
    9    4   19 2     
   10    5    6 1     
   11    5   24 1     
   12    5   25 1     
   13    6    7 1     
   14    6   26 1     
   15    6   27 1     
   16    7    8 am    
   17    7   28 1     
   18    8    9 2     
   19    8   10 1     
   20   10   11 1     
   21   10   29 1     
   22   10   30 1     
   23   11   12 1     
   24   11   31 1     
   25   11   32 1     
   26   12   17 1     
   27   12   13 1     
   28   12   33 1     
   29   13   14 am    
   30   13   34 1     
   31   14   15 2     
   32   14   16 1     
   33   16   17 1     
   34   17   18 2     
   35   19   20 1     
   36   19   35 1     
   37    3   36 1     
   38    9   37 1     
   39    9   38 1     
   40   15   39 1     
   41   15   40 1     
   42   16   41 1     
   43   18   42 1     
   44   18   43 1     
@<TRIPOS>SUBSTRUCTURE
      1 S1             1
@<TRIPOS>SET
LONE_PAIRS      STATIC     ATOMS    <user>   **** ""
8 36 37 38 39 40 41 42 43
DONOR_HYDROGENS      STATIC     ATOMS    <user>   **** ""
2 28 34
ATOM$BLUE        STATIC     ATOMS    COLORGROUP SYSTEM
8 36 37 38 39 40 41 42 43
ATOM$RED        STATIC     ATOMS    COLORGROUP SYSTEM
2 28 34
