AV-unprocessed.smi:2069|AV-procd|sdf|8438|dock10
  -GOLD-   2272011133D 1   1.00000     0.00000
 Structure written by MMmdl.
 38 39  0  0  0  0  0  0  0  0  3 V2000
  152.3477  140.8229  159.3030 C   0  0  0  0  0  0  0  0  0  0  0  0
  152.0021  140.5227  157.8848 C   0  0  0  0  0  0  0  0  0  0  0  0
  152.7338  139.7099  157.1189 N   0  0  0  0  0  0  0  0  0  0  0  0
  152.2116  139.5868  155.8391 N   0  0  0  0  0  0  0  0  0  0  0  0
  151.0894  140.2975  155.6587 C   0  0  0  0  0  0  0  0  0  0  0  0
  150.4281  140.3174  154.4897 N   0  5  0  0  0  0  0  0  0  0  0  0
  149.0776  140.2675  154.4770 C   0  0  0  0  0  0  0  0  0  0  0  0
  148.3147  140.8961  155.2144 O   0  0  0  0  0  0  0  0  0  0  0  0
  148.5773  139.4438  153.5453 N   0  0  0  0  0  0  0  0  0  0  0  0
  147.1589  139.2125  153.2885 C   0  0  0  0  0  0  0  0  0  0  0  0
  146.6138  137.9388  153.9902 C   0  0  1  0  0  0  0  0  0  0  0  0
  145.2579  138.2475  154.6717 C   0  0  0  0  0  0  0  0  0  0  0  0
  146.5452  136.7934  153.0245 N   0  3  0  0  0  0  0  0  0  0  0  0
  146.2638  135.4940  153.6961 C   0  0  0  0  0  0  0  0  0  0  0  0
  146.2692  134.3330  152.6890 C   0  0  0  0  0  0  0  0  0  0  0  0
  145.3071  134.5804  151.6752 O   0  0  0  0  0  0  0  0  0  0  0  0
  145.6142  135.7595  150.9471 C   0  0  0  0  0  0  0  0  0  0  0  0
  145.6005  136.9769  151.8875 C   0  0  0  0  0  0  0  0  0  0  0  0
  150.5963  141.2072  157.0868 S   0  0  0  0  0  0  0  0  0  0  0  0
  152.0312  140.0011  159.9453 H   0  0  0  0  0  0  0  0  0  0  0  0
  151.8481  141.7351  159.6298 H   0  0  0  0  0  0  0  0  0  0  0  0
  153.4242  140.9587  159.4092 H   0  0  0  0  0  0  0  0  0  0  0  0
  149.2364  138.9445  152.9658 H   0  0  0  0  0  0  0  0  0  0  0  0
  146.6104  140.0881  153.6368 H   0  0  0  0  0  0  0  0  0  0  0  0
  147.0213  139.1818  152.2088 H   0  0  0  0  0  0  0  0  0  0  0  0
  147.3046  137.6506  154.7841 H   0  0  0  0  0  0  0  0  0  0  0  0
  145.3269  139.1053  155.3407 H   0  0  0  0  0  0  0  0  0  0  0  0
  144.9143  137.4217  155.2944 H   0  0  0  0  0  0  0  0  0  0  0  0
  144.4836  138.4692  153.9366 H   0  0  0  0  0  0  0  0  0  0  0  0
  147.0014  135.2767  154.4658 H   0  0  0  0  0  0  0  0  0  0  0  0
  145.2944  135.5437  154.1947 H   0  0  0  0  0  0  0  0  0  0  0  0
  147.2592  134.2002  152.2495 H   0  0  0  0  0  0  0  0  0  0  0  0
  146.0169  133.3995  153.1927 H   0  0  0  0  0  0  0  0  0  0  0  0
  146.5837  135.6570  150.4568 H   0  0  0  0  0  0  0  0  0  0  0  0
  144.8728  135.8879  150.1584 H   0  0  0  0  0  0  0  0  0  0  0  0
  144.5929  137.1423  152.2723 H   0  0  0  0  0  0  0  0  0  0  0  0
  145.8718  137.8481  151.2923 H   0  0  0  0  0  0  0  0  0  0  0  0
  147.4637  136.7184  152.6110 H   0  0  0  0  0  0  0  0  0  0  0  0
  1  2  1  0  0  0  0
  1 20  1  0  0  0  0
  1 21  1  0  0  0  0
  1 22  1  0  0  0  0
  2 19  1  0  0  0  0
  2  3  2  0  0  0  0
  3  4  1  0  0  0  0
  4  5  2  0  0  0  0
  5  6  1  0  0  0  0
  5 19  1  0  0  0  0
  6  7  1  0  0  0  0
  7  8  2  0  0  0  0
  7  9  1  0  0  0  0
  9 10  1  0  0  0  0
  9 23  1  0  0  0  0
 10 11  1  0  0  0  0
 10 24  1  0  0  0  0
 10 25  1  0  0  0  0
 11 12  1  0  0  0  0
 11 13  1  0  0  0  0
 11 26  1  0  0  0  0
 12 27  1  0  0  0  0
 12 28  1  0  0  0  0
 12 29  1  0  0  0  0
 13 18  1  0  0  0  0
 13 14  1  0  0  0  0
 13 38  1  0  0  0  0
 14 15  1  0  0  0  0
 14 30  1  0  0  0  0
 14 31  1  0  0  0  0
 15 16  1  0  0  0  0
 15 32  1  0  0  0  0
 15 33  1  0  0  0  0
 16 17  1  0  0  0  0
 17 18  1  0  0  0  0
 17 34  1  0  0  0  0
 17 35  1  0  0  0  0
 18 36  1  0  0  0  0
 18 37  1  0  0  0  0
M  CHG  1   6  -1
M  CHG  1  13   1
M  END
> <s_m_source_file>
AV-unprocessed.smi

> <i_m_source_file_index>
2069

> <i_lp_mmshare_version>
43012

> <i_f3d_flags>
0

> <s_epik_input>
W0NIM11jMW5uYyhzMSlbTkhdQyg9TylbTkhdW0NIMl1bQ0BIXShbQ0gzXSlOMltDSDJdW0NIMl1PW0NIMl1bQ0gyXTI=

> <s_epik_cmdline>
J2VwaWtfcHl0aG9uJywgJy1waCcsICc3LjAnLCAnLXRuJywgJzgnLCAnLW1hJywgJzIwMCcsICctbWV0YWxfYmluZGluZycsICctaW1hZScsICc8aW5maWxlLm1hZT4nLCAnLW9tYWUnLCAnPG91dGZpbGUubWFlPic=

> <r_lp_tautomer_probability>
1

> <r_epik_Ionization_Penalty>
3.53072

> <r_epik_Ionization_Penalty_Charging>
3.4216

> <r_epik_Ionization_Penalty_Neutral>
0.109115

> <r_epik_State_Penalty>
3.61496

> <r_epik_Charging_Adjusted_Penalty>
7.03656

> <i_epik_Tot_Q>
0

> <i_epik_Tot_abs_Q>
2

> <r_epik_Metal_State_Penalty>
1.13918

> <b_epik_Metal_Only>
1

> <s_lp_Force_Field>
OPLS_2005

> <r_lp_Energy>
13.0561

> <b_lp_Chiralities_Consistent>
1

> <s_lp_Variant>
AV-unprocessed.smi:2069-8

> <Gold.Version>
5.8.1

> <Gold.Id.Protein>
6NUR|6NUR_protein|mol2

> <Gold.PLP.Fitness>
37.7357

> <Gold.PLP.PLP>
-28.2279

> <Gold.PLP.part.hbond>
-4.4576

> <Gold.PLP.part.metal>
0.0000

> <Gold.PLP.part.buried>
-3.8956

> <Gold.PLP.part.nonpolar>
-20.3296

> <Gold.PLP.part.repulsive>
0.4324

> <Gold.PLP.ligand.clash>
0.0000

> <Gold.PLP.ligand.torsion>
1.4860

> <Gold.PLP.Chemscore.Hbond>
4.1350

> <Gold.PLP.Chemscore.CHOScore>
0.0000

> <Gold.PLP.Chemscore.Metal>
0.0000

> <Gold.Chemscore.Hbonds>
donor molecule, donor type, donor heavy atom, donor atom, acceptor molecule, acceptor atom, score
      L1  H     9    23       P1  7957  0.16
      L1  H    13    38       P1  7948  2.00
      P1  H  7989  7998       L1     6  1.00
      P1  H  7997  8010       L1     3  0.99

> <Gold.PLP.Chemscore.Internal.Correction>
0.0747

> <Gold.Rescore>
     Score         DG    S(hbond)    S(metal)    S(lipo)     H(rot)  DE(clash)    DE(int)     intcor
     13.14     -15.80       2.70        0.00      46.61       1.62       0.05       2.60       ----

> <Gold.Chemscore.Fitness>
13.1430

> <Gold.Chemscore.DG>
-15.7967

> <Gold.Chemscore.ZeroCoef>
-5.4800

> <Gold.Chemscore.Hbond>
2.6972

> <Gold.Chemscore.Metal>
0.0000

> <Gold.Chemscore.Lipo>
46.6089

> <Gold.Chemscore.Internal_Hbond>
0.0000

> <Gold.Chemscore.DEClash>
0.0520

> <Gold.Chemscore.DEInternal>
2.6017

> <Gold.Chemscore.Rot>
1.6192

> <Gold.Chemscore.Internal.Correction>
   9.000000E+99

> <Gold.Chemscore.Hbonds>
donor molecule, donor type, donor heavy atom, donor atom, acceptor molecule, acceptor atom, score
      L1  H     9    23       P1  7957  0.16
      L1  H    13    38       P1  7948  1.00
      P1  H  7989  7998       L1     6  0.25
      P1  H  7997  8010       L1     3  0.55

> <Gold.Chemscore.Hbond.Weighted>
-9.0087

> <Gold.Chemscore.Metal.Weighted>
-0.0000

> <Gold.Chemscore.Lipo.Weighted>
-5.4532

> <Gold.Chemscore.Internal_Hbond.Weighted>
0.0000

> <Gold.Chemscore.DEClash.Weighted>
0.0520

> <Gold.Chemscore.DEInternal.Weighted>
2.6017

> <Gold.Chemscore.Rot.Weighted>
4.1452

> <Gold.Chemscore.Internal.Correction.Weighted>
   9.000000E+99

> <Gold.Protein.RotatedTorsions>
[ 6907 6896 6895 6894 ] final  154.79 input  -60.11 | X-H torsion
[ 7974 7965 7964 7962 ] final   34.59 input  175.53 | X-H torsion
[ 8008 7997 7996 7995 ] final   40.04 input   59.86 | X-H torsion
[ 10167 10162 10161 10158 ] final   21.91 input  -65.29 | X-H torsion
[ 10718 10713 10712 10709 ] final -134.22 input   66.30 | X-H torsion
[ 10763 10752 10751 10750 ] final   56.57 input  -60.55 | X-H torsion
[ 11005 11000 10999 10996 ] final  -97.64 input  -57.11 | X-H torsion

> <Gold.Protein.ActiveResidues>
 VAL166  LYS551  ARG553  GLY616  TRP617  ASP618  TYR619  PRO620  LYS621  CYS622 
 ASP623  PHE694  ASN695  SER759  ASP760  ASP761  ALA762  ILE779  LEU786  VAL792 
 PHE793  MET794  SER795  GLU796  ALA797  LYS798  CYS799  TRP800  GLU811  SER814 

> <Gold.Protein.RotatedAtoms>
  152.0534  133.4029  159.4386 H   0  0  0  0  0  0  0  0  0  0  0  0  # atno 6907 bound_to 6896
  150.6869  134.3282  159.4825 H   0  0  0  0  0  0  0  0  0  0  0  0  # atno 6908 bound_to 6896
  152.1094  134.9284  160.0618 H   0  0  0  0  0  0  0  0  0  0  0  0  # atno 6909 bound_to 6896
  146.1342  139.6250  142.9206 H   0  0  0  0  0  0  0  0  0  0  0  0  # atno 7974 bound_to 7965
  155.2466  140.3349  155.4286 H   0  0  0  0  0  0  0  0  0  0  0  0  # atno 8008 bound_to 7997
  156.2233  140.1818  156.7468 H   0  0  0  0  0  0  0  0  0  0  0  0  # atno 8009 bound_to 7997
  154.5859  140.0646  156.9156 H   0  0  0  0  0  0  0  0  0  0  0  0  # atno 8010 bound_to 7997
  140.5389  143.9711  150.6508 H   0  0  0  0  0  0  0  0  0  0  0  0  # atno 10167 bound_to 10162
  156.2531  130.7165  151.1071 H   0  0  0  0  0  0  0  0  0  0  0  0  # atno 10718 bound_to 10713
  152.9834  135.5671  154.5251 H   0  0  0  0  0  0  0  0  0  0  0  0  # atno 10763 bound_to 10752
  154.4732  135.2785  155.1629 H   0  0  0  0  0  0  0  0  0  0  0  0  # atno 10764 bound_to 10752
  154.3168  135.6277  153.5543 H   0  0  0  0  0  0  0  0  0  0  0  0  # atno 10765 bound_to 10752
  141.1372  133.8186  157.0733 H   0  0  0  0  0  0  0  0  0  0  0  0  # atno 11005 bound_to 11000
  145.5192  141.0432  143.2445 LP  0  0  0  0  0  0  0  0  0  0  0  0  # atno 17320 bound_to 7965
  144.7722  139.6708  143.7190 LP  0  0  0  0  0  0  0  0  0  0  0  0  # atno 17321 bound_to 7965
  140.3106  143.3200  152.0882 LP  0  0  0  0  0  0  0  0  0  0  0  0  # atno 17342 bound_to 10162
  139.4981  144.6638  151.6403 LP  0  0  0  0  0  0  0  0  0  0  0  0  # atno 17343 bound_to 10162
  157.7222  131.0674  150.6087 LP  0  0  0  0  0  0  0  0  0  0  0  0  # atno 17370 bound_to 10713
  156.6168  130.4395  149.5837 LP  0  0  0  0  0  0  0  0  0  0  0  0  # atno 17371 bound_to 10713
  140.0497  134.9812  157.1114 LP  0  0  0  0  0  0  0  0  0  0  0  0  # atno 17394 bound_to 11000
  140.4008  134.2084  155.7163 LP  0  0  0  0  0  0  0  0  0  0  0  0  # atno 17395 bound_to 11000

$$$$
