AV-unprocessed.smi:2265|AV-procd|sdf|9144|dock2
  -GOLD-   2272012353D 1   1.00000     0.00000
 Structure written by MMmdl.
 36 37  0  0  0  0  0  0  0  0  1 V2000
  151.0142  139.2649  154.7389 C   0  0  0  0  0  0  0  0  0  0  0  0
  149.6451  139.8630  154.3982 C   0  0  0  0  0  0  0  0  0  0  0  0
  148.6792  138.8250  153.8119 C   0  0  0  0  0  0  0  0  0  0  0  0
  147.3194  139.4197  153.4907 C   0  0  1  0  0  0  0  0  0  0  0  0
  146.9301  139.7457  152.0731 C   0  0  0  0  0  0  0  0  0  0  0  0
  146.2274  138.6212  152.8065 C   0  0  1  0  0  0  0  0  0  0  0  0
  146.5021  137.2854  152.3672 N   0  0  0  0  0  0  0  0  0  0  0  0
  145.6159  136.3061  152.1133 C   0  0  0  0  0  0  0  0  0  0  0  0
  144.4063  136.5097  152.2153 O   0  0  0  0  0  0  0  0  0  0  0  0
  146.1831  135.1470  151.7115 N   0  0  0  0  0  0  0  0  0  0  0  0
  145.5532  133.9528  151.3405 C   0  0  0  0  0  0  0  0  0  0  0  0
  144.4288  133.9107  150.6817 N   0  0  0  0  0  0  0  0  0  0  0  0
  143.8298  132.7012  150.3298 C   0  0  0  0  0  0  0  0  0  0  0  0
  144.3957  131.5277  150.6647 C   0  0  0  0  0  0  0  0  0  0  0  0
  145.6030  131.4927  151.3764 N   0  0  0  0  0  0  0  0  0  0  0  0
  146.1768  130.1892  151.7117 C   0  0  0  0  0  0  0  0  0  0  0  0
  146.2343  132.6414  151.7418 C   0  0  0  0  0  0  0  0  0  0  0  0
  147.2990  132.6613  152.3630 O   0  0  0  0  0  0  0  0  0  0  0  0
  151.6787  140.0250  155.1502 H   0  0  0  0  0  0  0  0  0  0  0  0
  151.4935  138.8478  153.8530 H   0  0  0  0  0  0  0  0  0  0  0  0
  150.9227  138.4682  155.4775 H   0  0  0  0  0  0  0  0  0  0  0  0
  149.2109  140.3009  155.2975 H   0  0  0  0  0  0  0  0  0  0  0  0
  149.7763  140.6812  153.6889 H   0  0  0  0  0  0  0  0  0  0  0  0
  149.1123  138.3919  152.9096 H   0  0  0  0  0  0  0  0  0  0  0  0
  148.5375  138.0057  154.5176 H   0  0  0  0  0  0  0  0  0  0  0  0
  146.9691  140.1159  154.2506 H   0  0  0  0  0  0  0  0  0  0  0  0
  146.3712  140.6643  151.9070 H   0  0  0  0  0  0  0  0  0  0  0  0
  147.6306  139.4801  151.2834 H   0  0  0  0  0  0  0  0  0  0  0  0
  145.2032  138.8434  153.1026 H   0  0  0  0  0  0  0  0  0  0  0  0
  147.4682  137.0845  152.1523 H   0  0  0  0  0  0  0  0  0  0  0  0
  147.1914  135.1548  151.6621 H   0  0  0  0  0  0  0  0  0  0  0  0
  142.9010  132.7600  149.7818 H   0  0  0  0  0  0  0  0  0  0  0  0
  143.9706  130.5669  150.4136 H   0  0  0  0  0  0  0  0  0  0  0  0
  147.1180  130.0417  151.1806 H   0  0  0  0  0  0  0  0  0  0  0  0
  145.5161  129.3627  151.4481 H   0  0  0  0  0  0  0  0  0  0  0  0
  146.3753  130.1172  152.7821 H   0  0  0  0  0  0  0  0  0  0  0  0
  1  2  1  0  0  0  0
  1 19  1  0  0  0  0
  1 20  1  0  0  0  0
  1 21  1  0  0  0  0
  2  3  1  0  0  0  0
  2 22  1  0  0  0  0
  2 23  1  0  0  0  0
  3  4  1  0  0  0  0
  3 24  1  0  0  0  0
  3 25  1  0  0  0  0
  4  6  1  0  0  0  0
  4  5  1  0  0  0  0
  4 26  1  0  0  0  0
  5  6  1  0  0  0  0
  5 27  1  0  0  0  0
  5 28  1  0  0  0  0
  6  7  1  0  0  0  0
  6 29  1  0  0  0  0
  7  8  1  0  0  0  0
  7 30  1  0  0  0  0
  8  9  2  0  0  0  0
  8 10  1  0  0  0  0
 10 11  1  0  0  0  0
 10 31  1  0  0  0  0
 11 17  1  0  0  0  0
 11 12  2  0  0  0  0
 12 13  1  0  0  0  0
 13 14  2  0  0  0  0
 13 32  1  0  0  0  0
 14 15  1  0  0  0  0
 14 33  1  0  0  0  0
 15 16  1  0  0  0  0
 15 17  1  0  0  0  0
 16 34  1  0  0  0  0
 16 35  1  0  0  0  0
 16 36  1  0  0  0  0
 17 18  2  0  0  0  0
M  END
> <s_m_source_file>
AV-unprocessed.smi

> <i_m_source_file_index>
2265

> <i_lp_mmshare_version>
43012

> <i_f3d_flags>
0

> <s_epik_input>
W0NIM11bQ0gyXVtDSDJdW0NAQEhdMVtDSDJdW0NASF0xW05IXUMoPU8pW05IXWMybltjSF1bY0hdbihbQ0gzXSljMj1P

> <s_epik_cmdline>
J2VwaWtfcHl0aG9uJywgJy1waCcsICc3LjAnLCAnLXRuJywgJzgnLCAnLW1hJywgJzIwMCcsICctbWV0YWxfYmluZGluZycsICctaW1hZScsICc8aW5maWxlLm1hZT4nLCAnLW9tYWUnLCAnPG91dGZpbGUubWFlPic=

> <r_lp_tautomer_probability>
1

> <r_epik_Ionization_Penalty>
0.000728552

> <r_epik_Ionization_Penalty_Charging>
1.67739e-07

> <r_epik_Ionization_Penalty_Neutral>
0.000728385

> <r_epik_State_Penalty>
-0

> <r_epik_Charging_Adjusted_Penalty>
1.67739e-07

> <i_epik_Tot_Q>
0

> <i_epik_Tot_abs_Q>
0

> <r_epik_Metal_State_Penalty>
-0

> <b_epik_Metal_Only>
0

> <s_lp_Force_Field>
OPLS_2005

> <r_lp_Energy>
43.9495

> <b_lp_Chiralities_Consistent>
1

> <s_lp_Variant>
AV-unprocessed.smi:2265-2

> <Gold.Version>
5.8.1

> <Gold.Id.Protein>
6NUR|6NUR_protein|mol2

> <Gold.PLP.Fitness>
40.1494

> <Gold.PLP.PLP>
-32.1637

> <Gold.PLP.part.hbond>
-2.0000

> <Gold.PLP.part.metal>
0.0000

> <Gold.PLP.part.buried>
1.1559

> <Gold.PLP.part.nonpolar>
-31.4955

> <Gold.PLP.part.repulsive>
0.5795

> <Gold.PLP.ligand.clash>
0.0000

> <Gold.PLP.ligand.torsion>
0.7993

> <Gold.PLP.Chemscore.Hbond>
1.9920

> <Gold.PLP.Chemscore.CHOScore>
1.0000

> <Gold.PLP.Chemscore.Metal>
0.0000

> <Gold.Chemscore.Hbonds>
donor molecule, donor type, donor heavy atom, donor atom, acceptor molecule, acceptor atom, score
      L1  H     7    30       P1  7948  1.00
      L1  H    10    31       P1  7948  0.99
      L1  C    13    32       P1 10186  1.00

> <Gold.PLP.Chemscore.Internal.Correction>
0.6084

> <Gold.Rescore>
     Score         DG    S(hbond)    S(metal)    S(lipo)     H(rot)  DE(clash)    DE(int)     intcor
     14.62     -16.48       1.94        0.00      70.56       1.46       0.42       1.44       ----

> <Gold.Chemscore.Fitness>
14.6154

> <Gold.Chemscore.DG>
-16.4815

> <Gold.Chemscore.ZeroCoef>
-5.4800

> <Gold.Chemscore.Hbond>
1.9417

> <Gold.Chemscore.Metal>
0.0000

> <Gold.Chemscore.Lipo>
70.5561

> <Gold.Chemscore.Internal_Hbond>
0.0000

> <Gold.Chemscore.DEClash>
0.4234

> <Gold.Chemscore.DEInternal>
1.4427

> <Gold.Chemscore.Rot>
1.4604

> <Gold.Chemscore.Internal.Correction>
   9.000000E+99

> <Gold.Chemscore.Hbonds>
donor molecule, donor type, donor heavy atom, donor atom, acceptor molecule, acceptor atom, score
      L1  H     7    30       P1  7948  1.00
      L1  H    10    31       P1  7948  0.81

> <Gold.Chemscore.Hbond.Weighted>
-6.4851

> <Gold.Chemscore.Metal.Weighted>
-0.0000

> <Gold.Chemscore.Lipo.Weighted>
-8.2551

> <Gold.Chemscore.Internal_Hbond.Weighted>
0.0000

> <Gold.Chemscore.DEClash.Weighted>
0.4234

> <Gold.Chemscore.DEInternal.Weighted>
1.4427

> <Gold.Chemscore.Rot.Weighted>
3.7387

> <Gold.Chemscore.Internal.Correction.Weighted>
   9.000000E+99

> <Gold.Protein.RotatedTorsions>
[ 6907 6896 6895 6894 ] final   49.18 input  -60.11 | X-H torsion
[ 7974 7965 7964 7962 ] final   34.44 input  175.53 | X-H torsion
[ 8008 7997 7996 7995 ] final  -16.92 input   59.86 | X-H torsion
[ 10167 10162 10161 10158 ] final   88.92 input  -65.29 | X-H torsion
[ 10718 10713 10712 10709 ] final -155.59 input   66.30 | X-H torsion
[ 10763 10752 10751 10750 ] final  132.08 input  -60.55 | X-H torsion
[ 11005 11000 10999 10996 ] final   50.07 input  -57.11 | X-H torsion

> <Gold.Protein.ActiveResidues>
 VAL166  LYS551  ARG553  GLY616  TRP617  ASP618  TYR619  PRO620  LYS621  CYS622 
 ASP623  PHE694  ASN695  SER759  ASP760  ASP761  ALA762  ILE779  LEU786  VAL792 
 PHE793  MET794  SER795  GLU796  ALA797  LYS798  CYS799  TRP800  GLU811  SER814 

> <Gold.Protein.RotatedAtoms>
  152.2879  134.7755  160.0383 H   0  0  0  0  0  0  0  0  0  0  0  0  # atno 6907 bound_to 6896
  151.8311  133.3403  159.3622 H   0  0  0  0  0  0  0  0  0  0  0  0  # atno 6908 bound_to 6896
  150.7217  134.5410  159.5792 H   0  0  0  0  0  0  0  0  0  0  0  0  # atno 6909 bound_to 6896
  146.1353  139.6269  142.9200 H   0  0  0  0  0  0  0  0  0  0  0  0  # atno 7974 bound_to 7965
  154.5016  140.2156  155.9334 H   0  0  0  0  0  0  0  0  0  0  0  0  # atno 8008 bound_to 7997
  156.1441  140.3174  155.8510 H   0  0  0  0  0  0  0  0  0  0  0  0  # atno 8009 bound_to 7997
  155.4064  140.0487  157.3025 H   0  0  0  0  0  0  0  0  0  0  0  0  # atno 8010 bound_to 7997
  139.8624  144.6537  150.9042 H   0  0  0  0  0  0  0  0  0  0  0  0  # atno 10167 bound_to 10162
  156.5150  130.8452  151.2661 H   0  0  0  0  0  0  0  0  0  0  0  0  # atno 10718 bound_to 10713
  153.7849  135.3163  155.3371 H   0  0  0  0  0  0  0  0  0  0  0  0  # atno 10763 bound_to 10752
  154.8147  135.4644  154.0615 H   0  0  0  0  0  0  0  0  0  0  0  0  # atno 10764 bound_to 10752
  153.1915  135.6909  153.8432 H   0  0  0  0  0  0  0  0  0  0  0  0  # atno 10765 bound_to 10752
  140.1049  134.5032  155.8729 H   0  0  0  0  0  0  0  0  0  0  0  0  # atno 11005 bound_to 11000
  145.5171  141.0433  143.2456 LP  0  0  0  0  0  0  0  0  0  0  0  0  # atno 17320 bound_to 7965
  144.7733  139.6687  143.7185 LP  0  0  0  0  0  0  0  0  0  0  0  0  # atno 17321 bound_to 7965
  140.7773  143.3733  151.1610 LP  0  0  0  0  0  0  0  0  0  0  0  0  # atno 17342 bound_to 10162
  139.7361  143.8997  152.3035 LP  0  0  0  0  0  0  0  0  0  0  0  0  # atno 17343 bound_to 10162
  157.7445  130.9937  150.2680 LP  0  0  0  0  0  0  0  0  0  0  0  0  # atno 17370 bound_to 10713
  156.3204  130.3785  149.7580 LP  0  0  0  0  0  0  0  0  0  0  0  0  # atno 17371 bound_to 10713
  141.2115  133.6708  156.6591 LP  0  0  0  0  0  0  0  0  0  0  0  0  # atno 17394 bound_to 11000
  140.3169  134.8040  157.4222 LP  0  0  0  0  0  0  0  0  0  0  0  0  # atno 17395 bound_to 11000

$$$$
