AV-unprocessed.smi:1512|AV-procd|sdf|6104|dock9
  -GOLD-   22720 6233D 1   1.00000     0.00000
 Structure written by MMmdl.
 44 46  0  0  0  0  0  0  0  0  3 V2000
  152.5321  139.9363  159.2741 C   0  0  0  0  0  0  0  0  0  0  0  0
  151.5544  141.0662  158.9091 C   0  0  2  0  0  0  0  0  0  0  0  0
  150.7158  140.6586  157.7877 N   0  0  0  0  0  0  0  0  0  0  0  0
  151.1458  140.2959  156.5675 C   0  0  0  0  0  0  0  0  0  0  0  0
  152.3244  140.3704  156.2234 O   0  0  0  0  0  0  0  0  0  0  0  0
  150.1075  139.7317  155.5812 C   0  0  0  0  0  0  0  0  0  0  0  0
  148.9100  140.5766  155.4054 N   0  0  0  0  0  0  0  0  0  0  0  0
  148.7248  141.1684  154.1420 C   0  0  0  0  0  0  0  0  0  0  0  0
  147.6892  141.9801  153.8850 C   0  0  0  0  0  0  0  0  0  0  0  0
  146.7568  142.2565  154.9505 C   0  0  0  0  0  0  0  0  0  0  0  0
  146.9137  141.6983  156.1727 C   0  0  0  0  0  0  0  0  0  0  0  0
  145.9655  142.0436  157.2054 N   0  3  0  0  0  0  0  0  0  0  0  0
  145.0488  142.8127  156.9329 O   0  0  0  0  0  0  0  0  0  0  0  0
  146.1002  141.5400  158.3164 O   0  5  0  0  0  0  0  0  0  0  0  0
  148.0362  140.7772  156.4417 C   0  0  0  0  0  0  0  0  0  0  0  0
  148.1980  140.2216  157.5298 O   0  0  0  0  0  0  0  0  0  0  0  0
  152.2915  142.3772  158.5453 C   0  0  2  0  0  0  0  0  0  0  0  0
  152.9703  143.0896  159.7364 C   0  0  0  0  0  0  0  0  0  0  0  0
  152.4684  144.5401  159.6038 C   0  0  2  0  0  0  0  0  0  0  0  0
  150.9903  144.6034  160.0315 C   0  0  0  0  0  0  0  0  0  0  0  0
  150.2688  143.9138  158.8593 C   0  0  0  0  0  0  0  0  0  0  0  0
  151.4337  143.5140  157.9313 C   0  0  1  0  0  0  0  0  0  0  0  0
  152.3659  144.7098  158.0927 C   0  0  0  0  0  0  0  0  0  0  0  0
  153.1627  140.2172  160.1176 H   0  0  0  0  0  0  0  0  0  0  0  0
  153.1864  139.6908  158.4368 H   0  0  0  0  0  0  0  0  0  0  0  0
  151.9988  139.0281  159.5563 H   0  0  0  0  0  0  0  0  0  0  0  0
  150.9147  141.2530  159.7733 H   0  0  0  0  0  0  0  0  0  0  0  0
  149.7276  140.5754  157.9773 H   0  0  0  0  0  0  0  0  0  0  0  0
  150.6087  139.5697  154.6261 H   0  0  0  0  0  0  0  0  0  0  0  0
  149.8123  138.7361  155.9169 H   0  0  0  0  0  0  0  0  0  0  0  0
  149.4732  140.9235  153.4022 H   0  0  0  0  0  0  0  0  0  0  0  0
  147.5627  142.4253  152.9091 H   0  0  0  0  0  0  0  0  0  0  0  0
  145.9393  142.9375  154.7630 H   0  0  0  0  0  0  0  0  0  0  0  0
  153.0629  142.1310  157.8131 H   0  0  0  0  0  0  0  0  0  0  0  0
  152.7039  142.6578  160.7020 H   0  0  0  0  0  0  0  0  0  0  0  0
  154.0557  143.0406  159.6420 H   0  0  0  0  0  0  0  0  0  0  0  0
  153.1012  145.2702  160.1095 H   0  0  0  0  0  0  0  0  0  0  0  0
  150.8128  144.1002  160.9827 H   0  0  0  0  0  0  0  0  0  0  0  0
  150.6562  145.6368  160.1321 H   0  0  0  0  0  0  0  0  0  0  0  0
  149.6582  143.0687  159.1762 H   0  0  0  0  0  0  0  0  0  0  0  0
  149.6068  144.6187  158.3547 H   0  0  0  0  0  0  0  0  0  0  0  0
  151.1258  143.3239  156.9029 H   0  0  0  0  0  0  0  0  0  0  0  0
  151.9132  145.6564  157.7916 H   0  0  0  0  0  0  0  0  0  0  0  0
  153.3207  144.5902  157.5773 H   0  0  0  0  0  0  0  0  0  0  0  0
  1  2  1  0  0  0  0
  1 24  1  0  0  0  0
  1 25  1  0  0  0  0
  1 26  1  0  0  0  0
  2  3  1  0  0  0  0
  2 17  1  0  0  0  0
  2 27  1  0  0  0  0
  3  4  1  0  0  0  0
  3 28  1  0  0  0  0
  4  5  2  0  0  0  0
  4  6  1  0  0  0  0
  6  7  1  0  0  0  0
  6 29  1  0  0  0  0
  6 30  1  0  0  0  0
  7 15  1  0  0  0  0
  7  8  1  0  0  0  0
  8  9  2  0  0  0  0
  8 31  1  0  0  0  0
  9 10  1  0  0  0  0
  9 32  1  0  0  0  0
 10 11  2  0  0  0  0
 10 33  1  0  0  0  0
 11 12  1  0  0  0  0
 11 15  1  0  0  0  0
 12 13  2  0  0  0  0
 12 14  1  0  0  0  0
 15 16  2  0  0  0  0
 17 22  1  0  0  0  0
 17 18  1  0  0  0  0
 17 34  1  0  0  0  0
 18 19  1  0  0  0  0
 18 35  1  0  0  0  0
 18 36  1  0  0  0  0
 19 23  1  0  0  0  0
 19 20  1  0  0  0  0
 19 37  1  0  0  0  0
 20 21  1  0  0  0  0
 20 38  1  0  0  0  0
 20 39  1  0  0  0  0
 21 22  1  0  0  0  0
 21 40  1  0  0  0  0
 21 41  1  0  0  0  0
 22 23  1  0  0  0  0
 22 42  1  0  0  0  0
 23 43  1  0  0  0  0
 23 44  1  0  0  0  0
M  CHG  1  12   1
M  CHG  1  14  -1
M  END
> <s_m_source_file>
AV-unprocessed.smi

> <i_m_source_file_index>
1512

> <i_lp_mmshare_version>
43012

> <i_f3d_flags>
0

> <s_epik_input>
W0NIMl0xW0NIMl1bQ0BIXShbQ0gyXTIpW0NAQEhdKFtDSDJdW0NAQEhdMTIpW0NASF0oW0NIM10pW05IXUMoPU8pW0NIMl1uM1tjSF1bY0hdW2NIXWMoW04rXSg9TylbTy1dKWMzPU8=

> <s_epik_cmdline>
J2VwaWtfcHl0aG9uJywgJy1waCcsICc3LjAnLCAnLXRuJywgJzgnLCAnLW1hJywgJzIwMCcsICctbWV0YWxfYmluZGluZycsICctaW1hZScsICc8aW5maWxlLm1hZT4nLCAnLW9tYWUnLCAnPG91dGZpbGUubWFlPic=

> <r_lp_tautomer_probability>
1

> <r_epik_Ionization_Penalty>
2.17697e-08

> <r_epik_Ionization_Penalty_Charging>
1.42735e-10

> <r_epik_Ionization_Penalty_Neutral>
2.16269e-08

> <r_epik_State_Penalty>
-0

> <r_epik_Charging_Adjusted_Penalty>
1.42735e-10

> <i_epik_Tot_Q>
0

> <i_epik_Tot_abs_Q>
2

> <r_epik_Metal_State_Penalty>
-0

> <b_epik_Metal_Only>
0

> <s_lp_Force_Field>
OPLS_2005

> <r_lp_Energy>
63.3532

> <b_lp_Chiralities_Consistent>
1

> <s_lp_Variant>
AV-unprocessed.smi:1512-5

> <Gold.Version>
5.8.1

> <Gold.Id.Protein>
6NUR|6NUR_protein|mol2

> <Gold.PLP.Fitness>
48.0991

> <Gold.PLP.PLP>
-42.5772

> <Gold.PLP.part.hbond>
-1.0000

> <Gold.PLP.part.metal>
0.0000

> <Gold.PLP.part.buried>
-4.0672

> <Gold.PLP.part.nonpolar>
-36.3042

> <Gold.PLP.part.repulsive>
0.1738

> <Gold.PLP.ligand.clash>
0.0000

> <Gold.PLP.ligand.torsion>
0.2569

> <Gold.PLP.Chemscore.Hbond>
1.0000

> <Gold.PLP.Chemscore.CHOScore>
1.0000

> <Gold.PLP.Chemscore.Metal>
0.0000

> <Gold.Chemscore.Hbonds>
donor molecule, donor type, donor heavy atom, donor atom, acceptor molecule, acceptor atom, score
      P1  H  7997  8009       L1     5  1.00
      L1  C     8    31       P1  7957  1.00

> <Gold.PLP.Chemscore.Internal.Correction>
0.0357

> <Gold.Rescore>
     Score         DG    S(hbond)    S(metal)    S(lipo)     H(rot)  DE(clash)    DE(int)     intcor
     14.32     -18.52       0.99        0.00     121.42       1.75       0.07       4.14       ----

> <Gold.Chemscore.Fitness>
14.3158

> <Gold.Chemscore.DG>
-18.5227

> <Gold.Chemscore.ZeroCoef>
-5.4800

> <Gold.Chemscore.Hbond>
0.9909

> <Gold.Chemscore.Metal>
0.0000

> <Gold.Chemscore.Lipo>
121.4233

> <Gold.Chemscore.Internal_Hbond>
0.0000

> <Gold.Chemscore.DEClash>
0.0691

> <Gold.Chemscore.DEInternal>
4.1378

> <Gold.Chemscore.Rot>
1.7474

> <Gold.Chemscore.Internal.Correction>
   9.000000E+99

> <Gold.Chemscore.Hbonds>
donor molecule, donor type, donor heavy atom, donor atom, acceptor molecule, acceptor atom, score
      P1  H  7997  8009       L1     5  0.91

> <Gold.Chemscore.Hbond.Weighted>
-3.3095

> <Gold.Chemscore.Metal.Weighted>
-0.0000

> <Gold.Chemscore.Lipo.Weighted>
-14.2065

> <Gold.Chemscore.Internal_Hbond.Weighted>
0.0000

> <Gold.Chemscore.DEClash.Weighted>
0.0691

> <Gold.Chemscore.DEInternal.Weighted>
4.1378

> <Gold.Chemscore.Rot.Weighted>
4.4733

> <Gold.Chemscore.Internal.Correction.Weighted>
   9.000000E+99

> <Gold.Protein.RotatedTorsions>
[ 6907 6896 6895 6894 ] final -171.03 input  -60.11 | X-H torsion
[ 7974 7965 7964 7962 ] final    8.93 input  175.53 | X-H torsion
[ 8008 7997 7996 7995 ] final -159.26 input   59.86 | X-H torsion
[ 10167 10162 10161 10158 ] final  -33.53 input  -65.29 | X-H torsion
[ 10718 10713 10712 10709 ] final -167.30 input   66.30 | X-H torsion
[ 10763 10752 10751 10750 ] final   -0.21 input  -60.55 | X-H torsion
[ 11005 11000 10999 10996 ] final  -14.98 input  -57.11 | X-H torsion

> <Gold.Protein.ActiveResidues>
 VAL166  LYS551  ARG553  GLY616  TRP617  ASP618  TYR619  PRO620  LYS621  CYS622 
 ASP623  PHE694  ASN695  SER759  ASP760  ASP761  ALA762  ILE779  LEU786  VAL792 
 PHE793  MET794  SER795  GLU796  ALA797  LYS798  CYS799  TRP800  GLU811  SER814 

> <Gold.Protein.RotatedAtoms>
  151.5172  133.3473  159.2894 H   0  0  0  0  0  0  0  0  0  0  0  0  # atno 6907 bound_to 6896
  150.8675  134.8043  159.7140 H   0  0  0  0  0  0  0  0  0  0  0  0  # atno 6908 bound_to 6896
  152.4674  134.5051  159.9788 H   0  0  0  0  0  0  0  0  0  0  0  0  # atno 6909 bound_to 6896
  146.2410  139.9859  142.8431 H   0  0  0  0  0  0  0  0  0  0  0  0  # atno 7974 bound_to 7965
  155.7600  140.0838  157.2160 H   0  0  0  0  0  0  0  0  0  0  0  0  # atno 8008 bound_to 7997
  154.4004  140.1544  156.2878 H   0  0  0  0  0  0  0  0  0  0  0  0  # atno 8009 bound_to 7997
  155.8849  140.3418  155.5917 H   0  0  0  0  0  0  0  0  0  0  0  0  # atno 8010 bound_to 7997
  140.7203  143.3614  151.1956 H   0  0  0  0  0  0  0  0  0  0  0  0  # atno 10167 bound_to 10162
  156.6803  130.9119  151.3056 H   0  0  0  0  0  0  0  0  0  0  0  0  # atno 10718 bound_to 10713
  153.3290  135.6974  153.6964 H   0  0  0  0  0  0  0  0  0  0  0  0  # atno 10763 bound_to 10752
  153.5774  135.3504  155.2862 H   0  0  0  0  0  0  0  0  0  0  0  0  # atno 10764 bound_to 10752
  154.8614  135.4287  154.2474 H   0  0  0  0  0  0  0  0  0  0  0  0  # atno 10765 bound_to 10752
  140.7920  133.8281  155.9388 H   0  0  0  0  0  0  0  0  0  0  0  0  # atno 11005 bound_to 11000
  145.1548  140.9642  143.4412 LP  0  0  0  0  0  0  0  0  0  0  0  0  # atno 17320 bound_to 7965
  145.0171  139.3457  143.6091 LP  0  0  0  0  0  0  0  0  0  0  0  0  # atno 17321 bound_to 7965
  139.7166  143.9290  152.2969 LP  0  0  0  0  0  0  0  0  0  0  0  0  # atno 17342 bound_to 10162
  139.9033  144.6899  150.8642 LP  0  0  0  0  0  0  0  0  0  0  0  0  # atno 17343 bound_to 10162
  157.7046  130.9370  150.0890 LP  0  0  0  0  0  0  0  0  0  0  0  0  # atno 17370 bound_to 10713
  156.1872  130.3653  149.8957 LP  0  0  0  0  0  0  0  0  0  0  0  0  # atno 17371 bound_to 10713
  140.9380  134.1937  157.4817 LP  0  0  0  0  0  0  0  0  0  0  0  0  # atno 17394 bound_to 11000
  139.8730  134.9860  156.5307 LP  0  0  0  0  0  0  0  0  0  0  0  0  # atno 17395 bound_to 11000

$$$$
