#       Name:                AV-unprocessed.smi:61
#       Creating user name   scv26
#       Creation time:       Thu Mar 26 16:49:26 2020


#       File generated by GOLD software.
#

@<TRIPOS>MOLECULE
AV-unprocessed.smi:61
    33    34     1
SMALL
NO_CHARGES


@<TRIPOS>ATOM
      1 ****        -3.3523   2.5400  -0.5098 N.pl3          1 S1                 0.0000
      2 ****        -2.7576   1.3031  -0.4554 C.ar           1 S1                 0.0000
      3 ****        -3.5425   0.2213  -0.4185 N.ar           1 S1                 0.0000
      4 ****        -2.9681  -0.9964  -0.3658 C.ar           1 S1                 0.0000
      5 ****        -1.5718  -1.1494  -0.3473 C.ar           1 S1                 0.0000
      6 ****        -0.7998   0.0327  -0.3846 C.ar           1 S1                 0.0000
      7 ****         0.6025   0.0401  -0.3724 N.3            1 S1                 0.0000
      8 ****         1.2176  -0.5036  -1.5795 C.3            1 S1                 0.0000
      9 ****         2.4338  -1.3284  -1.1316 C.3            1 S1                 0.0000
     10 ****         2.6600  -0.9110   0.3196 C.3            1 S1                 0.0000
     11 ****         1.2362  -0.5945   0.7774 C.3            1 S1                 0.0000
     12 ****         1.1080   0.2204   2.0809 C.3            1 S1                 0.0000
     13 ****         1.8494   1.4215   2.0212 O.3            1 S1                 0.0000
     14 ****        -1.4189   1.2382  -0.4410 N.pl3          1 S1                 1.0000
     15 ****        -2.7881   3.3773  -0.5381 H              1 S1                 0.0000
     16 ****        -4.3580   2.6283  -0.5242 H              1 S1                 0.0000
     17 ****        -3.6265  -1.8519  -0.3388 H              1 S1                 0.0000
     18 ****        -1.1197  -2.1296  -0.3094 H              1 S1                 0.0000
     19 ****         0.5282  -1.1076  -2.1711 H              1 S1                 0.0000
     20 ****         1.5381   0.3318  -2.2026 H              1 S1                 0.0000
     21 ****         2.1895  -2.3905  -1.1732 H              1 S1                 0.0000
     22 ****         3.3100  -1.1632  -1.7594 H              1 S1                 0.0000
     23 ****         3.1366  -1.6883   0.9174 H              1 S1                 0.0000
     24 ****         3.2919  -0.0224   0.3500 H              1 S1                 0.0000
     25 ****         0.7362  -1.5490   0.9469 H              1 S1                 0.0000
     26 ****         0.0650   0.4498   2.3016 H              1 S1                 0.0000
     27 ****         1.4848  -0.3669   2.9186 H              1 S1                 0.0000
     28 ****         1.7778   1.8624   2.8544 H              1 S1                 0.0000
     29 ****        -0.8572   2.0894  -0.4699 H              1 S1                 0.0000
     30 ****        -4.5381   0.3143  -0.4298 LP             1 S1                 0.0000
     31 ****         0.7767   1.0231  -0.3155 LP             1 S1                 0.0000
     32 ****         1.4840   2.0072   1.2978 LP             1 S1                 0.0000
     33 ****         2.8092   1.2156   1.8305 LP             1 S1                 0.0000
@<TRIPOS>BOND
    1    1    2 1     
    2    1   15 1     
    3    1   16 1     
    4    2   14 ar    
    5    2    3 ar    
    6    3    4 ar    
    7    4    5 ar    
    8    4   17 1     
    9    5    6 ar    
   10    5   18 1     
   11    6    7 1     
   12    6   14 ar    
   13    7   11 1     
   14    7    8 1     
   15    8    9 1     
   16    8   19 1     
   17    8   20 1     
   18    9   10 1     
   19    9   21 1     
   20    9   22 1     
   21   10   11 1     
   22   10   23 1     
   23   10   24 1     
   24   11   12 1     
   25   11   25 1     
   26   12   13 1     
   27   12   26 1     
   28   12   27 1     
   29   13   28 1     
   30   14   29 1     
   31    3   30 1     
   32    7   31 1     
   33   13   32 1     
   34   13   33 1     
@<TRIPOS>SUBSTRUCTURE
      1 S1             1
@<TRIPOS>SET
LONE_PAIRS      STATIC     ATOMS    <user>   **** ""
4 30 31 32 33
DONOR_HYDROGENS      STATIC     ATOMS    <user>   **** ""
4 15 16 28 29
ATOM$BLUE        STATIC     ATOMS    COLORGROUP SYSTEM
4 30 31 32 33
ATOM$RED        STATIC     ATOMS    COLORGROUP SYSTEM
4 15 16 28 29
