#       Name:                AV-unprocessed.smi:2965
#       Creating user name   scv26
#       Creation time:       Fri Mar 27 16:22:58 2020


#       File generated by GOLD software.
#

@<TRIPOS>MOLECULE
AV-unprocessed.smi:2965
    42    43     1
SMALL
NO_CHARGES


@<TRIPOS>ATOM
      1 ****        -0.7329   0.6316  -0.8623 O.2            1 S1                 0.0000
      2 ****        -0.0283  -0.3253  -1.1866 C.2            1 S1                 0.0000
      3 ****         1.4906  -0.1643  -1.3396 C.3            1 S1                 0.0000
      4 ****         2.0387   0.9372  -0.5306 N.am           1 S1                 0.0000
      5 ****         2.2699   2.1621  -1.1867 C.2            1 S1                 0.0000
      6 ****         2.7753   3.2436  -0.5632 C.2            1 S1                 0.0000
      7 ****         2.9549   4.5694  -1.2866 C.3            1 S1                 0.0000
      8 ****         2.9078   5.5940  -0.4349 F              1 S1                 0.0000
      9 ****         4.1370   4.5936  -1.9006 F              1 S1                 0.0000
     10 ****         2.0066   4.7458  -2.2074 F              1 S1                 0.0000
     11 ****         3.0504   3.1018   0.8533 C.2            1 S1                 0.0000
     12 ****         2.8219   1.9414   1.4990 C.2            1 S1                 0.0000
     13 ****         2.2870   0.7690   0.8030 C.2            1 S1                 0.0000
     14 ****         2.0738  -0.2967   1.3821 O.2            1 S1                 0.0000
     15 ****        -0.5176  -1.5493  -1.4357 N.am           1 S1                 0.0000
     16 ****        -1.9186  -1.9407  -1.3208 C.3            1 S1                 0.0000
     17 ****        -2.2196  -2.5772   0.0470 C.3            1 S1                 0.0000
     18 ****        -2.0943  -1.6366   1.2456 C.3            1 S1                 0.0000
     19 ****        -2.9609  -2.3357   2.2673 C.3            1 S1                 0.0000
     20 ****        -4.1017  -2.8702   1.4044 C.3            1 S1                 0.0000
     21 ****        -3.5671  -3.0366   0.0926 O.3            1 S1                 0.0000
     22 ****         1.9859  -1.1011  -1.0763 H              1 S1                 0.0000
     23 ****         1.7115  -0.0130  -2.3971 H              1 S1                 0.0000
     24 ****         1.9981   2.1704  -2.2323 H              1 S1                 0.0000
     25 ****         3.4491   3.9391   1.4067 H              1 S1                 0.0000
     26 ****         3.0391   1.8717   2.5549 H              1 S1                 0.0000
     27 ****         0.1336  -2.2726  -1.7048 H              1 S1                 0.0000
     28 ****        -2.5813  -1.0932  -1.5038 H              1 S1                 0.0000
     29 ****        -2.1252  -2.6641  -2.1098 H              1 S1                 0.0000
     30 ****        -1.5745  -3.4435   0.2037 H              1 S1                 0.0000
     31 ****        -1.0644  -1.5023   1.5779 H              1 S1                 0.0000
     32 ****        -2.5107  -0.6558   1.0115 H              1 S1                 0.0000
     33 ****        -2.4103  -3.1629   2.7177 H              1 S1                 0.0000
     34 ****        -3.3020  -1.6765   3.0658 H              1 S1                 0.0000
     35 ****        -4.5045  -3.8073   1.7899 H              1 S1                 0.0000
     36 ****        -4.9163  -2.1469   1.3553 H              1 S1                 0.0000
     37 ****        -0.3165   1.5254  -0.6956 LP             1 S1                 0.0000
     38 ****        -1.7214   0.5147  -0.7657 LP             1 S1                 0.0000
     39 ****         1.7065  -1.0765   0.8752 LP             1 S1                 0.0000
     40 ****         2.2679  -0.3823   2.3594 LP             1 S1                 0.0000
     41 ****        -3.5941  -4.0052  -0.1544 LP             1 S1                 0.0000
     42 ****        -4.1170  -2.5115  -0.5569 LP             1 S1                 0.0000
@<TRIPOS>BOND
    1    1    2 2     
    2    2    3 1     
    3    2   15 am    
    4    3    4 1     
    5    3   22 1     
    6    3   23 1     
    7    4   13 am    
    8    4    5 1     
    9    5    6 2     
   10    5   24 1     
   11    6    7 1     
   12    6   11 1     
   13    7    8 1     
   14    7    9 1     
   15    7   10 1     
   16   11   12 2     
   17   11   25 1     
   18   12   13 1     
   19   12   26 1     
   20   13   14 2     
   21   15   16 1     
   22   15   27 1     
   23   16   17 1     
   24   16   28 1     
   25   16   29 1     
   26   17   21 1     
   27   17   18 1     
   28   17   30 1     
   29   18   19 1     
   30   18   31 1     
   31   18   32 1     
   32   19   20 1     
   33   19   33 1     
   34   19   34 1     
   35   20   21 1     
   36   20   35 1     
   37   20   36 1     
   38    1   37 1     
   39    1   38 1     
   40   14   39 1     
   41   14   40 1     
   42   21   41 1     
   43   21   42 1     
@<TRIPOS>SUBSTRUCTURE
      1 S1             1
@<TRIPOS>SET
LONE_PAIRS      STATIC     ATOMS    <user>   **** ""
6 37 38 39 40 41 42
DONOR_HYDROGENS      STATIC     ATOMS    <user>   **** ""
1 27
ATOM$BLUE        STATIC     ATOMS    COLORGROUP SYSTEM
6 37 38 39 40 41 42
ATOM$RED        STATIC     ATOMS    COLORGROUP SYSTEM
1 27
