AV-unprocessed.smi:2413|AV-procd|sdf|9536|dock10
  -GOLD-   2272013173D 1   1.00000     0.00000
 Structure written by MMmdl.
 46 47  0  0  0  0  0  0  0  0  2 V2000
  153.8591  136.8265  164.2907 C   0  0  0  0  0  0  0  0  0  0  0  0
  154.5137  136.7729  162.9149 C   0  0  0  0  0  0  0  0  0  0  0  0
  155.1886  135.7961  162.5911 O   0  0  0  0  0  0  0  0  0  0  0  0
  154.2960  137.8259  162.1118 N   0  0  0  0  0  0  0  0  0  0  0  0
  154.8286  137.9874  160.7614 C   0  0  0  0  0  0  0  0  0  0  0  0
  153.7257  137.9554  159.6870 C   0  0  2  0  0  0  0  0  0  0  0  0
  153.1404  139.3484  159.3790 C   0  0  0  0  0  0  0  0  0  0  0  0
  152.0067  139.2563  158.4598 N   0  0  0  0  0  0  0  0  0  0  0  0
  151.5289  140.4600  157.8941 C   0  0  0  0  0  0  0  0  0  0  0  0
  150.6130  140.4617  156.8219 C   0  0  0  0  0  0  0  0  0  0  0  0
  150.1895  141.7130  156.3391 C   0  0  0  0  0  0  0  0  0  0  0  0
  150.6659  142.8574  156.8844 N   0  3  0  0  0  0  0  0  0  0  0  0
  151.5793  142.8043  157.8687 C   0  0  0  0  0  0  0  0  0  0  0  0
  152.0261  144.1025  158.5560 C   0  0  0  0  0  0  0  0  0  0  0  0
  152.8612  144.9782  157.5921 C   0  0  0  0  0  0  0  0  0  0  0  0
  152.8641  143.7617  159.8016 C   0  0  0  0  0  0  0  0  0  0  0  0
  150.8032  144.9530  158.9683 C   0  0  0  0  0  0  0  0  0  0  0  0
  151.9732  141.6357  158.3951 N   0  0  0  0  0  0  0  0  0  0  0  0
  150.9951  138.2903  158.8810 C   0  0  0  0  0  0  0  0  0  0  0  0
  151.6478  136.9355  159.2017 C   0  0  0  0  0  0  0  0  0  0  0  0
  152.6800  137.1143  160.1652 O   0  0  0  0  0  0  0  0  0  0  0  0
  154.0770  137.7746  164.7833 H   0  0  0  0  0  0  0  0  0  0  0  0
  154.2269  136.0204  164.9262 H   0  0  0  0  0  0  0  0  0  0  0  0
  152.7777  136.7237  164.1996 H   0  0  0  0  0  0  0  0  0  0  0  0
  153.7239  138.5789  162.4660 H   0  0  0  0  0  0  0  0  0  0  0  0
  155.3395  138.9498  160.7249 H   0  0  0  0  0  0  0  0  0  0  0  0
  155.5893  137.2335  160.5495 H   0  0  0  0  0  0  0  0  0  0  0  0
  154.1380  137.5202  158.7743 H   0  0  0  0  0  0  0  0  0  0  0  0
  152.8168  139.8326  160.3016 H   0  0  0  0  0  0  0  0  0  0  0  0
  153.9186  139.9715  158.9373 H   0  0  0  0  0  0  0  0  0  0  0  0
  150.2440  139.5525  156.3719 H   0  0  0  0  0  0  0  0  0  0  0  0
  149.4800  141.8362  155.5341 H   0  0  0  0  0  0  0  0  0  0  0  0
  153.1434  145.9230  158.0579 H   0  0  0  0  0  0  0  0  0  0  0  0
  152.3041  145.2145  156.6846 H   0  0  0  0  0  0  0  0  0  0  0  0
  153.7881  144.4873  157.2916 H   0  0  0  0  0  0  0  0  0  0  0  0
  153.7514  143.1851  159.5364 H   0  0  0  0  0  0  0  0  0  0  0  0
  152.2904  143.1711  160.5169 H   0  0  0  0  0  0  0  0  0  0  0  0
  153.2003  144.6636  160.3141 H   0  0  0  0  0  0  0  0  0  0  0  0
  151.1113  145.8963  159.4208 H   0  0  0  0  0  0  0  0  0  0  0  0
  150.1780  144.4419  159.7012 H   0  0  0  0  0  0  0  0  0  0  0  0
  150.1770  145.1932  158.1080 H   0  0  0  0  0  0  0  0  0  0  0  0
  150.4851  138.6768  159.7644 H   0  0  0  0  0  0  0  0  0  0  0  0
  150.2358  138.1374  158.1162 H   0  0  0  0  0  0  0  0  0  0  0  0
  150.9042  136.2477  159.6041 H   0  0  0  0  0  0  0  0  0  0  0  0
  152.0518  136.4740  158.2992 H   0  0  0  0  0  0  0  0  0  0  0  0
  150.3353  143.7567  156.5340 H   0  0  0  0  0  0  0  0  0  0  0  0
  1  2  1  0  0  0  0
  1 22  1  0  0  0  0
  1 23  1  0  0  0  0
  1 24  1  0  0  0  0
  2  3  2  0  0  0  0
  2  4  1  0  0  0  0
  4  5  1  0  0  0  0
  4 25  1  0  0  0  0
  5  6  1  0  0  0  0
  5 26  1  0  0  0  0
  5 27  1  0  0  0  0
  6 21  1  0  0  0  0
  6  7  1  0  0  0  0
  6 28  1  0  0  0  0
  7  8  1  0  0  0  0
  7 29  1  0  0  0  0
  7 30  1  0  0  0  0
  8  9  1  0  0  0  0
  8 19  1  0  0  0  0
  9 18  1  0  0  0  0
  9 10  2  0  0  0  0
 10 11  1  0  0  0  0
 10 31  1  0  0  0  0
 11 12  2  0  0  0  0
 11 32  1  0  0  0  0
 12 13  1  0  0  0  0
 12 46  1  0  0  0  0
 13 14  1  0  0  0  0
 13 18  2  0  0  0  0
 14 15  1  0  0  0  0
 14 16  1  0  0  0  0
 14 17  1  0  0  0  0
 15 33  1  0  0  0  0
 15 34  1  0  0  0  0
 15 35  1  0  0  0  0
 16 36  1  0  0  0  0
 16 37  1  0  0  0  0
 16 38  1  0  0  0  0
 17 39  1  0  0  0  0
 17 40  1  0  0  0  0
 17 41  1  0  0  0  0
 19 20  1  0  0  0  0
 19 42  1  0  0  0  0
 19 43  1  0  0  0  0
 20 21  1  0  0  0  0
 20 44  1  0  0  0  0
 20 45  1  0  0  0  0
M  CHG  1  12   1
M  END
> <s_m_source_file>
AV-unprocessed.smi

> <i_m_source_file_index>
2413

> <i_lp_mmshare_version>
43012

> <i_f3d_flags>
0

> <s_epik_input>
W0NIM11DKD1PKVtOSF1bQ0gyXVtDQEBIXTFbQ0gyXU4oW0NIMl1bQ0gyXU8xKWMyW2NIXVtjSF1uYyhuMilDKFtDSDNdKShbQ0gzXSlbQ0gzXQ==

> <s_epik_cmdline>
J2VwaWtfcHl0aG9uJywgJy1waCcsICc3LjAnLCAnLXRuJywgJzgnLCAnLW1hJywgJzIwMCcsICctbWV0YWxfYmluZGluZycsICctaW1hZScsICc8aW5maWxlLm1hZT4nLCAnLW9tYWUnLCAnPG91dGZpbGUubWFlPic=

> <r_lp_tautomer_probability>
0.999336

> <r_epik_Ionization_Penalty>
2.26127

> <r_epik_Ionization_Penalty_Charging>
2.26127

> <r_epik_Ionization_Penalty_Neutral>
4.08984e-07

> <r_epik_State_Penalty>
2.40914

> <r_epik_Charging_Adjusted_Penalty>
4.67041

> <i_epik_Tot_Q>
1

> <i_epik_Tot_abs_Q>
1

> <r_epik_Metal_State_Penalty>
2.42208

> <b_epik_Metal_Only>
0

> <s_lp_Force_Field>
OPLS_2005

> <r_lp_Energy>
13.7164

> <b_lp_Chiralities_Consistent>
1

> <s_lp_Variant>
AV-unprocessed.smi:2413-3

> <Gold.Version>
5.8.1

> <Gold.Id.Protein>
6NUR|6NUR_protein|mol2

> <Gold.PLP.Fitness>
42.2959

> <Gold.PLP.PLP>
-37.4929

> <Gold.PLP.part.hbond>
-1.6829

> <Gold.PLP.part.metal>
0.0000

> <Gold.PLP.part.buried>
-4.3761

> <Gold.PLP.part.nonpolar>
-31.7306

> <Gold.PLP.part.repulsive>
0.0342

> <Gold.PLP.ligand.clash>
0.0000

> <Gold.PLP.ligand.torsion>
0.7250

> <Gold.PLP.Chemscore.Hbond>
1.9200

> <Gold.PLP.Chemscore.CHOScore>
0.0000

> <Gold.PLP.Chemscore.Metal>
0.0000

> <Gold.Chemscore.Hbonds>
donor molecule, donor type, donor heavy atom, donor atom, acceptor molecule, acceptor atom, score
      L1  H    12    46       P1  8028  1.89

> <Gold.PLP.Chemscore.Internal.Correction>
0.4929

> <Gold.Rescore>
     Score         DG    S(hbond)    S(metal)    S(lipo)     H(rot)  DE(clash)    DE(int)     intcor
     13.50     -15.55       0.85        0.00     100.54       1.77       1.31       0.73       ----

> <Gold.Chemscore.Fitness>
13.5000

> <Gold.Chemscore.DG>
-15.5459

> <Gold.Chemscore.ZeroCoef>
-5.4800

> <Gold.Chemscore.Hbond>
0.8501

> <Gold.Chemscore.Metal>
0.0000

> <Gold.Chemscore.Lipo>
100.5356

> <Gold.Chemscore.Internal_Hbond>
0.0000

> <Gold.Chemscore.DEClash>
1.3114

> <Gold.Chemscore.DEInternal>
0.7345

> <Gold.Chemscore.Rot>
1.7719

> <Gold.Chemscore.Internal.Correction>
   9.000000E+99

> <Gold.Chemscore.Hbonds>
donor molecule, donor type, donor heavy atom, donor atom, acceptor molecule, acceptor atom, score
      L1  H    12    46       P1  8028  0.90

> <Gold.Chemscore.Hbond.Weighted>
-2.8394

> <Gold.Chemscore.Metal.Weighted>
-0.0000

> <Gold.Chemscore.Lipo.Weighted>
-11.7627

> <Gold.Chemscore.Internal_Hbond.Weighted>
0.0000

> <Gold.Chemscore.DEClash.Weighted>
1.3114

> <Gold.Chemscore.DEInternal.Weighted>
0.7345

> <Gold.Chemscore.Rot.Weighted>
4.5361

> <Gold.Chemscore.Internal.Correction.Weighted>
   9.000000E+99

> <Gold.Protein.RotatedTorsions>
[ 6907 6896 6895 6894 ] final  162.67 input  -60.11 | X-H torsion
[ 7974 7965 7964 7962 ] final  -76.50 input  175.53 | X-H torsion
[ 8008 7997 7996 7995 ] final  -92.94 input   59.86 | X-H torsion
[ 10167 10162 10161 10158 ] final   86.54 input  -65.29 | X-H torsion
[ 10718 10713 10712 10709 ] final   93.90 input   66.30 | X-H torsion
[ 10763 10752 10751 10750 ] final  -44.18 input  -60.55 | X-H torsion
[ 11005 11000 10999 10996 ] final  -40.80 input  -57.11 | X-H torsion

> <Gold.Protein.ActiveResidues>
 VAL166  LYS551  ARG553  GLY616  TRP617  ASP618  TYR619  PRO620  LYS621  CYS622 
 ASP623  PHE694  ASN695  SER759  ASP760  ASP761  ALA762  ILE779  LEU786  VAL792 
 PHE793  MET794  SER795  GLU796  ALA797  LYS798  CYS799  TRP800  GLU811  SER814 

> <Gold.Protein.RotatedAtoms>
  151.9369  133.3627  159.3950 H   0  0  0  0  0  0  0  0  0  0  0  0  # atno 6907 bound_to 6896
  150.7006  134.4480  159.5332 H   0  0  0  0  0  0  0  0  0  0  0  0  # atno 6908 bound_to 6896
  152.2130  134.8484  160.0546 H   0  0  0  0  0  0  0  0  0  0  0  0  # atno 6909 bound_to 6896
  145.6121  140.9384  143.1184 H   0  0  0  0  0  0  0  0  0  0  0  0  # atno 7974 bound_to 7965
  154.7294  140.0504  157.0712 H   0  0  0  0  0  0  0  0  0  0  0  0  # atno 8008 bound_to 7997
  155.0322  140.3159  155.4735 H   0  0  0  0  0  0  0  0  0  0  0  0  # atno 8009 bound_to 7997
  156.2837  140.2148  156.5444 H   0  0  0  0  0  0  0  0  0  0  0  0  # atno 8010 bound_to 7997
  139.8864  144.6410  150.8786 H   0  0  0  0  0  0  0  0  0  0  0  0  # atno 10167 bound_to 10162
  157.6951  131.0494  150.4105 H   0  0  0  0  0  0  0  0  0  0  0  0  # atno 10718 bound_to 10713
  154.0079  135.6685  153.4763 H   0  0  0  0  0  0  0  0  0  0  0  0  # atno 10763 bound_to 10752
  153.0634  135.5015  154.8141 H   0  0  0  0  0  0  0  0  0  0  0  0  # atno 10764 bound_to 10752
  154.7013  135.3079  154.9300 H   0  0  0  0  0  0  0  0  0  0  0  0  # atno 10765 bound_to 10752
  141.0200  133.6867  156.2370 H   0  0  0  0  0  0  0  0  0  0  0  0  # atno 11005 bound_to 11000
  144.7266  139.7857  143.7363 LP  0  0  0  0  0  0  0  0  0  0  0  0  # atno 17320 bound_to 7965
  146.1496  139.4576  143.0057 LP  0  0  0  0  0  0  0  0  0  0  0  0  # atno 17321 bound_to 7965
  140.7735  143.3544  151.1950 LP  0  0  0  0  0  0  0  0  0  0  0  0  # atno 17342 bound_to 10162
  139.7149  143.9317  152.2962 LP  0  0  0  0  0  0  0  0  0  0  0  0  # atno 17343 bound_to 10162
  156.4490  130.4007  149.6648 LP  0  0  0  0  0  0  0  0  0  0  0  0  # atno 17370 bound_to 10713
  156.3805  130.7576  151.2569 LP  0  0  0  0  0  0  0  0  0  0  0  0  # atno 17371 bound_to 10713
  140.6588  134.4989  157.5582 LP  0  0  0  0  0  0  0  0  0  0  0  0  # atno 17394 bound_to 11000
  139.9140  134.8284  156.1428 LP  0  0  0  0  0  0  0  0  0  0  0  0  # atno 17395 bound_to 11000

$$$$
