#       Name:                AV-unprocessed.smi:2902
#       Creating user name   scv26
#       Creation time:       Fri Mar 27 16:03:53 2020


#       File generated by GOLD software.
#

@<TRIPOS>MOLECULE
AV-unprocessed.smi:2902
    53    54     1
SMALL
NO_CHARGES


@<TRIPOS>ATOM
      1 ****        -1.4794  -1.4407   3.6634 C.3            1 S1                 0.0000
      2 ****        -1.7094  -2.0188   2.2586 C.3            1 S1                 0.0000
      3 ****        -1.1824  -1.1246   1.1184 C.3            1 S1                 0.0000
      4 ****        -1.5840  -1.7250  -0.1094 O.3            1 S1                 0.0000
      5 ****        -1.4852  -0.9005  -1.2688 C.3            1 S1                 0.0000
      6 ****        -2.8738  -0.7775  -1.8964 C.3            1 S1                 0.0000
      7 ****        -3.0664  -2.0544  -2.7246 C.3            1 S1                 0.0000
      8 ****        -1.6637  -2.6373  -2.9581 C.3            1 S1                 0.0000
      9 ****        -0.6785  -1.6443  -2.3332 C.3            1 S1                 0.0000
     10 ****         0.3492  -0.9790   1.1448 C.2            1 S1                 0.0000
     11 ****         1.0670  -1.9784   1.1821 O.2            1 S1                 0.0000
     12 ****         0.8240   0.2755   1.1129 N.am           1 S1                 0.0000
     13 ****         2.2315   0.6736   1.1246 C.3            1 S1                 0.0000
     14 ****         2.5223   1.4472   2.4215 C.3            1 S1                 0.0000
     15 ****         2.6072   1.4604  -0.1594 C.3            1 S1                 0.0000
     16 ****         2.3720   0.6577  -1.4533 C.3            1 S1                 0.0000
     17 ****         1.9789   2.7763  -0.2229 N.pl3          1 S1                 0.0000
     18 ****         2.4856   3.9840   0.0347 C.2            1 S1                 0.0000
     19 ****         1.6134   4.9736  -0.0976 N.2            1 S1                 0.0000
     20 ****         0.5085   4.2569  -0.4595 C.2            1 S1                 0.0000
     21 ****         0.6706   2.9367  -0.5434 N.2            1 S1                 0.0000
     22 ****        -1.9184  -2.0876   4.4231 H              1 S1                 0.0000
     23 ****        -1.9361  -0.4557   3.7620 H              1 S1                 0.0000
     24 ****        -0.4176  -1.3430   3.8901 H              1 S1                 0.0000
     25 ****        -1.2611  -3.0114   2.1961 H              1 S1                 0.0000
     26 ****        -2.7803  -2.1684   2.1184 H              1 S1                 0.0000
     27 ****        -1.6557  -0.1442   1.2048 H              1 S1                 0.0000
     28 ****        -1.0622   0.0823  -1.0543 H              1 S1                 0.0000
     29 ****        -3.6598  -0.6332  -1.1543 H              1 S1                 0.0000
     30 ****        -2.8902   0.0871  -2.5612 H              1 S1                 0.0000
     31 ****        -3.6789  -2.7724  -2.1774 H              1 S1                 0.0000
     32 ****        -3.5773  -1.8393  -3.6639 H              1 S1                 0.0000
     33 ****        -1.5815  -3.6035  -2.4583 H              1 S1                 0.0000
     34 ****        -1.4551  -2.7992  -4.0160 H              1 S1                 0.0000
     35 ****        -0.3483  -0.9367  -3.0946 H              1 S1                 0.0000
     36 ****         0.2108  -2.1287  -1.9284 H              1 S1                 0.0000
     37 ****         0.1494   1.0258   1.0657 H              1 S1                 0.0000
     38 ****         2.8605  -0.2178   1.1433 H              1 S1                 0.0000
     39 ****         3.5649   1.7635   2.4634 H              1 S1                 0.0000
     40 ****         2.3337   0.8239   3.2963 H              1 S1                 0.0000
     41 ****         1.8988   2.3371   2.5123 H              1 S1                 0.0000
     42 ****         3.6817   1.6430  -0.1075 H              1 S1                 0.0000
     43 ****         2.8993  -0.2960  -1.4221 H              1 S1                 0.0000
     44 ****         2.7339   1.2055  -2.3238 H              1 S1                 0.0000
     45 ****         1.3164   0.4443  -1.6162 H              1 S1                 0.0000
     46 ****         3.5124   4.1421   0.3301 H              1 S1                 0.0000
     47 ****        -0.4454   4.7211  -0.6630 H              1 S1                 0.0000
     48 ****        -2.5388  -2.0068  -0.0145 LP             1 S1                 0.0000
     49 ****        -1.0116  -2.5315  -0.2575 LP             1 S1                 0.0000
     50 ****         0.6552  -2.8896   1.1954 LP             1 S1                 0.0000
     51 ****         2.0619  -1.8791   1.1992 LP             1 S1                 0.0000
     52 ****         1.7304   5.9584   0.0304 LP             1 S1                 0.0000
     53 ****        -0.0040   2.2385  -0.7829 LP             1 S1                 0.0000
@<TRIPOS>BOND
    1    1    2 1     
    2    1   22 1     
    3    1   23 1     
    4    1   24 1     
    5    2    3 1     
    6    2   25 1     
    7    2   26 1     
    8    3    4 1     
    9    3   10 1     
   10    3   27 1     
   11    4    5 1     
   12    5    9 1     
   13    5    6 1     
   14    5   28 1     
   15    6    7 1     
   16    6   29 1     
   17    6   30 1     
   18    7    8 1     
   19    7   31 1     
   20    7   32 1     
   21    8    9 1     
   22    8   33 1     
   23    8   34 1     
   24    9   35 1     
   25    9   36 1     
   26   10   11 2     
   27   10   12 am    
   28   12   13 1     
   29   12   37 1     
   30   13   14 1     
   31   13   15 1     
   32   13   38 1     
   33   14   39 1     
   34   14   40 1     
   35   14   41 1     
   36   15   16 1     
   37   15   17 1     
   38   15   42 1     
   39   16   43 1     
   40   16   44 1     
   41   16   45 1     
   42   17   21 1     
   43   17   18 1     
   44   18   19 2     
   45   18   46 1     
   46   19   20 1     
   47   20   21 2     
   48   20   47 1     
   49    4   48 1     
   50    4   49 1     
   51   11   50 1     
   52   11   51 1     
   53   19   52 1     
   54   21   53 1     
@<TRIPOS>SUBSTRUCTURE
      1 S1             1
@<TRIPOS>SET
LONE_PAIRS      STATIC     ATOMS    <user>   **** ""
6 48 49 50 51 52 53
DONOR_HYDROGENS      STATIC     ATOMS    <user>   **** ""
1 37
ATOM$BLUE        STATIC     ATOMS    COLORGROUP SYSTEM
6 48 49 50 51 52 53
ATOM$RED        STATIC     ATOMS    COLORGROUP SYSTEM
1 37
