AV-unprocessed.smi:1007|AV-procd|sdf|4402|dock3
  -GOLD-   22720 2343D 1   1.00000     0.00000
 Structure written by MMmdl.
 57 59  0  0  0  0  0  0  0  0  3 V2000
  147.2800  130.9344  157.5580 C   0  0  0  0  0  0  0  0  0  0  0  0
  146.2146  131.0200  156.6247 O   0  0  0  0  0  0  0  0  0  0  0  0
  146.5761  131.6046  155.3816 C   0  0  0  0  0  0  0  0  0  0  0  0
  146.5781  133.1431  155.4598 C   0  0  0  0  0  0  0  0  0  0  0  0
  146.9259  133.8228  154.2083 N   0  0  0  0  0  0  0  0  0  0  0  0
  146.7204  135.2696  154.2768 C   0  0  0  0  0  0  0  0  0  0  0  0
  147.7666  135.9928  155.1497 C   0  0  0  0  0  0  0  0  0  0  0  0
  149.1345  135.7034  154.6494 N   0  3  0  0  0  0  0  0  0  0  0  0
  150.1856  136.4709  155.3620 C   0  0  0  0  0  0  0  0  0  0  0  0
  150.1659  137.9856  155.0482 C   0  0  2  0  0  0  0  0  0  0  0  0
  150.3464  138.1319  153.6560 O   0  0  0  0  0  0  0  0  0  0  0  0
  151.2709  138.8165  155.7397 C   0  0  0  0  0  0  0  0  0  0  0  0
  150.9016  140.2266  155.9368 N   0  0  0  0  0  0  0  0  0  0  0  0
  150.0515  141.0035  155.2112 C   0  0  0  0  0  0  0  0  0  0  0  0
  150.0244  142.2353  155.7900 N   0  3  0  0  0  0  0  0  0  0  0  0
  150.8767  142.2501  156.8956 C   0  0  0  0  0  0  0  0  0  0  0  0
  151.1714  143.2613  157.8018 C   0  0  0  0  0  0  0  0  0  0  0  0
  152.0841  142.9549  158.8358 C   0  0  0  0  0  0  0  0  0  0  0  0
  152.4174  144.0339  159.8518 C   0  0  0  0  0  0  0  0  0  0  0  0
  152.6772  141.6693  158.9284 C   0  0  0  0  0  0  0  0  0  0  0  0
  153.6560  141.3497  160.0452 C   0  0  0  0  0  0  0  0  0  0  0  0
  152.3694  140.6559  157.9927 C   0  0  0  0  0  0  0  0  0  0  0  0
  151.4576  140.9697  156.9867 C   0  0  0  0  0  0  0  0  0  0  0  0
  149.3743  134.2379  154.5960 C   0  0  0  0  0  0  0  0  0  0  0  0
  148.2880  133.5627  153.7346 C   0  0  0  0  0  0  0  0  0  0  0  0
  146.9343  130.4222  158.4558 H   0  0  0  0  0  0  0  0  0  0  0  0
  147.6364  131.9196  157.8578 H   0  0  0  0  0  0  0  0  0  0  0  0
  148.1180  130.3664  157.1525 H   0  0  0  0  0  0  0  0  0  0  0  0
  147.5374  131.2122  155.0481 H   0  0  0  0  0  0  0  0  0  0  0  0
  145.8368  131.2853  154.6466 H   0  0  0  0  0  0  0  0  0  0  0  0
  145.5743  133.4537  155.7525 H   0  0  0  0  0  0  0  0  0  0  0  0
  147.2355  133.4700  156.2639 H   0  0  0  0  0  0  0  0  0  0  0  0
  146.7591  135.6801  153.2671 H   0  0  0  0  0  0  0  0  0  0  0  0
  145.7167  135.4857  154.6446 H   0  0  0  0  0  0  0  0  0  0  0  0
  147.5815  137.0666  155.1106 H   0  0  0  0  0  0  0  0  0  0  0  0
  147.6803  135.6974  156.1961 H   0  0  0  0  0  0  0  0  0  0  0  0
  150.0601  136.3420  156.4383 H   0  0  0  0  0  0  0  0  0  0  0  0
  151.1576  136.0403  155.1149 H   0  0  0  0  0  0  0  0  0  0  0  0
  149.1908  138.4148  155.2765 H   0  0  0  0  0  0  0  0  0  0  0  0
  149.7238  137.5804  153.2062 H   0  0  0  0  0  0  0  0  0  0  0  0
  151.5683  138.3717  156.6888 H   0  0  0  0  0  0  0  0  0  0  0  0
  152.1677  138.8211  155.1183 H   0  0  0  0  0  0  0  0  0  0  0  0
  149.4934  140.6966  154.3379 H   0  0  0  0  0  0  0  0  0  0  0  0
  150.7179  144.2389  157.7236 H   0  0  0  0  0  0  0  0  0  0  0  0
  153.4774  144.2850  159.8089 H   0  0  0  0  0  0  0  0  0  0  0  0
  152.1806  143.6972  160.8612 H   0  0  0  0  0  0  0  0  0  0  0  0
  151.8511  144.9468  159.6651 H   0  0  0  0  0  0  0  0  0  0  0  0
  154.0489  140.3366  159.9547 H   0  0  0  0  0  0  0  0  0  0  0  0
  153.1673  141.4321  161.0163 H   0  0  0  0  0  0  0  0  0  0  0  0
  154.5021  142.0370  160.0231 H   0  0  0  0  0  0  0  0  0  0  0  0
  152.8202  139.6779  158.0728 H   0  0  0  0  0  0  0  0  0  0  0  0
  150.3477  134.0300  154.1541 H   0  0  0  0  0  0  0  0  0  0  0  0
  149.3925  133.8220  155.6041 H   0  0  0  0  0  0  0  0  0  0  0  0
  148.4735  132.4911  153.6720 H   0  0  0  0  0  0  0  0  0  0  0  0
  148.3792  133.9302  152.7116 H   0  0  0  0  0  0  0  0  0  0  0  0
  149.1515  136.0322  153.6946 H   0  0  0  0  0  0  0  0  0  0  0  0
  149.4672  143.0094  155.4503 H   0  0  0  0  0  0  0  0  0  0  0  0
  1  2  1  0  0  0  0
  1 26  1  0  0  0  0
  1 27  1  0  0  0  0
  1 28  1  0  0  0  0
  2  3  1  0  0  0  0
  3  4  1  0  0  0  0
  3 29  1  0  0  0  0
  3 30  1  0  0  0  0
  4  5  1  0  0  0  0
  4 31  1  0  0  0  0
  4 32  1  0  0  0  0
  5 25  1  0  0  0  0
  5  6  1  0  0  0  0
  6  7  1  0  0  0  0
  6 33  1  0  0  0  0
  6 34  1  0  0  0  0
  7  8  1  0  0  0  0
  7 35  1  0  0  0  0
  7 36  1  0  0  0  0
  8  9  1  0  0  0  0
  8 24  1  0  0  0  0
  8 56  1  0  0  0  0
  9 10  1  0  0  0  0
  9 37  1  0  0  0  0
  9 38  1  0  0  0  0
 10 11  1  0  0  0  0
 10 12  1  0  0  0  0
 10 39  1  0  0  0  0
 11 40  1  0  0  0  0
 12 13  1  0  0  0  0
 12 41  1  0  0  0  0
 12 42  1  0  0  0  0
 13 23  1  0  0  0  0
 13 14  1  0  0  0  0
 14 15  2  0  0  0  0
 14 43  1  0  0  0  0
 15 16  1  0  0  0  0
 15 57  1  0  0  0  0
 16 23  2  0  0  0  0
 16 17  1  0  0  0  0
 17 18  2  0  0  0  0
 17 44  1  0  0  0  0
 18 19  1  0  0  0  0
 18 20  1  0  0  0  0
 19 45  1  0  0  0  0
 19 46  1  0  0  0  0
 19 47  1  0  0  0  0
 20 21  1  0  0  0  0
 20 22  2  0  0  0  0
 21 48  1  0  0  0  0
 21 49  1  0  0  0  0
 21 50  1  0  0  0  0
 22 23  1  0  0  0  0
 22 51  1  0  0  0  0
 24 25  1  0  0  0  0
 24 52  1  0  0  0  0
 24 53  1  0  0  0  0
 25 54  1  0  0  0  0
 25 55  1  0  0  0  0
M  CHG  1   8   1
M  CHG  1  15   1
M  END
> <s_m_source_file>
AV-unprocessed.smi

> <i_m_source_file_index>
1007

> <i_lp_mmshare_version>
43012

> <i_f3d_flags>
0

> <s_epik_input>
W0NIM11PW0NIMl1bQ0gyXU4xW0NIMl1bQ0gyXU4oW0NIMl1bQ0gyXTEpW0NIMl1bQ0BIXShbT0hdKVtDSDJdbihbY0hdbjIpYyhjMjMpW2NIXWMoW0NIM10pYyhbY0hdMylbQ0gzXQ==

> <s_epik_cmdline>
J2VwaWtfcHl0aG9uJywgJy1waCcsICc3LjAnLCAnLXRuJywgJzgnLCAnLW1hJywgJzIwMCcsICctbWV0YWxfYmluZGluZycsICctaW1hZScsICc8aW5maWxlLm1hZT4nLCAnLW9tYWUnLCAnPG91dGZpbGUubWFlPic=

> <r_epik_Ionization_Penalty>
1.19231

> <r_epik_Ionization_Penalty_Charging>
1.17974

> <r_epik_Ionization_Penalty_Neutral>
0.0125676

> <r_epik_State_Penalty>
1.24499

> <r_epik_Charging_Adjusted_Penalty>
2.42472

> <i_epik_Tot_Q>
2

> <i_epik_Tot_abs_Q>
2

> <r_epik_Metal_State_Penalty>
5.24866

> <b_epik_Metal_Only>
0

> <s_lp_Force_Field>
OPLS_2005

> <r_lp_Energy>
43.594

> <b_lp_Chiralities_Consistent>
1

> <s_lp_Variant>
AV-unprocessed.smi:1007-5

> <Gold.Version>
5.8.1

> <Gold.Id.Protein>
6NUR|6NUR_protein|mol2

> <Gold.PLP.Fitness>
55.6576

> <Gold.PLP.PLP>
-42.2236

> <Gold.PLP.part.hbond>
-4.1269

> <Gold.PLP.part.metal>
0.0000

> <Gold.PLP.part.buried>
-3.4889

> <Gold.PLP.part.nonpolar>
-34.2671

> <Gold.PLP.part.repulsive>
0.3018

> <Gold.PLP.ligand.clash>
0.0000

> <Gold.PLP.ligand.torsion>
0.9010

> <Gold.PLP.Chemscore.Hbond>
5.0000

> <Gold.PLP.Chemscore.CHOScore>
0.0000

> <Gold.PLP.Chemscore.Metal>
0.0000

> <Gold.Chemscore.Hbonds>
donor molecule, donor type, donor heavy atom, donor atom, acceptor molecule, acceptor atom, score
      L1  H     8    56       P1  7948  2.00
      L1  H    11    40       P1  7948  1.00
      L1  H    15    57       P1  8028  1.98

> <Gold.PLP.Chemscore.Internal.Correction>
0.2359

> <Gold.Rescore>
     Score         DG    S(hbond)    S(metal)    S(lipo)     H(rot)  DE(clash)    DE(int)     intcor
     19.46     -20.51       2.66        0.00     110.27       2.64       0.10       0.96       ----

> <Gold.Chemscore.Fitness>
19.4575

> <Gold.Chemscore.DG>
-20.5129

> <Gold.Chemscore.ZeroCoef>
-5.4800

> <Gold.Chemscore.Hbond>
2.6641

> <Gold.Chemscore.Metal>
0.0000

> <Gold.Chemscore.Lipo>
110.2675

> <Gold.Chemscore.Internal_Hbond>
0.0000

> <Gold.Chemscore.DEClash>
0.1003

> <Gold.Chemscore.DEInternal>
0.9550

> <Gold.Chemscore.Rot>
2.6432

> <Gold.Chemscore.Internal.Correction>
   9.000000E+99

> <Gold.Chemscore.Hbonds>
donor molecule, donor type, donor heavy atom, donor atom, acceptor molecule, acceptor atom, score
      L1  H     8    56       P1  7948  0.91
      L1  H    11    40       P1  7948  0.61
      L1  H    15    57       P1  8028  0.94

> <Gold.Chemscore.Hbond.Weighted>
-8.8981

> <Gold.Chemscore.Metal.Weighted>
-0.0000

> <Gold.Chemscore.Lipo.Weighted>
-12.9013

> <Gold.Chemscore.Internal_Hbond.Weighted>
0.0000

> <Gold.Chemscore.DEClash.Weighted>
0.1003

> <Gold.Chemscore.DEInternal.Weighted>
0.9550

> <Gold.Chemscore.Rot.Weighted>
6.7665

> <Gold.Chemscore.Internal.Correction.Weighted>
   9.000000E+99

> <Gold.Protein.RotatedTorsions>
[ 6907 6896 6895 6894 ] final   46.21 input  -60.11 | X-H torsion
[ 7974 7965 7964 7962 ] final   21.97 input  175.53 | X-H torsion
[ 8008 7997 7996 7995 ] final   41.41 input   59.86 | X-H torsion
[ 10167 10162 10161 10158 ] final -172.97 input  -65.29 | X-H torsion
[ 10718 10713 10712 10709 ] final   20.15 input   66.30 | X-H torsion
[ 10763 10752 10751 10750 ] final -101.52 input  -60.55 | X-H torsion
[ 11005 11000 10999 10996 ] final -154.37 input  -57.11 | X-H torsion

> <Gold.Protein.ActiveResidues>
 VAL166  LYS551  ARG553  GLY616  TRP617  ASP618  TYR619  PRO620  LYS621  CYS622 
 ASP623  PHE694  ASN695  SER759  ASP760  ASP761  ALA762  ILE779  LEU786  VAL792 
 PHE793  MET794  SER795  GLU796  ALA797  LYS798  CYS799  TRP800  GLU811  SER814 

> <Gold.Protein.RotatedAtoms>
  152.2537  134.8106  160.0441 H   0  0  0  0  0  0  0  0  0  0  0  0  # atno 6907 bound_to 6896
  151.8778  133.3483  159.3764 H   0  0  0  0  0  0  0  0  0  0  0  0  # atno 6908 bound_to 6896
  150.7092  134.4976  159.5590 H   0  0  0  0  0  0  0  0  0  0  0  0  # atno 6909 bound_to 6896
  146.2049  139.7951  142.8734 H   0  0  0  0  0  0  0  0  0  0  0  0  # atno 7974 bound_to 7965
  155.2692  140.3365  155.4266 H   0  0  0  0  0  0  0  0  0  0  0  0  # atno 8008 bound_to 7997
  156.2140  140.1781  156.7673 H   0  0  0  0  0  0  0  0  0  0  0  0  # atno 8009 bound_to 7997
  154.5727  140.0667  156.8972 H   0  0  0  0  0  0  0  0  0  0  0  0  # atno 8010 bound_to 7997
  139.5714  144.1632  152.1390 H   0  0  0  0  0  0  0  0  0  0  0  0  # atno 10167 bound_to 10162
  157.1204  130.6547  149.5922 H   0  0  0  0  0  0  0  0  0  0  0  0  # atno 10718 bound_to 10713
  154.7664  135.4894  153.9563 H   0  0  0  0  0  0  0  0  0  0  0  0  # atno 10763 bound_to 10752
  153.1313  135.6753  153.9181 H   0  0  0  0  0  0  0  0  0  0  0  0  # atno 10764 bound_to 10752
  153.8884  135.3124  155.3425 H   0  0  0  0  0  0  0  0  0  0  0  0  # atno 10765 bound_to 10752
  140.6981  134.3967  157.5212 H   0  0  0  0  0  0  0  0  0  0  0  0  # atno 11005 bound_to 11000
  145.3356  141.0276  143.3422 LP  0  0  0  0  0  0  0  0  0  0  0  0  # atno 17320 bound_to 7965
  144.8768  139.4960  143.6742 LP  0  0  0  0  0  0  0  0  0  0  0  0  # atno 17321 bound_to 7965
  140.1166  144.5411  150.6890 LP  0  0  0  0  0  0  0  0  0  0  0  0  # atno 17342 bound_to 10162
  140.6999  143.2428  151.4895 LP  0  0  0  0  0  0  0  0  0  0  0  0  # atno 17343 bound_to 10162
  155.9830  130.4846  150.6909 LP  0  0  0  0  0  0  0  0  0  0  0  0  # atno 17370 bound_to 10713
  157.4481  131.0869  151.0874 LP  0  0  0  0  0  0  0  0  0  0  0  0  # atno 17371 bound_to 10713
  139.8904  134.8805  156.2370 LP  0  0  0  0  0  0  0  0  0  0  0  0  # atno 17394 bound_to 11000
  141.0186  133.7054  156.1231 LP  0  0  0  0  0  0  0  0  0  0  0  0  # atno 17395 bound_to 11000

$$$$
