AV-unprocessed.smi:3194|AV-procd|sdf|12211|dock1
  -GOLD-   2272018 43D 1   1.00000     0.00000
 Structure written by MMmdl.
 27 27  0  0  0  0  0  0  0  0  2 V2000
  152.8688  137.5180  157.7670 C   0  0  0  0  0  0  0  0  0  0  0  0
  152.7455  138.0944  156.3488 C   0  0  1  0  0  0  0  0  0  0  0  0
  151.5279  137.5043  155.6107 C   0  0  0  0  0  0  0  0  0  0  0  0
  151.5916  136.0925  155.5598 O   0  0  0  0  0  0  0  0  0  0  0  0
  152.6075  139.5492  156.4467 N   0  5  0  0  0  0  0  0  0  0  0  0
  151.4746  140.2404  156.1280 C   0  0  0  0  0  0  0  0  0  0  0  0
  151.0190  140.5467  155.0202 O   0  0  0  0  0  0  0  0  0  0  0  0
  150.7033  140.6868  157.3881 C   0  0  0  0  0  0  0  0  0  0  0  0
  149.5229  141.1943  157.0222 F   0  0  0  0  0  0  0  0  0  0  0  0
  150.4558  139.6232  158.1596 F   0  0  0  0  0  0  0  0  0  0  0  0
  151.4912  141.7432  158.1627 C   0  0  0  0  0  0  0  0  0  0  0  0
  151.6384  143.0568  157.6600 C   0  0  0  0  0  0  0  0  0  0  0  0
  152.3621  143.9951  158.4201 C   0  0  0  0  0  0  0  0  0  0  0  0
  152.9139  143.5916  159.6504 C   0  0  0  0  0  0  0  0  0  0  0  0
  152.7136  142.2614  160.0683 C   0  0  0  0  0  0  0  0  0  0  0  0
  152.0215  141.3539  159.3477 N   0  0  0  0  0  0  0  0  0  0  0  0
  153.6423  137.7968  155.8026 H   0  0  0  0  0  0  0  0  0  0  0  0
  152.9806  136.4338  157.7397 H   0  0  0  0  0  0  0  0  0  0  0  0
  151.9888  137.7461  158.3697 H   0  0  0  0  0  0  0  0  0  0  0  0
  153.7403  137.9232  158.2825 H   0  0  0  0  0  0  0  0  0  0  0  0
  150.6063  137.7803  156.1235 H   0  0  0  0  0  0  0  0  0  0  0  0
  151.4574  137.8977  154.5956 H   0  0  0  0  0  0  0  0  0  0  0  0
  151.8972  135.7769  156.3954 H   0  0  0  0  0  0  0  0  0  0  0  0
  151.1956  143.3441  156.7179 H   0  0  0  0  0  0  0  0  0  0  0  0
  152.4893  145.0074  158.0660 H   0  0  0  0  0  0  0  0  0  0  0  0
  153.4742  144.2845  160.2603 H   0  0  0  0  0  0  0  0  0  0  0  0
  153.1216  141.9164  161.0069 H   0  0  0  0  0  0  0  0  0  0  0  0
  1  2  1  0  0  0  0
  1 18  1  0  0  0  0
  1 19  1  0  0  0  0
  1 20  1  0  0  0  0
  2 17  1  0  0  0  0
  2  3  1  0  0  0  0
  2  5  1  0  0  0  0
  3  4  1  0  0  0  0
  3 21  1  0  0  0  0
  3 22  1  0  0  0  0
  4 23  1  0  0  0  0
  5  6  1  0  0  0  0
  6  7  2  0  0  0  0
  6  8  1  0  0  0  0
  8  9  1  0  0  0  0
  8 10  1  0  0  0  0
  8 11  1  0  0  0  0
 11 16  1  0  0  0  0
 11 12  2  0  0  0  0
 12 13  1  0  0  0  0
 12 24  1  0  0  0  0
 13 14  2  0  0  0  0
 13 25  1  0  0  0  0
 14 15  1  0  0  0  0
 14 26  1  0  0  0  0
 15 16  2  0  0  0  0
 15 27  1  0  0  0  0
M  CHG  1   5  -1
M  END
> <s_m_source_file>
AV-unprocessed.smi

> <i_m_source_file_index>
3194

> <i_lp_mmshare_version>
43012

> <i_f3d_flags>
0

> <s_epik_input>
W09IXVtDSDJdW0NASF0oW0NIM10pW05IXUMoPU8pQyhGKShGKWMxW2NIXVtjSF1bY0hdW2NIXW4x

> <s_epik_cmdline>
J2VwaWtfcHl0aG9uJywgJy1waCcsICc3LjAnLCAnLXRuJywgJzgnLCAnLW1hJywgJzIwMCcsICctbWV0YWxfYmluZGluZycsICctaW1hZScsICc8aW5maWxlLm1hZT4nLCAnLW9tYWUnLCAnPG91dGZpbGUubWFlPic=

> <r_lp_tautomer_probability>
1

> <r_epik_Ionization_Penalty>
5.78943

> <r_epik_Ionization_Penalty_Charging>
5.78942

> <r_epik_Ionization_Penalty_Neutral>
4.0054e-06

> <r_epik_State_Penalty>
5.78939

> <r_epik_Charging_Adjusted_Penalty>
11.5788

> <i_epik_Tot_Q>
-1

> <i_epik_Tot_abs_Q>
1

> <r_epik_Metal_State_Penalty>
1.76064

> <b_epik_Metal_Only>
1

> <s_lp_Force_Field>
OPLS_2005

> <r_lp_Energy>
17.1269

> <b_lp_Chiralities_Consistent>
1

> <s_lp_Variant>
AV-unprocessed.smi:3194-3

> <Gold.Version>
5.8.1

> <Gold.Id.Protein>
6NUR|6NUR_protein|mol2

> <Gold.PLP.Fitness>
40.7975

> <Gold.PLP.PLP>
-31.1459

> <Gold.PLP.part.hbond>
-3.0000

> <Gold.PLP.part.metal>
0.0000

> <Gold.PLP.part.buried>
-4.6125

> <Gold.PLP.part.nonpolar>
-23.5290

> <Gold.PLP.part.repulsive>
0.0614

> <Gold.PLP.ligand.clash>
0.0000

> <Gold.PLP.ligand.torsion>
1.3081

> <Gold.PLP.Chemscore.Hbond>
4.0000

> <Gold.PLP.Chemscore.CHOScore>
0.0000

> <Gold.PLP.Chemscore.Metal>
0.0000

> <Gold.Chemscore.Hbonds>
donor molecule, donor type, donor heavy atom, donor atom, acceptor molecule, acceptor atom, score
      P1  H  7989  7998       L1     7  0.99
      P1  H  7997  8009       L1     5  2.00
      P1  H 10752 10763       L1     4  0.65

> <Gold.PLP.Chemscore.Internal.Correction>
0.2678

> <Gold.Rescore>
     Score         DG    S(hbond)    S(metal)    S(lipo)     H(rot)  DE(clash)    DE(int)     intcor
     14.23     -15.86       2.27        0.00      77.06       2.43       0.06       1.57       ----

> <Gold.Chemscore.Fitness>
14.2274

> <Gold.Chemscore.DG>
-15.8595

> <Gold.Chemscore.ZeroCoef>
-5.4800

> <Gold.Chemscore.Hbond>
2.2688

> <Gold.Chemscore.Metal>
0.0000

> <Gold.Chemscore.Lipo>
77.0646

> <Gold.Chemscore.Internal_Hbond>
0.0000

> <Gold.Chemscore.DEClash>
0.0588

> <Gold.Chemscore.DEInternal>
1.5733

> <Gold.Chemscore.Rot>
2.4277

> <Gold.Chemscore.Internal.Correction>
   9.000000E+99

> <Gold.Chemscore.Hbonds>
donor molecule, donor type, donor heavy atom, donor atom, acceptor molecule, acceptor atom, score
      P1  H  7989  7998       L1     7  0.93
      P1  H  7997  8009       L1     5  0.40
      P1  H 10752 10763       L1     4  0.05

> <Gold.Chemscore.Hbond.Weighted>
-7.5778

> <Gold.Chemscore.Metal.Weighted>
-0.0000

> <Gold.Chemscore.Lipo.Weighted>
-9.0166

> <Gold.Chemscore.Internal_Hbond.Weighted>
0.0000

> <Gold.Chemscore.DEClash.Weighted>
0.0588

> <Gold.Chemscore.DEInternal.Weighted>
1.5733

> <Gold.Chemscore.Rot.Weighted>
6.2149

> <Gold.Chemscore.Internal.Correction.Weighted>
   9.000000E+99

> <Gold.Protein.RotatedTorsions>
[ 6907 6896 6895 6894 ] final   61.38 input  -60.11 | X-H torsion
[ 7974 7965 7964 7962 ] final  109.88 input  175.53 | X-H torsion
[ 8008 7997 7996 7995 ] final -161.70 input   59.86 | X-H torsion
[ 10167 10162 10161 10158 ] final  -55.63 input  -65.29 | X-H torsion
[ 10718 10713 10712 10709 ] final   82.51 input   66.30 | X-H torsion
[ 10763 10752 10751 10750 ] final   68.21 input  -60.55 | X-H torsion
[ 11005 11000 10999 10996 ] final  139.93 input  -57.11 | X-H torsion

> <Gold.Protein.ActiveResidues>
 VAL166  LYS551  ARG553  GLY616  TRP617  ASP618  TYR619  PRO620  LYS621  CYS622 
 ASP623  PHE694  ASN695  SER759  ASP760  ASP761  ALA762  ILE779  LEU786  VAL792 
 PHE793  MET794  SER795  GLU796  ALA797  LYS798  CYS799  TRP800  GLU811  SER814 

> <Gold.Protein.RotatedAtoms>
  152.4084  134.6167  160.0039 H   0  0  0  0  0  0  0  0  0  0  0  0  # atno 6907 bound_to 6896
  151.6352  133.3324  159.3125 H   0  0  0  0  0  0  0  0  0  0  0  0  # atno 6908 bound_to 6896
  150.7977  134.7089  159.6637 H   0  0  0  0  0  0  0  0  0  0  0  0  # atno 6909 bound_to 6896
  145.2621  139.2698  143.4011 H   0  0  0  0  0  0  0  0  0  0  0  0  # atno 7974 bound_to 7965
  155.7961  140.0885  157.1983 H   0  0  0  0  0  0  0  0  0  0  0  0  # atno 8008 bound_to 7997
  154.3983  140.1481  156.3278 H   0  0  0  0  0  0  0  0  0  0  0  0  # atno 8009 bound_to 7997
  155.8510  140.3434  155.5696 H   0  0  0  0  0  0  0  0  0  0  0  0  # atno 8010 bound_to 7997
  140.6363  143.2484  151.5108 H   0  0  0  0  0  0  0  0  0  0  0  0  # atno 10167 bound_to 10162
  157.6858  131.0051  150.2385 H   0  0  0  0  0  0  0  0  0  0  0  0  # atno 10718 bound_to 10713
  153.0224  135.5255  154.7100 H   0  0  0  0  0  0  0  0  0  0  0  0  # atno 10763 bound_to 10752
  154.6185  135.2886  155.0355 H   0  0  0  0  0  0  0  0  0  0  0  0  # atno 10764 bound_to 10752
  154.1351  135.6587  153.4982 H   0  0  0  0  0  0  0  0  0  0  0  0  # atno 10765 bound_to 10752
  140.0290  134.9361  157.0625 H   0  0  0  0  0  0  0  0  0  0  0  0  # atno 11005 bound_to 11000
  146.3272  140.3040  142.8622 LP  0  0  0  0  0  0  0  0  0  0  0  0  # atno 17320 bound_to 7965
  144.9409  140.8077  143.5631 LP  0  0  0  0  0  0  0  0  0  0  0  0  # atno 17321 bound_to 7965
  139.5574  144.2242  152.1635 LP  0  0  0  0  0  0  0  0  0  0  0  0  # atno 17342 bound_to 10162
  140.1499  144.5124  150.6693 LP  0  0  0  0  0  0  0  0  0  0  0  0  # atno 17343 bound_to 10162
  156.3004  130.3757  149.7756 LP  0  0  0  0  0  0  0  0  0  0  0  0  # atno 17370 bound_to 10713
  156.5388  130.8290  151.3262 LP  0  0  0  0  0  0  0  0  0  0  0  0  # atno 17371 bound_to 10713
  140.4257  134.1833  155.7166 LP  0  0  0  0  0  0  0  0  0  0  0  0  # atno 17394 bound_to 11000
  141.1820  133.8394  157.1224 LP  0  0  0  0  0  0  0  0  0  0  0  0  # atno 17395 bound_to 11000

$$$$
