#       Name:                AV-unprocessed.smi:8
#       Creating user name   scv26
#       Creation time:       Thu Mar 26 15:16:19 2020


#       File generated by GOLD software.
#

@<TRIPOS>MOLECULE
AV-unprocessed.smi:8
    40    41     1
SMALL
NO_CHARGES


@<TRIPOS>ATOM
      1 ****        -3.8046   2.9705   0.2013 C.3            1 S1                 0.0000
      2 ****        -3.3618   2.2899   1.5053 C.3            1 S1                 0.0000
      3 ****        -2.7360   1.0091   1.2862 N.am           1 S1                 0.0000
      4 ****        -1.3592   0.8490   1.2554 C.2            1 S1                 0.0000
      5 ****        -0.7444  -0.3395   1.0279 C.2            1 S1                 0.0000
      6 ****         0.7708  -0.4708   1.0273 C.3            1 S1                 0.0000
      7 ****         1.3165  -0.7446  -0.2959 N.pl3          1 S1                 0.0000
      8 ****         2.6964  -0.9281  -0.4728 C.ar           1 S1                 0.0000
      9 ****         3.4877  -1.0462   0.6202 N.ar           1 S1                 0.0000
     10 ****         4.7955  -1.2207   0.4155 C.ar           1 S1                 0.0000
     11 ****         5.4162  -1.2918  -0.7636 N.ar           1 S1                 0.0000
     12 ****         4.6416  -1.1778  -1.8631 C.ar           1 S1                 0.0000
     13 ****         3.2451  -0.9903  -1.7763 C.ar           1 S1                 0.0000
     14 ****         2.3936  -0.8633  -3.0264 C.3            1 S1                 0.0000
     15 ****        -1.5611  -1.5406   0.8183 C.2            1 S1                 0.0000
     16 ****        -1.1256  -2.6736   0.6208 O.2            1 S1                 0.0000
     17 ****        -2.9430  -1.3309   0.8523 N.am           1 S1                 0.0000
     18 ****        -3.5743  -0.1074   1.0702 C.2            1 S1                 0.0000
     19 ****        -4.8037  -0.0407   1.0666 O.2            1 S1                 0.0000
     20 ****        -3.5358  -2.1349   0.7047 H              1 S1                 0.0000
     21 ****        -4.2364   3.9505   0.4051 H              1 S1                 0.0000
     22 ****        -4.5570   2.3823  -0.3245 H              1 S1                 0.0000
     23 ****        -2.9602   3.1139  -0.4734 H              1 S1                 0.0000
     24 ****        -2.6277   2.9045   2.0284 H              1 S1                 0.0000
     25 ****        -4.1890   2.1430   2.2030 H              1 S1                 0.0000
     26 ****        -0.7400   1.7203   1.4161 H              1 S1                 0.0000
     27 ****         1.2195   0.4464   1.4106 H              1 S1                 0.0000
     28 ****         1.0514  -1.2713   1.7134 H              1 S1                 0.0000
     29 ****         0.7394  -0.5643  -1.1044 H              1 S1                 0.0000
     30 ****         5.4151  -1.3117   1.2953 H              1 S1                 0.0000
     31 ****         5.1425  -1.2365  -2.8182 H              1 S1                 0.0000
     32 ****         3.0031  -0.9347  -3.9275 H              1 S1                 0.0000
     33 ****         1.8793   0.0980  -3.0402 H              1 S1                 0.0000
     34 ****         1.6462  -1.6564  -3.0592 H              1 S1                 0.0000
     35 ****         3.1073  -1.0044   1.5441 LP             1 S1                 0.0000
     36 ****         6.4054  -1.4230  -0.8293 LP             1 S1                 0.0000
     37 ****        -0.1386  -2.8322   0.5934 LP             1 S1                 0.0000
     38 ****        -1.7584  -3.4364   0.4877 LP             1 S1                 0.0000
     39 ****        -5.2573   0.8368   1.2221 LP             1 S1                 0.0000
     40 ****        -5.3486  -0.8641   0.9083 LP             1 S1                 0.0000
@<TRIPOS>BOND
    1    1    2 1     
    2    1   21 1     
    3    1   22 1     
    4    1   23 1     
    5    2    3 1     
    6    2   24 1     
    7    2   25 1     
    8    3   18 1     
    9    3    4 1     
   10    4    5 2     
   11    4   26 1     
   12    5    6 1     
   13    5   15 1     
   14    6    7 1     
   15    6   27 1     
   16    6   28 1     
   17    7    8 1     
   18    7   29 1     
   19    8   13 ar    
   20    8    9 ar    
   21    9   10 ar    
   22   10   11 ar    
   23   10   30 1     
   24   11   12 ar    
   25   12   13 ar    
   26   12   31 1     
   27   13   14 1     
   28   14   32 1     
   29   14   33 1     
   30   14   34 1     
   31   15   16 2     
   32   15   17 1     
   33   17   20 1     
   34   17   18 1     
   35   18   19 2     
   36    9   35 1     
   37   11   36 1     
   38   16   37 1     
   39   16   38 1     
   40   19   39 1     
   41   19   40 1     
@<TRIPOS>SUBSTRUCTURE
      1 S1             1
@<TRIPOS>SET
LONE_PAIRS      STATIC     ATOMS    <user>   **** ""
6 35 36 37 38 39 40
DONOR_HYDROGENS      STATIC     ATOMS    <user>   **** ""
2 29 20
ATOM$BLUE        STATIC     ATOMS    COLORGROUP SYSTEM
6 35 36 37 38 39 40
ATOM$RED        STATIC     ATOMS    COLORGROUP SYSTEM
2 29 20
