AV-unprocessed.smi:2351|AV-procd|sdf|9377|dock6
  -GOLD-   2272013 03D 1   1.00000     0.00000
 Structure written by MMmdl.
 47 49  0  0  0  0  0  0  0  0  2 V2000
  150.8004  141.8490  156.0514 O   0  0  0  0  0  0  0  0  0  0  0  0
  151.2649  140.8467  156.5932 C   0  0  0  0  0  0  0  0  0  0  0  0
  151.8136  140.8035  157.8195 N   0  0  0  0  0  0  0  0  0  0  0  0
  151.9411  141.8429  158.7820 C   0  0  0  0  0  0  0  0  0  0  0  0
  151.2405  143.0727  158.7287 C   0  0  0  0  0  0  0  0  0  0  0  0
  151.4452  144.0116  159.7600 C   0  0  0  0  0  0  0  0  0  0  0  0
  152.2710  143.8000  160.8064 N   0  0  0  0  0  0  0  0  0  0  0  0
  152.9280  142.6222  160.8604 C   0  0  0  0  0  0  0  0  0  0  0  0
  152.7952  141.6164  159.8821 C   0  0  0  0  0  0  0  0  0  0  0  0
  153.4808  140.4533  160.0001 F   0  0  0  0  0  0  0  0  0  0  0  0
  151.2950  139.6406  156.0077 N   0  0  0  0  0  0  0  0  0  0  0  0
  150.7883  139.3362  154.6696 C   0  0  2  0  0  0  0  0  0  0  0  0
  149.2623  139.1164  154.6672 C   0  0  0  0  0  0  0  0  0  0  0  0
  148.8688  137.8054  155.3696 C   0  0  0  0  0  0  0  0  0  0  0  0
  149.5602  136.6408  154.7591 N   0  3  2  0  0  0  0  0  0  0  0  0
  149.0873  135.3500  155.3221 C   0  0  0  0  0  0  0  0  0  0  0  0
  149.7262  134.1296  154.6306 C   0  0  1  0  0  0  0  0  0  0  0  0
  150.1104  133.0203  155.5888 C   0  0  0  0  0  0  0  0  0  0  0  0
  150.2368  131.8211  154.6536 C   0  0  0  0  0  0  0  0  0  0  0  0
  149.3162  132.0566  153.5918 O   0  0  0  0  0  0  0  0  0  0  0  0
  148.7896  133.3759  153.6850 C   0  0  0  0  0  0  0  0  0  0  0  0
  151.0386  136.7983  154.8082 C   0  0  0  0  0  0  0  0  0  0  0  0
  151.4879  138.0901  154.1002 C   0  0  0  0  0  0  0  0  0  0  0  0
  152.2260  139.9225  158.0898 H   0  0  0  0  0  0  0  0  0  0  0  0
  150.5491  143.3118  157.9361 H   0  0  0  0  0  0  0  0  0  0  0  0
  150.9254  144.9579  159.7464 H   0  0  0  0  0  0  0  0  0  0  0  0
  153.5777  142.4758  161.7105 H   0  0  0  0  0  0  0  0  0  0  0  0
  151.7095  138.8773  156.5222 H   0  0  0  0  0  0  0  0  0  0  0  0
  151.0242  140.1830  154.0224 H   0  0  0  0  0  0  0  0  0  0  0  0
  148.7489  139.9582  155.1326 H   0  0  0  0  0  0  0  0  0  0  0  0
  148.9089  139.0853  153.6355 H   0  0  0  0  0  0  0  0  0  0  0  0
  149.1058  137.8567  156.4334 H   0  0  0  0  0  0  0  0  0  0  0  0
  147.7886  137.6744  155.2931 H   0  0  0  0  0  0  0  0  0  0  0  0
  149.2828  135.3274  156.3953 H   0  0  0  0  0  0  0  0  0  0  0  0
  148.0042  135.2785  155.2104 H   0  0  0  0  0  0  0  0  0  0  0  0
  150.6233  134.4204  154.0837 H   0  0  0  0  0  0  0  0  0  0  0  0
  151.0291  133.2266  156.1386 H   0  0  0  0  0  0  0  0  0  0  0  0
  149.3122  132.8448  156.3119 H   0  0  0  0  0  0  0  0  0  0  0  0
  151.2422  131.7690  154.2342 H   0  0  0  0  0  0  0  0  0  0  0  0
  150.0312  130.8770  155.1587 H   0  0  0  0  0  0  0  0  0  0  0  0
  147.7833  133.3145  154.1020 H   0  0  0  0  0  0  0  0  0  0  0  0
  148.7198  133.8459  152.7037 H   0  0  0  0  0  0  0  0  0  0  0  0
  151.3707  136.8024  155.8475 H   0  0  0  0  0  0  0  0  0  0  0  0
  151.5273  135.9512  154.3289 H   0  0  0  0  0  0  0  0  0  0  0  0
  151.2612  138.0083  153.0362 H   0  0  0  0  0  0  0  0  0  0  0  0
  152.5711  138.1990  154.1694 H   0  0  0  0  0  0  0  0  0  0  0  0
  149.2955  136.6400  153.7842 H   0  0  0  0  0  0  0  0  0  0  0  0
  1  2  2  0  0  0  0
  2  3  1  0  0  0  0
  2 11  1  0  0  0  0
  3  4  1  0  0  0  0
  3 24  1  0  0  0  0
  4  9  1  0  0  0  0
  4  5  2  0  0  0  0
  5  6  1  0  0  0  0
  5 25  1  0  0  0  0
  6  7  2  0  0  0  0
  6 26  1  0  0  0  0
  7  8  1  0  0  0  0
  8  9  2  0  0  0  0
  8 27  1  0  0  0  0
  9 10  1  0  0  0  0
 11 12  1  0  0  0  0
 11 28  1  0  0  0  0
 12 23  1  0  0  0  0
 12 13  1  0  0  0  0
 12 29  1  0  0  0  0
 13 14  1  0  0  0  0
 13 30  1  0  0  0  0
 13 31  1  0  0  0  0
 14 15  1  0  0  0  0
 14 32  1  0  0  0  0
 14 33  1  0  0  0  0
 15 16  1  0  0  0  0
 15 22  1  0  0  0  0
 15 47  1  0  0  0  0
 16 17  1  0  0  0  0
 16 34  1  0  0  0  0
 16 35  1  0  0  0  0
 17 21  1  0  0  0  0
 17 18  1  0  0  0  0
 17 36  1  0  0  0  0
 18 19  1  0  0  0  0
 18 37  1  0  0  0  0
 18 38  1  0  0  0  0
 19 20  1  0  0  0  0
 19 39  1  0  0  0  0
 19 40  1  0  0  0  0
 20 21  1  0  0  0  0
 21 41  1  0  0  0  0
 21 42  1  0  0  0  0
 22 23  1  0  0  0  0
 22 43  1  0  0  0  0
 22 44  1  0  0  0  0
 23 45  1  0  0  0  0
 23 46  1  0  0  0  0
M  CHG  1  15   1
M  END
> <s_m_source_file>
AV-unprocessed.smi

> <i_m_source_file_index>
2351

> <i_lp_mmshare_version>
43012

> <i_f3d_flags>
0

> <s_epik_input>
RmMxW2NIXW5bY0hdW2NIXWMxW05IXUMoPU8pW05IXVtDSF0yW0NIMl1bQ0gyXU4oW0NIMl1bQ0gyXTIpW0NIMl1bQ0BASF0zW0NIMl1bQ0gyXU9bQ0gyXTM=

> <s_epik_cmdline>
J2VwaWtfcHl0aG9uJywgJy1waCcsICc3LjAnLCAnLXRuJywgJzgnLCAnLW1hJywgJzIwMCcsICctbWV0YWxfYmluZGluZycsICctaW1hZScsICc8aW5maWxlLm1hZT4nLCAnLW9tYWUnLCAnPG91dGZpbGUubWFlPic=

> <r_epik_Ionization_Penalty>
0.0102464

> <r_epik_Ionization_Penalty_Charging>
0.00747775

> <r_epik_Ionization_Penalty_Neutral>
0.00276864

> <r_epik_State_Penalty>
0.00558817

> <r_epik_Charging_Adjusted_Penalty>
0.0130659

> <i_epik_Tot_Q>
1

> <i_epik_Tot_abs_Q>
1

> <r_epik_Metal_State_Penalty>
-0

> <b_epik_Metal_Only>
0

> <s_lp_Force_Field>
OPLS_2005

> <r_lp_Energy>
39.2901

> <b_lp_Chiralities_Consistent>
1

> <s_lp_Variant>
AV-unprocessed.smi:2351-4

> <Gold.Version>
5.8.1

> <Gold.Id.Protein>
6NUR|6NUR_protein|mol2

> <Gold.PLP.Fitness>
46.1051

> <Gold.PLP.PLP>
-42.0463

> <Gold.PLP.part.hbond>
-1.0000

> <Gold.PLP.part.metal>
0.0000

> <Gold.PLP.part.buried>
-5.4715

> <Gold.PLP.part.nonpolar>
-35.6689

> <Gold.PLP.part.repulsive>
0.4784

> <Gold.PLP.ligand.clash>
0.0000

> <Gold.PLP.ligand.torsion>
0.9842

> <Gold.PLP.Chemscore.Hbond>
2.0000

> <Gold.PLP.Chemscore.CHOScore>
0.0000

> <Gold.PLP.Chemscore.Metal>
0.0000

> <Gold.Chemscore.Hbonds>
donor molecule, donor type, donor heavy atom, donor atom, acceptor molecule, acceptor atom, score
      L1  H    15    47       P1  7948  2.00

> <Gold.PLP.Chemscore.Internal.Correction>
0.0272

> <Gold.Rescore>
     Score         DG    S(hbond)    S(metal)    S(lipo)     H(rot)  DE(clash)    DE(int)     intcor
     15.27     -17.51       0.98        0.00     106.66       1.45       0.18       2.05       ----

> <Gold.Chemscore.Fitness>
15.2748

> <Gold.Chemscore.DG>
-17.5098

> <Gold.Chemscore.ZeroCoef>
-5.4800

> <Gold.Chemscore.Hbond>
0.9756

> <Gold.Chemscore.Metal>
0.0000

> <Gold.Chemscore.Lipo>
106.6587

> <Gold.Chemscore.Internal_Hbond>
0.0000

> <Gold.Chemscore.DEClash>
0.1820

> <Gold.Chemscore.DEInternal>
2.0531

> <Gold.Chemscore.Rot>
1.4483

> <Gold.Chemscore.Internal.Correction>
   9.000000E+99

> <Gold.Chemscore.Hbonds>
donor molecule, donor type, donor heavy atom, donor atom, acceptor molecule, acceptor atom, score
      L1  H    15    47       P1  7948  0.94

> <Gold.Chemscore.Hbond.Weighted>
-3.2585

> <Gold.Chemscore.Metal.Weighted>
-0.0000

> <Gold.Chemscore.Lipo.Weighted>
-12.4791

> <Gold.Chemscore.Internal_Hbond.Weighted>
0.0000

> <Gold.Chemscore.DEClash.Weighted>
0.1820

> <Gold.Chemscore.DEInternal.Weighted>
2.0531

> <Gold.Chemscore.Rot.Weighted>
3.7077

> <Gold.Chemscore.Internal.Correction.Weighted>
   9.000000E+99

> <Gold.Protein.RotatedTorsions>
[ 6907 6896 6895 6894 ] final -123.99 input  -60.11 | X-H torsion
[ 7974 7965 7964 7962 ] final  104.10 input  175.53 | X-H torsion
[ 8008 7997 7996 7995 ] final   34.59 input   59.86 | X-H torsion
[ 10167 10162 10161 10158 ] final -174.81 input  -65.29 | X-H torsion
[ 10718 10713 10712 10709 ] final -132.09 input   66.30 | X-H torsion
[ 10763 10752 10751 10750 ] final  -69.23 input  -60.55 | X-H torsion
[ 11005 11000 10999 10996 ] final -175.86 input  -57.11 | X-H torsion

> <Gold.Protein.ActiveResidues>
 VAL166  LYS551  ARG553  GLY616  TRP617  ASP618  TYR619  PRO620  LYS621  CYS622 
 ASP623  PHE694  ASN695  SER759  ASP760  ASP761  ALA762  ILE779  LEU786  VAL792 
 PHE793  MET794  SER795  GLU796  ALA797  LYS798  CYS799  TRP800  GLU811  SER814 

> <Gold.Protein.RotatedAtoms>
  150.8724  133.7486  159.2956 H   0  0  0  0  0  0  0  0  0  0  0  0  # atno 6907 bound_to 6896
  151.5094  135.1063  159.9859 H   0  0  0  0  0  0  0  0  0  0  0  0  # atno 6908 bound_to 6896
  152.4704  133.7973  159.6989 H   0  0  0  0  0  0  0  0  0  0  0  0  # atno 6909 bound_to 6896
  145.3372  139.2471  143.3629 H   0  0  0  0  0  0  0  0  0  0  0  0  # atno 7974 bound_to 7965
  155.1573  140.3280  155.4418 H   0  0  0  0  0  0  0  0  0  0  0  0  # atno 8008 bound_to 7997
  156.2554  140.1966  156.6633 H   0  0  0  0  0  0  0  0  0  0  0  0  # atno 8009 bound_to 7997
  154.6430  140.0568  156.9854 H   0  0  0  0  0  0  0  0  0  0  0  0  # atno 8010 bound_to 7997
  139.5614  144.1860  152.1244 H   0  0  0  0  0  0  0  0  0  0  0  0  # atno 10167 bound_to 10162
  156.2311  130.7038  151.0859 H   0  0  0  0  0  0  0  0  0  0  0  0  # atno 10718 bound_to 10713
  154.4005  135.6032  153.5894 H   0  0  0  0  0  0  0  0  0  0  0  0  # atno 10763 bound_to 10752
  152.9788  135.5905  154.4190 H   0  0  0  0  0  0  0  0  0  0  0  0  # atno 10764 bound_to 10752
  154.3988  135.2842  155.2088 H   0  0  0  0  0  0  0  0  0  0  0  0  # atno 10765 bound_to 10752
  140.4585  134.6276  157.4832 H   0  0  0  0  0  0  0  0  0  0  0  0  # atno 11005 bound_to 11000
  146.3022  140.3961  142.8700 LP  0  0  0  0  0  0  0  0  0  0  0  0  # atno 17320 bound_to 7965
  144.8818  140.7411  143.5981 LP  0  0  0  0  0  0  0  0  0  0  0  0  # atno 17321 bound_to 7965
  140.1375  144.5233  150.6764 LP  0  0  0  0  0  0  0  0  0  0  0  0  # atno 17342 bound_to 10162
  140.6894  143.2367  151.5172 LP  0  0  0  0  0  0  0  0  0  0  0  0  # atno 17343 bound_to 10162
  157.7133  131.0723  150.6420 LP  0  0  0  0  0  0  0  0  0  0  0  0  # atno 17370 bound_to 10713
  156.6488  130.4479  149.5726 LP  0  0  0  0  0  0  0  0  0  0  0  0  # atno 17371 bound_to 10713
  139.9960  134.6910  155.9608 LP  0  0  0  0  0  0  0  0  0  0  0  0  # atno 17394 bound_to 11000
  141.1632  133.6538  156.4389 LP  0  0  0  0  0  0  0  0  0  0  0  0  # atno 17395 bound_to 11000

$$$$
