AV-unprocessed.smi:332|AV-procd|sdf|2358|dock5
  -GOLD-   2262022273D 1   1.00000     0.00000
 Structure written by MMmdl.
 42 44  0  0  0  0  0  0  0  0  1 V2000
  150.4910  142.1262  156.0703 C   0  0  0  0  0  0  0  0  0  0  0  0
  151.4010  141.8596  157.2826 C   0  0  2  0  0  0  0  0  0  0  0  0
  151.1227  140.5190  157.7946 N   0  0  0  0  0  0  0  0  0  0  0  0
  151.6700  139.3801  157.3435 C   0  0  0  0  0  0  0  0  0  0  0  0
  152.4584  139.3348  156.3983 O   0  0  0  0  0  0  0  0  0  0  0  0
  151.2394  138.0960  158.0655 C   0  0  0  0  0  0  0  0  0  0  0  0
  152.3734  137.3467  158.6309 N   0  0  0  0  0  0  0  0  0  0  0  0
  152.5144  137.3548  160.0331 C   0  0  0  0  0  0  0  0  0  0  0  0
  153.5130  136.7036  160.6502 C   0  0  0  0  0  0  0  0  0  0  0  0
  154.4606  135.9790  159.8366 C   0  0  0  0  0  0  0  0  0  0  0  0
  154.3333  135.9620  158.4946 C   0  0  0  0  0  0  0  0  0  0  0  0
  153.2424  136.6715  157.8161 C   0  0  0  0  0  0  0  0  0  0  0  0
  153.1173  136.6605  156.5909 O   0  0  0  0  0  0  0  0  0  0  0  0
  151.2109  142.8945  158.4194 C   0  0  1  0  0  0  0  0  0  0  0  0
  152.2529  142.7651  159.5601 C   0  0  0  0  0  0  0  0  0  0  0  0
  152.8325  144.1855  159.6762 C   0  0  2  0  0  0  0  0  0  0  0  0
  151.7641  145.1347  160.2480 C   0  0  0  0  0  0  0  0  0  0  0  0
  150.7838  145.2873  159.0701 C   0  0  0  0  0  0  0  0  0  0  0  0
  151.3997  144.3729  157.9934 C   0  0  1  0  0  0  0  0  0  0  0  0
  152.8903  144.6097  158.2154 C   0  0  0  0  0  0  0  0  0  0  0  0
  150.7134  143.0819  155.5977 H   0  0  0  0  0  0  0  0  0  0  0  0
  149.4390  142.1329  156.3577 H   0  0  0  0  0  0  0  0  0  0  0  0
  150.6205  141.3580  155.3070 H   0  0  0  0  0  0  0  0  0  0  0  0
  152.4388  141.9064  156.9480 H   0  0  0  0  0  0  0  0  0  0  0  0
  150.4802  140.4567  158.5709 H   0  0  0  0  0  0  0  0  0  0  0  0
  150.5245  138.3395  158.8542 H   0  0  0  0  0  0  0  0  0  0  0  0
  150.6841  137.4796  157.3571 H   0  0  0  0  0  0  0  0  0  0  0  0
  151.7610  137.9137  160.5692 H   0  0  0  0  0  0  0  0  0  0  0  0
  153.6028  136.7186  161.7267 H   0  0  0  0  0  0  0  0  0  0  0  0
  155.2748  135.4465  160.3065 H   0  0  0  0  0  0  0  0  0  0  0  0
  155.0513  135.4138  157.9022 H   0  0  0  0  0  0  0  0  0  0  0  0
  150.2083  142.7604  158.8292 H   0  0  0  0  0  0  0  0  0  0  0  0
  151.8056  142.4205  160.4933 H   0  0  0  0  0  0  0  0  0  0  0  0
  153.0494  142.0662  159.3005 H   0  0  0  0  0  0  0  0  0  0  0  0
  153.7845  144.2269  160.2063 H   0  0  0  0  0  0  0  0  0  0  0  0
  151.2852  144.7268  161.1389 H   0  0  0  0  0  0  0  0  0  0  0  0
  152.1993  146.0994  160.5122 H   0  0  0  0  0  0  0  0  0  0  0  0
  149.7652  144.9997  159.3331 H   0  0  0  0  0  0  0  0  0  0  0  0
  150.7578  146.3227  158.7280 H   0  0  0  0  0  0  0  0  0  0  0  0
  151.0474  144.6094  156.9902 H   0  0  0  0  0  0  0  0  0  0  0  0
  153.1884  145.6509  158.0792 H   0  0  0  0  0  0  0  0  0  0  0  0
  153.5311  143.9727  157.6037 H   0  0  0  0  0  0  0  0  0  0  0  0
  1  2  1  0  0  0  0
  1 21  1  0  0  0  0
  1 22  1  0  0  0  0
  1 23  1  0  0  0  0
  2  3  1  0  0  0  0
  2 14  1  0  0  0  0
  2 24  1  0  0  0  0
  3  4  1  0  0  0  0
  3 25  1  0  0  0  0
  4  5  2  0  0  0  0
  4  6  1  0  0  0  0
  6  7  1  0  0  0  0
  6 26  1  0  0  0  0
  6 27  1  0  0  0  0
  7 12  1  0  0  0  0
  7  8  1  0  0  0  0
  8  9  2  0  0  0  0
  8 28  1  0  0  0  0
  9 10  1  0  0  0  0
  9 29  1  0  0  0  0
 10 11  2  0  0  0  0
 10 30  1  0  0  0  0
 11 12  1  0  0  0  0
 11 31  1  0  0  0  0
 12 13  2  0  0  0  0
 14 19  1  0  0  0  0
 14 15  1  0  0  0  0
 14 32  1  0  0  0  0
 15 16  1  0  0  0  0
 15 33  1  0  0  0  0
 15 34  1  0  0  0  0
 16 20  1  0  0  0  0
 16 17  1  0  0  0  0
 16 35  1  0  0  0  0
 17 18  1  0  0  0  0
 17 36  1  0  0  0  0
 17 37  1  0  0  0  0
 18 19  1  0  0  0  0
 18 38  1  0  0  0  0
 18 39  1  0  0  0  0
 19 20  1  0  0  0  0
 19 40  1  0  0  0  0
 20 41  1  0  0  0  0
 20 42  1  0  0  0  0
M  END
> <s_m_source_file>
AV-unprocessed.smi

> <i_m_source_file_index>
332

> <i_lp_mmshare_version>
43012

> <i_f3d_flags>
0

> <s_epik_input>
W0NIMl0xW0NIMl1bQ0BIXShbQ0gyXTIpW0NAQEhdKFtDSDJdW0NAQEhdMTIpW0NASF0oW0NIM10pW05IXUMoPU8pW0NIMl1uM1tjSF1bY0hdW2NIXVtjSF1jMz1P

> <s_epik_cmdline>
J2VwaWtfcHl0aG9uJywgJy1waCcsICc3LjAnLCAnLXRuJywgJzgnLCAnLW1hJywgJzIwMCcsICctbWV0YWxfYmluZGluZycsICctaW1hZScsICc8aW5maWxlLm1hZT4nLCAnLW9tYWUnLCAnPG91dGZpbGUubWFlPic=

> <r_lp_tautomer_probability>
1

> <r_epik_Ionization_Penalty>
4.05802e-07

> <r_epik_Ionization_Penalty_Charging>
3.84175e-07

> <r_epik_Ionization_Penalty_Neutral>
2.16269e-08

> <r_epik_State_Penalty>
-0

> <r_epik_Charging_Adjusted_Penalty>
3.84175e-07

> <i_epik_Tot_Q>
0

> <i_epik_Tot_abs_Q>
0

> <r_epik_Metal_State_Penalty>
-0

> <b_epik_Metal_Only>
0

> <s_lp_Force_Field>
OPLS_2005

> <r_lp_Energy>
59.8508

> <b_lp_Chiralities_Consistent>
1

> <s_lp_Variant>
AV-unprocessed.smi:332-7

> <Gold.Version>
5.8.1

> <Gold.Id.Protein>
6NUR|6NUR_protein|mol2

> <Gold.PLP.Fitness>
45.9137

> <Gold.PLP.PLP>
-40.9660

> <Gold.PLP.part.hbond>
-2.0000

> <Gold.PLP.part.metal>
0.0000

> <Gold.PLP.part.buried>
-5.5751

> <Gold.PLP.part.nonpolar>
-32.7264

> <Gold.PLP.part.repulsive>
0.0886

> <Gold.PLP.ligand.clash>
0.0000

> <Gold.PLP.ligand.torsion>
0.5313

> <Gold.PLP.Chemscore.Hbond>
1.9920

> <Gold.PLP.Chemscore.CHOScore>
0.0000

> <Gold.PLP.Chemscore.Metal>
0.0000

> <Gold.Chemscore.Hbonds>
donor molecule, donor type, donor heavy atom, donor atom, acceptor molecule, acceptor atom, score
      P1  H  7997  8008       L1     5  0.98
      P1  H 10752 10765       L1    13  0.88

> <Gold.PLP.Chemscore.Internal.Correction>
0.0342

> <Gold.Rescore>
     Score         DG    S(hbond)    S(metal)    S(lipo)     H(rot)  DE(clash)    DE(int)     intcor
     21.59     -22.66       1.98        0.00     124.07       1.54       0.27       0.80       ----

> <Gold.Chemscore.Fitness>
21.5861

> <Gold.Chemscore.DG>
-22.6552

> <Gold.Chemscore.ZeroCoef>
-5.4800

> <Gold.Chemscore.Hbond>
1.9763

> <Gold.Chemscore.Metal>
0.0000

> <Gold.Chemscore.Lipo>
124.0708

> <Gold.Chemscore.Internal_Hbond>
0.0000

> <Gold.Chemscore.DEClash>
0.2669

> <Gold.Chemscore.DEInternal>
0.8022

> <Gold.Chemscore.Rot>
1.5398

> <Gold.Chemscore.Internal.Correction>
   9.000000E+99

> <Gold.Chemscore.Hbonds>
donor molecule, donor type, donor heavy atom, donor atom, acceptor molecule, acceptor atom, score
      P1  H  7997  8008       L1     5  0.92
      P1  H 10752 10765       L1    13  0.86

> <Gold.Chemscore.Hbond.Weighted>
-6.6008

> <Gold.Chemscore.Metal.Weighted>
-0.0000

> <Gold.Chemscore.Lipo.Weighted>
-14.5163

> <Gold.Chemscore.Internal_Hbond.Weighted>
0.0000

> <Gold.Chemscore.DEClash.Weighted>
0.2669

> <Gold.Chemscore.DEInternal.Weighted>
0.8022

> <Gold.Chemscore.Rot.Weighted>
3.9419

> <Gold.Chemscore.Internal.Correction.Weighted>
   9.000000E+99

> <Gold.Protein.RotatedTorsions>
[ 6907 6896 6895 6894 ] final    2.34 input  -60.11 | X-H torsion
[ 7974 7965 7964 7962 ] final   77.39 input  175.53 | X-H torsion
[ 8008 7997 7996 7995 ] final  -52.46 input   59.86 | X-H torsion
[ 10167 10162 10161 10158 ] final   14.74 input  -65.29 | X-H torsion
[ 10718 10713 10712 10709 ] final  -80.38 input   66.30 | X-H torsion
[ 10763 10752 10751 10750 ] final -112.10 input  -60.55 | X-H torsion
[ 11005 11000 10999 10996 ] final  159.11 input  -57.11 | X-H torsion

> <Gold.Protein.ActiveResidues>
 VAL166  LYS551  ARG553  GLY616  TRP617  ASP618  TYR619  PRO620  LYS621  CYS622 
 ASP623  PHE694  ASN695  SER759  ASP760  ASP761  ALA762  ILE779  LEU786  VAL792 
 PHE793  MET794  SER795  GLU796  ALA797  LYS798  CYS799  TRP800  GLU811  SER814 

> <Gold.Protein.RotatedAtoms>
  151.6073  135.1043  160.0073 H   0  0  0  0  0  0  0  0  0  0  0  0  # atno 6907 bound_to 6896
  152.4227  133.7138  159.6505 H   0  0  0  0  0  0  0  0  0  0  0  0  # atno 6908 bound_to 6896
  150.8115  133.8341  159.3202 H   0  0  0  0  0  0  0  0  0  0  0  0  # atno 6909 bound_to 6896
  145.6907  139.2551  143.1761 H   0  0  0  0  0  0  0  0  0  0  0  0  # atno 7974 bound_to 7965
  154.4107  140.1223  156.4995 H   0  0  0  0  0  0  0  0  0  0  0  0  # atno 8008 bound_to 7997
  155.6909  140.3495  155.4874 H   0  0  0  0  0  0  0  0  0  0  0  0  # atno 8009 bound_to 7997
  155.9469  140.1097  157.0999 H   0  0  0  0  0  0  0  0  0  0  0  0  # atno 8010 bound_to 7997
  140.5915  143.8786  150.6878 H   0  0  0  0  0  0  0  0  0  0  0  0  # atno 10167 bound_to 10162
  156.0071  130.4573  150.3792 H   0  0  0  0  0  0  0  0  0  0  0  0  # atno 10718 bound_to 10713
  154.8333  135.4503  154.1141 H   0  0  0  0  0  0  0  0  0  0  0  0  # atno 10763 bound_to 10752
  153.2395  135.6915  153.7805 H   0  0  0  0  0  0  0  0  0  0  0  0  # atno 10764 bound_to 10752
  153.7158  135.3349  155.3232 H   0  0  0  0  0  0  0  0  0  0  0  0  # atno 10765 bound_to 10752
  140.1930  134.8393  157.2933 H   0  0  0  0  0  0  0  0  0  0  0  0  # atno 11005 bound_to 11000
  146.0884  140.7684  142.9607 LP  0  0  0  0  0  0  0  0  0  0  0  0  # atno 17320 bound_to 7965
  144.6997  140.3599  143.7166 LP  0  0  0  0  0  0  0  0  0  0  0  0  # atno 17321 bound_to 7965
  140.2310  143.3735  152.1565 LP  0  0  0  0  0  0  0  0  0  0  0  0  # atno 17342 bound_to 10162
  139.5230  144.7066  151.5334 LP  0  0  0  0  0  0  0  0  0  0  0  0  # atno 17343 bound_to 10162
  157.1872  131.0406  151.2718 LP  0  0  0  0  0  0  0  0  0  0  0  0  # atno 17370 bound_to 10713
  157.4093  130.7376  149.6827 LP  0  0  0  0  0  0  0  0  0  0  0  0  # atno 17371 bound_to 10713
  140.2139  134.4105  155.7599 LP  0  0  0  0  0  0  0  0  0  0  0  0  # atno 17394 bound_to 11000
  141.2226  133.7132  156.8382 LP  0  0  0  0  0  0  0  0  0  0  0  0  # atno 17395 bound_to 11000

$$$$
