AV-unprocessed.smi:516|AV-procd|sdf|2787|dock4
  -GOLD-   2262023263D 1   1.00000     0.00000
 Structure written by MMmdl.
 44 46  0  0  0  0  0  0  0  0  3 V2000
  149.1879  130.9387  153.7967 C   0  0  0  0  0  0  0  0  0  0  0  0
  149.4405  131.8847  154.8196 O   0  0  0  0  0  0  0  0  0  0  0  0
  149.3341  133.2236  154.3654 C   0  0  0  0  0  0  0  0  0  0  0  0
  149.4246  134.1923  155.5540 C   0  0  0  0  0  0  0  0  0  0  0  0
  149.0525  135.5558  155.1849 N   0  0  0  0  0  0  0  0  0  0  0  0
  147.8579  135.9730  154.6882 C   0  0  0  0  0  0  0  0  0  0  0  0
  146.6938  135.0581  154.4317 C   0  0  0  0  0  0  0  0  0  0  0  0
  146.5622  135.0268  152.9532 N   0  3  0  0  0  0  0  0  0  0  0  0
  146.2401  133.6734  152.4442 C   0  0  0  0  0  0  0  0  0  0  0  0
  146.1843  133.6768  150.9071 C   0  0  0  0  0  0  0  0  0  0  0  0
  145.2318  134.6363  150.4659 O   0  0  0  0  0  0  0  0  0  0  0  0
  145.5757  135.9546  150.8744 C   0  0  0  0  0  0  0  0  0  0  0  0
  145.6089  136.0274  152.4098 C   0  0  0  0  0  0  0  0  0  0  0  0
  147.7945  137.2841  154.4425 N   0  0  0  0  0  0  0  0  0  0  0  0
  149.0524  137.7370  154.8095 C   0  0  0  0  0  0  0  0  0  0  0  0
  149.8314  136.7157  155.2553 C   0  0  0  0  0  0  0  0  0  0  0  0
  151.2312  136.8873  155.7064 C   0  0  0  0  0  0  0  0  0  0  0  0
  151.9024  135.9277  156.0791 O   0  0  0  0  0  0  0  0  0  0  0  0
  151.6360  138.1954  155.6485 N   0  5  0  0  0  0  0  0  0  0  0  0
  150.8773  139.2605  155.2131 C   0  0  0  0  0  0  0  0  0  0  0  0
  151.3179  140.4105  155.1991 O   0  0  0  0  0  0  0  0  0  0  0  0
  149.5935  139.0508  154.7830 N   0  0  0  0  0  0  0  0  0  0  0  0
  148.7649  140.1633  154.3096 C   0  0  0  0  0  0  0  0  0  0  0  0
  149.2884  129.9306  154.1986 H   0  0  0  0  0  0  0  0  0  0  0  0
  149.8985  131.0462  152.9763 H   0  0  0  0  0  0  0  0  0  0  0  0
  148.1769  131.0451  153.4015 H   0  0  0  0  0  0  0  0  0  0  0  0
  150.1321  133.4332  153.6517 H   0  0  0  0  0  0  0  0  0  0  0  0
  148.3861  133.3678  153.8451 H   0  0  0  0  0  0  0  0  0  0  0  0
  148.7839  133.8526  156.3668 H   0  0  0  0  0  0  0  0  0  0  0  0
  150.4280  134.1851  155.9742 H   0  0  0  0  0  0  0  0  0  0  0  0
  146.9433  134.0702  154.8212 H   0  0  0  0  0  0  0  0  0  0  0  0
  145.7742  135.3820  154.9171 H   0  0  0  0  0  0  0  0  0  0  0  0
  146.9952  132.9625  152.7819 H   0  0  0  0  0  0  0  0  0  0  0  0
  145.2832  133.3462  152.8538 H   0  0  0  0  0  0  0  0  0  0  0  0
  147.1648  133.8968  150.4817 H   0  0  0  0  0  0  0  0  0  0  0  0
  145.8914  132.6932  150.5395 H   0  0  0  0  0  0  0  0  0  0  0  0
  146.5394  136.2416  150.4505 H   0  0  0  0  0  0  0  0  0  0  0  0
  144.8345  136.6507  150.4814 H   0  0  0  0  0  0  0  0  0  0  0  0
  144.6125  135.8416  152.8139 H   0  0  0  0  0  0  0  0  0  0  0  0
  145.8940  137.0346  152.7139 H   0  0  0  0  0  0  0  0  0  0  0  0
  149.2611  140.6935  153.4956 H   0  0  0  0  0  0  0  0  0  0  0  0
  148.5843  140.8730  155.1177 H   0  0  0  0  0  0  0  0  0  0  0  0
  147.7946  139.8368  153.9364 H   0  0  0  0  0  0  0  0  0  0  0  0
  147.4747  135.2592  152.5863 H   0  0  0  0  0  0  0  0  0  0  0  0
  1  2  1  0  0  0  0
  1 24  1  0  0  0  0
  1 25  1  0  0  0  0
  1 26  1  0  0  0  0
  2  3  1  0  0  0  0
  3  4  1  0  0  0  0
  3 27  1  0  0  0  0
  3 28  1  0  0  0  0
  4  5  1  0  0  0  0
  4 29  1  0  0  0  0
  4 30  1  0  0  0  0
  5 16  1  0  0  0  0
  5  6  1  0  0  0  0
  6  7  1  0  0  0  0
  6 14  2  0  0  0  0
  7  8  1  0  0  0  0
  7 31  1  0  0  0  0
  7 32  1  0  0  0  0
  8 13  1  0  0  0  0
  8  9  1  0  0  0  0
  8 44  1  0  0  0  0
  9 10  1  0  0  0  0
  9 33  1  0  0  0  0
  9 34  1  0  0  0  0
 10 11  1  0  0  0  0
 10 35  1  0  0  0  0
 10 36  1  0  0  0  0
 11 12  1  0  0  0  0
 12 13  1  0  0  0  0
 12 37  1  0  0  0  0
 12 38  1  0  0  0  0
 13 39  1  0  0  0  0
 13 40  1  0  0  0  0
 14 15  1  0  0  0  0
 15 22  1  0  0  0  0
 15 16  2  0  0  0  0
 16 17  1  0  0  0  0
 17 18  2  0  0  0  0
 17 19  1  0  0  0  0
 19 20  1  0  0  0  0
 20 21  2  0  0  0  0
 20 22  1  0  0  0  0
 22 23  1  0  0  0  0
 23 41  1  0  0  0  0
 23 42  1  0  0  0  0
 23 43  1  0  0  0  0
M  CHG  1   8   1
M  CHG  1  19  -1
M  END
> <s_m_source_file>
AV-unprocessed.smi

> <i_m_source_file_index>
516

> <i_lp_mmshare_version>
43012

> <i_f3d_flags>
0

> <s_epik_input>
W0NIM11uMWMoPU8pW25IXWMoPU8pYyhjMTIpbihbQ0gyXVtDSDJdT1tDSDNdKWMobjIpW0NIMl1OM1tDSDJdW0NIMl1PW0NIMl1bQ0gyXTM=

> <s_epik_cmdline>
J2VwaWtfcHl0aG9uJywgJy1waCcsICc3LjAnLCAnLXRuJywgJzgnLCAnLW1hJywgJzIwMCcsICctbWV0YWxfYmluZGluZycsICctaW1hZScsICc8aW5maWxlLm1hZT4nLCAnLW9tYWUnLCAnPG91dGZpbGUubWFlPic=

> <r_epik_Ionization_Penalty>
5.20946

> <r_epik_Ionization_Penalty_Charging>
1.12908

> <r_epik_Ionization_Penalty_Neutral>
4.08038

> <r_epik_State_Penalty>
5.2587

> <r_epik_Charging_Adjusted_Penalty>
6.38778

> <i_epik_Tot_Q>
0

> <i_epik_Tot_abs_Q>
2

> <r_epik_Metal_State_Penalty>
1.732

> <b_epik_Metal_Only>
1

> <s_lp_Force_Field>
OPLS_2005

> <r_lp_Energy>
35.9619

> <b_lp_Chiralities_Consistent>
1

> <s_lp_Variant>
AV-unprocessed.smi:516-4

> <Gold.Version>
5.8.1

> <Gold.Id.Protein>
6NUR|6NUR_protein|mol2

> <Gold.PLP.Fitness>
40.7939

> <Gold.PLP.PLP>
-30.1222

> <Gold.PLP.part.hbond>
-3.0000

> <Gold.PLP.part.metal>
0.0000

> <Gold.PLP.part.buried>
-5.0650

> <Gold.PLP.part.nonpolar>
-24.2335

> <Gold.PLP.part.repulsive>
1.7540

> <Gold.PLP.ligand.clash>
0.0000

> <Gold.PLP.ligand.torsion>
0.6149

> <Gold.PLP.Chemscore.Hbond>
3.9440

> <Gold.PLP.Chemscore.CHOScore>
0.0000

> <Gold.PLP.Chemscore.Metal>
0.0000

> <Gold.Chemscore.Hbonds>
donor molecule, donor type, donor heavy atom, donor atom, acceptor molecule, acceptor atom, score
      L1  H     8    44       P1  7948  2.00
      P1  H  7989  7998       L1    21  0.96
      P1  H 10752 10764       L1    18  1.00

> <Gold.PLP.Chemscore.Internal.Correction>
0.0696

> <Gold.Rescore>
     Score         DG    S(hbond)    S(metal)    S(lipo)     H(rot)  DE(clash)    DE(int)     intcor
     14.16     -14.90       2.73        0.00      47.94       2.07       0.12       0.62       ----

> <Gold.Chemscore.Fitness>
14.1588

> <Gold.Chemscore.DG>
-14.8993

> <Gold.Chemscore.ZeroCoef>
-5.4800

> <Gold.Chemscore.Hbond>
2.7270

> <Gold.Chemscore.Metal>
0.0000

> <Gold.Chemscore.Lipo>
47.9358

> <Gold.Chemscore.Internal_Hbond>
0.0000

> <Gold.Chemscore.DEClash>
0.1244

> <Gold.Chemscore.DEInternal>
0.6161

> <Gold.Chemscore.Rot>
2.0693

> <Gold.Chemscore.Internal.Correction>
   9.000000E+99

> <Gold.Chemscore.Hbonds>
donor molecule, donor type, donor heavy atom, donor atom, acceptor molecule, acceptor atom, score
      L1  H     8    44       P1  7948  1.00
      P1  H  7989  7998       L1    21  0.65
      P1  H 10752 10764       L1    18  0.98

> <Gold.Chemscore.Hbond.Weighted>
-9.1083

> <Gold.Chemscore.Metal.Weighted>
-0.0000

> <Gold.Chemscore.Lipo.Weighted>
-5.6085

> <Gold.Chemscore.Internal_Hbond.Weighted>
0.0000

> <Gold.Chemscore.DEClash.Weighted>
0.1244

> <Gold.Chemscore.DEInternal.Weighted>
0.6161

> <Gold.Chemscore.Rot.Weighted>
5.2975

> <Gold.Chemscore.Internal.Correction.Weighted>
   9.000000E+99

> <Gold.Protein.RotatedTorsions>
[ 6907 6896 6895 6894 ] final -166.93 input  -60.11 | X-H torsion
[ 7974 7965 7964 7962 ] final -170.85 input  175.53 | X-H torsion
[ 8008 7997 7996 7995 ] final   -7.80 input   59.86 | X-H torsion
[ 10167 10162 10161 10158 ] final -155.77 input  -65.29 | X-H torsion
[ 10718 10713 10712 10709 ] final   57.78 input   66.30 | X-H torsion
[ 10763 10752 10751 10750 ] final  -19.79 input  -60.55 | X-H torsion
[ 11005 11000 10999 10996 ] final  -29.53 input  -57.11 | X-H torsion

> <Gold.Protein.ActiveResidues>
 VAL166  LYS551  ARG553  GLY616  TRP617  ASP618  TYR619  PRO620  LYS621  CYS622 
 ASP623  PHE694  ASN695  SER759  ASP760  ASP761  ALA762  ILE779  LEU786  VAL792 
 PHE793  MET794  SER795  GLU796  ALA797  LYS798  CYS799  TRP800  GLU811  SER814 

> <Gold.Protein.RotatedAtoms>
  151.4515  133.3616  159.2795 H   0  0  0  0  0  0  0  0  0  0  0  0  # atno 6907 bound_to 6896
  150.9088  134.8505  159.7421 H   0  0  0  0  0  0  0  0  0  0  0  0  # atno 6908 bound_to 6896
  152.4921  134.4442  159.9605 H   0  0  0  0  0  0  0  0  0  0  0  0  # atno 6909 bound_to 6896
  144.7164  140.2010  143.6338 H   0  0  0  0  0  0  0  0  0  0  0  0  # atno 7974 bound_to 7965
  154.5803  140.2398  155.8063 H   0  0  0  0  0  0  0  0  0  0  0  0  # atno 8008 bound_to 7997
  156.2174  140.3008  155.9828 H   0  0  0  0  0  0  0  0  0  0  0  0  # atno 8009 bound_to 7997
  155.2553  140.0412  157.2982 H   0  0  0  0  0  0  0  0  0  0  0  0  # atno 8010 bound_to 7997
  139.6904  143.9429  152.2382 H   0  0  0  0  0  0  0  0  0  0  0  0  # atno 10167 bound_to 10162
  157.5543  130.8788  149.9011 H   0  0  0  0  0  0  0  0  0  0  0  0  # atno 10718 bound_to 10713
  153.6103  135.6996  153.5349 H   0  0  0  0  0  0  0  0  0  0  0  0  # atno 10763 bound_to 10752
  153.3022  135.4125  155.1262 H   0  0  0  0  0  0  0  0  0  0  0  0  # atno 10764 bound_to 10752
  154.8565  135.3651  154.5642 H   0  0  0  0  0  0  0  0  0  0  0  0  # atno 10765 bound_to 10752
  140.9304  133.7342  156.0928 H   0  0  0  0  0  0  0  0  0  0  0  0  # atno 11005 bound_to 11000
  145.8680  139.2257  143.1678 LP  0  0  0  0  0  0  0  0  0  0  0  0  # atno 17320 bound_to 7965
  146.0112  140.8434  142.9970 LP  0  0  0  0  0  0  0  0  0  0  0  0  # atno 17321 bound_to 7965
  139.9244  144.6780  150.8428 LP  0  0  0  0  0  0  0  0  0  0  0  0  # atno 17342 bound_to 10162
  140.7681  143.3352  151.2324 LP  0  0  0  0  0  0  0  0  0  0  0  0  # atno 17343 bound_to 10162
  156.0604  130.3701  150.0995 LP  0  0  0  0  0  0  0  0  0  0  0  0  # atno 17370 bound_to 10713
  156.9165  130.9669  151.3555 LP  0  0  0  0  0  0  0  0  0  0  0  0  # atno 17371 bound_to 10713
  140.7870  134.3661  157.5474 LP  0  0  0  0  0  0  0  0  0  0  0  0  # atno 17394 bound_to 11000
  139.8795  134.9117  156.3042 LP  0  0  0  0  0  0  0  0  0  0  0  0  # atno 17395 bound_to 11000

$$$$
