AV-unprocessed.smi:1586|AV-procd|sdf|6378|dock1
  -GOLD-   22720 7 03D 1   1.00000     0.00000
 Structure written by MMmdl.
 46 47  0  0  0  0  0  0  0  0  1 V2000
  152.1211  144.0827  158.3153 C   0  0  0  0  0  0  0  0  0  0  0  0
  151.8169  142.6473  158.7670 C   0  0  0  0  0  0  0  0  0  0  0  0
  151.8493  141.6465  157.7022 N   0  0  0  0  0  0  0  0  0  0  0  0
  151.7142  140.2999  158.2491 C   0  0  0  0  0  0  0  0  0  0  0  0
  151.7703  139.2290  157.1454 C   0  0  0  0  0  0  0  0  0  0  0  0
  150.7080  139.4006  156.1423 N   0  0  0  0  0  0  0  0  0  0  0  0
  150.7530  138.3663  155.0821 C   0  0  1  0  0  0  0  0  0  0  0  0
  152.0747  138.4012  154.2725 C   0  0  0  0  0  0  0  0  0  0  0  0
  150.5226  136.9264  155.6238 C   0  0  0  0  0  0  0  0  0  0  0  0
  149.8383  136.0565  154.6694 N   0  0  0  0  0  0  0  0  0  0  0  0
  149.4932  134.7781  154.8854 C   0  0  0  0  0  0  0  0  0  0  0  0
  149.7144  134.1792  155.9382 O   0  0  0  0  0  0  0  0  0  0  0  0
  148.8918  134.2486  153.8067 N   0  0  0  0  0  0  0  0  0  0  0  0
  148.4260  132.9192  153.6422 C   0  0  0  0  0  0  0  0  0  0  0  0
  147.3775  132.6225  152.7315 C   0  0  0  0  0  0  0  0  0  0  0  0
  147.2323  131.2697  152.8599 C   0  0  0  0  0  0  0  0  0  0  0  0
  146.3255  130.2808  152.2115 C   0  0  0  0  0  0  0  0  0  0  0  0
  148.1152  130.7829  153.7737 O   0  0  0  0  0  0  0  0  0  0  0  0
  148.8786  131.8455  154.2713 N   0  0  0  0  0  0  0  0  0  0  0  0
  150.8273  140.7684  155.6133 C   0  0  0  0  0  0  0  0  0  0  0  0
  150.7813  141.8369  156.7219 C   0  0  0  0  0  0  0  0  0  0  0  0
  152.1769  144.7502  159.1751 H   0  0  0  0  0  0  0  0  0  0  0  0
  151.3499  144.4742  157.6526 H   0  0  0  0  0  0  0  0  0  0  0  0
  153.0766  144.1363  157.7926 H   0  0  0  0  0  0  0  0  0  0  0  0
  152.5567  142.3800  159.5226 H   0  0  0  0  0  0  0  0  0  0  0  0
  150.8503  142.6213  159.2723 H   0  0  0  0  0  0  0  0  0  0  0  0
  152.5132  140.1118  158.9671 H   0  0  0  0  0  0  0  0  0  0  0  0
  150.7752  140.2098  158.7981 H   0  0  0  0  0  0  0  0  0  0  0  0
  152.7488  139.2460  156.6628 H   0  0  0  0  0  0  0  0  0  0  0  0
  151.6789  138.2649  157.6416 H   0  0  0  0  0  0  0  0  0  0  0  0
  149.9452  138.5733  154.3783 H   0  0  0  0  0  0  0  0  0  0  0  0
  152.1170  137.6255  153.5097 H   0  0  0  0  0  0  0  0  0  0  0  0
  152.9392  138.2681  154.9237 H   0  0  0  0  0  0  0  0  0  0  0  0
  152.2038  139.3331  153.7249 H   0  0  0  0  0  0  0  0  0  0  0  0
  151.4687  136.4927  155.9523 H   0  0  0  0  0  0  0  0  0  0  0  0
  149.8720  136.9340  156.4961 H   0  0  0  0  0  0  0  0  0  0  0  0
  149.6163  136.4611  153.7714 H   0  0  0  0  0  0  0  0  0  0  0  0
  148.7693  134.8570  153.0108 H   0  0  0  0  0  0  0  0  0  0  0  0
  146.8231  133.2890  152.0874 H   0  0  0  0  0  0  0  0  0  0  0  0
  145.8256  130.7186  151.3475 H   0  0  0  0  0  0  0  0  0  0  0  0
  145.5604  129.9431  152.9106 H   0  0  0  0  0  0  0  0  0  0  0  0
  146.8831  129.4078  151.8717 H   0  0  0  0  0  0  0  0  0  0  0  0
  151.7507  140.8699  155.0411 H   0  0  0  0  0  0  0  0  0  0  0  0
  150.0073  140.9911  154.9339 H   0  0  0  0  0  0  0  0  0  0  0  0
  149.8087  141.8099  157.2161 H   0  0  0  0  0  0  0  0  0  0  0  0
  150.8677  142.8187  156.2574 H   0  0  0  0  0  0  0  0  0  0  0  0
  1  2  1  0  0  0  0
  1 22  1  0  0  0  0
  1 23  1  0  0  0  0
  1 24  1  0  0  0  0
  2  3  1  0  0  0  0
  2 25  1  0  0  0  0
  2 26  1  0  0  0  0
  3 21  1  0  0  0  0
  3  4  1  0  0  0  0
  4  5  1  0  0  0  0
  4 27  1  0  0  0  0
  4 28  1  0  0  0  0
  5  6  1  0  0  0  0
  5 29  1  0  0  0  0
  5 30  1  0  0  0  0
  6  7  1  0  0  0  0
  6 20  1  0  0  0  0
  7  8  1  0  0  0  0
  7  9  1  0  0  0  0
  7 31  1  0  0  0  0
  8 32  1  0  0  0  0
  8 33  1  0  0  0  0
  8 34  1  0  0  0  0
  9 10  1  0  0  0  0
  9 35  1  0  0  0  0
  9 36  1  0  0  0  0
 10 11  1  0  0  0  0
 10 37  1  0  0  0  0
 11 12  2  0  0  0  0
 11 13  1  0  0  0  0
 13 14  1  0  0  0  0
 13 38  1  0  0  0  0
 14 19  2  0  0  0  0
 14 15  1  0  0  0  0
 15 16  2  0  0  0  0
 15 39  1  0  0  0  0
 16 17  1  0  0  0  0
 16 18  1  0  0  0  0
 17 40  1  0  0  0  0
 17 41  1  0  0  0  0
 17 42  1  0  0  0  0
 18 19  1  0  0  0  0
 20 21  1  0  0  0  0
 20 43  1  0  0  0  0
 20 44  1  0  0  0  0
 21 45  1  0  0  0  0
 21 46  1  0  0  0  0
M  END
> <s_m_source_file>
AV-unprocessed.smi

> <i_m_source_file_index>
1586

> <i_lp_mmshare_version>
43012

> <i_f3d_flags>
0

> <s_epik_input>
W0NIM11bQ0gyXU4xW0NIMl1bQ0gyXU4oW0NIMl1bQ0gyXTEpW0NASF0oW0NIM10pW0NIMl1bTkhdQyg9TylbTkhdYzJbY0hdYyhbQ0gzXSlvbjI=

> <s_epik_cmdline>
J2VwaWtfcHl0aG9uJywgJy1waCcsICc3LjAnLCAnLXRuJywgJzgnLCAnLW1hJywgJzIwMCcsICctbWV0YWxfYmluZGluZycsICctaW1hZScsICc8aW5maWxlLm1hZT4nLCAnLW9tYWUnLCAnPG91dGZpbGUubWFlPic=

> <r_epik_Ionization_Penalty>
2.42597

> <r_epik_Ionization_Penalty_Charging>
0

> <r_epik_Ionization_Penalty_Neutral>
2.42597

> <r_epik_State_Penalty>
1.76326

> <r_epik_Charging_Adjusted_Penalty>
1.76326

> <i_epik_Tot_Q>
0

> <i_epik_Tot_abs_Q>
0

> <r_epik_Metal_State_Penalty>
1.7742

> <b_epik_Metal_Only>
0

> <s_lp_Force_Field>
OPLS_2005

> <r_lp_Energy>
39.6445

> <b_lp_Chiralities_Consistent>
1

> <s_lp_Variant>
AV-unprocessed.smi:1586-6

> <Gold.Version>
5.8.1

> <Gold.Id.Protein>
6NUR|6NUR_protein|mol2

> <Gold.PLP.Fitness>
40.5776

> <Gold.PLP.PLP>
-35.5946

> <Gold.PLP.part.hbond>
-2.0000

> <Gold.PLP.part.metal>
0.0000

> <Gold.PLP.part.buried>
-3.3628

> <Gold.PLP.part.nonpolar>
-29.3238

> <Gold.PLP.part.repulsive>
0.1822

> <Gold.PLP.ligand.clash>
0.0000

> <Gold.PLP.ligand.torsion>
0.5326

> <Gold.PLP.Chemscore.Hbond>
2.0000

> <Gold.PLP.Chemscore.CHOScore>
0.0000

> <Gold.PLP.Chemscore.Metal>
0.0000

> <Gold.Chemscore.Hbonds>
donor molecule, donor type, donor heavy atom, donor atom, acceptor molecule, acceptor atom, score
      L1  H    10    37       P1  7948  0.99
      L1  H    13    38       P1  7948  1.00

> <Gold.PLP.Chemscore.Internal.Correction>
0.0481

> <Gold.Rescore>
     Score         DG    S(hbond)    S(metal)    S(lipo)     H(rot)  DE(clash)    DE(int)     intcor
     14.49     -16.28       1.54        0.00      85.83       1.72       0.15       1.63       ----

> <Gold.Chemscore.Fitness>
14.4934

> <Gold.Chemscore.DG>
-16.2762

> <Gold.Chemscore.ZeroCoef>
-5.4800

> <Gold.Chemscore.Hbond>
1.5423

> <Gold.Chemscore.Metal>
0.0000

> <Gold.Chemscore.Lipo>
85.8335

> <Gold.Chemscore.Internal_Hbond>
0.0000

> <Gold.Chemscore.DEClash>
0.1498

> <Gold.Chemscore.DEInternal>
1.6330

> <Gold.Chemscore.Rot>
1.7178

> <Gold.Chemscore.Internal.Correction>
   9.000000E+99

> <Gold.Chemscore.Hbonds>
donor molecule, donor type, donor heavy atom, donor atom, acceptor molecule, acceptor atom, score
      L1  H    10    37       P1  7948  0.59
      L1  H    13    38       P1  7948  0.26

> <Gold.Chemscore.Hbond.Weighted>
-5.1513

> <Gold.Chemscore.Metal.Weighted>
-0.0000

> <Gold.Chemscore.Lipo.Weighted>
-10.0425

> <Gold.Chemscore.Internal_Hbond.Weighted>
0.0000

> <Gold.Chemscore.DEClash.Weighted>
0.1498

> <Gold.Chemscore.DEInternal.Weighted>
1.6330

> <Gold.Chemscore.Rot.Weighted>
4.3976

> <Gold.Chemscore.Internal.Correction.Weighted>
   9.000000E+99

> <Gold.Protein.RotatedTorsions>
[ 6907 6896 6895 6894 ] final    6.76 input  -60.11 | X-H torsion
[ 7974 7965 7964 7962 ] final   75.86 input  175.53 | X-H torsion
[ 8008 7997 7996 7995 ] final -159.68 input   59.86 | X-H torsion
[ 10167 10162 10161 10158 ] final   44.29 input  -65.29 | X-H torsion
[ 10718 10713 10712 10709 ] final   84.78 input   66.30 | X-H torsion
[ 10763 10752 10751 10750 ] final -164.89 input  -60.55 | X-H torsion
[ 11005 11000 10999 10996 ] final  -93.98 input  -57.11 | X-H torsion

> <Gold.Protein.ActiveResidues>
 VAL166  LYS551  ARG553  GLY616  TRP617  ASP618  TYR619  PRO620  LYS621  CYS622 
 ASP623  PHE694  ASN695  SER759  ASP760  ASP761  ALA762  ILE779  LEU786  VAL792 
 PHE793  MET794  SER795  GLU796  ALA797  LYS798  CYS799  TRP800  GLU811  SER814 

> <Gold.Protein.RotatedAtoms>
  151.6789  135.0965  160.0211 H   0  0  0  0  0  0  0  0  0  0  0  0  # atno 6907 bound_to 6896
  152.3847  133.6590  159.6198 H   0  0  0  0  0  0  0  0  0  0  0  0  # atno 6908 bound_to 6896
  150.7776  133.8971  159.3371 H   0  0  0  0  0  0  0  0  0  0  0  0  # atno 6909 bound_to 6896
  145.7103  139.2612  143.1655 H   0  0  0  0  0  0  0  0  0  0  0  0  # atno 7974 bound_to 7965
  155.7662  140.0846  157.2131 H   0  0  0  0  0  0  0  0  0  0  0  0  # atno 8008 bound_to 7997
  154.3999  140.1534  156.2946 H   0  0  0  0  0  0  0  0  0  0  0  0  # atno 8009 bound_to 7997
  155.8792  140.3421  155.5878 H   0  0  0  0  0  0  0  0  0  0  0  0  # atno 8010 bound_to 7997
  140.3357  144.2533  150.6162 H   0  0  0  0  0  0  0  0  0  0  0  0  # atno 10167 bound_to 10162
  157.6904  131.0147  150.2724 H   0  0  0  0  0  0  0  0  0  0  0  0  # atno 10718 bound_to 10713
  154.6985  135.2983  154.9376 H   0  0  0  0  0  0  0  0  0  0  0  0  # atno 10763 bound_to 10752
  154.0316  135.6669  153.4785 H   0  0  0  0  0  0  0  0  0  0  0  0  # atno 10764 bound_to 10752
  153.0663  135.5086  154.8116 H   0  0  0  0  0  0  0  0  0  0  0  0  # atno 10765 bound_to 10752
  141.1483  133.7925  157.0235 H   0  0  0  0  0  0  0  0  0  0  0  0  # atno 11005 bound_to 11000
  146.0719  140.7860  142.9684 LP  0  0  0  0  0  0  0  0  0  0  0  0  # atno 17320 bound_to 7965
  144.6944  140.3355  143.7208 LP  0  0  0  0  0  0  0  0  0  0  0  0  # atno 17321 bound_to 7965
  140.5355  143.2234  151.8169 LP  0  0  0  0  0  0  0  0  0  0  0  0  # atno 17342 bound_to 10162
  139.4849  144.4666  151.9476 LP  0  0  0  0  0  0  0  0  0  0  0  0  # atno 17343 bound_to 10162
  156.3284  130.3796  149.7512 LP  0  0  0  0  0  0  0  0  0  0  0  0  # atno 17370 bound_to 10713
  156.5060  130.8150  151.3151 LP  0  0  0  0  0  0  0  0  0  0  0  0  # atno 17371 bound_to 10713
  140.0800  134.9653  157.1609 LP  0  0  0  0  0  0  0  0  0  0  0  0  # atno 17394 bound_to 11000
  140.3590  134.2515  155.7189 LP  0  0  0  0  0  0  0  0  0  0  0  0  # atno 17395 bound_to 11000

$$$$
