AV-unprocessed.smi:2202|AV-procd|sdf|8933|dock6
  -GOLD-   2272012143D 1   1.00000     0.00000
 Structure written by MMmdl.
 43 45  0  0  0  0  0  0  0  0  2 V2000
  152.6818  136.9088  160.2780 O   0  0  0  0  0  0  0  0  0  0  0  0
  153.5230  137.6630  160.7700 C   0  0  0  0  0  0  0  0  0  0  0  0
  154.2626  138.6955  159.9074 C   0  0  0  0  0  0  0  0  0  0  0  0
  153.7441  140.0605  160.0627 N   0  0  0  0  0  0  0  0  0  0  0  0
  153.0354  140.7161  159.1222 C   0  0  0  0  0  0  0  0  0  0  0  0
  152.8054  140.3462  157.9714 O   0  0  0  0  0  0  0  0  0  0  0  0
  152.4634  141.9875  159.7308 C   0  0  2  0  0  0  0  0  0  0  0  0
  152.3168  143.2934  158.9405 C   0  0  0  0  0  0  0  0  0  0  0  0
  151.9585  144.4081  159.9287 C   0  0  0  0  0  0  0  0  0  0  0  0
  152.1022  144.2979  161.2725 C   0  0  0  0  0  0  0  0  0  0  0  0
  152.6797  143.0603  161.9674 C   0  0  0  0  0  0  0  0  0  0  0  0
  153.3916  142.2105  160.9081 C   0  0  1  0  0  0  0  0  0  0  0  0
  153.8844  140.7979  161.1820 C   0  0  0  0  0  0  0  0  0  0  0  0
  154.3792  140.4401  162.2505 O   0  0  0  0  0  0  0  0  0  0  0  0
  153.8567  137.6376  162.0690 N   0  0  0  0  0  0  0  0  0  0  0  0
  153.2731  136.7431  163.0612 C   0  0  0  0  0  0  0  0  0  0  0  0
  154.0836  136.7430  164.3688 C   0  0  0  0  0  0  0  0  0  0  0  0
  154.4455  135.3414  164.8189 C   0  0  0  0  0  0  0  0  0  0  0  0
  153.5242  134.2727  164.7694 C   0  0  0  0  0  0  0  0  0  0  0  0
  153.9278  132.9952  165.2112 C   0  0  0  0  0  0  0  0  0  0  0  0
  155.2415  132.8138  165.6920 C   0  0  0  0  0  0  0  0  0  0  0  0
  156.1199  133.9162  165.7193 C   0  0  0  0  0  0  0  0  0  0  0  0
  155.6957  135.1246  165.2886 N   0  3  0  0  0  0  0  0  0  0  0  0
  155.3244  138.6783  160.1603 H   0  0  0  0  0  0  0  0  0  0  0  0
  154.2006  138.3830  158.8638 H   0  0  0  0  0  0  0  0  0  0  0  0
  151.4721  141.7099  160.0975 H   0  0  0  0  0  0  0  0  0  0  0  0
  153.2351  143.5516  158.4117 H   0  0  0  0  0  0  0  0  0  0  0  0
  151.5236  143.1981  158.1985 H   0  0  0  0  0  0  0  0  0  0  0  0
  151.5669  145.3218  159.5062 H   0  0  0  0  0  0  0  0  0  0  0  0
  151.8044  145.1168  161.9108 H   0  0  0  0  0  0  0  0  0  0  0  0
  153.3862  143.3731  162.7369 H   0  0  0  0  0  0  0  0  0  0  0  0
  151.8788  142.5067  162.4588 H   0  0  0  0  0  0  0  0  0  0  0  0
  154.2727  142.7650  160.5763 H   0  0  0  0  0  0  0  0  0  0  0  0
  154.5614  138.2854  162.3918 H   0  0  0  0  0  0  0  0  0  0  0  0
  152.2365  137.0279  163.2507 H   0  0  0  0  0  0  0  0  0  0  0  0
  153.2463  135.7375  162.6403 H   0  0  0  0  0  0  0  0  0  0  0  0
  154.9967  137.3263  164.2419 H   0  0  0  0  0  0  0  0  0  0  0  0
  153.5191  137.2277  165.1667 H   0  0  0  0  0  0  0  0  0  0  0  0
  152.5210  134.4274  164.3996 H   0  0  0  0  0  0  0  0  0  0  0  0
  153.2377  132.1646  165.1826 H   0  0  0  0  0  0  0  0  0  0  0  0
  155.5698  131.8436  166.0353 H   0  0  0  0  0  0  0  0  0  0  0  0
  157.1402  133.8691  166.0712 H   0  0  0  0  0  0  0  0  0  0  0  0
  156.3475  135.9093  165.3185 H   0  0  0  0  0  0  0  0  0  0  0  0
  1  2  2  0  0  0  0
  2  3  1  0  0  0  0
  2 15  1  0  0  0  0
  3  4  1  0  0  0  0
  3 24  1  0  0  0  0
  3 25  1  0  0  0  0
  4 13  1  0  0  0  0
  4  5  1  0  0  0  0
  5  6  2  0  0  0  0
  5  7  1  0  0  0  0
  7 12  1  0  0  0  0
  7  8  1  0  0  0  0
  7 26  1  0  0  0  0
  8  9  1  0  0  0  0
  8 27  1  0  0  0  0
  8 28  1  0  0  0  0
  9 10  2  0  0  0  0
  9 29  1  0  0  0  0
 10 11  1  0  0  0  0
 10 30  1  0  0  0  0
 11 12  1  0  0  0  0
 11 31  1  0  0  0  0
 11 32  1  0  0  0  0
 12 13  1  0  0  0  0
 12 33  1  0  0  0  0
 13 14  2  0  0  0  0
 15 16  1  0  0  0  0
 15 34  1  0  0  0  0
 16 17  1  0  0  0  0
 16 35  1  0  0  0  0
 16 36  1  0  0  0  0
 17 18  1  0  0  0  0
 17 37  1  0  0  0  0
 17 38  1  0  0  0  0
 18 23  1  0  0  0  0
 18 19  2  0  0  0  0
 19 20  1  0  0  0  0
 19 39  1  0  0  0  0
 20 21  2  0  0  0  0
 20 40  1  0  0  0  0
 21 22  1  0  0  0  0
 21 41  1  0  0  0  0
 22 23  2  0  0  0  0
 22 42  1  0  0  0  0
 23 43  1  0  0  0  0
M  CHG  1  23   1
M  END
> <s_m_source_file>
AV-unprocessed.smi

> <i_m_source_file_index>
2202

> <i_lp_mmshare_version>
43012

> <i_f3d_flags>
0

> <s_epik_input>
W0NIMl0xW0NIXT1bQ0hdW0NIMl1bQ0BIXShbQ0BIXTEyKUMoPU8pTihDMj1PKVtDSDJdQyg9TylbTkhdW0NIMl1bQ0gyXWMzW2NIXVtjSF1bY0hdW2NIXW4z

> <s_epik_cmdline>
J2VwaWtfcHl0aG9uJywgJy1waCcsICc3LjAnLCAnLXRuJywgJzgnLCAnLW1hJywgJzIwMCcsICctbWV0YWxfYmluZGluZycsICctaW1hZScsICc8aW5maWxlLm1hZT4nLCAnLW9tYWUnLCAnPG91dGZpbGUubWFlPic=

> <r_lp_tautomer_probability>
1

> <r_epik_Ionization_Penalty>
1.90039

> <r_epik_Ionization_Penalty_Charging>
1.90039

> <r_epik_Ionization_Penalty_Neutral>
1.50224e-07

> <r_epik_State_Penalty>
2.02162

> <r_epik_Charging_Adjusted_Penalty>
3.922

> <i_epik_Tot_Q>
1

> <i_epik_Tot_abs_Q>
1

> <r_epik_Metal_State_Penalty>
2.04542

> <b_epik_Metal_Only>
0

> <s_lp_Force_Field>
OPLS_2005

> <r_lp_Energy>
26.3593

> <b_lp_Chiralities_Consistent>
1

> <s_lp_Variant>
AV-unprocessed.smi:2202-5

> <Gold.Version>
5.8.1

> <Gold.Id.Protein>
6NUR|6NUR_protein|mol2

> <Gold.PLP.Fitness>
54.7538

> <Gold.PLP.PLP>
-50.9805

> <Gold.PLP.part.hbond>
-2.6058

> <Gold.PLP.part.metal>
0.0000

> <Gold.PLP.part.buried>
-3.7344

> <Gold.PLP.part.nonpolar>
-44.9344

> <Gold.PLP.part.repulsive>
0.0390

> <Gold.PLP.ligand.clash>
0.0000

> <Gold.PLP.ligand.torsion>
1.0070

> <Gold.PLP.Chemscore.Hbond>
1.9193

> <Gold.PLP.Chemscore.CHOScore>
0.0000

> <Gold.PLP.Chemscore.Metal>
0.0000

> <Gold.Chemscore.Hbonds>
donor molecule, donor type, donor heavy atom, donor atom, acceptor molecule, acceptor atom, score
      P1  H  6896  6908       L1     1  1.00
      P1  H  7997  8010       L1     6  0.91

> <Gold.PLP.Chemscore.Internal.Correction>
0.0296

> <Gold.Rescore>
     Score         DG    S(hbond)    S(metal)    S(lipo)     H(rot)  DE(clash)    DE(int)     intcor
     20.39     -21.35       1.78        0.00     127.68       1.96       0.05       0.91       ----

> <Gold.Chemscore.Fitness>
20.3876

> <Gold.Chemscore.DG>
-21.3542

> <Gold.Chemscore.ZeroCoef>
-5.4800

> <Gold.Chemscore.Hbond>
1.7843

> <Gold.Chemscore.Metal>
0.0000

> <Gold.Chemscore.Lipo>
127.6812

> <Gold.Chemscore.Internal_Hbond>
0.0000

> <Gold.Chemscore.DEClash>
0.0534

> <Gold.Chemscore.DEInternal>
0.9132

> <Gold.Chemscore.Rot>
1.9625

> <Gold.Chemscore.Internal.Correction>
   9.000000E+99

> <Gold.Chemscore.Hbonds>
donor molecule, donor type, donor heavy atom, donor atom, acceptor molecule, acceptor atom, score
      P1  H  6896  6908       L1     1  0.98
      P1  H  7997  8010       L1     6  0.68

> <Gold.Chemscore.Hbond.Weighted>
-5.9595

> <Gold.Chemscore.Metal.Weighted>
-0.0000

> <Gold.Chemscore.Lipo.Weighted>
-14.9387

> <Gold.Chemscore.Internal_Hbond.Weighted>
0.0000

> <Gold.Chemscore.DEClash.Weighted>
0.0534

> <Gold.Chemscore.DEInternal.Weighted>
0.9132

> <Gold.Chemscore.Rot.Weighted>
5.0240

> <Gold.Chemscore.Internal.Correction.Weighted>
   9.000000E+99

> <Gold.Protein.RotatedTorsions>
[ 6907 6896 6895 6894 ] final  -98.64 input  -60.11 | X-H torsion
[ 7974 7965 7964 7962 ] final   20.27 input  175.53 | X-H torsion
[ 8008 7997 7996 7995 ] final   42.12 input   59.86 | X-H torsion
[ 10167 10162 10161 10158 ] final  -50.48 input  -65.29 | X-H torsion
[ 10718 10713 10712 10709 ] final  136.94 input   66.30 | X-H torsion
[ 10763 10752 10751 10750 ] final   96.84 input  -60.55 | X-H torsion
[ 11005 11000 10999 10996 ] final  107.15 input  -57.11 | X-H torsion

> <Gold.Protein.ActiveResidues>
 VAL166  LYS551  ARG553  GLY616  TRP617  ASP618  TYR619  PRO620  LYS621  CYS622 
 ASP623  PHE694  ASN695  SER759  ASP760  ASP761  ALA762  ILE779  LEU786  VAL792 
 PHE793  MET794  SER795  GLU796  ALA797  LYS798  CYS799  TRP800  GLU811  SER814 

> <Gold.Protein.RotatedAtoms>
  150.7053  134.1163  159.4018 H   0  0  0  0  0  0  0  0  0  0  0  0  # atno 6907 bound_to 6896
  151.9149  135.0321  160.0527 H   0  0  0  0  0  0  0  0  0  0  0  0  # atno 6908 bound_to 6896
  152.2304  133.5019  159.5249 H   0  0  0  0  0  0  0  0  0  0  0  0  # atno 6909 bound_to 6896
  146.2118  139.8193  142.8683 H   0  0  0  0  0  0  0  0  0  0  0  0  # atno 7974 bound_to 7965
  155.2809  140.3372  155.4258 H   0  0  0  0  0  0  0  0  0  0  0  0  # atno 8008 bound_to 7997
  156.2090  140.1762  156.7778 H   0  0  0  0  0  0  0  0  0  0  0  0  # atno 8009 bound_to 7997
  154.5660  140.0678  156.8876 H   0  0  0  0  0  0  0  0  0  0  0  0  # atno 8010 bound_to 7997
  140.6635  143.2656  151.4365 H   0  0  0  0  0  0  0  0  0  0  0  0  # atno 10167 bound_to 10162
  157.4414  131.1058  151.0139 H   0  0  0  0  0  0  0  0  0  0  0  0  # atno 10718 bound_to 10713
  153.2698  135.4204  155.0976 H   0  0  0  0  0  0  0  0  0  0  0  0  # atno 10763 bound_to 10752
  154.8451  135.3469  154.6260 H   0  0  0  0  0  0  0  0  0  0  0  0  # atno 10764 bound_to 10752
  153.6680  135.7045  153.5213 H   0  0  0  0  0  0  0  0  0  0  0  0  # atno 10765 bound_to 10752
  139.8824  134.9392  156.5776 H   0  0  0  0  0  0  0  0  0  0  0  0  # atno 11005 bound_to 11000
  145.3113  141.0220  143.3553 LP  0  0  0  0  0  0  0  0  0  0  0  0  # atno 17320 bound_to 7965
  144.8934  139.4744  143.6667 LP  0  0  0  0  0  0  0  0  0  0  0  0  # atno 17321 bound_to 7965
  139.5877  144.1569  152.2049 LP  0  0  0  0  0  0  0  0  0  0  0  0  # atno 17342 bound_to 10162
  140.0913  144.5618  150.7052 LP  0  0  0  0  0  0  0  0  0  0  0  0  # atno 17343 bound_to 10162
  157.1001  130.5978  149.5458 LP  0  0  0  0  0  0  0  0  0  0  0  0  # atno 17370 bound_to 10713
  155.9950  130.5015  150.7442 LP  0  0  0  0  0  0  0  0  0  0  0  0  # atno 17371 bound_to 10713
  140.8051  133.8474  155.8761 LP  0  0  0  0  0  0  0  0  0  0  0  0  # atno 17394 bound_to 11000
  140.9557  134.1721  157.4693 LP  0  0  0  0  0  0  0  0  0  0  0  0  # atno 17395 bound_to 11000

$$$$
