AV-unprocessed.smi:721|AV-procd|sdf|3503|dock9
  -GOLD-   22720 0503D 1   1.00000     0.00000
 Structure written by MMmdl.
 29 30  0  0  0  0  0  0  0  0  1 V2000
  150.4296  141.5761  155.6097 Cl  0  0  0  0  0  0  0  0  0  0  0  0
  149.1687  140.8865  154.6552 C   0  0  0  0  0  0  0  0  0  0  0  0
  148.0993  141.6629  154.1663 C   0  0  0  0  0  0  0  0  0  0  0  0
  147.1137  141.1185  153.4190 N   0  0  0  0  0  0  0  0  0  0  0  0
  147.1965  139.8100  153.1624 C   0  0  0  0  0  0  0  0  0  0  0  0
  146.1703  139.2916  152.3934 N   0  0  0  0  0  0  0  0  0  0  0  0
  146.2852  138.1286  151.5237 C   0  0  0  0  0  0  0  0  0  0  0  0
  145.8652  136.8308  152.2267 C   0  0  0  0  0  0  0  0  0  0  0  0
  145.7904  135.7882  151.2689 O   0  0  0  0  0  0  0  0  0  0  0  0
  144.6224  134.9994  151.4120 C   0  0  0  0  0  0  0  0  0  0  0  0
  144.5283  134.0450  150.2413 C   0  0  0  0  0  0  0  0  0  0  0  0
  143.7637  132.7476  150.3699 C   0  0  0  0  0  0  0  0  0  0  0  0
  145.2676  132.7266  150.2638 C   0  0  0  0  0  0  0  0  0  0  0  0
  148.1636  138.9817  153.5772 N   0  0  0  0  0  0  0  0  0  0  0  0
  149.1539  139.5171  154.3241 C   0  0  0  0  0  0  0  0  0  0  0  0
  148.0322  142.7206  154.3736 H   0  0  0  0  0  0  0  0  0  0  0  0
  145.3144  139.8261  152.3529 H   0  0  0  0  0  0  0  0  0  0  0  0
  145.6742  138.2843  150.6341 H   0  0  0  0  0  0  0  0  0  0  0  0
  147.3159  138.0485  151.1777 H   0  0  0  0  0  0  0  0  0  0  0  0
  146.5617  136.5738  153.0261 H   0  0  0  0  0  0  0  0  0  0  0  0
  144.8846  136.9710  152.6837 H   0  0  0  0  0  0  0  0  0  0  0  0
  144.6610  134.4233  152.3377 H   0  0  0  0  0  0  0  0  0  0  0  0
  143.7341  135.6327  151.4454 H   0  0  0  0  0  0  0  0  0  0  0  0
  144.4682  134.5409  149.2742 H   0  0  0  0  0  0  0  0  0  0  0  0
  143.3239  132.5136  151.3374 H   0  0  0  0  0  0  0  0  0  0  0  0
  143.1922  132.4155  149.5057 H   0  0  0  0  0  0  0  0  0  0  0  0
  145.7009  132.3782  149.3285 H   0  0  0  0  0  0  0  0  0  0  0  0
  145.8289  132.4734  151.1612 H   0  0  0  0  0  0  0  0  0  0  0  0
  149.9347  138.8494  154.6572 H   0  0  0  0  0  0  0  0  0  0  0  0
  1  2  1  0  0  0  0
  2 15  1  0  0  0  0
  2  3  2  0  0  0  0
  3  4  1  0  0  0  0
  3 16  1  0  0  0  0
  4  5  2  0  0  0  0
  5  6  1  0  0  0  0
  5 14  1  0  0  0  0
  6  7  1  0  0  0  0
  6 17  1  0  0  0  0
  7  8  1  0  0  0  0
  7 18  1  0  0  0  0
  7 19  1  0  0  0  0
  8  9  1  0  0  0  0
  8 20  1  0  0  0  0
  8 21  1  0  0  0  0
  9 10  1  0  0  0  0
 10 11  1  0  0  0  0
 10 22  1  0  0  0  0
 10 23  1  0  0  0  0
 11 13  1  0  0  0  0
 11 12  1  0  0  0  0
 11 24  1  0  0  0  0
 12 13  1  0  0  0  0
 12 25  1  0  0  0  0
 12 26  1  0  0  0  0
 13 27  1  0  0  0  0
 13 28  1  0  0  0  0
 14 15  2  0  0  0  0
 15 29  1  0  0  0  0
M  END
> <s_m_source_file>
AV-unprocessed.smi

> <i_m_source_file_index>
721

> <i_lp_mmshare_version>
43012

> <i_f3d_flags>
0

> <s_epik_input>
Q2xjMVtjSF1uYyhuW2NIXTEpW05IXVtDSDJdW0NIMl1PW0NIMl1bQ0hdMltDSDJdW0NIMl0y

> <s_epik_cmdline>
J2VwaWtfcHl0aG9uJywgJy1waCcsICc3LjAnLCAnLXRuJywgJzgnLCAnLW1hJywgJzIwMCcsICctbWV0YWxfYmluZGluZycsICctaW1hZScsICc8aW5maWxlLm1hZT4nLCAnLW9tYWUnLCAnPG91dGZpbGUubWFlPic=

> <r_lp_tautomer_probability>
1

> <r_epik_Ionization_Penalty>
7.18353e-06

> <r_epik_Ionization_Penalty_Charging>
0

> <r_epik_Ionization_Penalty_Neutral>
7.18353e-06

> <r_epik_State_Penalty>
-0

> <r_epik_Charging_Adjusted_Penalty>
0

> <i_epik_Tot_Q>
0

> <i_epik_Tot_abs_Q>
0

> <r_epik_Metal_State_Penalty>
-0

> <b_epik_Metal_Only>
0

> <s_lp_Force_Field>
OPLS_2005

> <r_lp_Energy>
6.1156

> <b_lp_Chiralities_Consistent>
1

> <s_lp_Variant>
AV-unprocessed.smi:721-1

> <Gold.Version>
5.8.1

> <Gold.Id.Protein>
6NUR|6NUR_protein|mol2

> <Gold.PLP.Fitness>
34.5008

> <Gold.PLP.PLP>
-29.8818

> <Gold.PLP.part.hbond>
-1.0000

> <Gold.PLP.part.metal>
0.0000

> <Gold.PLP.part.buried>
-2.2234

> <Gold.PLP.part.nonpolar>
-27.6684

> <Gold.PLP.part.repulsive>
0.9466

> <Gold.PLP.ligand.clash>
0.0000

> <Gold.PLP.ligand.torsion>
0.9704

> <Gold.PLP.Chemscore.Hbond>
1.0000

> <Gold.PLP.Chemscore.CHOScore>
1.0000

> <Gold.PLP.Chemscore.Metal>
0.0000

> <Gold.Chemscore.Hbonds>
donor molecule, donor type, donor heavy atom, donor atom, acceptor molecule, acceptor atom, score
      L1  H     6    17       P1 10175  1.00
      L1  C     3    16       P1  8028  1.00

> <Gold.PLP.Chemscore.Internal.Correction>
0.5597

> <Gold.Rescore>
     Score         DG    S(hbond)    S(metal)    S(lipo)     H(rot)  DE(clash)    DE(int)     intcor
     11.50     -12.62       1.00        0.00      71.33       1.77       0.13       0.99       ----

> <Gold.Chemscore.Fitness>
11.4993

> <Gold.Chemscore.DG>
-12.6194

> <Gold.Chemscore.ZeroCoef>
-5.4800

> <Gold.Chemscore.Hbond>
0.9972

> <Gold.Chemscore.Metal>
0.0000

> <Gold.Chemscore.Lipo>
71.3280

> <Gold.Chemscore.Internal_Hbond>
0.0000

> <Gold.Chemscore.DEClash>
0.1303

> <Gold.Chemscore.DEInternal>
0.9898

> <Gold.Chemscore.Rot>
1.7722

> <Gold.Chemscore.Internal.Correction>
   9.000000E+99

> <Gold.Chemscore.Hbonds>
donor molecule, donor type, donor heavy atom, donor atom, acceptor molecule, acceptor atom, score
      L1  H     6    17       P1 10175  0.97

> <Gold.Chemscore.Hbond.Weighted>
-3.3307

> <Gold.Chemscore.Metal.Weighted>
-0.0000

> <Gold.Chemscore.Lipo.Weighted>
-8.3454

> <Gold.Chemscore.Internal_Hbond.Weighted>
0.0000

> <Gold.Chemscore.DEClash.Weighted>
0.1303

> <Gold.Chemscore.DEInternal.Weighted>
0.9898

> <Gold.Chemscore.Rot.Weighted>
4.5367

> <Gold.Chemscore.Internal.Correction.Weighted>
   9.000000E+99

> <Gold.Protein.RotatedTorsions>
[ 6907 6896 6895 6894 ] final  120.13 input  -60.11 | X-H torsion
[ 7974 7965 7964 7962 ] final  116.16 input  175.53 | X-H torsion
[ 8008 7997 7996 7995 ] final -178.30 input   59.86 | X-H torsion
[ 10167 10162 10161 10158 ] final  -79.64 input  -65.29 | X-H torsion
[ 10718 10713 10712 10709 ] final   79.47 input   66.30 | X-H torsion
[ 10763 10752 10751 10750 ] final   60.05 input  -60.55 | X-H torsion
[ 11005 11000 10999 10996 ] final  -98.77 input  -57.11 | X-H torsion

> <Gold.Protein.ActiveResidues>
 VAL166  LYS551  ARG553  GLY616  TRP617  ASP618  TYR619  PRO620  LYS621  CYS622 
 ASP623  PHE694  ASN695  SER759  ASP760  ASP761  ALA762  ILE779  LEU786  VAL792 
 PHE793  MET794  SER795  GLU796  ALA797  LYS798  CYS799  TRP800  GLU811  SER814 

> <Gold.Protein.RotatedAtoms>
  152.4420  133.7466  159.6670 H   0  0  0  0  0  0  0  0  0  0  0  0  # atno 6907 bound_to 6896
  150.8313  133.8076  159.3103 H   0  0  0  0  0  0  0  0  0  0  0  0  # atno 6908 bound_to 6896
  151.5729  135.1064  160.0051 H   0  0  0  0  0  0  0  0  0  0  0  0  # atno 6909 bound_to 6896
  145.1830  139.3040  143.4408 H   0  0  0  0  0  0  0  0  0  0  0  0  # atno 7974 bound_to 7965
  156.0172  140.1253  157.0394 H   0  0  0  0  0  0  0  0  0  0  0  0  # atno 8008 bound_to 7997
  154.4297  140.1076  156.5982 H   0  0  0  0  0  0  0  0  0  0  0  0  # atno 8009 bound_to 7997
  155.5996  140.3470  155.4592 H   0  0  0  0  0  0  0  0  0  0  0  0  # atno 8010 bound_to 7997
  140.4575  143.2463  151.8398 H   0  0  0  0  0  0  0  0  0  0  0  0  # atno 10167 bound_to 10162
  157.6778  130.9916  150.1938 H   0  0  0  0  0  0  0  0  0  0  0  0  # atno 10718 bound_to 10713
  152.9910  135.5550  154.5811 H   0  0  0  0  0  0  0  0  0  0  0  0  # atno 10763 bound_to 10752
  154.5192  135.2806  155.1279 H   0  0  0  0  0  0  0  0  0  0  0  0  # atno 10764 bound_to 10752
  154.2640  135.6376  153.5338 H   0  0  0  0  0  0  0  0  0  0  0  0  # atno 10765 bound_to 10752
  141.1333  133.8271  157.0884 H   0  0  0  0  0  0  0  0  0  0  0  0  # atno 11005 bound_to 11000
  146.3450  140.2016  142.8589 LP  0  0  0  0  0  0  0  0  0  0  0  0  # atno 17320 bound_to 7965
  145.0117  140.8719  143.5220 LP  0  0  0  0  0  0  0  0  0  0  0  0  # atno 17321 bound_to 7965
  139.4802  144.5047  151.9013 LP  0  0  0  0  0  0  0  0  0  0  0  0  # atno 17342 bound_to 10162
  140.4133  144.2340  150.5888 LP  0  0  0  0  0  0  0  0  0  0  0  0  # atno 17343 bound_to 10162
  156.2643  130.3714  149.8097 LP  0  0  0  0  0  0  0  0  0  0  0  0  # atno 17370 bound_to 10713
  156.5833  130.8475  151.3389 LP  0  0  0  0  0  0  0  0  0  0  0  0  # atno 17371 bound_to 10713
  140.0408  134.9855  157.0957 LP  0  0  0  0  0  0  0  0  0  0  0  0  # atno 17394 bound_to 11000
  140.4139  134.1952  155.7163 LP  0  0  0  0  0  0  0  0  0  0  0  0  # atno 17395 bound_to 11000

$$$$
