AV-unprocessed.smi:104|AV-procd|sdf|1008|dock5
  -GOLD-   2262018 03D 1   1.00000     0.00000
 Structure written by MMmdl.
 47 49  0  0  0  0  0  0  0  0  1 V2000
  146.7605  136.0525  162.7908 C   0  0  0  0  0  0  0  0  0  0  0  0
  146.9261  135.1259  161.5937 C   0  0  0  0  0  0  0  0  0  0  0  0
  146.8553  133.9023  161.7112 O   0  0  0  0  0  0  0  0  0  0  0  0
  147.1520  135.7972  160.4555 O   0  0  0  0  0  0  0  0  0  0  0  0
  147.6154  135.0993  159.3097 C   0  0  0  0  0  0  0  0  0  0  0  0
  147.9151  136.0827  158.1711 C   0  0  1  0  0  0  0  0  0  0  0  0
  147.5108  137.3934  158.5385 O   0  0  0  0  0  0  0  0  0  0  0  0
  148.3478  138.3458  157.9658 C   0  0  2  0  0  0  0  0  0  0  0  0
  147.6298  138.9803  156.7983 N   0  0  0  0  0  0  0  0  0  0  0  0
  146.3737  138.6782  156.3148 C   0  0  0  0  0  0  0  0  0  0  0  0
  145.2535  137.3543  157.1043 Br  0  0  0  0  0  0  0  0  0  0  0  0
  145.9509  139.3450  155.2790 N   0  0  0  0  0  0  0  0  0  0  0  0
  147.0148  140.1908  155.0050 C   0  0  0  0  0  0  0  0  0  0  0  0
  147.2461  141.1868  154.0230 C   0  0  0  0  0  0  0  0  0  0  0  0
  146.3501  141.5037  153.0783 N   0  0  0  0  0  0  0  0  0  0  0  0
  148.4244  141.8509  154.0378 N   0  0  0  0  0  0  0  0  0  0  0  0
  149.3342  141.5522  154.9690 C   0  0  0  0  0  0  0  0  0  0  0  0
  149.2598  140.6460  155.9461 N   0  0  0  0  0  0  0  0  0  0  0  0
  148.0724  139.9726  155.9370 C   0  0  0  0  0  0  0  0  0  0  0  0
  149.6860  137.6602  157.6085 C   0  0  2  0  0  0  0  0  0  0  0  0
  150.1752  138.0155  156.3161 O   0  0  0  0  0  0  0  0  0  0  0  0
  151.3763  137.5819  155.8990 C   0  0  0  0  0  0  0  0  0  0  0  0
  151.9550  138.4583  154.7971 C   0  0  0  0  0  0  0  0  0  0  0  0
  151.9869  136.6066  156.3364 O   0  0  0  0  0  0  0  0  0  0  0  0
  149.3954  136.1624  157.7664 C   0  0  2  0  0  0  0  0  0  0  0  0
  149.6016  135.4173  156.5695 O   0  0  0  0  0  0  0  0  0  0  0  0
  149.8294  134.0937  156.6190 C   0  0  0  0  0  0  0  0  0  0  0  0
  150.0722  133.4973  155.2392 C   0  0  0  0  0  0  0  0  0  0  0  0
  149.8602  133.3999  157.6353 O   0  0  0  0  0  0  0  0  0  0  0  0
  146.0383  136.8380  162.5670 H   0  0  0  0  0  0  0  0  0  0  0  0
  147.7133  136.5189  163.0410 H   0  0  0  0  0  0  0  0  0  0  0  0
  146.4089  135.4965  163.6601 H   0  0  0  0  0  0  0  0  0  0  0  0
  148.5203  134.5455  159.5641 H   0  0  0  0  0  0  0  0  0  0  0  0
  146.8673  134.3729  158.9889 H   0  0  0  0  0  0  0  0  0  0  0  0
  147.3080  135.7914  157.3157 H   0  0  0  0  0  0  0  0  0  0  0  0
  148.4967  139.1611  158.6705 H   0  0  0  0  0  0  0  0  0  0  0  0
  145.4623  141.0236  153.0452 H   0  0  0  0  0  0  0  0  0  0  0  0
  146.5660  142.2185  152.3987 H   0  0  0  0  0  0  0  0  0  0  0  0
  150.2523  142.1191  154.9262 H   0  0  0  0  0  0  0  0  0  0  0  0
  150.4139  137.9359  158.3732 H   0  0  0  0  0  0  0  0  0  0  0  0
  151.3065  138.4409  153.9213 H   0  0  0  0  0  0  0  0  0  0  0  0
  152.9432  138.1039  154.5034 H   0  0  0  0  0  0  0  0  0  0  0  0
  152.0447  139.4884  155.1425 H   0  0  0  0  0  0  0  0  0  0  0  0
  150.0168  135.7677  158.5713 H   0  0  0  0  0  0  0  0  0  0  0  0
  149.1832  133.6070  154.6180 H   0  0  0  0  0  0  0  0  0  0  0  0
  150.3117  132.4368  155.3167 H   0  0  0  0  0  0  0  0  0  0  0  0
  150.9032  134.0050  154.7490 H   0  0  0  0  0  0  0  0  0  0  0  0
  1  2  1  0  0  0  0
  1 30  1  0  0  0  0
  1 31  1  0  0  0  0
  1 32  1  0  0  0  0
  2  3  2  0  0  0  0
  2  4  1  0  0  0  0
  4  5  1  0  0  0  0
  5  6  1  0  0  0  0
  5 33  1  0  0  0  0
  5 34  1  0  0  0  0
  6 25  1  0  0  0  0
  6  7  1  0  0  0  0
  6 35  1  0  0  0  0
  7  8  1  0  0  0  0
  8  9  1  0  0  0  0
  8 20  1  0  0  0  0
  8 36  1  0  0  0  0
  9 19  1  0  0  0  0
  9 10  1  0  0  0  0
 10 11  1  0  0  0  0
 10 12  2  0  0  0  0
 12 13  1  0  0  0  0
 13 19  2  0  0  0  0
 13 14  1  0  0  0  0
 14 15  1  0  0  0  0
 14 16  2  0  0  0  0
 15 37  1  0  0  0  0
 15 38  1  0  0  0  0
 16 17  1  0  0  0  0
 17 18  2  0  0  0  0
 17 39  1  0  0  0  0
 18 19  1  0  0  0  0
 20 21  1  0  0  0  0
 20 25  1  0  0  0  0
 20 40  1  0  0  0  0
 21 22  1  0  0  0  0
 22 23  1  0  0  0  0
 22 24  2  0  0  0  0
 23 41  1  0  0  0  0
 23 42  1  0  0  0  0
 23 43  1  0  0  0  0
 25 26  1  0  0  0  0
 25 44  1  0  0  0  0
 26 27  1  0  0  0  0
 27 28  1  0  0  0  0
 27 29  2  0  0  0  0
 28 45  1  0  0  0  0
 28 46  1  0  0  0  0
 28 47  1  0  0  0  0
M  END
> <s_m_source_file>
AV-unprocessed.smi

> <i_m_source_file_index>
104

> <i_lp_mmshare_version>
43012

> <i_f3d_flags>
0

> <s_epik_input>
W0NIM11DKD1PKU9bQ0gyXVtDQEBIXTFPW0NASF0oW0NAQEhdKE9DKD1PKVtDSDNdKVtDQEhdMU9DKD1PKVtDSDNdKW4oYyhCciluMiljKGMyMyluW2NIXW5jM1tOSDJd

> <s_epik_cmdline>
J2VwaWtfcHl0aG9uJywgJy1waCcsICc3LjAnLCAnLXRuJywgJzgnLCAnLW1hJywgJzIwMCcsICctbWV0YWxfYmluZGluZycsICctaW1hZScsICc8aW5maWxlLm1hZT4nLCAnLW9tYWUnLCAnPG91dGZpbGUubWFlPic=

> <r_lp_tautomer_probability>
1

> <r_epik_Ionization_Penalty>
7.36622e-05

> <r_epik_Ionization_Penalty_Charging>
0

> <r_epik_Ionization_Penalty_Neutral>
7.36622e-05

> <r_epik_State_Penalty>
-0

> <r_epik_Charging_Adjusted_Penalty>
0

> <i_epik_Tot_Q>
0

> <i_epik_Tot_abs_Q>
0

> <r_epik_Metal_State_Penalty>
-0

> <b_epik_Metal_Only>
0

> <s_epik_Chemistry_Notes>
This compound has an ester and may undergo hydrolysis at high or low pH. This compound contains an acetal/aminal-like group ( X-CH(R)-Y where X, Y are N, S, or O) that may be acid/base labile, releasing an aldehyde.

> <s_lp_Force_Field>
OPLS_2005

> <r_lp_Energy>
19.0996

> <b_lp_Chiralities_Consistent>
1

> <s_lp_Variant>
AV-unprocessed.smi:104-16

> <Gold.Version>
5.8.1

> <Gold.Id.Protein>
6NUR|6NUR_protein|mol2

> <Gold.PLP.Fitness>
39.9432

> <Gold.PLP.PLP>
-32.3270

> <Gold.PLP.part.hbond>
-4.0000

> <Gold.PLP.part.metal>
0.0000

> <Gold.PLP.part.buried>
-5.6263

> <Gold.PLP.part.nonpolar>
-22.0530

> <Gold.PLP.part.repulsive>
0.3740

> <Gold.PLP.ligand.clash>
0.0000

> <Gold.PLP.ligand.torsion>
1.4872

> <Gold.PLP.Chemscore.Hbond>
3.4497

> <Gold.PLP.Chemscore.CHOScore>
0.0000

> <Gold.PLP.Chemscore.Metal>
0.0000

> <Gold.Chemscore.Hbonds>
donor molecule, donor type, donor heavy atom, donor atom, acceptor molecule, acceptor atom, score
      L1  H    15    37       P1 10175  1.00
      P1  H  6896  6909       L1    29  1.00
      P1  H  8011  8017       L1    16  0.22
      P1  H 10752 10763       L1    24  0.86

> <Gold.PLP.Chemscore.Internal.Correction>
0.2413

> <Gold.Rescore>
     Score         DG    S(hbond)    S(metal)    S(lipo)     H(rot)  DE(clash)    DE(int)     intcor
      2.02      -7.67       2.60        0.00      38.85       4.31       0.01       5.63       ----

> <Gold.Chemscore.Fitness>
2.0223

> <Gold.Chemscore.DG>
-7.6710

> <Gold.Chemscore.ZeroCoef>
-5.4800

> <Gold.Chemscore.Hbond>
2.5962

> <Gold.Chemscore.Metal>
0.0000

> <Gold.Chemscore.Lipo>
38.8502

> <Gold.Chemscore.Internal_Hbond>
0.0000

> <Gold.Chemscore.DEClash>
0.0149

> <Gold.Chemscore.DEInternal>
5.6338

> <Gold.Chemscore.Rot>
4.3070

> <Gold.Chemscore.Internal.Correction>
   9.000000E+99

> <Gold.Chemscore.Hbonds>
donor molecule, donor type, donor heavy atom, donor atom, acceptor molecule, acceptor atom, score
      L1  H    15    37       P1 10175  0.30
      P1  H  6896  6909       L1    29  0.93
      P1  H  8011  8017       L1    16  0.06
      P1  H 10752 10763       L1    24  0.75

> <Gold.Chemscore.Hbond.Weighted>
-8.6714

> <Gold.Chemscore.Metal.Weighted>
-0.0000

> <Gold.Chemscore.Lipo.Weighted>
-4.5455

> <Gold.Chemscore.Internal_Hbond.Weighted>
0.0000

> <Gold.Chemscore.DEClash.Weighted>
0.0149

> <Gold.Chemscore.DEInternal.Weighted>
5.6338

> <Gold.Chemscore.Rot.Weighted>
11.0259

> <Gold.Chemscore.Internal.Correction.Weighted>
   9.000000E+99

> <Gold.Protein.RotatedTorsions>
[ 6907 6896 6895 6894 ] final  -21.89 input  -60.11 | X-H torsion
[ 7974 7965 7964 7962 ] final   15.52 input  175.53 | X-H torsion
[ 8008 7997 7996 7995 ] final   16.63 input   59.86 | X-H torsion
[ 10167 10162 10161 10158 ] final  137.82 input  -65.29 | X-H torsion
[ 10718 10713 10712 10709 ] final  -15.64 input   66.30 | X-H torsion
[ 10763 10752 10751 10750 ] final   77.85 input  -60.55 | X-H torsion
[ 11005 11000 10999 10996 ] final  153.58 input  -57.11 | X-H torsion

> <Gold.Protein.ActiveResidues>
 VAL166  LYS551  ARG553  GLY616  TRP617  ASP618  TYR619  PRO620  LYS621  CYS622 
 ASP623  PHE694  ASN695  SER759  ASP760  ASP761  ALA762  ILE779  LEU786  VAL792 
 PHE793  MET794  SER795  GLU796  ALA797  LYS798  CYS799  TRP800  GLU811  SER814 

> <Gold.Protein.RotatedAtoms>
  151.2266  135.0539  159.8970 H   0  0  0  0  0  0  0  0  0  0  0  0  # atno 6907 bound_to 6896
  152.5409  134.0582  159.8150 H   0  0  0  0  0  0  0  0  0  0  0  0  # atno 6908 bound_to 6896
  151.0756  133.5382  159.2655 H   0  0  0  0  0  0  0  0  0  0  0  0  # atno 6909 bound_to 6896
  146.2276  139.8883  142.8559 H   0  0  0  0  0  0  0  0  0  0  0  0  # atno 7974 bound_to 7965
  154.8797  140.2971  155.5432 H   0  0  0  0  0  0  0  0  0  0  0  0  # atno 8008 bound_to 7997
  156.3022  140.2444  156.3731 H   0  0  0  0  0  0  0  0  0  0  0  0  # atno 8009 bound_to 7997
  154.8730  140.0400  157.1725 H   0  0  0  0  0  0  0  0  0  0  0  0  # atno 8010 bound_to 7997
  139.5131  144.6388  151.5624 H   0  0  0  0  0  0  0  0  0  0  0  0  # atno 10167 bound_to 10162
  156.5989  130.4819  149.6248 H   0  0  0  0  0  0  0  0  0  0  0  0  # atno 10718 bound_to 10713
  153.0830  135.4898  154.8540 H   0  0  0  0  0  0  0  0  0  0  0  0  # atno 10763 bound_to 10752
  154.7175  135.3032  154.9103 H   0  0  0  0  0  0  0  0  0  0  0  0  # atno 10764 bound_to 10752
  153.9778  135.6793  153.4802 H   0  0  0  0  0  0  0  0  0  0  0  0  # atno 10765 bound_to 10752
  140.1411  134.8738  157.2332 H   0  0  0  0  0  0  0  0  0  0  0  0  # atno 11005 bound_to 11000
  145.2443  141.0021  143.3917 LP  0  0  0  0  0  0  0  0  0  0  0  0  # atno 17320 bound_to 7965
  144.9426  139.4172  143.6441 LP  0  0  0  0  0  0  0  0  0  0  0  0  # atno 17321 bound_to 7965
  140.6148  143.9370  150.6480 LP  0  0  0  0  0  0  0  0  0  0  0  0  # atno 17342 bound_to 10162
  140.2624  143.3514  152.1311 LP  0  0  0  0  0  0  0  0  0  0  0  0  # atno 17343 bound_to 10162
  156.2486  130.6893  151.1623 LP  0  0  0  0  0  0  0  0  0  0  0  0  # atno 17370 bound_to 10713
  157.7284  131.0631  150.5819 LP  0  0  0  0  0  0  0  0  0  0  0  0  # atno 17371 bound_to 10713
  140.2721  134.3448  155.7370 LP  0  0  0  0  0  0  0  0  0  0  0  0  # atno 17394 bound_to 11000
  141.2186  133.7429  156.9238 LP  0  0  0  0  0  0  0  0  0  0  0  0  # atno 17395 bound_to 11000

$$$$
