#       Name:                AV-unprocessed.smi:1144
#       Creating user name   scv26
#       Creation time:       Fri Mar 27 03:45:07 2020


#       File generated by GOLD software.
#

@<TRIPOS>MOLECULE
AV-unprocessed.smi:1144
    39    40     1
SMALL
NO_CHARGES


@<TRIPOS>ATOM
      1 ****        -2.7233   2.2140   2.3663 C.3            1 S1                 0.0000
      2 ****        -3.0683   1.4665   1.1348 N.4            1 S1                 1.0000
      3 ****        -2.6643   2.1557  -0.1136 C.3            1 S1                 0.0000
      4 ****        -1.1622   1.9702  -0.3938 C.3            1 S1                 0.0000
      5 ****        -0.8545   0.5827  -0.4165 O.3            1 S1                 0.0000
      6 ****        -1.1007  -0.0552   0.8331 C.3            1 S1                 0.0000
      7 ****        -0.6526  -1.5235   0.7385 C.3            1 S1                 0.0000
      8 ****         0.7977  -1.6579   0.6985 N.pl3          1 S1                 0.0000
      9 ****         1.5686  -1.5766  -0.4472 C.ar           1 S1                 0.0000
     10 ****         0.9490  -1.5334  -1.6320 N.ar           1 S1                 0.0000
     11 ****         1.7293  -1.4520  -2.7310 C.ar           1 S1                 0.0000
     12 ****         3.1344  -1.4132  -2.6413 C.ar           1 S1                 0.0000
     13 ****         3.6808  -1.4670  -1.3396 C.ar           1 S1                 0.0000
     14 ****         5.1813  -1.4375  -1.0901 C.3            1 S1                 0.0000
     15 ****         5.5568  -2.5598  -0.4763 F              1 S1                 0.0000
     16 ****         5.8649  -1.3293  -2.2299 F              1 S1                 0.0000
     17 ****         5.4876  -0.3983  -0.3136 F              1 S1                 0.0000
     18 ****         2.8873  -1.5493  -0.2459 N.ar           1 S1                 0.0000
     19 ****        -2.6094   0.0561   1.1428 C.3            1 S1                 0.0000
     20 ****        -1.6457   2.3198   2.4914 H              1 S1                 0.0000
     21 ****        -3.1188   1.7049   3.2458 H              1 S1                 0.0000
     22 ****        -3.1600   3.2129   2.3411 H              1 S1                 0.0000
     23 ****        -3.2379   1.7314  -0.9387 H              1 S1                 0.0000
     24 ****        -2.9244   3.2139  -0.0675 H              1 S1                 0.0000
     25 ****        -0.9062   2.4020  -1.3614 H              1 S1                 0.0000
     26 ****        -0.5506   2.4812   0.3510 H              1 S1                 0.0000
     27 ****        -0.5248   0.4371   1.6186 H              1 S1                 0.0000
     28 ****        -0.9968  -2.0630   1.6209 H              1 S1                 0.0000
     29 ****        -1.1126  -2.0165  -0.1186 H              1 S1                 0.0000
     30 ****         1.2932  -1.6866   1.5779 H              1 S1                 0.0000
     31 ****         1.2292  -1.4179  -3.6875 H              1 S1                 0.0000
     32 ****         3.7511  -1.3480  -3.5255 H              1 S1                 0.0000
     33 ****        -2.8452  -0.4095   2.1006 H              1 S1                 0.0000
     34 ****        -3.1764  -0.4891   0.3870 H              1 S1                 0.0000
     35 ****        -4.0779   1.4339   1.1231 H              1 S1                 0.0000
     36 ****         0.1125   0.4732  -0.6467 LP             1 S1                 0.0000
     37 ****        -1.4158   0.1419  -1.1169 LP             1 S1                 0.0000
     38 ****        -0.0482  -1.5602  -1.7008 LP             1 S1                 0.0000
     39 ****         3.2739  -1.5880   0.6755 LP             1 S1                 0.0000
@<TRIPOS>BOND
    1    1    2 1     
    2    1   20 1     
    3    1   21 1     
    4    1   22 1     
    5    2   19 1     
    6    2    3 1     
    7    2   35 1     
    8    3    4 1     
    9    3   23 1     
   10    3   24 1     
   11    4    5 1     
   12    4   25 1     
   13    4   26 1     
   14    5    6 1     
   15    6    7 1     
   16    6   19 1     
   17    6   27 1     
   18    7    8 1     
   19    7   28 1     
   20    7   29 1     
   21    8    9 1     
   22    8   30 1     
   23    9   18 ar    
   24    9   10 ar    
   25   10   11 ar    
   26   11   12 ar    
   27   11   31 1     
   28   12   13 ar    
   29   12   32 1     
   30   13   14 1     
   31   13   18 ar    
   32   14   15 1     
   33   14   16 1     
   34   14   17 1     
   35   19   33 1     
   36   19   34 1     
   37    5   36 1     
   38    5   37 1     
   39   10   38 1     
   40   18   39 1     
@<TRIPOS>SUBSTRUCTURE
      1 S1             1
@<TRIPOS>SET
LONE_PAIRS      STATIC     ATOMS    <user>   **** ""
4 36 37 38 39
DONOR_HYDROGENS      STATIC     ATOMS    <user>   **** ""
2 35 30
ATOM$BLUE        STATIC     ATOMS    COLORGROUP SYSTEM
4 36 37 38 39
ATOM$RED        STATIC     ATOMS    COLORGROUP SYSTEM
2 35 30
