AV-unprocessed.smi:1833|AV-procd|sdf|7468|dock5
  -GOLD-   22720 9163D 1   1.00000     0.00000
 Structure written by MMmdl.
 42 43  0  0  0  0  0  0  0  0  2 V2000
  145.7324  129.1820  151.9682 C   0  0  0  0  0  0  0  0  0  0  0  0
  146.4675  130.5007  152.2484 C   0  0  0  0  0  0  0  0  0  0  0  0
  145.6489  131.6943  151.9159 N   0  3  2  0  0  0  0  0  0  0  0  0
  145.0888  131.6201  150.5408 C   0  0  0  0  0  0  0  0  0  0  0  0
  144.1392  132.7960  150.2585 C   0  0  0  0  0  0  0  0  0  0  0  0
  144.8410  134.1400  150.4898 C   0  0  0  0  0  0  0  0  0  0  0  0
  145.4339  134.1847  151.9063 C   0  0  2  0  0  0  0  0  0  0  0  0
  146.1696  135.4320  152.0988 N   0  0  0  0  0  0  0  0  0  0  0  0
  145.6271  136.6231  152.3905 C   0  0  0  0  0  0  0  0  0  0  0  0
  144.4225  136.8140  152.5578 O   0  0  0  0  0  0  0  0  0  0  0  0
  146.5563  137.5857  152.4679 N   0  0  0  0  0  0  0  0  0  0  0  0
  146.2806  138.9942  152.7261 C   0  0  0  0  0  0  0  0  0  0  0  0
  147.4496  139.8872  152.2799 C   0  0  0  0  0  0  0  0  0  0  0  0
  148.3849  140.2063  153.3975 C   0  0  0  0  0  0  0  0  0  0  0  0
  148.6801  141.4527  153.7778 N   0  0  0  0  0  0  0  0  0  0  0  0
  149.5998  141.4869  154.8287 C   0  0  0  0  0  0  0  0  0  0  0  0
  150.0132  140.2436  155.2345 C   0  0  0  0  0  0  0  0  0  0  0  0
  149.2600  138.9772  154.3042 S   0  0  0  0  0  0  0  0  0  0  0  0
  146.3636  132.9792  152.1448 C   0  0  0  0  0  0  0  0  0  0  0  0
  146.3956  128.3327  152.1337 H   0  0  0  0  0  0  0  0  0  0  0  0
  145.3880  129.1336  150.9348 H   0  0  0  0  0  0  0  0  0  0  0  0
  144.8694  129.0460  152.6192 H   0  0  0  0  0  0  0  0  0  0  0  0
  146.7933  130.5466  153.2887 H   0  0  0  0  0  0  0  0  0  0  0  0
  147.3742  130.5077  151.6419 H   0  0  0  0  0  0  0  0  0  0  0  0
  145.9034  131.6116  149.8147 H   0  0  0  0  0  0  0  0  0  0  0  0
  144.5424  130.6846  150.4153 H   0  0  0  0  0  0  0  0  0  0  0  0
  143.7710  132.7401  149.2336 H   0  0  0  0  0  0  0  0  0  0  0  0
  143.2638  132.7237  150.9053 H   0  0  0  0  0  0  0  0  0  0  0  0
  145.6298  134.2730  149.7477 H   0  0  0  0  0  0  0  0  0  0  0  0
  144.1346  134.9590  150.3476 H   0  0  0  0  0  0  0  0  0  0  0  0
  144.6088  134.1208  152.6186 H   0  0  0  0  0  0  0  0  0  0  0  0
  147.1715  135.3897  151.9807 H   0  0  0  0  0  0  0  0  0  0  0  0
  147.5222  137.3328  152.3177 H   0  0  0  0  0  0  0  0  0  0  0  0
  145.3566  139.2950  152.2293 H   0  0  0  0  0  0  0  0  0  0  0  0
  146.1106  139.1135  153.7965 H   0  0  0  0  0  0  0  0  0  0  0  0
  148.0120  139.4000  151.4822 H   0  0  0  0  0  0  0  0  0  0  0  0
  147.0746  140.8248  151.8682 H   0  0  0  0  0  0  0  0  0  0  0  0
  149.9078  142.4424  155.2268 H   0  0  0  0  0  0  0  0  0  0  0  0
  150.7142  139.9970  156.0181 H   0  0  0  0  0  0  0  0  0  0  0  0
  146.7394  133.0220  153.1667 H   0  0  0  0  0  0  0  0  0  0  0  0
  147.2325  133.0324  151.4863 H   0  0  0  0  0  0  0  0  0  0  0  0
  144.8570  131.6815  152.5431 H   0  0  0  0  0  0  0  0  0  0  0  0
  1  2  1  0  0  0  0
  1 20  1  0  0  0  0
  1 21  1  0  0  0  0
  1 22  1  0  0  0  0
  2  3  1  0  0  0  0
  2 23  1  0  0  0  0
  2 24  1  0  0  0  0
  3 19  1  0  0  0  0
  3  4  1  0  0  0  0
  3 42  1  0  0  0  0
  4  5  1  0  0  0  0
  4 25  1  0  0  0  0
  4 26  1  0  0  0  0
  5  6  1  0  0  0  0
  5 27  1  0  0  0  0
  5 28  1  0  0  0  0
  6  7  1  0  0  0  0
  6 29  1  0  0  0  0
  6 30  1  0  0  0  0
  7  8  1  0  0  0  0
  7 19  1  0  0  0  0
  7 31  1  0  0  0  0
  8  9  1  0  0  0  0
  8 32  1  0  0  0  0
  9 10  2  0  0  0  0
  9 11  1  0  0  0  0
 11 12  1  0  0  0  0
 11 33  1  0  0  0  0
 12 13  1  0  0  0  0
 12 34  1  0  0  0  0
 12 35  1  0  0  0  0
 13 14  1  0  0  0  0
 13 36  1  0  0  0  0
 13 37  1  0  0  0  0
 14 18  1  0  0  0  0
 14 15  2  0  0  0  0
 15 16  1  0  0  0  0
 16 17  2  0  0  0  0
 16 38  1  0  0  0  0
 17 18  1  0  0  0  0
 17 39  1  0  0  0  0
 19 40  1  0  0  0  0
 19 41  1  0  0  0  0
M  CHG  1   3   1
M  END
> <s_m_source_file>
AV-unprocessed.smi

> <i_m_source_file_index>
1833

> <i_lp_mmshare_version>
43012

> <i_f3d_flags>
0

> <s_epik_input>
W0NIM11bQ0gyXU4xW0NIMl1bQ0gyXVtDSDJdW0NASF0oW0NIMl0xKVtOSF1DKD1PKVtOSF1bQ0gyXVtDSDJdYzJuW2NIXVtjSF1zMg==

> <s_epik_cmdline>
J2VwaWtfcHl0aG9uJywgJy1waCcsICc3LjAnLCAnLXRuJywgJzgnLCAnLW1hJywgJzIwMCcsICctbWV0YWxfYmluZGluZycsICctaW1hZScsICc8aW5maWxlLm1hZT4nLCAnLW9tYWUnLCAnPG91dGZpbGUubWFlPic=

> <r_lp_tautomer_probability>
1

> <r_epik_Ionization_Penalty>
0.00269629

> <r_epik_Ionization_Penalty_Charging>
0.00233899

> <r_epik_Ionization_Penalty_Neutral>
0.000357304

> <r_epik_State_Penalty>
-0

> <r_epik_Charging_Adjusted_Penalty>
0.00233899

> <i_epik_Tot_Q>
1

> <i_epik_Tot_abs_Q>
1

> <r_epik_Metal_State_Penalty>
-0

> <b_epik_Metal_Only>
0

> <s_lp_Force_Field>
OPLS_2005

> <r_lp_Energy>
7.34013

> <b_lp_Chiralities_Consistent>
1

> <s_lp_Variant>
AV-unprocessed.smi:1833-4

> <Gold.Version>
5.8.1

> <Gold.Id.Protein>
6NUR|6NUR_protein|mol2

> <Gold.PLP.Fitness>
40.7272

> <Gold.PLP.PLP>
-31.0892

> <Gold.PLP.part.hbond>
-3.0000

> <Gold.PLP.part.metal>
0.0000

> <Gold.PLP.part.buried>
5.3847

> <Gold.PLP.part.nonpolar>
-33.4039

> <Gold.PLP.part.repulsive>
0.4655

> <Gold.PLP.ligand.clash>
0.0000

> <Gold.PLP.ligand.torsion>
0.7039

> <Gold.PLP.Chemscore.Hbond>
2.6578

> <Gold.PLP.Chemscore.CHOScore>
1.0000

> <Gold.PLP.Chemscore.Metal>
0.0000

> <Gold.Chemscore.Hbonds>
donor molecule, donor type, donor heavy atom, donor atom, acceptor molecule, acceptor atom, score
      L1  H     8    32       P1  7948  1.00
      L1  H    11    33       P1  7948  1.00
      P1  H  8011  8017       L1    15  0.65
      L1  C    16    38       P1  8028  1.00

> <Gold.PLP.Chemscore.Internal.Correction>
0.0723

> <Gold.Rescore>
     Score         DG    S(hbond)    S(metal)    S(lipo)     H(rot)  DE(clash)    DE(int)     intcor
     16.10     -20.19       2.23        0.00      99.72       1.71       3.39       0.70       ----

> <Gold.Chemscore.Fitness>
16.0989

> <Gold.Chemscore.DG>
-20.1925

> <Gold.Chemscore.ZeroCoef>
-5.4800

> <Gold.Chemscore.Hbond>
2.2261

> <Gold.Chemscore.Metal>
0.0000

> <Gold.Chemscore.Lipo>
99.7185

> <Gold.Chemscore.Internal_Hbond>
0.0000

> <Gold.Chemscore.DEClash>
3.3943

> <Gold.Chemscore.DEInternal>
0.6994

> <Gold.Chemscore.Rot>
1.7147

> <Gold.Chemscore.Internal.Correction>
   9.000000E+99

> <Gold.Chemscore.Hbonds>
donor molecule, donor type, donor heavy atom, donor atom, acceptor molecule, acceptor atom, score
      L1  H     8    32       P1  7948  0.96
      L1  H    11    33       P1  7948  0.99
      P1  H  8011  8017       L1    15  0.11

> <Gold.Chemscore.Hbond.Weighted>
-7.4351

> <Gold.Chemscore.Metal.Weighted>
-0.0000

> <Gold.Chemscore.Lipo.Weighted>
-11.6671

> <Gold.Chemscore.Internal_Hbond.Weighted>
0.0000

> <Gold.Chemscore.DEClash.Weighted>
3.3943

> <Gold.Chemscore.DEInternal.Weighted>
0.6994

> <Gold.Chemscore.Rot.Weighted>
4.3896

> <Gold.Chemscore.Internal.Correction.Weighted>
   9.000000E+99

> <Gold.Protein.RotatedTorsions>
[ 6907 6896 6895 6894 ] final  149.36 input  -60.11 | X-H torsion
[ 7974 7965 7964 7962 ] final   76.69 input  175.53 | X-H torsion
[ 8008 7997 7996 7995 ] final   18.72 input   59.86 | X-H torsion
[ 10167 10162 10161 10158 ] final -117.06 input  -65.29 | X-H torsion
[ 10718 10713 10712 10709 ] final  -72.45 input   66.30 | X-H torsion
[ 10763 10752 10751 10750 ] final  -83.26 input  -60.55 | X-H torsion
[ 11005 11000 10999 10996 ] final  146.26 input  -57.11 | X-H torsion

> <Gold.Protein.ActiveResidues>
 VAL166  LYS551  ARG553  GLY616  TRP617  ASP618  TYR619  PRO620  LYS621  CYS622 
 ASP623  PHE694  ASN695  SER759  ASP760  ASP761  ALA762  ILE779  LEU786  VAL792 
 PHE793  MET794  SER795  GLU796  ALA797  LYS798  CYS799  TRP800  GLU811  SER814 

> <Gold.Protein.RotatedAtoms>
  152.1291  133.4397  159.4711 H   0  0  0  0  0  0  0  0  0  0  0  0  # atno 6907 bound_to 6896
  150.6877  134.2443  159.4494 H   0  0  0  0  0  0  0  0  0  0  0  0  # atno 6908 bound_to 6896
  152.0325  134.9759  160.0623 H   0  0  0  0  0  0  0  0  0  0  0  0  # atno 6909 bound_to 6896
  145.6996  139.2578  143.1713 H   0  0  0  0  0  0  0  0  0  0  0  0  # atno 7974 bound_to 7965
  154.9101  140.3013  155.5271 H   0  0  0  0  0  0  0  0  0  0  0  0  # atno 8008 bound_to 7997
  156.3015  140.2391  156.4075 H   0  0  0  0  0  0  0  0  0  0  0  0  # atno 8009 bound_to 7997
  154.8434  140.0412  157.1545 H   0  0  0  0  0  0  0  0  0  0  0  0  # atno 8010 bound_to 7997
  140.0725  143.4864  152.1972 H   0  0  0  0  0  0  0  0  0  0  0  0  # atno 10167 bound_to 10162
  156.0320  130.4372  150.2595 H   0  0  0  0  0  0  0  0  0  0  0  0  # atno 10718 bound_to 10713
  154.5856  135.5562  153.7228 H   0  0  0  0  0  0  0  0  0  0  0  0  # atno 10763 bound_to 10752
  153.0097  135.6331  154.1921 H   0  0  0  0  0  0  0  0  0  0  0  0  # atno 10764 bound_to 10752
  154.1862  135.2884  155.3016 H   0  0  0  0  0  0  0  0  0  0  0  0  # atno 10765 bound_to 10752
  140.0779  134.9114  157.1452 H   0  0  0  0  0  0  0  0  0  0  0  0  # atno 11005 bound_to 11000
  146.0810  140.7764  142.9641 LP  0  0  0  0  0  0  0  0  0  0  0  0  # atno 17320 bound_to 7965
  144.6972  140.3489  143.7185 LP  0  0  0  0  0  0  0  0  0  0  0  0  # atno 17321 bound_to 7965
  139.5828  144.7518  151.3597 LP  0  0  0  0  0  0  0  0  0  0  0  0  # atno 17342 bound_to 10162
  140.7118  143.7369  150.7582 LP  0  0  0  0  0  0  0  0  0  0  0  0  # atno 17343 bound_to 10162
  157.0697  131.0113  151.3194 LP  0  0  0  0  0  0  0  0  0  0  0  0  # atno 17370 bound_to 10713
  157.5009  130.7879  149.7603 LP  0  0  0  0  0  0  0  0  0  0  0  0  # atno 17371 bound_to 10713
  140.3531  134.2577  155.7196 LP  0  0  0  0  0  0  0  0  0  0  0  0  # atno 17394 bound_to 11000
  141.2036  133.7908  157.0331 LP  0  0  0  0  0  0  0  0  0  0  0  0  # atno 17395 bound_to 11000

$$$$
