#       Name:                AV-unprocessed.smi:53
#       Creating user name   scv26
#       Creation time:       Thu Mar 26 16:39:13 2020


#       File generated by GOLD software.
#

@<TRIPOS>MOLECULE
AV-unprocessed.smi:53
    41    42     1
SMALL
NO_CHARGES


@<TRIPOS>ATOM
      1 ****        -5.0435  -0.2242  -0.0399 N.pl3          1 S1                 0.0000
      2 ****        -3.7150  -0.3890  -0.1093 C.2            1 S1                 0.0000
      3 ****        -2.8913   0.5933  -0.7754 C.2            1 S1                 0.0000
      4 ****        -1.5607   0.3590  -0.8021 C.2            1 S1                 0.0000
      5 ****        -0.9904  -0.7604  -0.2044 N.am           1 S1                 0.0000
      6 ****         0.5024  -1.0474  -0.2583 C.3            1 S1                 0.0000
      7 ****         1.1429  -0.0534  -1.0027 O.3            1 S1                 0.0000
      8 ****         1.6495   0.9471  -0.1254 C.3            1 S1                 0.0000
      9 ****         2.6725   1.8492  -0.8368 C.3            1 S1                 0.0000
     10 ****         2.0017   2.8658  -1.5506 O.3            1 S1                 0.0000
     11 ****         2.1915   0.1005   1.0298 C.3            1 S1                 0.0000
     12 ****         3.4819  -0.4026   0.7189 O.3            1 S1                 0.0000
     13 ****         1.1373  -1.0015   1.1527 C.3            1 S1                 0.0000
     14 ****         1.6952  -2.2375   1.5605 O.3            1 S1                 0.0000
     15 ****        -1.8316  -1.7184   0.4133 C.2            1 S1                 0.0000
     16 ****        -1.3813  -2.7487   0.9122 O.2            1 S1                 0.0000
     17 ****        -3.1763  -1.4626   0.4340 N.2            1 S1                 0.0000
     18 ****         0.5914  -2.0075  -0.7705 H              1 S1                 0.0000
     19 ****         0.8245   1.5511   0.2570 H              1 S1                 0.0000
     20 ****         2.2706   0.6819   1.9489 H              1 S1                 0.0000
     21 ****         0.3853  -0.6941   1.8808 H              1 S1                 0.0000
     22 ****        -5.6172  -0.9145   0.4222 H              1 S1                 0.0000
     23 ****        -5.4684   0.5960  -0.4482 H              1 S1                 0.0000
     24 ****        -3.2884   1.4835  -1.2419 H              1 S1                 0.0000
     25 ****        -0.9514   1.0890  -1.3130 H              1 S1                 0.0000
     26 ****         3.3185   2.3352  -0.1052 H              1 S1                 0.0000
     27 ****         3.3122   1.2758  -1.5084 H              1 S1                 0.0000
     28 ****         2.6471   3.4076  -1.9785 H              1 S1                 0.0000
     29 ****         3.7639  -0.9557   1.4317 H              1 S1                 0.0000
     30 ****         2.3287  -2.5058   0.9126 H              1 S1                 0.0000
     31 ****         0.4901   0.3599  -1.6376 LP             1 S1                 0.0000
     32 ****         1.8984  -0.4580  -1.5180 LP             1 S1                 0.0000
     33 ****         1.4607   3.4209  -0.9188 LP             1 S1                 0.0000
     34 ****         1.3984   2.4558  -2.2347 LP             1 S1                 0.0000
     35 ****         4.1228   0.3567   0.6059 LP             1 S1                 0.0000
     36 ****         3.4428  -0.9345  -0.1270 LP             1 S1                 0.0000
     37 ****         0.9739  -2.9263   1.6335 LP             1 S1                 0.0000
     38 ****         2.1440  -2.1295   2.4476 LP             1 S1                 0.0000
     39 ****        -0.3977  -2.9274   0.8882 LP             1 S1                 0.0000
     40 ****        -1.9988  -3.4076   1.3418 LP             1 S1                 0.0000
     41 ****        -3.7792  -2.1221   0.8830 LP             1 S1                 0.0000
@<TRIPOS>BOND
    1    1    2 1     
    2    1   22 1     
    3    1   23 1     
    4    2   17 2     
    5    2    3 1     
    6    3    4 2     
    7    3   24 1     
    8    4    5 1     
    9    4   25 1     
   10    5    6 1     
   11    5   15 am    
   12    6   18 1     
   13    6   13 1     
   14    6    7 1     
   15    7    8 1     
   16    8   19 1     
   17    8    9 1     
   18    8   11 1     
   19    9   10 1     
   20    9   26 1     
   21    9   27 1     
   22   10   28 1     
   23   11   20 1     
   24   11   12 1     
   25   11   13 1     
   26   12   29 1     
   27   13   21 1     
   28   13   14 1     
   29   14   30 1     
   30   15   16 2     
   31   15   17 1     
   32    7   31 1     
   33    7   32 1     
   34   10   33 1     
   35   10   34 1     
   36   12   35 1     
   37   12   36 1     
   38   14   37 1     
   39   14   38 1     
   40   16   39 1     
   41   16   40 1     
   42   17   41 1     
@<TRIPOS>SUBSTRUCTURE
      1 S1             1
@<TRIPOS>SET
LONE_PAIRS      STATIC     ATOMS    <user>   **** ""
11 31 32 33 34 35 36 37 38 39 40 41
DONOR_HYDROGENS      STATIC     ATOMS    <user>   **** ""
5 22 23 28 29 30
ATOM$BLUE        STATIC     ATOMS    COLORGROUP SYSTEM
11 31 32 33 34 35 36 37 38 39 40 41
ATOM$RED        STATIC     ATOMS    COLORGROUP SYSTEM
5 22 23 28 29 30
