AV-unprocessed.smi:2227|AV-procd|sdf|9022|dock7
  -GOLD-   2272012223D 1   1.00000     0.00000
 Structure written by MMmdl.
 42 44  0  0  0  0  0  0  0  0  1 V2000
  152.7814  138.8002  154.8991 C   0  0  0  0  0  0  0  0  0  0  0  0
  151.4306  138.6164  155.6053 C   0  0  0  0  0  0  0  0  0  0  0  0
  150.8388  137.2204  155.3619 C   0  0  0  0  0  0  0  0  0  0  0  0
  150.4628  139.7060  155.2296 C   0  0  0  0  0  0  0  0  0  0  0  0
  150.0890  139.9445  153.9746 N   0  0  0  0  0  0  0  0  0  0  0  0
  149.2246  141.0293  154.0535 C   0  0  0  0  0  0  0  0  0  0  0  0
  149.1074  141.4204  155.3640 C   0  0  0  0  0  0  0  0  0  0  0  0
  149.9118  140.5690  156.1124 N   0  0  0  0  0  0  0  0  0  0  0  0
  150.0882  140.6421  157.5558 C   0  0  0  0  0  0  0  0  0  0  0  0
  151.5239  141.0207  157.9291 C   0  0  0  0  0  0  0  0  0  0  0  0
  152.4710  140.3978  157.4494 O   0  0  0  0  0  0  0  0  0  0  0  0
  151.6657  142.0377  158.7933 N   0  0  0  0  0  0  0  0  0  0  0  0
  152.9301  142.5460  159.3134 C   0  0  0  0  0  0  0  0  0  0  0  0
  153.4419  141.6873  160.4557 C   0  0  0  0  0  0  0  0  0  0  0  0
  154.8412  141.1185  160.4511 C   0  0  0  0  0  0  0  0  0  0  0  0
  153.6505  140.2020  160.2836 C   0  0  0  0  0  0  0  0  0  0  0  0
  152.8418  144.0004  159.7474 C   0  0  0  0  0  0  0  0  0  0  0  0
  151.5442  144.6037  160.2325 C   0  0  0  0  0  0  0  0  0  0  0  0
  152.1256  145.0301  158.9048 C   0  0  0  0  0  0  0  0  0  0  0  0
  153.2160  139.7720  155.1358 H   0  0  0  0  0  0  0  0  0  0  0  0
  152.6755  138.7384  153.8155 H   0  0  0  0  0  0  0  0  0  0  0  0
  153.4942  138.0353  155.2079 H   0  0  0  0  0  0  0  0  0  0  0  0
  151.6279  138.6762  156.6736 H   0  0  0  0  0  0  0  0  0  0  0  0
  149.9111  137.0863  155.9190 H   0  0  0  0  0  0  0  0  0  0  0  0
  151.5303  136.4398  155.6804 H   0  0  0  0  0  0  0  0  0  0  0  0
  150.6204  137.0584  154.3058 H   0  0  0  0  0  0  0  0  0  0  0  0
  148.7604  141.4416  153.1698 H   0  0  0  0  0  0  0  0  0  0  0  0
  148.5369  142.2190  155.8149 H   0  0  0  0  0  0  0  0  0  0  0  0
  149.4110  141.3970  157.9569 H   0  0  0  0  0  0  0  0  0  0  0  0
  149.7943  139.6915  158.0027 H   0  0  0  0  0  0  0  0  0  0  0  0
  150.8273  142.4877  159.1306 H   0  0  0  0  0  0  0  0  0  0  0  0
  153.6725  142.4844  158.5147 H   0  0  0  0  0  0  0  0  0  0  0  0
  153.0680  141.9983  161.4298 H   0  0  0  0  0  0  0  0  0  0  0  0
  155.4618  141.2906  159.5742 H   0  0  0  0  0  0  0  0  0  0  0  0
  155.3729  141.0854  161.3998 H   0  0  0  0  0  0  0  0  0  0  0  0
  153.3867  139.5580  161.1200 H   0  0  0  0  0  0  0  0  0  0  0  0
  153.4856  139.7759  159.2964 H   0  0  0  0  0  0  0  0  0  0  0  0
  153.7411  144.3550  160.2477 H   0  0  0  0  0  0  0  0  0  0  0  0
  150.6507  143.9834  160.2080 H   0  0  0  0  0  0  0  0  0  0  0  0
  151.5975  145.3114  161.0574 H   0  0  0  0  0  0  0  0  0  0  0  0
  152.5674  146.0223  158.8429 H   0  0  0  0  0  0  0  0  0  0  0  0
  151.6124  144.6909  158.0075 H   0  0  0  0  0  0  0  0  0  0  0  0
  1  2  1  0  0  0  0
  1 20  1  0  0  0  0
  1 21  1  0  0  0  0
  1 22  1  0  0  0  0
  2  3  1  0  0  0  0
  2  4  1  0  0  0  0
  2 23  1  0  0  0  0
  3 24  1  0  0  0  0
  3 25  1  0  0  0  0
  3 26  1  0  0  0  0
  4  8  1  0  0  0  0
  4  5  2  0  0  0  0
  5  6  1  0  0  0  0
  6  7  2  0  0  0  0
  6 27  1  0  0  0  0
  7  8  1  0  0  0  0
  7 28  1  0  0  0  0
  8  9  1  0  0  0  0
  9 10  1  0  0  0  0
  9 29  1  0  0  0  0
  9 30  1  0  0  0  0
 10 11  2  0  0  0  0
 10 12  1  0  0  0  0
 12 13  1  0  0  0  0
 12 31  1  0  0  0  0
 13 14  1  0  0  0  0
 13 17  1  0  0  0  0
 13 32  1  0  0  0  0
 14 16  1  0  0  0  0
 14 15  1  0  0  0  0
 14 33  1  0  0  0  0
 15 16  1  0  0  0  0
 15 34  1  0  0  0  0
 15 35  1  0  0  0  0
 16 36  1  0  0  0  0
 16 37  1  0  0  0  0
 17 19  1  0  0  0  0
 17 18  1  0  0  0  0
 17 38  1  0  0  0  0
 18 19  1  0  0  0  0
 18 39  1  0  0  0  0
 18 40  1  0  0  0  0
 19 41  1  0  0  0  0
 19 42  1  0  0  0  0
M  END
> <s_m_source_file>
AV-unprocessed.smi

> <i_m_source_file_index>
2227

> <i_lp_mmshare_version>
43012

> <i_f3d_flags>
0

> <s_epik_input>
W0NIM11bQ0hdKFtDSDNdKWMxbltjSF1bY0hdbjFbQ0gyXUMoPU8pW05IXVtDSF0oW0NIXTJbQ0gyXVtDSDJdMilbQ0hdM1tDSDJdW0NIMl0z

> <s_epik_cmdline>
J2VwaWtfcHl0aG9uJywgJy1waCcsICc3LjAnLCAnLXRuJywgJzgnLCAnLW1hJywgJzIwMCcsICctbWV0YWxfYmluZGluZycsICctaW1hZScsICc8aW5maWxlLm1hZT4nLCAnLW9tYWUnLCAnPG91dGZpbGUubWFlPic=

> <r_lp_tautomer_probability>
1

> <r_epik_Ionization_Penalty>
0.615412

> <r_epik_Ionization_Penalty_Charging>
0.615412

> <r_epik_Ionization_Penalty_Neutral>
4.7269e-08

> <r_epik_State_Penalty>
0.630977

> <r_epik_Charging_Adjusted_Penalty>
1.24639

> <i_epik_Tot_Q>
0

> <i_epik_Tot_abs_Q>
0

> <r_epik_Metal_State_Penalty>
0.305199

> <b_epik_Metal_Only>
0

> <s_lp_Force_Field>
OPLS_2005

> <r_lp_Energy>
23.5493

> <b_lp_Chiralities_Consistent>
1

> <s_lp_Variant>
AV-unprocessed.smi:2227-2

> <Gold.Version>
5.8.1

> <Gold.Id.Protein>
6NUR|6NUR_protein|mol2

> <Gold.PLP.Fitness>
51.1101

> <Gold.PLP.PLP>
-43.3603

> <Gold.PLP.part.hbond>
-2.0000

> <Gold.PLP.part.metal>
0.0000

> <Gold.PLP.part.buried>
-1.1350

> <Gold.PLP.part.nonpolar>
-40.0111

> <Gold.PLP.part.repulsive>
1.8164

> <Gold.PLP.ligand.clash>
0.0000

> <Gold.PLP.ligand.torsion>
1.7338

> <Gold.PLP.Chemscore.Hbond>
1.6941

> <Gold.PLP.Chemscore.CHOScore>
1.3148

> <Gold.PLP.Chemscore.Metal>
0.0000

> <Gold.Chemscore.Hbonds>
donor molecule, donor type, donor heavy atom, donor atom, acceptor molecule, acceptor atom, score
      P1  H  7989  7998       L1     5  0.72
      P1  H  7997  8008       L1    11  0.81
      L1  C     6    27       P1  7957  0.48
      L1  C     7    28       P1  8028  0.99

> <Gold.PLP.Chemscore.Internal.Correction>
2.1906

> <Gold.Rescore>
     Score         DG    S(hbond)    S(metal)    S(lipo)     H(rot)  DE(clash)    DE(int)     intcor
     14.28     -17.41       0.89        0.00     113.00       1.66       0.03       3.10       ----

> <Gold.Chemscore.Fitness>
14.2801

> <Gold.Chemscore.DG>
-17.4071

> <Gold.Chemscore.ZeroCoef>
-5.4800

> <Gold.Chemscore.Hbond>
0.8872

> <Gold.Chemscore.Metal>
0.0000

> <Gold.Chemscore.Lipo>
112.9954

> <Gold.Chemscore.Internal_Hbond>
0.0000

> <Gold.Chemscore.DEClash>
0.0251

> <Gold.Chemscore.DEInternal>
3.1018

> <Gold.Chemscore.Rot>
1.6627

> <Gold.Chemscore.Internal.Correction>
   9.000000E+99

> <Gold.Chemscore.Hbonds>
donor molecule, donor type, donor heavy atom, donor atom, acceptor molecule, acceptor atom, score
      P1  H  7989  7998       L1     5  0.02
      P1  H  7997  8008       L1    11  0.78

> <Gold.Chemscore.Hbond.Weighted>
-2.9631

> <Gold.Chemscore.Metal.Weighted>
-0.0000

> <Gold.Chemscore.Lipo.Weighted>
-13.2205

> <Gold.Chemscore.Internal_Hbond.Weighted>
0.0000

> <Gold.Chemscore.DEClash.Weighted>
0.0251

> <Gold.Chemscore.DEInternal.Weighted>
3.1018

> <Gold.Chemscore.Rot.Weighted>
4.2565

> <Gold.Chemscore.Internal.Correction.Weighted>
   9.000000E+99

> <Gold.Protein.RotatedTorsions>
[ 6907 6896 6895 6894 ] final -104.31 input  -60.11 | X-H torsion
[ 7974 7965 7964 7962 ] final  -89.77 input  175.53 | X-H torsion
[ 8008 7997 7996 7995 ] final  -63.60 input   59.86 | X-H torsion
[ 10167 10162 10161 10158 ] final  -23.05 input  -65.29 | X-H torsion
[ 10718 10713 10712 10709 ] final   62.26 input   66.30 | X-H torsion
[ 10763 10752 10751 10750 ] final  -82.90 input  -60.55 | X-H torsion
[ 11005 11000 10999 10996 ] final -130.68 input  -57.11 | X-H torsion

> <Gold.Protein.ActiveResidues>
 VAL166  LYS551  ARG553  GLY616  TRP617  ASP618  TYR619  PRO620  LYS621  CYS622 
 ASP623  PHE694  ASN695  SER759  ASP760  ASP761  ALA762  ILE779  LEU786  VAL792 
 PHE793  MET794  SER795  GLU796  ALA797  LYS798  CYS799  TRP800  GLU811  SER814 

> <Gold.Protein.RotatedAtoms>
  150.7281  134.0297  159.3728 H   0  0  0  0  0  0  0  0  0  0  0  0  # atno 6907 bound_to 6896
  151.8266  135.0633  160.0441 H   0  0  0  0  0  0  0  0  0  0  0  0  # atno 6908 bound_to 6896
  152.2964  133.5576  159.5627 H   0  0  0  0  0  0  0  0  0  0  0  0  # atno 6909 bound_to 6896
  145.4354  140.9557  143.2105 H   0  0  0  0  0  0  0  0  0  0  0  0  # atno 7974 bound_to 7965
  154.4563  140.0971  156.6767 H   0  0  0  0  0  0  0  0  0  0  0  0  # atno 8008 bound_to 7997
  155.5127  140.3477  155.4373 H   0  0  0  0  0  0  0  0  0  0  0  0  # atno 8009 bound_to 7997
  156.0784  140.1367  156.9731 H   0  0  0  0  0  0  0  0  0  0  0  0  # atno 8010 bound_to 7997
  140.7287  143.4478  151.0560 H   0  0  0  0  0  0  0  0  0  0  0  0  # atno 10167 bound_to 10162
  157.5888  130.9040  149.9565 H   0  0  0  0  0  0  0  0  0  0  0  0  # atno 10718 bound_to 10713
  154.5813  135.5575  153.7188 H   0  0  0  0  0  0  0  0  0  0  0  0  # atno 10763 bound_to 10752
  153.0082  135.6320  154.1979 H   0  0  0  0  0  0  0  0  0  0  0  0  # atno 10764 bound_to 10752
  154.1919  135.2882  155.2999 H   0  0  0  0  0  0  0  0  0  0  0  0  # atno 10765 bound_to 10752
  140.9324  134.1301  157.4223 H   0  0  0  0  0  0  0  0  0  0  0  0  # atno 11005 bound_to 11000
  144.8156  139.5883  143.7010 LP  0  0  0  0  0  0  0  0  0  0  0  0  # atno 17320 bound_to 7965
  146.2585  139.6356  142.9378 LP  0  0  0  0  0  0  0  0  0  0  0  0  # atno 17321 bound_to 7965
  139.8152  143.7896  152.3174 LP  0  0  0  0  0  0  0  0  0  0  0  0  # atno 17342 bound_to 10162
  139.7959  144.7392  150.9890 LP  0  0  0  0  0  0  0  0  0  0  0  0  # atno 17343 bound_to 10162
  156.0940  130.3661  150.0342 LP  0  0  0  0  0  0  0  0  0  0  0  0  # atno 17370 bound_to 10713
  156.8468  130.9445  151.3628 LP  0  0  0  0  0  0  0  0  0  0  0  0  # atno 17371 bound_to 10713
  139.8799  135.0009  156.6040 LP  0  0  0  0  0  0  0  0  0  0  0  0  # atno 17394 bound_to 11000
  140.7844  133.8633  155.8594 LP  0  0  0  0  0  0  0  0  0  0  0  0  # atno 17395 bound_to 11000

$$$$
