AV-unprocessed.smi:21|AV-procd|sdf|158|dock7
  -GOLD-   2262015393D 1   1.00000     0.00000
 Structure written by MMmdl.
 61 64  0  0  0  0  0  0  0  0  1 V2000
  151.4377  145.2547  160.2839 C   0  0  0  0  0  0  0  0  0  0  0  0
  150.8146  144.1629  159.6265 O   0  0  0  0  0  0  0  0  0  0  0  0
  151.7231  143.3506  158.8966 C   0  0  2  0  0  0  0  0  0  0  0  0
  151.0539  142.1144  158.2675 C   0  0  0  0  0  0  0  0  0  0  0  0
  151.7709  140.9150  158.9080 C   0  0  1  0  0  0  0  0  0  0  0  0
  151.8401  139.6753  157.9881 C   0  0  0  0  0  0  0  0  0  0  0  0
  150.5715  138.9516  157.9019 N   0  0  0  0  0  0  0  0  0  0  0  0
  150.3652  137.8246  158.8104 C   0  0  0  0  0  0  0  0  0  0  0  0
  149.7972  139.0436  156.7801 C   0  0  0  0  0  0  0  0  0  0  0  0
  150.1700  139.9218  155.8091 N   0  0  0  0  0  0  0  0  0  0  0  0
  149.4467  140.0675  154.6968 C   0  0  0  0  0  0  0  0  0  0  0  0
  148.3258  139.4394  154.3451 N   0  0  0  0  0  0  0  0  0  0  0  0
  147.9423  138.5463  155.3001 C   0  0  0  0  0  0  0  0  0  0  0  0
  148.6093  138.2850  156.5340 C   0  0  0  0  0  0  0  0  0  0  0  0
  147.9109  137.3022  157.2297 N   0  0  0  0  0  0  0  0  0  0  0  0
  146.8981  137.0087  156.4632 C   0  0  0  0  0  0  0  0  0  0  0  0
  146.8451  137.7029  155.2785 N   0  0  0  0  0  0  0  0  0  0  0  0
  145.8351  137.5657  154.2428 C   0  0  0  0  0  0  0  0  0  0  0  0
  144.8962  136.3554  154.4672 C   0  0  1  0  0  0  0  0  0  0  0  0
  143.8534  136.6680  155.5660 C   0  0  0  0  0  0  0  0  0  0  0  0
  143.4018  138.0018  155.4553 O   0  0  0  0  0  0  0  0  0  0  0  0
  144.2670  135.8341  153.1443 C   0  0  2  0  0  0  0  0  0  0  0  0
  143.4418  134.5547  153.2595 C   0  0  0  0  0  0  0  0  0  0  0  0
  143.6608  133.8920  151.9068 C   0  0  0  0  0  0  0  0  0  0  0  0
  145.0257  134.1699  151.6467 O   0  0  0  0  0  0  0  0  0  0  0  0
  145.2713  135.5198  152.0203 C   0  0  0  0  0  0  0  0  0  0  0  0
  153.0640  141.4317  159.3250 N   0  0  0  0  0  0  0  0  0  0  0  0
  153.7414  140.5937  160.3058 C   0  0  0  0  0  0  0  0  0  0  0  0
  152.7565  142.7471  159.8510 C   0  0  0  0  0  0  0  0  0  0  0  0
  152.2394  143.9325  158.1308 H   0  0  0  0  0  0  0  0  0  0  0  0
  151.2124  140.6527  159.8080 H   0  0  0  0  0  0  0  0  0  0  0  0
  150.6865  145.8333  160.8211 H   0  0  0  0  0  0  0  0  0  0  0  0
  151.9316  145.9230  159.5781 H   0  0  0  0  0  0  0  0  0  0  0  0
  152.1748  144.9080  161.0091 H   0  0  0  0  0  0  0  0  0  0  0  0
  149.9804  142.0700  158.4543 H   0  0  0  0  0  0  0  0  0  0  0  0
  151.2019  142.1307  157.1869 H   0  0  0  0  0  0  0  0  0  0  0  0
  152.1364  139.9941  156.9883 H   0  0  0  0  0  0  0  0  0  0  0  0
  152.6267  138.9906  158.2970 H   0  0  0  0  0  0  0  0  0  0  0  0
  149.3261  137.7777  159.1388 H   0  0  0  0  0  0  0  0  0  0  0  0
  150.9853  137.9172  159.7021 H   0  0  0  0  0  0  0  0  0  0  0  0
  150.6188  136.8825  158.3231 H   0  0  0  0  0  0  0  0  0  0  0  0
  149.8196  140.7918  153.9877 H   0  0  0  0  0  0  0  0  0  0  0  0
  146.1620  136.2673  156.7385 H   0  0  0  0  0  0  0  0  0  0  0  0
  145.2627  138.4936  154.2189 H   0  0  0  0  0  0  0  0  0  0  0  0
  146.3301  137.4877  153.2743 H   0  0  0  0  0  0  0  0  0  0  0  0
  145.5137  135.5379  154.8431 H   0  0  0  0  0  0  0  0  0  0  0  0
  142.9933  136.0019  155.4977 H   0  0  0  0  0  0  0  0  0  0  0  0
  144.2724  136.5438  156.5639 H   0  0  0  0  0  0  0  0  0  0  0  0
  143.4832  138.2730  154.5535 H   0  0  0  0  0  0  0  0  0  0  0  0
  143.6115  136.6076  152.7425 H   0  0  0  0  0  0  0  0  0  0  0  0
  143.8217  133.8980  154.0409 H   0  0  0  0  0  0  0  0  0  0  0  0
  142.3891  134.7448  153.4673 H   0  0  0  0  0  0  0  0  0  0  0  0
  143.4626  132.8201  151.9234 H   0  0  0  0  0  0  0  0  0  0  0  0
  143.0367  134.3506  151.1379 H   0  0  0  0  0  0  0  0  0  0  0  0
  145.0904  136.1655  151.1598 H   0  0  0  0  0  0  0  0  0  0  0  0
  146.3130  135.6529  152.3112 H   0  0  0  0  0  0  0  0  0  0  0  0
  154.6774  141.0551  160.6218 H   0  0  0  0  0  0  0  0  0  0  0  0
  153.9820  139.6168  159.8872 H   0  0  0  0  0  0  0  0  0  0  0  0
  153.1231  140.4406  161.1914 H   0  0  0  0  0  0  0  0  0  0  0  0
  153.6501  143.3656  159.9405 H   0  0  0  0  0  0  0  0  0  0  0  0
  152.3182  142.6531  160.8464 H   0  0  0  0  0  0  0  0  0  0  0  0
  1  2  1  0  0  0  0
  1 32  1  0  0  0  0
  1 33  1  0  0  0  0
  1 34  1  0  0  0  0
  2  3  1  0  0  0  0
  3 30  1  0  0  0  0
  3 29  1  0  0  0  0
  3  4  1  0  0  0  0
  4  5  1  0  0  0  0
  4 35  1  0  0  0  0
  4 36  1  0  0  0  0
  5 31  1  0  0  0  0
  5  6  1  0  0  0  0
  5 27  1  0  0  0  0
  6  7  1  0  0  0  0
  6 37  1  0  0  0  0
  6 38  1  0  0  0  0
  7  8  1  0  0  0  0
  7  9  1  0  0  0  0
  8 39  1  0  0  0  0
  8 40  1  0  0  0  0
  8 41  1  0  0  0  0
  9 14  1  0  0  0  0
  9 10  2  0  0  0  0
 10 11  1  0  0  0  0
 11 12  2  0  0  0  0
 11 42  1  0  0  0  0
 12 13  1  0  0  0  0
 13 17  1  0  0  0  0
 13 14  2  0  0  0  0
 14 15  1  0  0  0  0
 15 16  2  0  0  0  0
 16 17  1  0  0  0  0
 16 43  1  0  0  0  0
 17 18  1  0  0  0  0
 18 19  1  0  0  0  0
 18 44  1  0  0  0  0
 18 45  1  0  0  0  0
 19 20  1  0  0  0  0
 19 22  1  0  0  0  0
 19 46  1  0  0  0  0
 20 21  1  0  0  0  0
 20 47  1  0  0  0  0
 20 48  1  0  0  0  0
 21 49  1  0  0  0  0
 22 26  1  0  0  0  0
 22 23  1  0  0  0  0
 22 50  1  0  0  0  0
 23 24  1  0  0  0  0
 23 51  1  0  0  0  0
 23 52  1  0  0  0  0
 24 25  1  0  0  0  0
 24 53  1  0  0  0  0
 24 54  1  0  0  0  0
 25 26  1  0  0  0  0
 26 55  1  0  0  0  0
 26 56  1  0  0  0  0
 27 28  1  0  0  0  0
 27 29  1  0  0  0  0
 28 57  1  0  0  0  0
 28 58  1  0  0  0  0
 28 59  1  0  0  0  0
 29 60  1  0  0  0  0
 29 61  1  0  0  0  0
M  END
> <s_m_source_file>
AV-unprocessed.smi

> <i_m_source_file_index>
21

> <i_lp_mmshare_version>
43012

> <i_f3d_flags>
0

> <s_epik_input>
W0NIM11PW0NASF0xW0NIMl1bQ0BIXShOKFtDSDNdKVtDSDJdMSlbQ0gyXU4oW0NIM10pYyhuW2NIXW4yKWMoYzIzKW5bY0hdbjNbQ0gyXVtDQEhdKFtDSDJdW09IXSlbQ0BASF00W0NIMl1bQ0gyXU9bQ0gyXTQ=

> <s_epik_cmdline>
J2VwaWtfcHl0aG9uJywgJy1waCcsICc3LjAnLCAnLXRuJywgJzgnLCAnLW1hJywgJzIwMCcsICctbWV0YWxfYmluZGluZycsICctaW1hZScsICc8aW5maWxlLm1hZT4nLCAnLW9tYWUnLCAnPG91dGZpbGUubWFlPic=

> <r_lp_tautomer_probability>
1

> <r_epik_Ionization_Penalty>
2.17574

> <r_epik_Ionization_Penalty_Charging>
0

> <r_epik_Ionization_Penalty_Neutral>
2.17574

> <r_epik_State_Penalty>
2.31336

> <r_epik_Charging_Adjusted_Penalty>
2.31336

> <i_epik_Tot_Q>
0

> <i_epik_Tot_abs_Q>
0

> <r_epik_Metal_State_Penalty>
2.31025

> <b_epik_Metal_Only>
0

> <s_lp_Force_Field>
OPLS_2005

> <r_lp_Energy>
69.5253

> <b_lp_Chiralities_Consistent>
1

> <s_lp_Variant>
AV-unprocessed.smi:21-38

> <Gold.Version>
5.8.1

> <Gold.Id.Protein>
6NUR|6NUR_protein|mol2

> <Gold.PLP.Fitness>
39.9208

> <Gold.PLP.PLP>
-37.6672

> <Gold.PLP.part.hbond>
-1.0000

> <Gold.PLP.part.metal>
0.0000

> <Gold.PLP.part.buried>
-7.1866

> <Gold.PLP.part.nonpolar>
-30.5039

> <Gold.PLP.part.repulsive>
0.8234

> <Gold.PLP.ligand.clash>
0.0000

> <Gold.PLP.ligand.torsion>
1.0517

> <Gold.PLP.Chemscore.Hbond>
0.7040

> <Gold.PLP.Chemscore.CHOScore>
0.5590

> <Gold.PLP.Chemscore.Metal>
0.0000

> <Gold.PLP.Chemscore.Internal.Correction>
0.5680

> <Gold.Rescore>
     Score         DG    S(hbond)    S(metal)    S(lipo)     H(rot)  DE(clash)    DE(int)     intcor
      8.67     -10.99       0.81        0.00      89.58       3.00       0.32       2.00       ----

> <Gold.Chemscore.Fitness>
8.6706

> <Gold.Chemscore.DG>
-10.9900

> <Gold.Chemscore.ZeroCoef>
-5.4800

> <Gold.Chemscore.Hbond>
0.8135

> <Gold.Chemscore.Metal>
0.0000

> <Gold.Chemscore.Lipo>
89.5807

> <Gold.Chemscore.Internal_Hbond>
0.0000

> <Gold.Chemscore.DEClash>
0.3182

> <Gold.Chemscore.DEInternal>
2.0011

> <Gold.Chemscore.Rot>
3.0031

> <Gold.Chemscore.Internal.Correction>
   9.000000E+99

> <Gold.Chemscore.Hbond.Weighted>
-2.7171

> <Gold.Chemscore.Metal.Weighted>
-0.0000

> <Gold.Chemscore.Lipo.Weighted>
-10.4809

> <Gold.Chemscore.Internal_Hbond.Weighted>
0.0000

> <Gold.Chemscore.DEClash.Weighted>
0.3182

> <Gold.Chemscore.DEInternal.Weighted>
2.0011

> <Gold.Chemscore.Rot.Weighted>
7.6880

> <Gold.Chemscore.Internal.Correction.Weighted>
   9.000000E+99

> <Gold.Protein.RotatedTorsions>
[ 6907 6896 6895 6894 ] final -118.44 input  -60.11 | X-H torsion
[ 7974 7965 7964 7962 ] final   61.74 input  175.53 | X-H torsion
[ 8008 7997 7996 7995 ] final  138.79 input   59.86 | X-H torsion
[ 10167 10162 10161 10158 ] final   16.29 input  -65.29 | X-H torsion
[ 10718 10713 10712 10709 ] final   33.56 input   66.30 | X-H torsion
[ 10763 10752 10751 10750 ] final   37.80 input  -60.55 | X-H torsion
[ 11005 11000 10999 10996 ] final  -80.54 input  -57.11 | X-H torsion

> <Gold.Protein.ActiveResidues>
 VAL166  LYS551  ARG553  GLY616  TRP617  ASP618  TYR619  PRO620  LYS621  CYS622 
 ASP623  PHE694  ASN695  SER759  ASP760  ASP761  ALA762  ILE779  LEU786  VAL792 
 PHE793  MET794  SER795  GLU796  ALA797  LYS798  CYS799  TRP800  GLU811  SER814 

> <Gold.Protein.RotatedAtoms>
  150.8220  133.8236  159.3134 H   0  0  0  0  0  0  0  0  0  0  0  0  # atno 6907 bound_to 6896
  151.5992  135.1047  160.0066 H   0  0  0  0  0  0  0  0  0  0  0  0  # atno 6908 bound_to 6896
  152.4308  133.7234  159.6603 H   0  0  0  0  0  0  0  0  0  0  0  0  # atno 6909 bound_to 6896
  145.8813  139.3445  143.0704 H   0  0  0  0  0  0  0  0  0  0  0  0  # atno 7974 bound_to 7965
  156.2995  140.2384  156.4132 H   0  0  0  0  0  0  0  0  0  0  0  0  # atno 8008 bound_to 7997
  154.8422  140.0428  157.1569 H   0  0  0  0  0  0  0  0  0  0  0  0  # atno 8009 bound_to 7997
  154.9090  140.2987  155.5280 H   0  0  0  0  0  0  0  0  0  0  0  0  # atno 8010 bound_to 7997
  140.5808  143.8985  150.6788 H   0  0  0  0  0  0  0  0  0  0  0  0  # atno 10167 bound_to 10162
  157.2994  130.7343  149.6658 H   0  0  0  0  0  0  0  0  0  0  0  0  # atno 10718 bound_to 10713
  153.0024  135.6267  154.2203 H   0  0  0  0  0  0  0  0  0  0  0  0  # atno 10763 bound_to 10752
  154.1946  135.2807  155.3012 H   0  0  0  0  0  0  0  0  0  0  0  0  # atno 10764 bound_to 10752
  154.5732  135.5670  153.7174 H   0  0  0  0  0  0  0  0  0  0  0  0  # atno 10765 bound_to 10752
  141.1668  133.7155  156.8288 H   0  0  0  0  0  0  0  0  0  0  0  0  # atno 11005 bound_to 11000
  145.9020  140.9236  143.0498 LP  0  0  0  0  0  0  0  0  0  0  0  0  # atno 17320 bound_to 7965
  144.6727  140.1045  143.7459 LP  0  0  0  0  0  0  0  0  0  0  0  0  # atno 17321 bound_to 7965
  140.2484  143.3611  152.1427 LP  0  0  0  0  0  0  0  0  0  0  0  0  # atno 17342 bound_to 10162
  139.5168  144.6983  151.5566 LP  0  0  0  0  0  0  0  0  0  0  0  0  # atno 17343 bound_to 10162
  155.9671  130.4284  150.4789 LP  0  0  0  0  0  0  0  0  0  0  0  0  # atno 17370 bound_to 10713
  157.2767  131.0598  151.2225 LP  0  0  0  0  0  0  0  0  0  0  0  0  # atno 17371 bound_to 10713
  140.2066  134.8858  157.3228 LP  0  0  0  0  0  0  0  0  0  0  0  0  # atno 17394 bound_to 11000
  140.2131  134.4114  155.7603 LP  0  0  0  0  0  0  0  0  0  0  0  0  # atno 17395 bound_to 11000

$$$$
