AV-unprocessed.smi:1622|AV-procd|sdf|6499|dock7
  -GOLD-   22720 7163D 1   1.00000     0.00000
 Structure written by MMmdl.
 40 41  0  0  0  0  0  0  0  0  3 V2000
  145.4916  136.2029  152.3069 C   0  0  0  0  0  0  0  0  0  0  0  0
  146.2190  135.1609  153.1709 C   0  0  0  0  0  0  0  0  0  0  0  0
  145.2830  134.1780  153.9265 C   0  0  2  0  0  0  0  0  0  0  0  0
  145.9860  133.5003  155.1291 C   0  0  0  0  0  0  0  0  0  0  0  0
  146.7806  134.4501  155.8983 N   0  0  0  0  0  0  0  0  0  0  0  0
  146.8083  134.5350  157.2342 C   0  0  0  0  0  0  0  0  0  0  0  0
  146.1098  133.7788  157.9129 O   0  0  0  0  0  0  0  0  0  0  0  0
  147.6463  135.4886  157.6985 N   0  5  0  0  0  0  0  0  0  0  0  0
  147.5830  135.8696  158.9851 C   0  0  0  0  0  0  0  0  0  0  0  0
  147.7144  137.1489  159.3634 N   0  0  0  0  0  0  0  0  0  0  0  0
  147.6216  137.3226  160.7369 N   0  0  0  0  0  0  0  0  0  0  0  0
  147.4302  136.1672  161.3781 C   0  0  0  0  0  0  0  0  0  0  0  0
  147.2992  136.0814  162.8601 C   0  0  0  0  0  0  0  0  0  0  0  0
  147.3497  134.7582  160.3341 S   0  0  0  0  0  0  0  0  0  0  0  0
  144.6893  133.1726  152.9968 N   0  3  0  0  0  0  0  0  0  0  0  0
  143.8597  133.7167  151.8998 C   0  0  0  0  0  0  0  0  0  0  0  0
  143.7867  132.5970  150.8682 C   0  0  0  0  0  0  0  0  0  0  0  0
  145.1779  131.9780  150.9346 C   0  0  0  0  0  0  0  0  0  0  0  0
  145.6559  132.2348  152.3706 C   0  0  0  0  0  0  0  0  0  0  0  0
  146.2081  136.8758  151.8355 H   0  0  0  0  0  0  0  0  0  0  0  0
  144.8108  136.8117  152.9016 H   0  0  0  0  0  0  0  0  0  0  0  0
  144.9160  135.7327  151.5095 H   0  0  0  0  0  0  0  0  0  0  0  0
  146.9036  134.5997  152.5343 H   0  0  0  0  0  0  0  0  0  0  0  0
  146.8681  135.6817  153.8741 H   0  0  0  0  0  0  0  0  0  0  0  0
  144.4551  134.7643  154.3288 H   0  0  0  0  0  0  0  0  0  0  0  0
  145.2567  133.0688  155.8151 H   0  0  0  0  0  0  0  0  0  0  0  0
  146.6147  132.6788  154.7819 H   0  0  0  0  0  0  0  0  0  0  0  0
  147.3641  135.0908  155.3804 H   0  0  0  0  0  0  0  0  0  0  0  0
  148.2259  136.4018  163.3364 H   0  0  0  0  0  0  0  0  0  0  0  0
  147.0859  135.0565  163.1643 H   0  0  0  0  0  0  0  0  0  0  0  0
  146.4870  136.7233  163.2023 H   0  0  0  0  0  0  0  0  0  0  0  0
  142.8695  134.0162  152.2446 H   0  0  0  0  0  0  0  0  0  0  0  0
  144.3501  134.5887  151.4635 H   0  0  0  0  0  0  0  0  0  0  0  0
  143.0387  131.8628  151.1704 H   0  0  0  0  0  0  0  0  0  0  0  0
  143.5269  132.9537  149.8710 H   0  0  0  0  0  0  0  0  0  0  0  0
  145.1741  130.9188  150.6762 H   0  0  0  0  0  0  0  0  0  0  0  0
  145.8387  132.4870  150.2319 H   0  0  0  0  0  0  0  0  0  0  0  0
  146.6646  132.6497  152.3493 H   0  0  0  0  0  0  0  0  0  0  0  0
  145.6881  131.3119  152.9506 H   0  0  0  0  0  0  0  0  0  0  0  0
  144.0657  132.6009  153.5486 H   0  0  0  0  0  0  0  0  0  0  0  0
  1  2  1  0  0  0  0
  1 20  1  0  0  0  0
  1 21  1  0  0  0  0
  1 22  1  0  0  0  0
  2  3  1  0  0  0  0
  2 23  1  0  0  0  0
  2 24  1  0  0  0  0
  3  4  1  0  0  0  0
  3 15  1  0  0  0  0
  3 25  1  0  0  0  0
  4  5  1  0  0  0  0
  4 26  1  0  0  0  0
  4 27  1  0  0  0  0
  5  6  1  0  0  0  0
  5 28  1  0  0  0  0
  6  7  2  0  0  0  0
  6  8  1  0  0  0  0
  8  9  1  0  0  0  0
  9 14  1  0  0  0  0
  9 10  2  0  0  0  0
 10 11  1  0  0  0  0
 11 12  2  0  0  0  0
 12 13  1  0  0  0  0
 12 14  1  0  0  0  0
 13 29  1  0  0  0  0
 13 30  1  0  0  0  0
 13 31  1  0  0  0  0
 15 19  1  0  0  0  0
 15 16  1  0  0  0  0
 15 40  1  0  0  0  0
 16 17  1  0  0  0  0
 16 32  1  0  0  0  0
 16 33  1  0  0  0  0
 17 18  1  0  0  0  0
 17 34  1  0  0  0  0
 17 35  1  0  0  0  0
 18 19  1  0  0  0  0
 18 36  1  0  0  0  0
 18 37  1  0  0  0  0
 19 38  1  0  0  0  0
 19 39  1  0  0  0  0
M  CHG  1   8  -1
M  CHG  1  15   1
M  END
> <s_m_source_file>
AV-unprocessed.smi

> <i_m_source_file_index>
1622

> <i_lp_mmshare_version>
43012

> <i_f3d_flags>
0

> <s_epik_input>
W0NIMl0xW0NIMl1bQ0gyXVtDSDJdTjFbQ0BIXShbQ0gyXVtDSDNdKVtDSDJdW05IXUMoPU8pW05IXWMybm5jKHMyKVtDSDNd

> <s_epik_cmdline>
J2VwaWtfcHl0aG9uJywgJy1waCcsICc3LjAnLCAnLXRuJywgJzgnLCAnLW1hJywgJzIwMCcsICctbWV0YWxfYmluZGluZycsICctaW1hZScsICc8aW5maWxlLm1hZT4nLCAnLW9tYWUnLCAnPG91dGZpbGUubWFlPic=

> <r_lp_tautomer_probability>
1

> <r_epik_Ionization_Penalty>
4.34497

> <r_epik_Ionization_Penalty_Charging>
4.23453

> <r_epik_Ionization_Penalty_Neutral>
0.110433

> <r_epik_State_Penalty>
4.23293

> <r_epik_Charging_Adjusted_Penalty>
8.46746

> <i_epik_Tot_Q>
0

> <i_epik_Tot_abs_Q>
2

> <r_epik_Metal_State_Penalty>
0.701092

> <b_epik_Metal_Only>
1

> <s_lp_Force_Field>
OPLS_2005

> <r_lp_Energy>
26.4527

> <b_lp_Chiralities_Consistent>
1

> <s_lp_Variant>
AV-unprocessed.smi:1622-3

> <Gold.Version>
5.8.1

> <Gold.Id.Protein>
6NUR|6NUR_protein|mol2

> <Gold.PLP.Fitness>
36.7124

> <Gold.PLP.PLP>
-26.5734

> <Gold.PLP.part.hbond>
-3.0000

> <Gold.PLP.part.metal>
0.0000

> <Gold.PLP.part.buried>
-3.9793

> <Gold.PLP.part.nonpolar>
-19.5015

> <Gold.PLP.part.repulsive>
0.0000

> <Gold.PLP.ligand.clash>
0.0000

> <Gold.PLP.ligand.torsion>
0.7118

> <Gold.PLP.Chemscore.Hbond>
3.7600

> <Gold.PLP.Chemscore.CHOScore>
0.0000

> <Gold.PLP.Chemscore.Metal>
0.0000

> <Gold.Chemscore.Hbonds>
donor molecule, donor type, donor heavy atom, donor atom, acceptor molecule, acceptor atom, score
      L1  H    15    40       P1 10957  1.98
      P1  H  6931  6943       L1    11  0.72
      P1  H  6934  6947       L1    11  0.94

> <Gold.PLP.Chemscore.Internal.Correction>
0.2826

> <Gold.Rescore>
     Score         DG    S(hbond)    S(metal)    S(lipo)     H(rot)  DE(clash)    DE(int)     intcor
     12.34     -14.46       1.96        0.00      58.71       1.73       0.00       2.12       ----

> <Gold.Chemscore.Fitness>
12.3429

> <Gold.Chemscore.DG>
-14.4615

> <Gold.Chemscore.ZeroCoef>
-5.4800

> <Gold.Chemscore.Hbond>
1.9621

> <Gold.Chemscore.Metal>
0.0000

> <Gold.Chemscore.Lipo>
58.7105

> <Gold.Chemscore.Internal_Hbond>
0.0000

> <Gold.Chemscore.DEClash>
0.0000

> <Gold.Chemscore.DEInternal>
2.1186

> <Gold.Chemscore.Rot>
1.7348

> <Gold.Chemscore.Internal.Correction>
   9.000000E+99

> <Gold.Chemscore.Hbonds>
donor molecule, donor type, donor heavy atom, donor atom, acceptor molecule, acceptor atom, score
      L1  H    15    40       P1 10957  0.41
      P1  H  6931  6943       L1    11  0.26
      P1  H  6934  6947       L1    11  0.41

> <Gold.Chemscore.Hbond.Weighted>
-6.5535

> <Gold.Chemscore.Metal.Weighted>
-0.0000

> <Gold.Chemscore.Lipo.Weighted>
-6.8691

> <Gold.Chemscore.Internal_Hbond.Weighted>
0.0000

> <Gold.Chemscore.DEClash.Weighted>
0.0000

> <Gold.Chemscore.DEInternal.Weighted>
2.1186

> <Gold.Chemscore.Rot.Weighted>
4.4411

> <Gold.Chemscore.Internal.Correction.Weighted>
   9.000000E+99

> <Gold.Protein.RotatedTorsions>
[ 6907 6896 6895 6894 ] final  164.78 input  -60.11 | X-H torsion
[ 7974 7965 7964 7962 ] final  138.14 input  175.53 | X-H torsion
[ 8008 7997 7996 7995 ] final -163.99 input   59.86 | X-H torsion
[ 10167 10162 10161 10158 ] final  -87.81 input  -65.29 | X-H torsion
[ 10718 10713 10712 10709 ] final  -84.86 input   66.30 | X-H torsion
[ 10763 10752 10751 10750 ] final   72.85 input  -60.55 | X-H torsion
[ 11005 11000 10999 10996 ] final  149.31 input  -57.11 | X-H torsion

> <Gold.Protein.ActiveResidues>
 VAL166  LYS551  ARG553  GLY616  TRP617  ASP618  TYR619  PRO620  LYS621  CYS622 
 ASP623  PHE694  ASN695  SER759  ASP760  ASP761  ALA762  ILE779  LEU786  VAL792 
 PHE793  MET794  SER795  GLU796  ALA797  LYS798  CYS799  TRP800  GLU811  SER814 

> <Gold.Protein.RotatedAtoms>
  151.9045  133.3546  159.3841 H   0  0  0  0  0  0  0  0  0  0  0  0  # atno 6907 bound_to 6896
  150.7072  134.4794  159.5472 H   0  0  0  0  0  0  0  0  0  0  0  0  # atno 6908 bound_to 6896
  152.2389  134.8248  160.0514 H   0  0  0  0  0  0  0  0  0  0  0  0  # atno 6909 bound_to 6896
  144.9401  139.4941  143.5576 H   0  0  0  0  0  0  0  0  0  0  0  0  # atno 7974 bound_to 7965
  155.8292  140.0931  157.1803 H   0  0  0  0  0  0  0  0  0  0  0  0  # atno 8008 bound_to 7997
  154.3979  140.1422  156.3654 H   0  0  0  0  0  0  0  0  0  0  0  0  # atno 8009 bound_to 7997
  155.8184  140.3447  155.5502 H   0  0  0  0  0  0  0  0  0  0  0  0  # atno 8010 bound_to 7997
  140.3808  143.2750  151.9386 H   0  0  0  0  0  0  0  0  0  0  0  0  # atno 10167 bound_to 10162
  156.0002  130.4712  150.4474 H   0  0  0  0  0  0  0  0  0  0  0  0  # atno 10718 bound_to 10713
  153.0484  135.5085  154.7805 H   0  0  0  0  0  0  0  0  0  0  0  0  # atno 10763 bound_to 10752
  154.6687  135.2949  154.9774 H   0  0  0  0  0  0  0  0  0  0  0  0  # atno 10764 bound_to 10752
  154.0600  135.6692  153.4863 H   0  0  0  0  0  0  0  0  0  0  0  0  # atno 10765 bound_to 10752
  140.1034  134.8969  157.1830 H   0  0  0  0  0  0  0  0  0  0  0  0  # atno 11005 bound_to 11000
  146.3282  139.8414  142.8890 LP  0  0  0  0  0  0  0  0  0  0  0  0  # atno 17320 bound_to 7965
  145.3005  141.0193  143.3612 LP  0  0  0  0  0  0  0  0  0  0  0  0  # atno 17321 bound_to 7965
  139.4795  144.5820  151.7916 LP  0  0  0  0  0  0  0  0  0  0  0  0  # atno 17342 bound_to 10162
  140.4939  144.1269  150.5956 LP  0  0  0  0  0  0  0  0  0  0  0  0  # atno 17343 bound_to 10162
  157.2510  131.0546  151.2379 LP  0  0  0  0  0  0  0  0  0  0  0  0  # atno 17370 bound_to 10713
  157.3528  130.7091  149.6452 LP  0  0  0  0  0  0  0  0  0  0  0  0  # atno 17371 bound_to 10713
  140.3189  134.2939  155.7250 LP  0  0  0  0  0  0  0  0  0  0  0  0  # atno 17394 bound_to 11000
  141.2112  133.7697  156.9882 LP  0  0  0  0  0  0  0  0  0  0  0  0  # atno 17395 bound_to 11000

$$$$
