AV-unprocessed.smi:2840|AV-procd|sdf|10934|dock5
  -GOLD-   2272015383D 1   1.00000     0.00000
 Structure written by MMmdl.
 36 37  0  0  0  0  0  0  0  0  1 V2000
  146.9970  141.8319  154.8864 C   0  0  0  0  0  0  0  0  0  0  0  0
  147.9881  140.6785  155.1236 C   0  0  1  0  0  0  0  0  0  0  0  0
  147.5646  139.4331  154.3183 C   0  0  0  0  0  0  0  0  0  0  0  0
  148.5250  138.2546  154.5360 C   0  0  0  0  0  0  0  0  0  0  0  0
  149.9661  138.6486  154.1867 C   0  0  0  0  0  0  0  0  0  0  0  0
  150.4100  139.8764  154.9944 C   0  0  0  0  0  0  0  0  0  0  0  0
  149.4531  141.0688  154.7959 C   0  0  2  0  0  0  0  0  0  0  0  0
  149.9013  142.1737  155.6428 N   0  0  0  0  0  0  0  0  0  0  0  0
  150.3543  142.0697  156.9013 C   0  0  0  0  0  0  0  0  0  0  0  0
  150.4586  141.0008  157.5037 O   0  0  0  0  0  0  0  0  0  0  0  0
  150.6728  143.2770  157.3998 N   0  0  0  0  0  0  0  0  0  0  0  0
  151.1999  143.5879  158.6816 C   0  0  0  0  0  0  0  0  0  0  0  0
  151.2100  144.9634  159.0061 C   0  0  0  0  0  0  0  0  0  0  0  0
  151.7166  145.3772  160.2533 C   0  0  0  0  0  0  0  0  0  0  0  0
  152.2003  144.4038  161.1455 C   0  0  0  0  0  0  0  0  0  0  0  0
  152.1547  143.0559  160.7444 C   0  0  0  0  0  0  0  0  0  0  0  0
  151.6701  142.6572  159.5494 N   0  0  0  0  0  0  0  0  0  0  0  0
  147.0310  142.1739  153.8514 H   0  0  0  0  0  0  0  0  0  0  0  0
  147.2115  142.6873  155.5267 H   0  0  0  0  0  0  0  0  0  0  0  0
  145.9743  141.5200  155.0996 H   0  0  0  0  0  0  0  0  0  0  0  0
  147.9370  140.4174  156.1819 H   0  0  0  0  0  0  0  0  0  0  0  0
  146.5545  139.1332  154.5997 H   0  0  0  0  0  0  0  0  0  0  0  0
  147.5273  139.6774  153.2557 H   0  0  0  0  0  0  0  0  0  0  0  0
  148.4749  137.9275  155.5752 H   0  0  0  0  0  0  0  0  0  0  0  0
  148.2145  137.4043  153.9281 H   0  0  0  0  0  0  0  0  0  0  0  0
  150.6381  137.8124  154.3812 H   0  0  0  0  0  0  0  0  0  0  0  0
  150.0398  138.8646  153.1201 H   0  0  0  0  0  0  0  0  0  0  0  0
  150.4583  139.6119  156.0518 H   0  0  0  0  0  0  0  0  0  0  0  0
  151.4223  140.1583  154.7017 H   0  0  0  0  0  0  0  0  0  0  0  0
  149.5027  141.3589  153.7444 H   0  0  0  0  0  0  0  0  0  0  0  0
  149.8574  143.0958  155.2346 H   0  0  0  0  0  0  0  0  0  0  0  0
  150.5241  144.0667  156.7894 H   0  0  0  0  0  0  0  0  0  0  0  0
  150.8341  145.6981  158.3087 H   0  0  0  0  0  0  0  0  0  0  0  0
  151.7337  146.4237  160.5193 H   0  0  0  0  0  0  0  0  0  0  0  0
  152.5964  144.6824  162.1108 H   0  0  0  0  0  0  0  0  0  0  0  0
  152.5176  142.2773  161.3991 H   0  0  0  0  0  0  0  0  0  0  0  0
  1  2  1  0  0  0  0
  1 18  1  0  0  0  0
  1 19  1  0  0  0  0
  1 20  1  0  0  0  0
  2  7  1  0  0  0  0
  2  3  1  0  0  0  0
  2 21  1  0  0  0  0
  3  4  1  0  0  0  0
  3 22  1  0  0  0  0
  3 23  1  0  0  0  0
  4  5  1  0  0  0  0
  4 24  1  0  0  0  0
  4 25  1  0  0  0  0
  5  6  1  0  0  0  0
  5 26  1  0  0  0  0
  5 27  1  0  0  0  0
  6  7  1  0  0  0  0
  6 28  1  0  0  0  0
  6 29  1  0  0  0  0
  7  8  1  0  0  0  0
  7 30  1  0  0  0  0
  8  9  1  0  0  0  0
  8 31  1  0  0  0  0
  9 10  2  0  0  0  0
  9 11  1  0  0  0  0
 11 12  1  0  0  0  0
 11 32  1  0  0  0  0
 12 17  1  0  0  0  0
 12 13  2  0  0  0  0
 13 14  1  0  0  0  0
 13 33  1  0  0  0  0
 14 15  2  0  0  0  0
 14 34  1  0  0  0  0
 15 16  1  0  0  0  0
 15 35  1  0  0  0  0
 16 17  2  0  0  0  0
 16 36  1  0  0  0  0
M  END
> <s_m_source_file>
AV-unprocessed.smi

> <i_m_source_file_index>
2840

> <i_lp_mmshare_version>
43012

> <i_f3d_flags>
0

> <s_epik_input>
W0NIM11bQ0BASF0xW0NIMl1bQ0gyXVtDSDJdW0NIMl1bQ0BIXTFbTkhdQyg9TylbTkhdYzJbY0hdW2NIXVtjSF1bY0hdbjI=

> <s_epik_cmdline>
J2VwaWtfcHl0aG9uJywgJy1waCcsICc3LjAnLCAnLXRuJywgJzgnLCAnLW1hJywgJzIwMCcsICctbWV0YWxfYmluZGluZycsICctaW1hZScsICc8aW5maWxlLm1hZT4nLCAnLW9tYWUnLCAnPG91dGZpbGUubWFlPic=

> <r_lp_tautomer_probability>
1

> <r_epik_Ionization_Penalty>
5.29956e-05

> <r_epik_Ionization_Penalty_Charging>
0

> <r_epik_Ionization_Penalty_Neutral>
5.29956e-05

> <r_epik_State_Penalty>
-0

> <r_epik_Charging_Adjusted_Penalty>
0

> <i_epik_Tot_Q>
0

> <i_epik_Tot_abs_Q>
0

> <r_epik_Metal_State_Penalty>
-0

> <b_epik_Metal_Only>
0

> <s_lp_Force_Field>
OPLS_2005

> <r_lp_Energy>
13.2298

> <b_lp_Chiralities_Consistent>
1

> <s_lp_Variant>
AV-unprocessed.smi:2840-4

> <Gold.Version>
5.8.1

> <Gold.Id.Protein>
6NUR|6NUR_protein|mol2

> <Gold.PLP.Fitness>
39.9380

> <Gold.PLP.PLP>
-36.0455

> <Gold.PLP.part.hbond>
-2.0000

> <Gold.PLP.part.metal>
0.0000

> <Gold.PLP.part.buried>
-4.5856

> <Gold.PLP.part.nonpolar>
-30.6509

> <Gold.PLP.part.repulsive>
0.1968

> <Gold.PLP.ligand.clash>
0.0000

> <Gold.PLP.ligand.torsion>
0.3116

> <Gold.PLP.Chemscore.Hbond>
1.5040

> <Gold.PLP.Chemscore.CHOScore>
0.0000

> <Gold.PLP.Chemscore.Metal>
0.0000

> <Gold.Chemscore.Hbonds>
donor molecule, donor type, donor heavy atom, donor atom, acceptor molecule, acceptor atom, score
      L1  H     8    31       P1  8028  0.70
      L1  H    11    32       P1  8028  0.61

> <Gold.PLP.Chemscore.Internal.Correction>
0.0039

> <Gold.Rescore>
     Score         DG    S(hbond)    S(metal)    S(lipo)     H(rot)  DE(clash)    DE(int)     intcor
     15.90     -18.95       1.90        0.00      82.81       1.00       0.00       3.04       ----

> <Gold.Chemscore.Fitness>
15.9045

> <Gold.Chemscore.DG>
-18.9468

> <Gold.Chemscore.ZeroCoef>
-5.4800

> <Gold.Chemscore.Hbond>
1.8977

> <Gold.Chemscore.Metal>
0.0000

> <Gold.Chemscore.Lipo>
82.8090

> <Gold.Chemscore.Internal_Hbond>
0.0000

> <Gold.Chemscore.DEClash>
0.0046

> <Gold.Chemscore.DEInternal>
3.0377

> <Gold.Chemscore.Rot>
1.0000

> <Gold.Chemscore.Internal.Correction>
   9.000000E+99

> <Gold.Chemscore.Hbonds>
donor molecule, donor type, donor heavy atom, donor atom, acceptor molecule, acceptor atom, score
      L1  H     8    31       P1  8028  0.70
      L1  H    11    32       P1  8028  0.59

> <Gold.Chemscore.Hbond.Weighted>
-6.3382

> <Gold.Chemscore.Metal.Weighted>
-0.0000

> <Gold.Chemscore.Lipo.Weighted>
-9.6886

> <Gold.Chemscore.Internal_Hbond.Weighted>
0.0000

> <Gold.Chemscore.DEClash.Weighted>
0.0046

> <Gold.Chemscore.DEInternal.Weighted>
3.0377

> <Gold.Chemscore.Rot.Weighted>
2.5600

> <Gold.Chemscore.Internal.Correction.Weighted>
   9.000000E+99

> <Gold.Protein.RotatedTorsions>
[ 6907 6896 6895 6894 ] final   51.83 input  -60.11 | X-H torsion
[ 7974 7965 7964 7962 ] final  -25.33 input  175.53 | X-H torsion
[ 8008 7997 7996 7995 ] final  -96.41 input   59.86 | X-H torsion
[ 10167 10162 10161 10158 ] final  143.87 input  -65.29 | X-H torsion
[ 10718 10713 10712 10709 ] final  111.69 input   66.30 | X-H torsion
[ 10763 10752 10751 10750 ] final  116.87 input  -60.55 | X-H torsion
[ 11005 11000 10999 10996 ] final  172.43 input  -57.11 | X-H torsion

> <Gold.Protein.ActiveResidues>
 VAL166  LYS551  ARG553  GLY616  TRP617  ASP618  TYR619  PRO620  LYS621  CYS622 
 ASP623  PHE694  ASN695  SER759  ASP760  ASP761  ALA762  ILE779  LEU786  VAL792 
 PHE793  MET794  SER795  GLU796  ALA797  LYS798  CYS799  TRP800  GLU811  SER814 

> <Gold.Protein.RotatedAtoms>
  152.3168  134.7430  160.0323 H   0  0  0  0  0  0  0  0  0  0  0  0  # atno 6907 bound_to 6896
  151.7892  133.3352  159.3502 H   0  0  0  0  0  0  0  0  0  0  0  0  # atno 6908 bound_to 6896
  150.7348  134.5789  159.5973 H   0  0  0  0  0  0  0  0  0  0  0  0  # atno 6909 bound_to 6896
  146.1498  140.4872  142.8616 H   0  0  0  0  0  0  0  0  0  0  0  0  # atno 7974 bound_to 7965
  154.7741  140.0471  157.1075 H   0  0  0  0  0  0  0  0  0  0  0  0  # atno 8008 bound_to 7997
  154.9784  140.3098  155.4937 H   0  0  0  0  0  0  0  0  0  0  0  0  # atno 8009 bound_to 7997
  156.2926  140.2240  156.4882 H   0  0  0  0  0  0  0  0  0  0  0  0  # atno 8010 bound_to 7997
  139.4960  144.6011  151.6478 H   0  0  0  0  0  0  0  0  0  0  0  0  # atno 10167 bound_to 10162
  157.6431  131.0955  150.6786 H   0  0  0  0  0  0  0  0  0  0  0  0  # atno 10718 bound_to 10713
  153.5438  135.3553  155.2730 H   0  0  0  0  0  0  0  0  0  0  0  0  # atno 10763 bound_to 10752
  154.8714  135.4097  154.3014 H   0  0  0  0  0  0  0  0  0  0  0  0  # atno 10764 bound_to 10752
  153.3727  135.7065  153.6694 H   0  0  0  0  0  0  0  0  0  0  0  0  # atno 10765 bound_to 10752
  140.3297  134.7368  157.4125 H   0  0  0  0  0  0  0  0  0  0  0  0  # atno 11005 bound_to 11000
  144.7890  140.5993  143.6554 LP  0  0  0  0  0  0  0  0  0  0  0  0  # atno 17320 bound_to 7965
  145.4851  139.1492  143.3740 LP  0  0  0  0  0  0  0  0  0  0  0  0  # atno 17321 bound_to 7965
  140.5661  144.0187  150.6193 LP  0  0  0  0  0  0  0  0  0  0  0  0  # atno 17342 bound_to 10162
  140.3289  143.3090  152.0707 LP  0  0  0  0  0  0  0  0  0  0  0  0  # atno 17343 bound_to 10162
  156.7107  130.4651  149.5548 LP  0  0  0  0  0  0  0  0  0  0  0  0  # atno 17370 bound_to 10713
  156.1732  130.6450  151.0862 LP  0  0  0  0  0  0  0  0  0  0  0  0  # atno 17371 bound_to 10713
  140.0871  134.5651  155.8481 LP  0  0  0  0  0  0  0  0  0  0  0  0  # atno 17394 bound_to 11000
  141.2066  133.6657  156.6255 LP  0  0  0  0  0  0  0  0  0  0  0  0  # atno 17395 bound_to 11000

$$$$
