#       Name:                AV-unprocessed.smi:290
#       Creating user name   scv26
#       Creation time:       Thu Mar 26 22:10:01 2020


#       File generated by GOLD software.
#

@<TRIPOS>MOLECULE
AV-unprocessed.smi:290
    68    71     1
SMALL
NO_CHARGES


@<TRIPOS>ATOM
      1 ****        -6.7544  -2.2638   0.5628 C.3            1 S1                 0.0000
      2 ****        -5.7209  -2.3225   1.6982 C.3            1 S1                 0.0000
      3 ****        -5.4640  -3.6938   1.9874 O.3            1 S1                 0.0000
      4 ****        -4.1485  -3.8081   2.4989 C.3            1 S1                 0.0000
      5 ****        -3.3697  -2.8596   1.6007 C.3            1 S1                 0.0000
      6 ****        -4.3294  -1.6850   1.4195 C.3            1 S1                 0.0000
      7 ****        -4.0705  -0.7509   2.4541 O.3            1 S1                 0.0000
      8 ****        -4.1646  -0.9561   0.0598 C.3            1 S1                 0.0000
      9 ****        -2.8180  -0.4526  -0.1682 N.pl3          1 S1                 0.0000
     10 ****        -1.7862  -1.1147  -0.7912 C.2            1 S1                 0.0000
     11 ****        -0.6676  -0.4488  -0.8684 N.2            1 S1                 0.0000
     12 ****        -0.9458   0.7753  -0.2678 C.ar           1 S1                 0.0000
     13 ****        -0.1967   1.9630  -0.0052 C.ar           1 S1                 0.0000
     14 ****         1.1041   2.1725  -0.3436 N.pl3          1 S1                 0.0000
     15 ****         1.9655   2.9512   0.5310 C.3            1 S1                 0.0000
     16 ****         3.3370   2.3001   0.4129 C.3            1 S1                 0.0000
     17 ****         3.3605   1.7194  -1.0104 C.3            1 S1                 0.0000
     18 ****         4.3551   0.6102  -1.1383 N.4            1 S1                 1.0000
     19 ****         4.1868  -0.2389  -2.3428 C.3            1 S1                 0.0000
     20 ****         5.7636   1.0694  -0.9945 C.3            1 S1                 0.0000
     21 ****         6.6385   0.0163  -0.2950 C.3            1 S1                 0.0000
     22 ****         6.2281  -0.1309   1.0480 O.3            1 S1                 0.0000
     23 ****         1.8804   1.3085  -1.2291 C.3            1 S1                 0.0000
     24 ****         1.4046   1.4809  -2.6883 C.3            1 S1                 0.0000
     25 ****        -0.8413   2.9718   0.6381 N.ar           1 S1                 0.0000
     26 ****        -2.1213   2.8447   0.9966 C.ar           1 S1                 0.0000
     27 ****        -2.9366   1.8059   0.8157 N.ar           1 S1                 0.0000
     28 ****        -2.3005   0.7837   0.1771 C.ar           1 S1                 0.0000
     29 ****         3.6174   2.5166  -1.7106 H              1 S1                 0.0000
     30 ****         1.7528   0.2790  -0.8975 H              1 S1                 0.0000
     31 ****        -6.9998  -1.2344   0.3010 H              1 S1                 0.0000
     32 ****        -7.6815  -2.7526   0.8630 H              1 S1                 0.0000
     33 ****        -6.3960  -2.7700  -0.3336 H              1 S1                 0.0000
     34 ****        -6.1680  -1.8801   2.5907 H              1 S1                 0.0000
     35 ****        -4.1236  -3.4785   3.5388 H              1 S1                 0.0000
     36 ****        -3.7833  -4.8338   2.4488 H              1 S1                 0.0000
     37 ****        -2.3983  -2.5800   2.0109 H              1 S1                 0.0000
     38 ****        -3.1959  -3.3531   0.6437 H              1 S1                 0.0000
     39 ****        -3.2166  -0.3722   2.3109 H              1 S1                 0.0000
     40 ****        -4.4049  -1.6286  -0.7639 H              1 S1                 0.0000
     41 ****        -4.8598  -0.1187  -0.0121 H              1 S1                 0.0000
     42 ****        -1.8872  -2.1162  -1.1840 H              1 S1                 0.0000
     43 ****         1.9918   3.9810   0.1733 H              1 S1                 0.0000
     44 ****         1.6237   2.9563   1.5670 H              1 S1                 0.0000
     45 ****         4.1373   3.0128   0.6112 H              1 S1                 0.0000
     46 ****         3.4163   1.4955   1.1459 H              1 S1                 0.0000
     47 ****         4.2500   0.3586  -3.2531 H              1 S1                 0.0000
     48 ****         3.2329  -0.7648  -2.3305 H              1 S1                 0.0000
     49 ****         4.9592  -1.0056  -2.3960 H              1 S1                 0.0000
     50 ****         6.1714   1.3056  -1.9787 H              1 S1                 0.0000
     51 ****         5.8304   1.9963  -0.4266 H              1 S1                 0.0000
     52 ****         6.5989  -0.9493  -0.7984 H              1 S1                 0.0000
     53 ****         7.6808   0.3361  -0.3014 H              1 S1                 0.0000
     54 ****         6.8052  -0.7464   1.4749 H              1 S1                 0.0000
     55 ****         1.9429   0.8400  -3.3829 H              1 S1                 0.0000
     56 ****         1.5381   2.5098  -3.0237 H              1 S1                 0.0000
     57 ****         0.3470   1.2437  -2.7987 H              1 S1                 0.0000
     58 ****        -2.5537   3.6969   1.5001 H              1 S1                 0.0000
     59 ****         4.1829   0.0083  -0.3452 H              1 S1                 0.0000
     60 ****        -5.5489  -4.2362   1.1515 LP             1 S1                 0.0000
     61 ****        -6.1196  -4.0235   2.6667 LP             1 S1                 0.0000
     62 ****        -4.0891  -1.2150   3.3396 LP             1 S1                 0.0000
     63 ****        -4.7649  -0.0314   2.4401 LP             1 S1                 0.0000
     64 ****         0.1972  -0.7505  -1.2697 LP             1 S1                 0.0000
     65 ****         5.2891  -0.4736   1.0775 LP             1 S1                 0.0000
     66 ****         6.2751   0.7531   1.5132 LP             1 S1                 0.0000
     67 ****        -0.3515   3.8187   0.8453 LP             1 S1                 0.0000
     68 ****        -3.8918   1.7799   1.1105 LP             1 S1                 0.0000
@<TRIPOS>BOND
    1    1    2 1     
    2    1   31 1     
    3    1   32 1     
    4    1   33 1     
    5    2    6 1     
    6    2    3 1     
    7    2   34 1     
    8    3    4 1     
    9    4    5 1     
   10    4   35 1     
   11    4   36 1     
   12    5    6 1     
   13    5   37 1     
   14    5   38 1     
   15    6    7 1     
   16    6    8 1     
   17    7   39 1     
   18    8    9 1     
   19    8   40 1     
   20    8   41 1     
   21    9   28 1     
   22    9   10 1     
   23   10   11 2     
   24   10   42 1     
   25   11   12 1     
   26   12   28 ar    
   27   12   13 ar    
   28   13   14 1     
   29   13   25 ar    
   30   14   23 1     
   31   14   15 1     
   32   15   16 1     
   33   15   43 1     
   34   15   44 1     
   35   16   17 1     
   36   16   45 1     
   37   16   46 1     
   38   17   29 1     
   39   17   18 1     
   40   17   23 1     
   41   18   19 1     
   42   18   20 1     
   43   18   59 1     
   44   19   47 1     
   45   19   48 1     
   46   19   49 1     
   47   20   21 1     
   48   20   50 1     
   49   20   51 1     
   50   21   22 1     
   51   21   52 1     
   52   21   53 1     
   53   22   54 1     
   54   23   30 1     
   55   23   24 1     
   56   24   55 1     
   57   24   56 1     
   58   24   57 1     
   59   25   26 ar    
   60   26   27 ar    
   61   26   58 1     
   62   27   28 ar    
   63    3   60 1     
   64    3   61 1     
   65    7   62 1     
   66    7   63 1     
   67   11   64 1     
   68   22   65 1     
   69   22   66 1     
   70   25   67 1     
   71   27   68 1     
@<TRIPOS>SUBSTRUCTURE
      1 S1             1
@<TRIPOS>SET
LONE_PAIRS      STATIC     ATOMS    <user>   **** ""
9 60 61 62 63 64 65 66 67 68
DONOR_HYDROGENS      STATIC     ATOMS    <user>   **** ""
3 39 59 54
ATOM$BLUE        STATIC     ATOMS    COLORGROUP SYSTEM
9 60 61 62 63 64 65 66 67 68
ATOM$RED        STATIC     ATOMS    COLORGROUP SYSTEM
3 39 59 54
