AV-unprocessed.smi:1064|AV-procd|sdf|4664|dock8
  -GOLD-   22720 3173D 1   1.00000     0.00000
 Structure written by MMmdl.
 35 36  0  0  0  0  0  0  0  0  1 V2000
  150.3545  140.1994  154.7171 O   0  0  0  0  0  0  0  0  0  0  0  0
  149.5626  141.1331  154.8562 C   0  0  0  0  0  0  0  0  0  0  0  0
  149.8176  142.1689  155.6738 N   0  0  0  0  0  0  0  0  0  0  0  0
  151.0075  142.3079  156.5047 C   0  0  0  0  0  0  0  0  0  0  0  0
  150.6464  142.3601  157.9979 C   0  0  0  0  0  0  0  0  0  0  0  0
  151.8161  142.0548  158.8803 C   0  0  0  0  0  0  0  0  0  0  0  0
  152.1584  140.8228  159.2445 N   0  0  0  0  0  0  0  0  0  0  0  0
  153.2575  140.9918  160.0786 C   0  0  0  0  0  0  0  0  0  0  0  0
  153.5385  142.3312  160.1960 C   0  0  0  0  0  0  0  0  0  0  0  0
  152.6068  143.0066  159.4155 N   0  0  0  0  0  0  0  0  0  0  0  0
  152.5028  144.4479  159.2521 C   0  0  0  0  0  0  0  0  0  0  0  0
  152.6277  144.7696  157.9650 F   0  0  0  0  0  0  0  0  0  0  0  0
  151.3314  144.8890  159.7118 F   0  0  0  0  0  0  0  0  0  0  0  0
  148.3881  141.2174  154.1812 N   0  0  0  0  0  0  0  0  0  0  0  0
  147.2965  142.1628  154.4679 C   0  0  0  0  0  0  0  0  0  0  0  0
  146.2634  141.4770  155.3775 C   0  0  0  0  0  0  0  0  0  0  0  0
  145.5128  140.0430  154.5449 S   0  0  0  0  0  0  0  0  0  0  0  0
  147.0188  139.1936  153.9755 C   0  0  0  0  0  0  0  0  0  0  0  0
  147.9622  140.1673  153.2484 C   0  0  0  0  0  0  0  0  0  0  0  0
  149.1338  142.9098  155.7271 H   0  0  0  0  0  0  0  0  0  0  0  0
  151.6991  141.4884  156.3037 H   0  0  0  0  0  0  0  0  0  0  0  0
  151.5220  143.2244  156.2144 H   0  0  0  0  0  0  0  0  0  0  0  0
  150.2756  143.3545  158.2506 H   0  0  0  0  0  0  0  0  0  0  0  0
  149.8312  141.6727  158.2201 H   0  0  0  0  0  0  0  0  0  0  0  0
  153.7526  140.1454  160.5313 H   0  0  0  0  0  0  0  0  0  0  0  0
  154.3044  142.8445  160.7585 H   0  0  0  0  0  0  0  0  0  0  0  0
  153.2847  144.9561  159.8157 H   0  0  0  0  0  0  0  0  0  0  0  0
  147.6410  143.0884  154.9291 H   0  0  0  0  0  0  0  0  0  0  0  0
  146.8218  142.4745  153.5365 H   0  0  0  0  0  0  0  0  0  0  0  0
  146.7319  141.1472  156.3055 H   0  0  0  0  0  0  0  0  0  0  0  0
  145.4719  142.1755  155.6494 H   0  0  0  0  0  0  0  0  0  0  0  0
  147.5213  138.7454  154.8336 H   0  0  0  0  0  0  0  0  0  0  0  0
  146.7305  138.3778  153.3125 H   0  0  0  0  0  0  0  0  0  0  0  0
  147.4572  140.6096  152.3886 H   0  0  0  0  0  0  0  0  0  0  0  0
  148.8129  139.6238  152.8350 H   0  0  0  0  0  0  0  0  0  0  0  0
  1  2  2  0  0  0  0
  2  3  1  0  0  0  0
  2 14  1  0  0  0  0
  3  4  1  0  0  0  0
  3 20  1  0  0  0  0
  4  5  1  0  0  0  0
  4 21  1  0  0  0  0
  4 22  1  0  0  0  0
  5  6  1  0  0  0  0
  5 23  1  0  0  0  0
  5 24  1  0  0  0  0
  6 10  1  0  0  0  0
  6  7  2  0  0  0  0
  7  8  1  0  0  0  0
  8  9  2  0  0  0  0
  8 25  1  0  0  0  0
  9 10  1  0  0  0  0
  9 26  1  0  0  0  0
 10 11  1  0  0  0  0
 11 12  1  0  0  0  0
 11 13  1  0  0  0  0
 11 27  1  0  0  0  0
 14 19  1  0  0  0  0
 14 15  1  0  0  0  0
 15 16  1  0  0  0  0
 15 28  1  0  0  0  0
 15 29  1  0  0  0  0
 16 17  1  0  0  0  0
 16 30  1  0  0  0  0
 16 31  1  0  0  0  0
 17 18  1  0  0  0  0
 18 19  1  0  0  0  0
 18 32  1  0  0  0  0
 18 33  1  0  0  0  0
 19 34  1  0  0  0  0
 19 35  1  0  0  0  0
M  END
> <s_m_source_file>
AV-unprocessed.smi

> <i_m_source_file_index>
1064

> <i_lp_mmshare_version>
43012

> <i_f3d_flags>
0

> <s_epik_input>
W0NIMl0xW0NIMl1TW0NIMl1bQ0gyXU4xQyg9TylbTkhdW0NIMl1bQ0gyXWMybltjSF1bY0hdbjJbQ0hdKEYpRg==

> <s_epik_cmdline>
J2VwaWtfcHl0aG9uJywgJy1waCcsICc3LjAnLCAnLXRuJywgJzgnLCAnLW1hJywgJzIwMCcsICctbWV0YWxfYmluZGluZycsICctaW1hZScsICc8aW5maWxlLm1hZT4nLCAnLW9tYWUnLCAnPG91dGZpbGUubWFlPic=

> <r_lp_tautomer_probability>
1

> <r_epik_Ionization_Penalty>
0.100551

> <r_epik_Ionization_Penalty_Charging>
0.100507

> <r_epik_Ionization_Penalty_Neutral>
4.37624e-05

> <r_epik_State_Penalty>
0.0905262

> <r_epik_Charging_Adjusted_Penalty>
0.191033

> <i_epik_Tot_Q>
0

> <i_epik_Tot_abs_Q>
0

> <r_epik_Metal_State_Penalty>
0.077291

> <b_epik_Metal_Only>
0

> <s_lp_Force_Field>
OPLS_2005

> <r_lp_Energy>
25.4045

> <b_lp_Chiralities_Consistent>
1

> <s_lp_Variant>
AV-unprocessed.smi:1064-1

> <Gold.Version>
5.8.1

> <Gold.Id.Protein>
6NUR|6NUR_protein|mol2

> <Gold.PLP.Fitness>
48.6348

> <Gold.PLP.PLP>
-43.8487

> <Gold.PLP.part.hbond>
-2.0000

> <Gold.PLP.part.metal>
0.0000

> <Gold.PLP.part.buried>
0.6277

> <Gold.PLP.part.nonpolar>
-41.6291

> <Gold.PLP.part.repulsive>
0.2342

> <Gold.PLP.ligand.clash>
0.0000

> <Gold.PLP.ligand.torsion>
0.4847

> <Gold.PLP.Chemscore.Hbond>
1.8960

> <Gold.PLP.Chemscore.CHOScore>
0.0000

> <Gold.PLP.Chemscore.Metal>
0.0000

> <Gold.Chemscore.Hbonds>
donor molecule, donor type, donor heavy atom, donor atom, acceptor molecule, acceptor atom, score
      L1  H     3    20       P1  8028  0.90
      P1  H  7989  7998       L1     1  1.00

> <Gold.PLP.Chemscore.Internal.Correction>
0.0675

> <Gold.Rescore>
     Score         DG    S(hbond)    S(metal)    S(lipo)     H(rot)  DE(clash)    DE(int)     intcor
     14.61     -14.97       1.63        0.00      69.71       1.61       0.03       0.32       ----

> <Gold.Chemscore.Fitness>
14.6115

> <Gold.Chemscore.DG>
-14.9651

> <Gold.Chemscore.ZeroCoef>
-5.4800

> <Gold.Chemscore.Hbond>
1.6319

> <Gold.Chemscore.Metal>
0.0000

> <Gold.Chemscore.Lipo>
69.7113

> <Gold.Chemscore.Internal_Hbond>
0.0000

> <Gold.Chemscore.DEClash>
0.0327

> <Gold.Chemscore.DEInternal>
0.3208

> <Gold.Chemscore.Rot>
1.6100

> <Gold.Chemscore.Internal.Correction>
   9.000000E+99

> <Gold.Chemscore.Hbonds>
donor molecule, donor type, donor heavy atom, donor atom, acceptor molecule, acceptor atom, score
      L1  H     3    20       P1  8028  0.88
      P1  H  7989  7998       L1     1  0.39

> <Gold.Chemscore.Hbond.Weighted>
-5.4504

> <Gold.Chemscore.Metal.Weighted>
-0.0000

> <Gold.Chemscore.Lipo.Weighted>
-8.1562

> <Gold.Chemscore.Internal_Hbond.Weighted>
0.0000

> <Gold.Chemscore.DEClash.Weighted>
0.0327

> <Gold.Chemscore.DEInternal.Weighted>
0.3208

> <Gold.Chemscore.Rot.Weighted>
4.1216

> <Gold.Chemscore.Internal.Correction.Weighted>
   9.000000E+99

> <Gold.Protein.RotatedTorsions>
[ 6907 6896 6895 6894 ] final   52.84 input  -60.11 | X-H torsion
[ 7974 7965 7964 7962 ] final  -75.91 input  175.53 | X-H torsion
[ 8008 7997 7996 7995 ] final  -49.45 input   59.86 | X-H torsion
[ 10167 10162 10161 10158 ] final   84.60 input  -65.29 | X-H torsion
[ 10718 10713 10712 10709 ] final  -35.59 input   66.30 | X-H torsion
[ 10763 10752 10751 10750 ] final   40.87 input  -60.55 | X-H torsion
[ 11005 11000 10999 10996 ] final   -1.51 input  -57.11 | X-H torsion

> <Gold.Protein.ActiveResidues>
 VAL166  LYS551  ARG553  GLY616  TRP617  ASP618  TYR619  PRO620  LYS621  CYS622 
 ASP623  PHE694  ASN695  SER759  ASP760  ASP761  ALA762  ILE779  LEU786  VAL792 
 PHE793  MET794  SER795  GLU796  ALA797  LYS798  CYS799  TRP800  GLU811  SER814 

> <Gold.Protein.RotatedAtoms>
  152.3275  134.7302  160.0297 H   0  0  0  0  0  0  0  0  0  0  0  0  # atno 6907 bound_to 6896
  151.7730  133.3337  159.3458 H   0  0  0  0  0  0  0  0  0  0  0  0  # atno 6908 bound_to 6896
  150.7404  134.5933  159.6043 H   0  0  0  0  0  0  0  0  0  0  0  0  # atno 6909 bound_to 6896
  145.6198  140.9366  143.1144 H   0  0  0  0  0  0  0  0  0  0  0  0  # atno 7974 bound_to 7965
  154.4044  140.1296  156.4505 H   0  0  0  0  0  0  0  0  0  0  0  0  # atno 8008 bound_to 7997
  155.7370  140.3490  155.5066 H   0  0  0  0  0  0  0  0  0  0  0  0  # atno 8009 bound_to 7997
  155.9074  140.1030  157.1295 H   0  0  0  0  0  0  0  0  0  0  0  0  # atno 8010 bound_to 7997
  139.9064  144.6298  150.8583 H   0  0  0  0  0  0  0  0  0  0  0  0  # atno 10167 bound_to 10162
  156.3369  130.4287  149.7822 H   0  0  0  0  0  0  0  0  0  0  0  0  # atno 10718 bound_to 10713
  152.9924  135.6178  154.2697 H   0  0  0  0  0  0  0  0  0  0  0  0  # atno 10763 bound_to 10752
  154.2430  135.2788  155.2848 H   0  0  0  0  0  0  0  0  0  0  0  0  # atno 10764 bound_to 10752
  154.5353  135.5776  153.6851 H   0  0  0  0  0  0  0  0  0  0  0  0  # atno 10765 bound_to 10752
  140.6481  133.9429  155.8364 H   0  0  0  0  0  0  0  0  0  0  0  0  # atno 11005 bound_to 11000
  144.7235  139.7950  143.7373 LP  0  0  0  0  0  0  0  0  0  0  0  0  # atno 17320 bound_to 7965
  146.1440  139.4504  143.0091 LP  0  0  0  0  0  0  0  0  0  0  0  0  # atno 17321 bound_to 7965
  140.7695  143.3398  151.2232 LP  0  0  0  0  0  0  0  0  0  0  0  0  # atno 17342 bound_to 10162
  139.6980  143.9580  152.2892 LP  0  0  0  0  0  0  0  0  0  0  0  0  # atno 17343 bound_to 10162
  156.5074  130.8156  151.3156 LP  0  0  0  0  0  0  0  0  0  0  0  0  # atno 17370 bound_to 10713
  157.7440  130.9925  150.2638 LP  0  0  0  0  0  0  0  0  0  0  0  0  # atno 17371 bound_to 10713
  141.0557  134.0420  157.3725 LP  0  0  0  0  0  0  0  0  0  0  0  0  # atno 17394 bound_to 11000
  139.9055  135.0178  156.7468 LP  0  0  0  0  0  0  0  0  0  0  0  0  # atno 17395 bound_to 11000

$$$$
