AV-unprocessed.smi:2078|AV-procd|sdf|8466|dock2
  -GOLD-   2272011163D 1   1.00000     0.00000
 Structure written by MMmdl.
 42 43  0  0  0  0  0  0  0  0  2 V2000
  150.5088  141.4151  158.0782 C   0  0  0  0  0  0  0  0  0  0  0  0
  150.3945  140.7776  156.7360 C   0  0  0  0  0  0  0  0  0  0  0  0
  149.3313  140.5178  155.9177 C   0  0  0  0  0  0  0  0  0  0  0  0
  149.9367  139.8910  154.7962 C   0  0  0  0  0  0  0  0  0  0  0  0
  149.1553  139.4564  153.6954 N   0  0  0  0  0  0  0  0  0  0  0  0
  147.9256  138.9152  153.7277 C   0  0  0  0  0  0  0  0  0  0  0  0
  147.2668  138.7066  154.7469 O   0  0  0  0  0  0  0  0  0  0  0  0
  147.4884  138.6193  152.4949 N   0  0  0  0  0  0  0  0  0  0  0  0
  146.1869  138.0362  152.1899 C   0  0  0  0  0  0  0  0  0  0  0  0
  145.9453  136.7386  152.9858 C   0  0  0  0  0  0  0  0  0  0  0  0
  146.4985  135.5426  152.3017 N   0  3  2  0  0  0  0  0  0  0  0  0
  145.5956  135.0402  151.2338 C   0  0  0  0  0  0  0  0  0  0  0  0
  146.2484  133.8912  150.4488 C   0  0  0  0  0  0  0  0  0  0  0  0
  146.6716  132.7540  151.3868 C   0  0  0  0  0  0  0  0  0  0  0  0
  147.5826  133.2939  152.5020 C   0  0  2  0  0  0  0  0  0  0  0  0
  148.0005  132.1806  153.4729 C   0  0  0  0  0  0  0  0  0  0  0  0
  146.8898  134.4567  153.2407 C   0  0  0  0  0  0  0  0  0  0  0  0
  151.2504  139.7790  154.9180 N   0  0  0  0  0  0  0  0  0  0  0  0
  151.5504  140.3457  156.1624 O   0  0  0  0  0  0  0  0  0  0  0  0
  149.6328  142.0275  158.2933 H   0  0  0  0  0  0  0  0  0  0  0  0
  151.3893  142.0559  158.1309 H   0  0  0  0  0  0  0  0  0  0  0  0
  150.5929  140.6582  158.8584 H   0  0  0  0  0  0  0  0  0  0  0  0
  148.2900  140.7411  156.0967 H   0  0  0  0  0  0  0  0  0  0  0  0
  149.5782  139.5727  152.7865 H   0  0  0  0  0  0  0  0  0  0  0  0
  148.0930  138.8240  151.7124 H   0  0  0  0  0  0  0  0  0  0  0  0
  145.3977  138.7622  152.3931 H   0  0  0  0  0  0  0  0  0  0  0  0
  146.1648  137.8461  151.1177 H   0  0  0  0  0  0  0  0  0  0  0  0
  146.3608  136.8160  153.9917 H   0  0  0  0  0  0  0  0  0  0  0  0
  144.8693  136.6075  153.1083 H   0  0  0  0  0  0  0  0  0  0  0  0
  144.6549  134.7089  151.6765 H   0  0  0  0  0  0  0  0  0  0  0  0
  145.3541  135.8491  150.5430 H   0  0  0  0  0  0  0  0  0  0  0  0
  145.5558  133.5136  149.6960 H   0  0  0  0  0  0  0  0  0  0  0  0
  147.1192  134.2644  149.9079 H   0  0  0  0  0  0  0  0  0  0  0  0
  145.7857  132.2882  151.8213 H   0  0  0  0  0  0  0  0  0  0  0  0
  147.1860  131.9774  150.8194 H   0  0  0  0  0  0  0  0  0  0  0  0
  148.4906  133.6830  152.0385 H   0  0  0  0  0  0  0  0  0  0  0  0
  147.1347  131.7423  153.9705 H   0  0  0  0  0  0  0  0  0  0  0  0
  148.6698  132.5619  154.2446 H   0  0  0  0  0  0  0  0  0  0  0  0
  148.5242  131.3799  152.9499 H   0  0  0  0  0  0  0  0  0  0  0  0
  147.5685  134.8446  153.9995 H   0  0  0  0  0  0  0  0  0  0  0  0
  146.0044  134.0954  153.7668 H   0  0  0  0  0  0  0  0  0  0  0  0
  147.3406  135.8472  151.8341 H   0  0  0  0  0  0  0  0  0  0  0  0
  1  2  1  0  0  0  0
  1 20  1  0  0  0  0
  1 21  1  0  0  0  0
  1 22  1  0  0  0  0
  2 19  1  0  0  0  0
  2  3  2  0  0  0  0
  3  4  1  0  0  0  0
  3 23  1  0  0  0  0
  4  5  1  0  0  0  0
  4 18  2  0  0  0  0
  5  6  1  0  0  0  0
  5 24  1  0  0  0  0
  6  7  2  0  0  0  0
  6  8  1  0  0  0  0
  8  9  1  0  0  0  0
  8 25  1  0  0  0  0
  9 10  1  0  0  0  0
  9 26  1  0  0  0  0
  9 27  1  0  0  0  0
 10 11  1  0  0  0  0
 10 28  1  0  0  0  0
 10 29  1  0  0  0  0
 11 17  1  0  0  0  0
 11 12  1  0  0  0  0
 11 42  1  0  0  0  0
 12 13  1  0  0  0  0
 12 30  1  0  0  0  0
 12 31  1  0  0  0  0
 13 14  1  0  0  0  0
 13 32  1  0  0  0  0
 13 33  1  0  0  0  0
 14 15  1  0  0  0  0
 14 34  1  0  0  0  0
 14 35  1  0  0  0  0
 15 16  1  0  0  0  0
 15 17  1  0  0  0  0
 15 36  1  0  0  0  0
 16 37  1  0  0  0  0
 16 38  1  0  0  0  0
 16 39  1  0  0  0  0
 17 40  1  0  0  0  0
 17 41  1  0  0  0  0
 18 19  1  0  0  0  0
M  CHG  1  11   1
M  END
> <s_m_source_file>
AV-unprocessed.smi

> <i_m_source_file_index>
2078

> <i_lp_mmshare_version>
43012

> <i_f3d_flags>
0

> <s_epik_input>
W0NIM11jMVtjSF1jKG5vMSlbTkhdQyg9TylbTkhdW0NIMl1bQ0gyXU4yW0NIMl1bQ0gyXVtDSDJdW0NAQEhdKFtDSDNdKVtDSDJdMg==

> <s_epik_cmdline>
J2VwaWtfcHl0aG9uJywgJy1waCcsICc3LjAnLCAnLXRuJywgJzgnLCAnLW1hJywgJzIwMCcsICctbWV0YWxfYmluZGluZycsICctaW1hZScsICc8aW5maWxlLm1hZT4nLCAnLW9tYWUnLCAnPG91dGZpbGUubWFlPic=

> <r_epik_Ionization_Penalty>
0.00216453

> <r_epik_Ionization_Penalty_Charging>
0.00212879

> <r_epik_Ionization_Penalty_Neutral>
3.57418e-05

> <r_epik_State_Penalty>
0.00146033

> <r_epik_Charging_Adjusted_Penalty>
0.00358912

> <i_epik_Tot_Q>
1

> <i_epik_Tot_abs_Q>
1

> <r_epik_Metal_State_Penalty>
0.0215827

> <b_epik_Metal_Only>
0

> <s_lp_Force_Field>
OPLS_2005

> <r_lp_Energy>
12.7075

> <b_lp_Chiralities_Consistent>
1

> <s_lp_Variant>
AV-unprocessed.smi:2078-4

> <Gold.Version>
5.8.1

> <Gold.Id.Protein>
6NUR|6NUR_protein|mol2

> <Gold.PLP.Fitness>
44.5098

> <Gold.PLP.PLP>
-31.7366

> <Gold.PLP.part.hbond>
-4.7948

> <Gold.PLP.part.metal>
0.0000

> <Gold.PLP.part.buried>
-3.2776

> <Gold.PLP.part.nonpolar>
-24.0791

> <Gold.PLP.part.repulsive>
0.4172

> <Gold.PLP.ligand.clash>
0.0000

> <Gold.PLP.ligand.torsion>
0.7125

> <Gold.PLP.Chemscore.Hbond>
4.7272

> <Gold.PLP.Chemscore.CHOScore>
0.0000

> <Gold.PLP.Chemscore.Metal>
0.0000

> <Gold.Chemscore.Hbonds>
donor molecule, donor type, donor heavy atom, donor atom, acceptor molecule, acceptor atom, score
      L1  H     5    24       P1  7957  1.00
      L1  H     8    25       P1  7957  0.86
      L1  H    11    42       P1  7948  2.00
      P1  H  7989  7998       L1    18  0.75

> <Gold.PLP.Chemscore.Internal.Correction>
0.0164

> <Gold.Rescore>
     Score         DG    S(hbond)    S(metal)    S(lipo)     H(rot)  DE(clash)    DE(int)     intcor
     16.68     -20.21       3.70        0.00      54.66       1.57       0.19       3.34       ----

> <Gold.Chemscore.Fitness>
16.6771

> <Gold.Chemscore.DG>
-20.2095

> <Gold.Chemscore.ZeroCoef>
-5.4800

> <Gold.Chemscore.Hbond>
3.6983

> <Gold.Chemscore.Metal>
0.0000

> <Gold.Chemscore.Lipo>
54.6627

> <Gold.Chemscore.Internal_Hbond>
0.0000

> <Gold.Chemscore.DEClash>
0.1922

> <Gold.Chemscore.DEInternal>
3.3402

> <Gold.Chemscore.Rot>
1.5697

> <Gold.Chemscore.Internal.Correction>
   9.000000E+99

> <Gold.Chemscore.Hbonds>
donor molecule, donor type, donor heavy atom, donor atom, acceptor molecule, acceptor atom, score
      L1  H     5    24       P1  7957  0.98
      L1  H     8    25       P1  7957  0.68
      L1  H    11    42       P1  7948  0.96
      P1  H  7989  7998       L1    18  0.08

> <Gold.Chemscore.Hbond.Weighted>
-12.3524

> <Gold.Chemscore.Metal.Weighted>
-0.0000

> <Gold.Chemscore.Lipo.Weighted>
-6.3955

> <Gold.Chemscore.Internal_Hbond.Weighted>
0.0000

> <Gold.Chemscore.DEClash.Weighted>
0.1922

> <Gold.Chemscore.DEInternal.Weighted>
3.3402

> <Gold.Chemscore.Rot.Weighted>
4.0185

> <Gold.Chemscore.Internal.Correction.Weighted>
   9.000000E+99

> <Gold.Protein.RotatedTorsions>
[ 6907 6896 6895 6894 ] final  -99.11 input  -60.11 | X-H torsion
[ 7974 7965 7964 7962 ] final  152.51 input  175.53 | X-H torsion
[ 8008 7997 7996 7995 ] final -125.80 input   59.86 | X-H torsion
[ 10167 10162 10161 10158 ] final   15.26 input  -65.29 | X-H torsion
[ 10718 10713 10712 10709 ] final  120.42 input   66.30 | X-H torsion
[ 10763 10752 10751 10750 ] final  152.06 input  -60.55 | X-H torsion
[ 11005 11000 10999 10996 ] final   39.84 input  -57.11 | X-H torsion

> <Gold.Protein.ActiveResidues>
 VAL166  LYS551  ARG553  GLY616  TRP617  ASP618  TYR619  PRO620  LYS621  CYS622 
 ASP623  PHE694  ASN695  SER759  ASP760  ASP761  ALA762  ILE779  LEU786  VAL792 
 PHE793  MET794  SER795  GLU796  ALA797  LYS798  CYS799  TRP800  GLU811  SER814 

> <Gold.Protein.RotatedAtoms>
  150.7069  134.1091  159.3993 H   0  0  0  0  0  0  0  0  0  0  0  0  # atno 6907 bound_to 6896
  151.9077  135.0349  160.0521 H   0  0  0  0  0  0  0  0  0  0  0  0  # atno 6908 bound_to 6896
  152.2361  133.5062  159.5280 H   0  0  0  0  0  0  0  0  0  0  0  0  # atno 6909 bound_to 6896
  144.8217  139.6678  143.6097 H   0  0  0  0  0  0  0  0  0  0  0  0  # atno 7974 bound_to 7965
  155.2193  140.0421  157.2946 H   0  0  0  0  0  0  0  0  0  0  0  0  # atno 8008 bound_to 7997
  154.5960  140.2439  155.7827 H   0  0  0  0  0  0  0  0  0  0  0  0  # atno 8009 bound_to 7997
  156.2290  140.2944  156.0149 H   0  0  0  0  0  0  0  0  0  0  0  0  # atno 8010 bound_to 7997
  140.5879  143.8853  150.6847 H   0  0  0  0  0  0  0  0  0  0  0  0  # atno 10167 bound_to 10162
  157.5892  131.1066  150.8033 H   0  0  0  0  0  0  0  0  0  0  0  0  # atno 10718 bound_to 10713
  154.1138  135.2837  155.3224 H   0  0  0  0  0  0  0  0  0  0  0  0  # atno 10763 bound_to 10752
  154.6471  135.5382  153.7860 H   0  0  0  0  0  0  0  0  0  0  0  0  # atno 10764 bound_to 10752
  153.0336  135.6501  154.1296 H   0  0  0  0  0  0  0  0  0  0  0  0  # atno 10765 bound_to 10752
  140.1989  134.3895  155.8106 H   0  0  0  0  0  0  0  0  0  0  0  0  # atno 11005 bound_to 11000
  146.2523  139.6226  142.9419 LP  0  0  0  0  0  0  0  0  0  0  0  0  # atno 17320 bound_to 7965
  145.5089  141.0436  143.2499 LP  0  0  0  0  0  0  0  0  0  0  0  0  # atno 17321 bound_to 7965
  140.2368  143.3693  152.1519 LP  0  0  0  0  0  0  0  0  0  0  0  0  # atno 17342 bound_to 10162
  139.5209  144.7039  151.5412 LP  0  0  0  0  0  0  0  0  0  0  0  0  # atno 17343 bound_to 10162
  156.8460  130.5064  149.5316 LP  0  0  0  0  0  0  0  0  0  0  0  0  # atno 17370 bound_to 10713
  156.0944  130.5921  150.9788 LP  0  0  0  0  0  0  0  0  0  0  0  0  # atno 17371 bound_to 10713
  141.2227  133.7084  156.8224 LP  0  0  0  0  0  0  0  0  0  0  0  0  # atno 17394 bound_to 11000
  140.2076  134.8851  157.3239 LP  0  0  0  0  0  0  0  0  0  0  0  0  # atno 17395 bound_to 11000

$$$$
