AV-unprocessed.smi:265|AV-procd|sdf|2025|dock8
  -GOLD-   2262021233D 1   1.00000     0.00000
 Structure written by MMmdl.
 52 56  0  0  0  0  0  0  0  0  1 V2000
  146.2301  142.8126  154.8804 C   0  0  0  0  0  0  0  0  0  0  0  0
  147.3174  141.9809  154.1807 C   0  0  2  0  0  0  0  0  0  0  0  0
  146.7331  141.0390  153.2924 O   0  0  0  0  0  0  0  0  0  0  0  0
  147.7282  140.0757  152.9977 C   0  0  0  0  0  0  0  0  0  0  0  0
  148.3427  139.7988  154.3643 C   0  0  0  0  0  0  0  0  0  0  0  0
  148.2637  141.1478  155.0862 C   0  0  2  0  0  0  0  0  0  0  0  0
  147.7040  140.9273  156.3709 O   0  0  0  0  0  0  0  0  0  0  0  0
  149.6596  141.7930  155.2694 C   0  0  0  0  0  0  0  0  0  0  0  0
  150.5436  141.0286  156.1370 N   0  0  0  0  0  0  0  0  0  0  0  0
  150.9359  139.7196  155.9684 C   0  0  0  0  0  0  0  0  0  0  0  0
  151.7295  139.2524  156.8927 N   0  0  0  0  0  0  0  0  0  0  0  0
  151.9120  140.3245  157.7578 C   0  0  0  0  0  0  0  0  0  0  0  0
  152.6456  140.5112  158.9636 C   0  0  0  0  0  0  0  0  0  0  0  0
  153.4006  139.5305  159.5206 N   0  0  0  0  0  0  0  0  0  0  0  0
  152.8267  138.1870  159.5921 C   0  0  0  0  0  0  0  0  0  0  0  0
  153.9208  137.1423  159.8604 C   0  0  0  0  0  0  0  0  0  0  0  0
  154.7583  137.4956  161.1005 C   0  0  2  0  0  0  0  0  0  0  0  0
  153.9706  137.3752  162.2779 O   0  0  0  0  0  0  0  0  0  0  0  0
  154.7185  137.5102  163.4877 C   0  0  0  0  0  0  0  0  0  0  0  0
  155.6296  138.7519  163.4782 C   0  0  0  0  0  0  0  0  0  0  0  0
  156.1089  139.1686  164.5300 O   0  0  0  0  0  0  0  0  0  0  0  0
  155.9086  139.3232  162.2956 N   0  0  0  0  0  0  0  0  0  0  0  0
  155.2791  138.9478  161.0339 C   0  0  2  0  0  0  0  0  0  0  0  0
  154.1457  139.9415  160.7088 C   0  0  0  0  0  0  0  0  0  0  0  0
  152.5699  141.7320  159.5586 N   0  0  0  0  0  0  0  0  0  0  0  0
  151.8381  142.7061  159.0103 C   0  0  0  0  0  0  0  0  0  0  0  0
  151.1118  142.6749  157.8917 N   0  0  0  0  0  0  0  0  0  0  0  0
  151.1739  141.4504  157.2952 C   0  0  0  0  0  0  0  0  0  0  0  0
  155.5948  136.7969  161.1653 H   0  0  0  0  0  0  0  0  0  0  0  0
  156.0344  139.0138  160.2497 H   0  0  0  0  0  0  0  0  0  0  0  0
  146.6691  143.5329  155.5711 H   0  0  0  0  0  0  0  0  0  0  0  0
  145.5407  142.1819  155.4419 H   0  0  0  0  0  0  0  0  0  0  0  0
  145.6432  143.3705  154.1508 H   0  0  0  0  0  0  0  0  0  0  0  0
  147.9118  142.6479  153.5553 H   0  0  0  0  0  0  0  0  0  0  0  0
  147.3033  139.1837  152.5370 H   0  0  0  0  0  0  0  0  0  0  0  0
  148.4650  140.5018  152.3147 H   0  0  0  0  0  0  0  0  0  0  0  0
  147.7385  139.0451  154.8725 H   0  0  0  0  0  0  0  0  0  0  0  0
  149.3565  139.4036  154.2878 H   0  0  0  0  0  0  0  0  0  0  0  0
  147.2970  140.0748  156.3791 H   0  0  0  0  0  0  0  0  0  0  0  0
  150.1521  141.9169  154.3041 H   0  0  0  0  0  0  0  0  0  0  0  0
  149.5550  142.7957  155.6861 H   0  0  0  0  0  0  0  0  0  0  0  0
  150.6048  139.1141  155.1373 H   0  0  0  0  0  0  0  0  0  0  0  0
  152.0779  138.1561  160.3851 H   0  0  0  0  0  0  0  0  0  0  0  0
  152.3184  137.9439  158.6580 H   0  0  0  0  0  0  0  0  0  0  0  0
  153.4762  136.1537  159.9758 H   0  0  0  0  0  0  0  0  0  0  0  0
  154.5774  137.0855  158.9915 H   0  0  0  0  0  0  0  0  0  0  0  0
  154.0262  137.5663  164.3283 H   0  0  0  0  0  0  0  0  0  0  0  0
  155.3342  136.6222  163.6346 H   0  0  0  0  0  0  0  0  0  0  0  0
  156.5341  140.1156  162.2824 H   0  0  0  0  0  0  0  0  0  0  0  0
  154.5654  140.9401  160.5908 H   0  0  0  0  0  0  0  0  0  0  0  0
  153.4471  139.9983  161.5451 H   0  0  0  0  0  0  0  0  0  0  0  0
  151.8342  143.6448  159.5447 H   0  0  0  0  0  0  0  0  0  0  0  0
  1  2  1  0  0  0  0
  1 31  1  0  0  0  0
  1 32  1  0  0  0  0
  1 33  1  0  0  0  0
  2  6  1  0  0  0  0
  2  3  1  0  0  0  0
  2 34  1  0  0  0  0
  3  4  1  0  0  0  0
  4  5  1  0  0  0  0
  4 35  1  0  0  0  0
  4 36  1  0  0  0  0
  5  6  1  0  0  0  0
  5 37  1  0  0  0  0
  5 38  1  0  0  0  0
  6  7  1  0  0  0  0
  6  8  1  0  0  0  0
  7 39  1  0  0  0  0
  8  9  1  0  0  0  0
  8 40  1  0  0  0  0
  8 41  1  0  0  0  0
  9 28  1  0  0  0  0
  9 10  1  0  0  0  0
 10 11  2  0  0  0  0
 10 42  1  0  0  0  0
 11 12  1  0  0  0  0
 12 28  2  0  0  0  0
 12 13  1  0  0  0  0
 13 14  1  0  0  0  0
 13 25  2  0  0  0  0
 14 24  1  0  0  0  0
 14 15  1  0  0  0  0
 15 16  1  0  0  0  0
 15 43  1  0  0  0  0
 15 44  1  0  0  0  0
 16 17  1  0  0  0  0
 16 45  1  0  0  0  0
 16 46  1  0  0  0  0
 17 29  1  0  0  0  0
 17 23  1  0  0  0  0
 17 18  1  0  0  0  0
 18 19  1  0  0  0  0
 19 20  1  0  0  0  0
 19 47  1  0  0  0  0
 19 48  1  0  0  0  0
 20 21  2  0  0  0  0
 20 22  1  0  0  0  0
 22 23  1  0  0  0  0
 22 49  1  0  0  0  0
 23 30  1  0  0  0  0
 23 24  1  0  0  0  0
 24 50  1  0  0  0  0
 24 51  1  0  0  0  0
 25 26  1  0  0  0  0
 26 27  2  0  0  0  0
 26 52  1  0  0  0  0
 27 28  1  0  0  0  0
M  END
> <s_m_source_file>
AV-unprocessed.smi

> <i_m_source_file_index>
265

> <i_lp_mmshare_version>
43012

> <i_f3d_flags>
0

> <s_epik_input>
W0NIMl0xW0NIMl1PW0NAQEhdKFtDSDNdKVtDQEBdMShbT0hdKVtDSDJdbihbY0hdbjIpYyhjMjMpbltjSF1uYzNOKFtDSDJdW0NIMl00KVtDSDJdW0NAQEhdKFtDQEhdNDUpW05IXUMoPU8pW0NIMl1PNQ==

> <s_epik_cmdline>
J2VwaWtfcHl0aG9uJywgJy1waCcsICc3LjAnLCAnLXRuJywgJzgnLCAnLW1hJywgJzIwMCcsICctbWV0YWxfYmluZGluZycsICctaW1hZScsICc8aW5maWxlLm1hZT4nLCAnLW9tYWUnLCAnPG91dGZpbGUubWFlPic=

> <r_lp_tautomer_probability>
1

> <r_epik_Ionization_Penalty>
0.00221504

> <r_epik_Ionization_Penalty_Charging>
0

> <r_epik_Ionization_Penalty_Neutral>
0.00221504

> <r_epik_State_Penalty>
-0

> <r_epik_Charging_Adjusted_Penalty>
0

> <i_epik_Tot_Q>
0

> <i_epik_Tot_abs_Q>
0

> <r_epik_Metal_State_Penalty>
-0

> <b_epik_Metal_Only>
0

> <s_lp_Force_Field>
OPLS_2005

> <r_lp_Energy>
44.0403

> <b_lp_Chiralities_Consistent>
1

> <s_lp_Variant>
AV-unprocessed.smi:265-11

> <Gold.Version>
5.8.1

> <Gold.Id.Protein>
6NUR|6NUR_protein|mol2

> <Gold.PLP.Fitness>
38.6100

> <Gold.PLP.PLP>
-38.7151

> <Gold.PLP.part.hbond>
0.0000

> <Gold.PLP.part.metal>
0.0000

> <Gold.PLP.part.buried>
-2.2944

> <Gold.PLP.part.nonpolar>
-36.6488

> <Gold.PLP.part.repulsive>
0.2870

> <Gold.PLP.ligand.clash>
0.0000

> <Gold.PLP.ligand.torsion>
0.2338

> <Gold.PLP.Chemscore.Hbond>
0.0000

> <Gold.PLP.Chemscore.CHOScore>
0.0000

> <Gold.PLP.Chemscore.Metal>
0.0000

> <Gold.PLP.Chemscore.Internal.Correction>
0.3624

> <Gold.Rescore>
     Score         DG    S(hbond)    S(metal)    S(lipo)     H(rot)  DE(clash)    DE(int)     intcor
      7.72      -8.83       0.00        0.00      77.78       2.25       0.89       0.22       ----

> <Gold.Chemscore.Fitness>
7.7189

> <Gold.Chemscore.DG>
-8.8327

> <Gold.Chemscore.ZeroCoef>
-5.4800

> <Gold.Chemscore.Hbond>
0.0000

> <Gold.Chemscore.Metal>
0.0000

> <Gold.Chemscore.Lipo>
77.7834

> <Gold.Chemscore.Internal_Hbond>
0.0000

> <Gold.Chemscore.DEClash>
0.8888

> <Gold.Chemscore.DEInternal>
0.2250

> <Gold.Chemscore.Rot>
2.2453

> <Gold.Chemscore.Internal.Correction>
   9.000000E+99

> <Gold.Chemscore.Hbond.Weighted>
-0.0000

> <Gold.Chemscore.Metal.Weighted>
-0.0000

> <Gold.Chemscore.Lipo.Weighted>
-9.1007

> <Gold.Chemscore.Internal_Hbond.Weighted>
0.0000

> <Gold.Chemscore.DEClash.Weighted>
0.8888

> <Gold.Chemscore.DEInternal.Weighted>
0.2250

> <Gold.Chemscore.Rot.Weighted>
5.7479

> <Gold.Chemscore.Internal.Correction.Weighted>
   9.000000E+99

> <Gold.Protein.RotatedTorsions>
[ 6907 6896 6895 6894 ] final  137.64 input  -60.11 | X-H torsion
[ 7974 7965 7964 7962 ] final -110.60 input  175.53 | X-H torsion
[ 8008 7997 7996 7995 ] final  -30.55 input   59.86 | X-H torsion
[ 10167 10162 10161 10158 ] final   41.23 input  -65.29 | X-H torsion
[ 10718 10713 10712 10709 ] final  117.58 input   66.30 | X-H torsion
[ 10763 10752 10751 10750 ] final   75.96 input  -60.55 | X-H torsion
[ 11005 11000 10999 10996 ] final  -38.62 input  -57.11 | X-H torsion

> <Gold.Protein.ActiveResidues>
 VAL166  LYS551  ARG553  GLY616  TRP617  ASP618  TYR619  PRO620  LYS621  CYS622 
 ASP623  PHE694  ASN695  SER759  ASP760  ASP761  ALA762  ILE779  LEU786  VAL792 
 PHE793  MET794  SER795  GLU796  ALA797  LYS798  CYS799  TRP800  GLU811  SER814 

> <Gold.Protein.RotatedAtoms>
  152.2757  133.5423  159.5466 H   0  0  0  0  0  0  0  0  0  0  0  0  # atno 6907 bound_to 6896
  150.7176  134.0635  159.3848 H   0  0  0  0  0  0  0  0  0  0  0  0  # atno 6908 bound_to 6896
  151.8547  135.0545  160.0513 H   0  0  0  0  0  0  0  0  0  0  0  0  # atno 6909 bound_to 6896
  145.1662  140.8903  143.3562 H   0  0  0  0  0  0  0  0  0  0  0  0  # atno 7974 bound_to 7965
  154.4246  140.1788  156.1425 H   0  0  0  0  0  0  0  0  0  0  0  0  # atno 8008 bound_to 7997
  155.9980  140.3362  155.6793 H   0  0  0  0  0  0  0  0  0  0  0  0  # atno 8009 bound_to 7997
  155.6282  140.0667  157.2648 H   0  0  0  0  0  0  0  0  0  0  0  0  # atno 8010 bound_to 7997
  140.3664  144.2162  150.6135 H   0  0  0  0  0  0  0  0  0  0  0  0  # atno 10167 bound_to 10162
  157.6087  131.1039  150.7635 H   0  0  0  0  0  0  0  0  0  0  0  0  # atno 10718 bound_to 10713
  153.0691  135.4969  154.8266 H   0  0  0  0  0  0  0  0  0  0  0  0  # atno 10763 bound_to 10752
  154.6997  135.2999  154.9361 H   0  0  0  0  0  0  0  0  0  0  0  0  # atno 10764 bound_to 10752
  154.0089  135.6757  153.4817 H   0  0  0  0  0  0  0  0  0  0  0  0  # atno 10765 bound_to 10752
  141.0041  133.6940  156.2077 H   0  0  0  0  0  0  0  0  0  0  0  0  # atno 11005 bound_to 11000
  145.0280  139.3366  143.6039 LP  0  0  0  0  0  0  0  0  0  0  0  0  # atno 17320 bound_to 7965
  146.3475  139.9606  142.8718 LP  0  0  0  0  0  0  0  0  0  0  0  0  # atno 17321 bound_to 7965
  140.5076  143.2299  151.8584 LP  0  0  0  0  0  0  0  0  0  0  0  0  # atno 17342 bound_to 10162
  139.4808  144.4987  151.9089 LP  0  0  0  0  0  0  0  0  0  0  0  0  # atno 17343 bound_to 10162
  156.8017  130.4923  149.5369 LP  0  0  0  0  0  0  0  0  0  0  0  0  # atno 17370 bound_to 10713
  156.1182  130.6090  151.0153 LP  0  0  0  0  0  0  0  0  0  0  0  0  # atno 17371 bound_to 10713
  140.6841  134.4735  157.5589 LP  0  0  0  0  0  0  0  0  0  0  0  0  # atno 17394 bound_to 11000
  139.9054  134.8461  156.1727 LP  0  0  0  0  0  0  0  0  0  0  0  0  # atno 17395 bound_to 11000

$$$$
