AV-unprocessed.smi:602|AV-procd|sdf|3035|dock9
  -GOLD-   2262023553D 1   1.00000     0.00000
 Structure written by MMmdl.
 47 48  0  0  0  0  0  0  0  0  1 V2000
  148.0532  141.0287  153.6989 C   0  0  0  0  0  0  0  0  0  0  0  0
  148.8172  140.2157  154.7483 C   0  0  0  0  0  0  0  0  0  0  0  0
  148.0149  140.0394  156.0482 C   0  0  0  0  0  0  0  0  0  0  0  0
  148.7081  139.2182  157.0204 N   0  0  0  0  0  0  0  0  0  0  0  0
  148.1629  138.0606  157.5826 C   0  0  0  0  0  0  0  0  0  0  0  0
  146.8891  137.6810  157.1843 N   0  0  0  0  0  0  0  0  0  0  0  0
  148.8647  137.2949  158.4706 C   0  0  0  0  0  0  0  0  0  0  0  0
  148.3098  136.1356  159.0443 N   0  0  0  0  0  0  0  0  0  0  0  0
  148.4796  134.8779  158.2970 C   0  0  0  0  0  0  0  0  0  0  0  0
  149.8743  134.7694  157.6483 C   0  0  0  0  0  0  0  0  0  0  0  0
  150.4895  133.5095  157.8785 O   0  0  0  0  0  0  0  0  0  0  0  0
  151.6527  133.2856  157.0974 C   0  0  0  0  0  0  0  0  0  0  0  0
  147.7189  136.1518  160.2690 C   0  0  0  0  0  0  0  0  0  0  0  0
  147.6346  137.1821  160.9387 O   0  0  0  0  0  0  0  0  0  0  0  0
  147.1379  134.8396  160.8422 C   0  0  0  0  0  0  0  0  0  0  0  0
  145.6834  134.9539  161.3310 C   0  0  0  0  0  0  0  0  0  0  0  0
  146.0674  134.1009  162.5426 C   0  0  0  0  0  0  0  0  0  0  0  0
  147.5235  134.5048  162.2979 C   0  0  0  0  0  0  0  0  0  0  0  0
  150.2180  137.6861  158.8884 C   0  0  0  0  0  0  0  0  0  0  0  0
  150.9193  137.0871  159.7026 O   0  0  0  0  0  0  0  0  0  0  0  0
  150.7105  138.8352  158.2758 N   0  0  0  0  0  0  0  0  0  0  0  0
  150.0277  139.6134  157.3478 C   0  0  0  0  0  0  0  0  0  0  0  0
  150.5865  140.5946  156.8562 O   0  0  0  0  0  0  0  0  0  0  0  0
  151.6464  139.1240  158.5214 H   0  0  0  0  0  0  0  0  0  0  0  0
  148.6410  141.1375  152.7874 H   0  0  0  0  0  0  0  0  0  0  0  0
  147.8225  142.0285  154.0680 H   0  0  0  0  0  0  0  0  0  0  0  0
  147.1135  140.5436  153.4336 H   0  0  0  0  0  0  0  0  0  0  0  0
  149.0659  139.2378  154.3344 H   0  0  0  0  0  0  0  0  0  0  0  0
  149.7661  140.7088  154.9620 H   0  0  0  0  0  0  0  0  0  0  0  0
  147.7738  140.9956  156.5163 H   0  0  0  0  0  0  0  0  0  0  0  0
  147.0506  139.5668  155.8630 H   0  0  0  0  0  0  0  0  0  0  0  0
  146.3614  138.2162  156.5095 H   0  0  0  0  0  0  0  0  0  0  0  0
  146.4157  136.8904  157.5975 H   0  0  0  0  0  0  0  0  0  0  0  0
  148.3599  134.0373  158.9818 H   0  0  0  0  0  0  0  0  0  0  0  0
  147.6911  134.7432  157.5559 H   0  0  0  0  0  0  0  0  0  0  0  0
  149.7846  134.9058  156.5708 H   0  0  0  0  0  0  0  0  0  0  0  0
  150.5213  135.5755  157.9975 H   0  0  0  0  0  0  0  0  0  0  0  0
  152.0646  132.3048  157.3346 H   0  0  0  0  0  0  0  0  0  0  0  0
  152.4267  134.0269  157.2955 H   0  0  0  0  0  0  0  0  0  0  0  0
  151.4193  133.3013  156.0321 H   0  0  0  0  0  0  0  0  0  0  0  0
  147.2949  133.9739  160.1980 H   0  0  0  0  0  0  0  0  0  0  0  0
  145.3897  135.9698  161.6018 H   0  0  0  0  0  0  0  0  0  0  0  0
  144.9484  134.4872  160.6744 H   0  0  0  0  0  0  0  0  0  0  0  0
  145.6520  134.4424  163.4912 H   0  0  0  0  0  0  0  0  0  0  0  0
  145.8916  133.0362  162.3817 H   0  0  0  0  0  0  0  0  0  0  0  0
  148.2334  133.6833  162.3983 H   0  0  0  0  0  0  0  0  0  0  0  0
  147.8178  135.3604  162.9078 H   0  0  0  0  0  0  0  0  0  0  0  0
  1  2  1  0  0  0  0
  1 25  1  0  0  0  0
  1 26  1  0  0  0  0
  1 27  1  0  0  0  0
  2  3  1  0  0  0  0
  2 28  1  0  0  0  0
  2 29  1  0  0  0  0
  3  4  1  0  0  0  0
  3 30  1  0  0  0  0
  3 31  1  0  0  0  0
  4 22  1  0  0  0  0
  4  5  1  0  0  0  0
  5  6  1  0  0  0  0
  5  7  2  0  0  0  0
  6 32  1  0  0  0  0
  6 33  1  0  0  0  0
  7  8  1  0  0  0  0
  7 19  1  0  0  0  0
  8  9  1  0  0  0  0
  8 13  1  0  0  0  0
  9 10  1  0  0  0  0
  9 34  1  0  0  0  0
  9 35  1  0  0  0  0
 10 11  1  0  0  0  0
 10 36  1  0  0  0  0
 10 37  1  0  0  0  0
 11 12  1  0  0  0  0
 12 38  1  0  0  0  0
 12 39  1  0  0  0  0
 12 40  1  0  0  0  0
 13 14  2  0  0  0  0
 13 15  1  0  0  0  0
 15 18  1  0  0  0  0
 15 16  1  0  0  0  0
 15 41  1  0  0  0  0
 16 17  1  0  0  0  0
 16 42  1  0  0  0  0
 16 43  1  0  0  0  0
 17 18  1  0  0  0  0
 17 44  1  0  0  0  0
 17 45  1  0  0  0  0
 18 46  1  0  0  0  0
 18 47  1  0  0  0  0
 19 20  2  0  0  0  0
 19 21  1  0  0  0  0
 21 24  1  0  0  0  0
 21 22  1  0  0  0  0
 22 23  2  0  0  0  0
M  END
> <s_m_source_file>
AV-unprocessed.smi

> <i_m_source_file_index>
602

> <i_lp_mmshare_version>
43012

> <i_f3d_flags>
0

> <s_epik_input>
W0NIM11bQ0gyXVtDSDJdbjFjKFtOSDJdKWMoYyg9TylbbkhdYzE9TylOKFtDSDJdW0NIMl1PW0NIM10pQyg9TylbQ0hdMltDSDJdW0NIMl1bQ0gyXTI=

> <s_epik_cmdline>
J2VwaWtfcHl0aG9uJywgJy1waCcsICc3LjAnLCAnLXRuJywgJzgnLCAnLW1hJywgJzIwMCcsICctbWV0YWxfYmluZGluZycsICctaW1hZScsICc8aW5maWxlLm1hZT4nLCAnLW9tYWUnLCAnPG91dGZpbGUubWFlPic=

> <r_lp_tautomer_probability>
1

> <r_epik_Ionization_Penalty>
1.77098e-05

> <r_epik_Ionization_Penalty_Charging>
5.46221e-06

> <r_epik_Ionization_Penalty_Neutral>
1.22476e-05

> <r_epik_State_Penalty>
-0

> <r_epik_Charging_Adjusted_Penalty>
5.46221e-06

> <i_epik_Tot_Q>
0

> <i_epik_Tot_abs_Q>
0

> <r_epik_Metal_State_Penalty>
-0

> <b_epik_Metal_Only>
0

> <s_epik_Chemistry_Notes>
This compound has an imine and may undergo hydrolysis.

> <s_lp_Force_Field>
OPLS_2005

> <r_lp_Energy>
36.0285

> <b_lp_Chiralities_Consistent>
1

> <s_lp_Variant>
AV-unprocessed.smi:602-1

> <Gold.Version>
5.8.1

> <Gold.Id.Protein>
6NUR|6NUR_protein|mol2

> <Gold.PLP.Fitness>
39.9962

> <Gold.PLP.PLP>
-30.8794

> <Gold.PLP.part.hbond>
-4.0000

> <Gold.PLP.part.metal>
0.0000

> <Gold.PLP.part.buried>
-5.0447

> <Gold.PLP.part.nonpolar>
-21.9843

> <Gold.PLP.part.repulsive>
0.1595

> <Gold.PLP.ligand.clash>
0.0000

> <Gold.PLP.ligand.torsion>
2.3449

> <Gold.PLP.Chemscore.Hbond>
3.7440

> <Gold.PLP.Chemscore.CHOScore>
0.0000

> <Gold.PLP.Chemscore.Metal>
0.0000

> <Gold.Chemscore.Hbonds>
donor molecule, donor type, donor heavy atom, donor atom, acceptor molecule, acceptor atom, score
      P1  H  6896  6908       L1    11  0.70
      P1  H  6896  6909       L1    20  1.00
      P1  H  6931  6943       L1    14  0.86
      P1  H  6934  6947       L1    14  0.93

> <Gold.PLP.Chemscore.Internal.Correction>
2.5746

> <Gold.Rescore>
     Score         DG    S(hbond)    S(metal)    S(lipo)     H(rot)  DE(clash)    DE(int)     intcor
     14.11     -18.10       3.43        0.00      56.37       2.12       0.01       3.99       ----

> <Gold.Chemscore.Fitness>
14.1073

> <Gold.Chemscore.DG>
-18.0996

> <Gold.Chemscore.ZeroCoef>
-5.4800

> <Gold.Chemscore.Hbond>
3.4304

> <Gold.Chemscore.Metal>
0.0000

> <Gold.Chemscore.Lipo>
56.3745

> <Gold.Chemscore.Internal_Hbond>
0.0000

> <Gold.Chemscore.DEClash>
0.0073

> <Gold.Chemscore.DEInternal>
3.9850

> <Gold.Chemscore.Rot>
2.1226

> <Gold.Chemscore.Internal.Correction>
   9.000000E+99

> <Gold.Chemscore.Hbonds>
donor molecule, donor type, donor heavy atom, donor atom, acceptor molecule, acceptor atom, score
      P1  H  6896  6908       L1    11  0.13
      P1  H  6896  6909       L1    20  0.97
      P1  H  6931  6943       L1    14  0.82
      P1  H  6934  6947       L1    14  0.91

> <Gold.Chemscore.Hbond.Weighted>
-11.4576

> <Gold.Chemscore.Metal.Weighted>
-0.0000

> <Gold.Chemscore.Lipo.Weighted>
-6.5958

> <Gold.Chemscore.Internal_Hbond.Weighted>
0.0000

> <Gold.Chemscore.DEClash.Weighted>
0.0073

> <Gold.Chemscore.DEInternal.Weighted>
3.9850

> <Gold.Chemscore.Rot.Weighted>
5.4338

> <Gold.Chemscore.Internal.Correction.Weighted>
   9.000000E+99

> <Gold.Protein.RotatedTorsions>
[ 6907 6896 6895 6894 ] final  107.33 input  -60.11 | X-H torsion
[ 7974 7965 7964 7962 ] final   20.33 input  175.53 | X-H torsion
[ 8008 7997 7996 7995 ] final   34.71 input   59.86 | X-H torsion
[ 10167 10162 10161 10158 ] final   96.97 input  -65.29 | X-H torsion
[ 10718 10713 10712 10709 ] final -156.14 input   66.30 | X-H torsion
[ 10763 10752 10751 10750 ] final  -89.28 input  -60.55 | X-H torsion
[ 11005 11000 10999 10996 ] final   -9.68 input  -57.11 | X-H torsion

> <Gold.Protein.ActiveResidues>
 VAL166  LYS551  ARG553  GLY616  TRP617  ASP618  TYR619  PRO620  LYS621  CYS622 
 ASP623  PHE694  ASN695  SER759  ASP760  ASP761  ALA762  ILE779  LEU786  VAL792 
 PHE793  MET794  SER795  GLU796  ALA797  LYS798  CYS799  TRP800  GLU811  SER814 

> <Gold.Protein.RotatedAtoms>
  152.5159  133.9251  159.7552 H   0  0  0  0  0  0  0  0  0  0  0  0  # atno 6907 bound_to 6896
  150.9614  133.6433  159.2761 H   0  0  0  0  0  0  0  0  0  0  0  0  # atno 6908 bound_to 6896
  151.3677  135.0922  159.9508 H   0  0  0  0  0  0  0  0  0  0  0  0  # atno 6909 bound_to 6896
  146.2115  139.8184  142.8685 H   0  0  0  0  0  0  0  0  0  0  0  0  # atno 7974 bound_to 7965
  155.1592  140.3282  155.4415 H   0  0  0  0  0  0  0  0  0  0  0  0  # atno 8008 bound_to 7997
  156.2548  140.1963  156.6651 H   0  0  0  0  0  0  0  0  0  0  0  0  # atno 8009 bound_to 7997
  154.6417  140.0569  156.9839 H   0  0  0  0  0  0  0  0  0  0  0  0  # atno 8010 bound_to 7997
  139.7844  144.6876  150.9978 H   0  0  0  0  0  0  0  0  0  0  0  0  # atno 10167 bound_to 10162
  156.5224  130.8484  151.2687 H   0  0  0  0  0  0  0  0  0  0  0  0  # atno 10718 bound_to 10713
  154.6536  135.5346  153.7932 H   0  0  0  0  0  0  0  0  0  0  0  0  # atno 10763 bound_to 10752
  153.0400  135.6488  154.0979 H   0  0  0  0  0  0  0  0  0  0  0  0  # atno 10764 bound_to 10752
  154.0894  135.2941  155.3254 H   0  0  0  0  0  0  0  0  0  0  0  0  # atno 10765 bound_to 10752
  140.7367  133.8704  155.8935 H   0  0  0  0  0  0  0  0  0  0  0  0  # atno 11005 bound_to 11000
  145.3122  141.0222  143.3548 LP  0  0  0  0  0  0  0  0  0  0  0  0  # atno 17320 bound_to 7965
  144.8928  139.4752  143.6670 LP  0  0  0  0  0  0  0  0  0  0  0  0  # atno 17321 bound_to 7965
  140.7819  143.4448  151.0499 LP  0  0  0  0  0  0  0  0  0  0  0  0  # atno 17342 bound_to 10162
  139.8127  143.7929  152.3172 LP  0  0  0  0  0  0  0  0  0  0  0  0  # atno 17343 bound_to 10162
  157.7435  130.9913  150.2595 LP  0  0  0  0  0  0  0  0  0  0  0  0  # atno 17370 bound_to 10713
  156.3136  130.3775  149.7638 LP  0  0  0  0  0  0  0  0  0  0  0  0  # atno 17371 bound_to 10713
  140.9873  134.1325  157.4440 LP  0  0  0  0  0  0  0  0  0  0  0  0  # atno 17394 bound_to 11000
  139.8815  135.0029  156.6157 LP  0  0  0  0  0  0  0  0  0  0  0  0  # atno 17395 bound_to 11000

$$$$
