#       Name:                AV-unprocessed.smi:345
#       Creating user name   scv26
#       Creation time:       Thu Mar 26 22:32:10 2020


#       File generated by GOLD software.
#

@<TRIPOS>MOLECULE
AV-unprocessed.smi:345
    39    41     1
SMALL
NO_CHARGES


@<TRIPOS>ATOM
      1 ****        -6.2328   2.2311   0.1031 C.3            1 S1                 0.0000
      2 ****        -4.7772   1.9135   0.1393 C.2            1 S1                 0.0000
      3 ****        -4.0785   0.7403   0.0815 C.2            1 S1                 0.0000
      4 ****        -2.7267   1.1689   0.1576 C.2            1 S1                 0.0000
      5 ****        -1.6631   0.2316   0.1186 N.am           1 S1                 0.0000
      6 ****        -0.3441   0.4873   0.1496 C.2            1 S1                 0.0000
      7 ****         0.1578   1.6072   0.2495 O.2            1 S1                 0.0000
      8 ****         0.3718  -0.6432   0.0554 N.am           1 S1                 0.0000
      9 ****         1.8285  -0.7293   0.0335 C.3            1 S1                 0.0000
     10 ****         2.4056  -0.4977  -1.3543 C.3            1 S1                 0.0000
     11 ****         3.8368  -0.0533  -1.5463 C.3            1 S1                 0.0000
     12 ****         2.7026   0.8925  -1.8660 C.3            1 S1                 0.0000
     13 ****         2.3139  -2.0570   0.5874 C.3            1 S1                 0.0000
     14 ****         2.4376  -2.2844   2.0750 C.3            1 S1                 0.0000
     15 ****         3.6798  -2.1978   1.2171 C.3            1 S1                 0.0000
     16 ****        -2.6105   2.4840   0.2596 N.2            1 S1                 0.0000
     17 ****        -3.9241   2.9679   0.2482 O.3            1 S1                 0.0000
     18 ****        -6.8307   1.3196   0.0903 H              1 S1                 0.0000
     19 ****        -6.4792   2.8083  -0.7881 H              1 S1                 0.0000
     20 ****        -6.5238   2.8152   0.9763 H              1 S1                 0.0000
     21 ****        -4.4737  -0.2609  -0.0058 H              1 S1                 0.0000
     22 ****        -1.9358  -0.7368   0.0406 H              1 S1                 0.0000
     23 ****        -0.1303  -1.5160  -0.0164 H              1 S1                 0.0000
     24 ****         2.2228   0.0502   0.6892 H              1 S1                 0.0000
     25 ****         2.0348  -1.2019  -2.0971 H              1 S1                 0.0000
     26 ****         4.4290   0.1632  -0.6598 H              1 S1                 0.0000
     27 ****         4.3871  -0.4807  -2.3818 H              1 S1                 0.0000
     28 ****         2.4948   1.0950  -2.9145 H              1 S1                 0.0000
     29 ****         2.5470   1.7307  -1.1899 H              1 S1                 0.0000
     30 ****         1.9766  -2.9150   0.0082 H              1 S1                 0.0000
     31 ****         2.2263  -1.4466   2.7366 H              1 S1                 0.0000
     32 ****         2.1589  -3.2637   2.4585 H              1 S1                 0.0000
     33 ****         4.2264  -3.1190   1.0262 H              1 S1                 0.0000
     34 ****         4.2925  -1.3045   1.3184 H              1 S1                 0.0000
     35 ****        -0.4292   2.4142   0.3150 LP             1 S1                 0.0000
     36 ****         1.1524   1.7098   0.2651 LP             1 S1                 0.0000
     37 ****        -1.7669   3.0164   0.3296 LP             1 S1                 0.0000
     38 ****        -4.1077   3.4628   1.0976 LP             1 S1                 0.0000
     39 ****        -4.0491   3.5835  -0.5299 LP             1 S1                 0.0000
@<TRIPOS>BOND
    1    1    2 1     
    2    1   18 1     
    3    1   19 1     
    4    1   20 1     
    5    2   17 1     
    6    2    3 2     
    7    3    4 1     
    8    3   21 1     
    9    4    5 1     
   10    4   16 2     
   11    5    6 am    
   12    5   22 1     
   13    6    7 2     
   14    6    8 am    
   15    8    9 1     
   16    8   23 1     
   17    9   10 1     
   18    9   13 1     
   19    9   24 1     
   20   10   12 1     
   21   10   11 1     
   22   10   25 1     
   23   11   12 1     
   24   11   26 1     
   25   11   27 1     
   26   12   28 1     
   27   12   29 1     
   28   13   15 1     
   29   13   14 1     
   30   13   30 1     
   31   14   15 1     
   32   14   31 1     
   33   14   32 1     
   34   15   33 1     
   35   15   34 1     
   36   16   17 1     
   37    7   35 1     
   38    7   36 1     
   39   16   37 1     
   40   17   38 1     
   41   17   39 1     
@<TRIPOS>SUBSTRUCTURE
      1 S1             1
@<TRIPOS>SET
LONE_PAIRS      STATIC     ATOMS    <user>   **** ""
5 35 36 37 38 39
DONOR_HYDROGENS      STATIC     ATOMS    <user>   **** ""
2 22 23
ATOM$BLUE        STATIC     ATOMS    COLORGROUP SYSTEM
5 35 36 37 38 39
ATOM$RED        STATIC     ATOMS    COLORGROUP SYSTEM
2 22 23
