#       Name:                AV-unprocessed.smi:1247
#       Creating user name   scv26
#       Creation time:       Fri Mar 27 04:35:41 2020


#       File generated by GOLD software.
#

@<TRIPOS>MOLECULE
AV-unprocessed.smi:1247
    52    53     1
SMALL
NO_CHARGES


@<TRIPOS>ATOM
      1 ****        -6.2694   3.5342   1.3497 C.3            1 S1                 0.0000
      2 ****        -5.6265   2.1965   1.1313 C.2            1 S1                 0.0000
      3 ****        -4.2421   1.8655   1.2001 C.2            1 S1                 0.0000
      4 ****        -4.2375   0.5268   0.9171 C.2            1 S1                 0.0000
      5 ****        -3.1801  -0.3257   0.8554 N.am           1 S1                 0.0000
      6 ****        -1.8675  -0.0417   0.9178 C.2            1 S1                 0.0000
      7 ****        -1.3827   1.0860   1.0138 O.2            1 S1                 0.0000
      8 ****        -1.1259  -1.1567   0.8491 N.am           1 S1                 0.0000
      9 ****         0.3315  -1.1913   0.8833 C.3            1 S1                 0.0000
     10 ****         0.9345  -0.8312  -0.4877 C.3            1 S1                 0.0000
     11 ****         2.4164  -0.9083  -0.4897 N.4            1 S1                 1.0000
     12 ****         2.9724  -1.0863  -1.8519 C.3            1 S1                 0.0000
     13 ****         4.5053  -1.2277  -1.7957 C.3            1 S1                 0.0000
     14 ****         5.1281  -1.3392  -3.1916 C.3            1 S1                 0.0000
     15 ****         5.0533  -0.0813  -1.1547 O.3            1 S1                 0.0000
     16 ****         4.6007   0.0647   0.1869 C.3            1 S1                 0.0000
     17 ****         5.3200   1.2685   0.8049 C.3            1 S1                 0.0000
     18 ****         3.0699   0.2394   0.1862 C.3            1 S1                 0.0000
     19 ****        -5.5354   0.1123   0.7060 N.pl3          1 S1                 0.0000
     20 ****        -6.0590  -1.2004   0.3804 C.3            1 S1                 0.0000
     21 ****        -6.3890   1.1502   0.8352 N.2            1 S1                 0.0000
     22 ****        -5.5429   4.2692   1.6966 H              1 S1                 0.0000
     23 ****        -7.0612   3.4730   2.0969 H              1 S1                 0.0000
     24 ****        -6.7097   3.9121   0.4267 H              1 S1                 0.0000
     25 ****        -3.4101   2.5155   1.4249 H              1 S1                 0.0000
     26 ****        -3.4207  -1.2990   0.7389 H              1 S1                 0.0000
     27 ****        -1.6028  -2.0435   0.7717 H              1 S1                 0.0000
     28 ****         0.6883  -0.5216   1.6664 H              1 S1                 0.0000
     29 ****         0.6397  -2.1965   1.1719 H              1 S1                 0.0000
     30 ****         0.5382  -1.5318  -1.2244 H              1 S1                 0.0000
     31 ****         0.6191   0.1629  -0.8087 H              1 S1                 0.0000
     32 ****         2.5391  -1.9749  -2.3130 H              1 S1                 0.0000
     33 ****         2.6931  -0.2335  -2.4732 H              1 S1                 0.0000
     34 ****         4.7724  -2.1198  -1.2259 H              1 S1                 0.0000
     35 ****         4.7544  -2.2168  -3.7197 H              1 S1                 0.0000
     36 ****         6.2130  -1.4278  -3.1280 H              1 S1                 0.0000
     37 ****         4.9012  -0.4615  -3.7975 H              1 S1                 0.0000
     38 ****         4.8685  -0.8280   0.7554 H              1 S1                 0.0000
     39 ****         5.0141   1.4192   1.8405 H              1 S1                 0.0000
     40 ****         5.1024   2.1844   0.2544 H              1 S1                 0.0000
     41 ****         6.4006   1.1233   0.7956 H              1 S1                 0.0000
     42 ****         2.7978   1.1652  -0.3239 H              1 S1                 0.0000
     43 ****         2.7164   0.3265   1.2130 H              1 S1                 0.0000
     44 ****        -5.2733  -1.9539   0.4336 H              1 S1                 0.0000
     45 ****        -6.4706  -1.1901  -0.6293 H              1 S1                 0.0000
     46 ****        -6.8482  -1.4676   1.0840 H              1 S1                 0.0000
     47 ****         2.6647  -1.7394   0.0278 H              1 S1                 0.0000
     48 ****        -1.9814   1.8861   1.0516 LP             1 S1                 0.0000
     49 ****        -0.3903   1.2018   1.0539 LP             1 S1                 0.0000
     50 ****         4.7885   0.7323  -1.6724 LP             1 S1                 0.0000
     51 ****         6.0499  -0.1632  -1.1493 LP             1 S1                 0.0000
     52 ****        -7.3834   1.1345   0.7303 LP             1 S1                 0.0000
@<TRIPOS>BOND
    1    1    2 1     
    2    1   22 1     
    3    1   23 1     
    4    1   24 1     
    5    2   21 2     
    6    2    3 1     
    7    3    4 2     
    8    3   25 1     
    9    4    5 1     
   10    4   19 1     
   11    5    6 am    
   12    5   26 1     
   13    6    7 2     
   14    6    8 am    
   15    8    9 1     
   16    8   27 1     
   17    9   10 1     
   18    9   28 1     
   19    9   29 1     
   20   10   11 1     
   21   10   30 1     
   22   10   31 1     
   23   11   18 1     
   24   11   12 1     
   25   11   47 1     
   26   12   13 1     
   27   12   32 1     
   28   12   33 1     
   29   13   14 1     
   30   13   15 1     
   31   13   34 1     
   32   14   35 1     
   33   14   36 1     
   34   14   37 1     
   35   15   16 1     
   36   16   17 1     
   37   16   18 1     
   38   16   38 1     
   39   17   39 1     
   40   17   40 1     
   41   17   41 1     
   42   18   42 1     
   43   18   43 1     
   44   19   20 1     
   45   19   21 1     
   46   20   44 1     
   47   20   45 1     
   48   20   46 1     
   49    7   48 1     
   50    7   49 1     
   51   15   50 1     
   52   15   51 1     
   53   21   52 1     
@<TRIPOS>SUBSTRUCTURE
      1 S1             1
@<TRIPOS>SET
LONE_PAIRS      STATIC     ATOMS    <user>   **** ""
5 48 49 50 51 52
DONOR_HYDROGENS      STATIC     ATOMS    <user>   **** ""
3 26 27 47
ATOM$BLUE        STATIC     ATOMS    COLORGROUP SYSTEM
5 48 49 50 51 52
ATOM$RED        STATIC     ATOMS    COLORGROUP SYSTEM
3 26 27 47
