AV-unprocessed.smi:2078|AV-procd|sdf|8469|dock6
  -GOLD-   2272011173D 1   1.00000     0.00000
 Structure written by MMmdl.
 41 42  0  0  0  0  0  0  0  0  3 V2000
  152.4118  140.3305  159.1575 C   0  0  0  0  0  0  0  0  0  0  0  0
  152.0682  140.1562  157.7179 C   0  0  0  0  0  0  0  0  0  0  0  0
  151.0012  140.5543  156.9634 C   0  0  0  0  0  0  0  0  0  0  0  0
  151.3124  140.0514  155.6706 C   0  0  0  0  0  0  0  0  0  0  0  0
  150.5670  140.1986  154.5645 N   0  5  0  0  0  0  0  0  0  0  0  0
  149.2174  140.1864  154.6454 C   0  0  0  0  0  0  0  0  0  0  0  0
  148.5442  140.2367  155.6777 O   0  0  0  0  0  0  0  0  0  0  0  0
  148.6075  140.1056  153.4541 N   0  0  0  0  0  0  0  0  0  0  0  0
  147.1666  140.0581  153.2396 C   0  0  0  0  0  0  0  0  0  0  0  0
  146.7490  138.7558  152.5307 C   0  0  0  0  0  0  0  0  0  0  0  0
  145.4419  138.2458  153.0131 N   0  3  1  0  0  0  0  0  0  0  0  0
  144.9417  137.1168  152.1874 C   0  0  0  0  0  0  0  0  0  0  0  0
  143.5206  136.7100  152.6074 C   0  0  0  0  0  0  0  0  0  0  0  0
  143.4653  136.3653  154.1024 C   0  0  0  0  0  0  0  0  0  0  0  0
  144.0407  137.5071  154.9605 C   0  0  2  0  0  0  0  0  0  0  0  0
  143.0949  138.7171  155.0561 C   0  0  0  0  0  0  0  0  0  0  0  0
  145.4459  137.9037  154.4619 C   0  0  0  0  0  0  0  0  0  0  0  0
  152.4726  139.4178  155.6401 N   0  0  0  0  0  0  0  0  0  0  0  0
  152.9621  139.4769  156.9503 O   0  0  0  0  0  0  0  0  0  0  0  0
  152.8371  141.3185  159.3347 H   0  0  0  0  0  0  0  0  0  0  0  0
  153.1391  139.5851  159.4800 H   0  0  0  0  0  0  0  0  0  0  0  0
  151.5242  140.2266  159.7817 H   0  0  0  0  0  0  0  0  0  0  0  0
  150.1352  141.1133  157.2842 H   0  0  0  0  0  0  0  0  0  0  0  0
  149.1960  140.0688  152.6344 H   0  0  0  0  0  0  0  0  0  0  0  0
  146.6601  140.1793  154.1973 H   0  0  0  0  0  0  0  0  0  0  0  0
  146.8873  140.9179  152.6304 H   0  0  0  0  0  0  0  0  0  0  0  0
  146.6843  138.9644  151.4616 H   0  0  0  0  0  0  0  0  0  0  0  0
  147.5071  137.9796  152.6451 H   0  0  0  0  0  0  0  0  0  0  0  0
  144.9320  137.4026  151.1349 H   0  0  0  0  0  0  0  0  0  0  0  0
  145.6216  136.2683  152.2798 H   0  0  0  0  0  0  0  0  0  0  0  0
  142.8250  137.5196  152.3844 H   0  0  0  0  0  0  0  0  0  0  0  0
  143.1906  135.8538  152.0183 H   0  0  0  0  0  0  0  0  0  0  0  0
  142.4419  136.1371  154.4022 H   0  0  0  0  0  0  0  0  0  0  0  0
  144.0438  135.4574  154.2791 H   0  0  0  0  0  0  0  0  0  0  0  0
  144.1511  137.1242  155.9759 H   0  0  0  0  0  0  0  0  0  0  0  0
  142.9433  139.1943  154.0881 H   0  0  0  0  0  0  0  0  0  0  0  0
  143.4945  139.4714  155.7346 H   0  0  0  0  0  0  0  0  0  0  0  0
  142.1170  138.4214  155.4373 H   0  0  0  0  0  0  0  0  0  0  0  0
  146.1418  137.0801  154.6294 H   0  0  0  0  0  0  0  0  0  0  0  0
  145.8134  138.7399  155.0555 H   0  0  0  0  0  0  0  0  0  0  0  0
  144.7809  138.9993  152.8895 H   0  0  0  0  0  0  0  0  0  0  0  0
  1  2  1  0  0  0  0
  1 20  1  0  0  0  0
  1 21  1  0  0  0  0
  1 22  1  0  0  0  0
  2 19  1  0  0  0  0
  2  3  2  0  0  0  0
  3  4  1  0  0  0  0
  3 23  1  0  0  0  0
  4  5  1  0  0  0  0
  4 18  2  0  0  0  0
  5  6  1  0  0  0  0
  6  7  2  0  0  0  0
  6  8  1  0  0  0  0
  8  9  1  0  0  0  0
  8 24  1  0  0  0  0
  9 10  1  0  0  0  0
  9 25  1  0  0  0  0
  9 26  1  0  0  0  0
 10 11  1  0  0  0  0
 10 27  1  0  0  0  0
 10 28  1  0  0  0  0
 11 17  1  0  0  0  0
 11 12  1  0  0  0  0
 11 41  1  0  0  0  0
 12 13  1  0  0  0  0
 12 29  1  0  0  0  0
 12 30  1  0  0  0  0
 13 14  1  0  0  0  0
 13 31  1  0  0  0  0
 13 32  1  0  0  0  0
 14 15  1  0  0  0  0
 14 33  1  0  0  0  0
 14 34  1  0  0  0  0
 15 16  1  0  0  0  0
 15 17  1  0  0  0  0
 15 35  1  0  0  0  0
 16 36  1  0  0  0  0
 16 37  1  0  0  0  0
 16 38  1  0  0  0  0
 17 39  1  0  0  0  0
 17 40  1  0  0  0  0
 18 19  1  0  0  0  0
M  CHG  1   5  -1
M  CHG  1  11   1
M  END
> <s_m_source_file>
AV-unprocessed.smi

> <i_m_source_file_index>
2078

> <i_lp_mmshare_version>
43012

> <i_f3d_flags>
0

> <s_epik_input>
W0NIM11jMVtjSF1jKG5vMSlbTkhdQyg9TylbTkhdW0NIMl1bQ0gyXU4yW0NIMl1bQ0gyXVtDSDJdW0NAQEhdKFtDSDNdKVtDSDJdMg==

> <s_epik_cmdline>
J2VwaWtfcHl0aG9uJywgJy1waCcsICc3LjAnLCAnLXRuJywgJzgnLCAnLW1hJywgJzIwMCcsICctbWV0YWxfYmluZGluZycsICctaW1hZScsICc8aW5maWxlLm1hZT4nLCAnLW9tYWUnLCAnPG91dGZpbGUubWFlPic=

> <r_epik_Ionization_Penalty>
6.22434

> <r_epik_Ionization_Penalty_Charging>
6.22425

> <r_epik_Ionization_Penalty_Neutral>
9.37855e-05

> <r_epik_State_Penalty>
6.22423

> <r_epik_Charging_Adjusted_Penalty>
12.4485

> <i_epik_Tot_Q>
0

> <i_epik_Tot_abs_Q>
2

> <r_epik_Metal_State_Penalty>
2.16764

> <b_epik_Metal_Only>
1

> <s_lp_Force_Field>
OPLS_2005

> <r_lp_Energy>
5.82233

> <b_lp_Chiralities_Consistent>
1

> <s_lp_Variant>
AV-unprocessed.smi:2078-7

> <Gold.Version>
5.8.1

> <Gold.Id.Protein>
6NUR|6NUR_protein|mol2

> <Gold.PLP.Fitness>
41.6409

> <Gold.PLP.PLP>
-27.6555

> <Gold.PLP.part.hbond>
-4.8109

> <Gold.PLP.part.metal>
0.0000

> <Gold.PLP.part.buried>
-2.2518

> <Gold.PLP.part.nonpolar>
-20.4323

> <Gold.PLP.part.repulsive>
0.2688

> <Gold.PLP.ligand.clash>
0.0000

> <Gold.PLP.ligand.torsion>
0.5404

> <Gold.PLP.Chemscore.Hbond>
5.0000

> <Gold.PLP.Chemscore.CHOScore>
0.0000

> <Gold.PLP.Chemscore.Metal>
0.0000

> <Gold.Chemscore.Hbonds>
donor molecule, donor type, donor heavy atom, donor atom, acceptor molecule, acceptor atom, score
      L1  H     8    24       P1  7957  1.00
      L1  H    11    41       P1 10175  2.00
      P1  H  7989  7998       L1     5  1.00
      P1  H  7997  8009       L1    19  1.00

> <Gold.PLP.Chemscore.Internal.Correction>
0.0662

> <Gold.Rescore>
     Score         DG    S(hbond)    S(metal)    S(lipo)     H(rot)  DE(clash)    DE(int)     intcor
     15.92     -17.90       3.22        0.00      47.81       1.54       0.05       1.93       ----

> <Gold.Chemscore.Fitness>
15.9177

> <Gold.Chemscore.DG>
-17.9004

> <Gold.Chemscore.ZeroCoef>
-5.4800

> <Gold.Chemscore.Hbond>
3.2249

> <Gold.Chemscore.Metal>
0.0000

> <Gold.Chemscore.Lipo>
47.8105

> <Gold.Chemscore.Internal_Hbond>
0.0000

> <Gold.Chemscore.DEClash>
0.0516

> <Gold.Chemscore.DEInternal>
1.9311

> <Gold.Chemscore.Rot>
1.5409

> <Gold.Chemscore.Internal.Correction>
   9.000000E+99

> <Gold.Chemscore.Hbonds>
donor molecule, donor type, donor heavy atom, donor atom, acceptor molecule, acceptor atom, score
      L1  H     8    24       P1  7957  0.93
      L1  H    11    41       P1 10175  1.00
      P1  H  7989  7998       L1     5  0.39
      P1  H  7997  8009       L1    19  0.56

> <Gold.Chemscore.Hbond.Weighted>
-10.7712

> <Gold.Chemscore.Metal.Weighted>
-0.0000

> <Gold.Chemscore.Lipo.Weighted>
-5.5938

> <Gold.Chemscore.Internal_Hbond.Weighted>
0.0000

> <Gold.Chemscore.DEClash.Weighted>
0.0516

> <Gold.Chemscore.DEInternal.Weighted>
1.9311

> <Gold.Chemscore.Rot.Weighted>
3.9446

> <Gold.Chemscore.Internal.Correction.Weighted>
   9.000000E+99

> <Gold.Protein.RotatedTorsions>
[ 6907 6896 6895 6894 ] final   -0.55 input  -60.11 | X-H torsion
[ 7974 7965 7964 7962 ] final  -51.87 input  175.53 | X-H torsion
[ 8008 7997 7996 7995 ] final  164.82 input   59.86 | X-H torsion
[ 10167 10162 10161 10158 ] final  125.92 input  -65.29 | X-H torsion
[ 10718 10713 10712 10709 ] final   -2.00 input   66.30 | X-H torsion
[ 10763 10752 10751 10750 ] final  150.02 input  -60.55 | X-H torsion
[ 11005 11000 10999 10996 ] final -142.38 input  -57.11 | X-H torsion

> <Gold.Protein.ActiveResidues>
 VAL166  LYS551  ARG553  GLY616  TRP617  ASP618  TYR619  PRO620  LYS621  CYS622 
 ASP623  PHE694  ASN695  SER759  ASP760  ASP761  ALA762  ILE779  LEU786  VAL792 
 PHE793  MET794  SER795  GLU796  ALA797  LYS798  CYS799  TRP800  GLU811  SER814 

> <Gold.Protein.RotatedAtoms>
  151.5605  135.1065  159.9971 H   0  0  0  0  0  0  0  0  0  0  0  0  # atno 6907 bound_to 6896
  152.4449  133.7513  159.6706 H   0  0  0  0  0  0  0  0  0  0  0  0  # atno 6908 bound_to 6896
  150.8362  133.7942  159.3102 H   0  0  0  0  0  0  0  0  0  0  0  0  # atno 6909 bound_to 6896
  145.9142  140.7889  142.9680 H   0  0  0  0  0  0  0  0  0  0  0  0  # atno 7974 bound_to 7965
  156.1849  140.1686  156.8203 H   0  0  0  0  0  0  0  0  0  0  0  0  # atno 8008 bound_to 7997
  154.5403  140.0738  156.8531 H   0  0  0  0  0  0  0  0  0  0  0  0  # atno 8009 bound_to 7997
  155.3228  140.3374  155.4243 H   0  0  0  0  0  0  0  0  0  0  0  0  # atno 8010 bound_to 7997
  139.5659  144.6911  151.3911 H   0  0  0  0  0  0  0  0  0  0  0  0  # atno 10167 bound_to 10162
  156.7973  130.5381  149.5727 H   0  0  0  0  0  0  0  0  0  0  0  0  # atno 10718 bound_to 10713
  154.0807  135.2859  155.3291 H   0  0  0  0  0  0  0  0  0  0  0  0  # atno 10763 bound_to 10752
  154.6685  135.5308  153.8111 H   0  0  0  0  0  0  0  0  0  0  0  0  # atno 10764 bound_to 10752
  153.0450  135.6552  154.0982 H   0  0  0  0  0  0  0  0  0  0  0  0  # atno 10765 bound_to 10752
  140.8231  134.2607  157.4891 H   0  0  0  0  0  0  0  0  0  0  0  0  # atno 11005 bound_to 11000
  144.6746  140.1873  143.7400 LP  0  0  0  0  0  0  0  0  0  0  0  0  # atno 17320 bound_to 7965
  145.8633  139.2234  143.1704 LP  0  0  0  0  0  0  0  0  0  0  0  0  # atno 17321 bound_to 7965
  140.6942  143.7788  150.7302 LP  0  0  0  0  0  0  0  0  0  0  0  0  # atno 17342 bound_to 10162
  140.1279  143.4552  152.2272 LP  0  0  0  0  0  0  0  0  0  0  0  0  # atno 17343 bound_to 10162
  156.1123  130.6049  151.0066 LP  0  0  0  0  0  0  0  0  0  0  0  0  # atno 17370 bound_to 10713
  157.6571  131.0887  150.7922 LP  0  0  0  0  0  0  0  0  0  0  0  0  # atno 17371 bound_to 10713
  139.8707  134.9546  156.4180 LP  0  0  0  0  0  0  0  0  0  0  0  0  # atno 17394 bound_to 11000
  140.9078  133.7733  155.9756 LP  0  0  0  0  0  0  0  0  0  0  0  0  # atno 17395 bound_to 11000

$$$$
