AV-unprocessed.smi:3165|AV-procd|sdf|12091|dock3
  -GOLD-   2272017523D 1   1.00000     0.00000
 Structure written by MMmdl.
 37 38  0  0  0  0  0  0  0  0  1 V2000
  152.3505  139.2836  155.8934 C   0  0  0  0  0  0  0  0  0  0  0  0
  151.7431  140.2886  156.8875 C   0  0  2  0  0  0  0  0  0  0  0  0
  151.1233  141.5248  156.1911 C   0  0  0  0  0  0  0  0  0  0  0  0
  150.0454  141.1838  155.2791 N   0  0  0  0  0  0  0  0  0  0  0  0
  148.7563  141.6736  155.2579 C   0  0  0  0  0  0  0  0  0  0  0  0
  148.1080  141.0677  154.2199 C   0  0  0  0  0  0  0  0  0  0  0  0
  149.0978  140.2156  153.6550 C   0  0  0  0  0  0  0  0  0  0  0  0
  150.2565  140.2886  154.2896 N   0  0  0  0  0  0  0  0  0  0  0  0
  152.7675  140.6711  157.8641 N   0  0  0  0  0  0  0  0  0  0  0  0
  152.2754  140.9885  159.2038 C   0  0  0  0  0  0  0  0  0  0  0  0
  152.5920  142.4448  159.5725 C   0  0  1  0  0  0  0  0  0  0  0  0
  152.2134  143.4132  158.4351 C   0  0  0  0  0  0  0  0  0  0  0  0
  152.4547  144.8661  158.8604 C   0  0  0  0  0  0  0  0  0  0  0  0
  151.7333  145.1433  160.1834 C   0  0  0  0  0  0  0  0  0  0  0  0
  152.1178  144.0880  161.2322 C   0  0  0  0  0  0  0  0  0  0  0  0
  151.8353  142.7840  160.7335 O   0  0  0  0  0  0  0  0  0  0  0  0
  151.5962  138.8731  155.2221 H   0  0  0  0  0  0  0  0  0  0  0  0
  152.8040  138.4410  156.4164 H   0  0  0  0  0  0  0  0  0  0  0  0
  153.1232  139.7504  155.2815 H   0  0  0  0  0  0  0  0  0  0  0  0
  150.9431  139.7663  157.4138 H   0  0  0  0  0  0  0  0  0  0  0  0
  150.7158  142.2200  156.9251 H   0  0  0  0  0  0  0  0  0  0  0  0
  151.8916  142.0696  155.6396 H   0  0  0  0  0  0  0  0  0  0  0  0
  148.4125  142.4030  155.9767 H   0  0  0  0  0  0  0  0  0  0  0  0
  147.0839  141.2121  153.9097 H   0  0  0  0  0  0  0  0  0  0  0  0
  149.0103  139.5523  152.8072 H   0  0  0  0  0  0  0  0  0  0  0  0
  153.4651  139.9363  157.9291 H   0  0  0  0  0  0  0  0  0  0  0  0
  151.1960  140.8443  159.2441 H   0  0  0  0  0  0  0  0  0  0  0  0
  152.7119  140.3158  159.9430 H   0  0  0  0  0  0  0  0  0  0  0  0
  153.6587  142.5400  159.7860 H   0  0  0  0  0  0  0  0  0  0  0  0
  152.7908  143.1883  157.5378 H   0  0  0  0  0  0  0  0  0  0  0  0
  151.1631  143.2794  158.1724 H   0  0  0  0  0  0  0  0  0  0  0  0
  153.5248  145.0404  158.9811 H   0  0  0  0  0  0  0  0  0  0  0  0
  152.1098  145.5522  158.0865 H   0  0  0  0  0  0  0  0  0  0  0  0
  151.9770  146.1429  160.5445 H   0  0  0  0  0  0  0  0  0  0  0  0
  150.6544  145.1212  160.0242 H   0  0  0  0  0  0  0  0  0  0  0  0
  153.1734  144.1677  161.4968 H   0  0  0  0  0  0  0  0  0  0  0  0
  151.5482  144.2455  162.1480 H   0  0  0  0  0  0  0  0  0  0  0  0
  1  2  1  0  0  0  0
  1 17  1  0  0  0  0
  1 18  1  0  0  0  0
  1 19  1  0  0  0  0
  2  3  1  0  0  0  0
  2  9  1  0  0  0  0
  2 20  1  0  0  0  0
  3  4  1  0  0  0  0
  3 21  1  0  0  0  0
  3 22  1  0  0  0  0
  4  8  1  0  0  0  0
  4  5  1  0  0  0  0
  5  6  2  0  0  0  0
  5 23  1  0  0  0  0
  6  7  1  0  0  0  0
  6 24  1  0  0  0  0
  7  8  2  0  0  0  0
  7 25  1  0  0  0  0
  9 10  1  0  0  0  0
  9 26  1  0  0  0  0
 10 11  1  0  0  0  0
 10 27  1  0  0  0  0
 10 28  1  0  0  0  0
 11 16  1  0  0  0  0
 11 12  1  0  0  0  0
 11 29  1  0  0  0  0
 12 13  1  0  0  0  0
 12 30  1  0  0  0  0
 12 31  1  0  0  0  0
 13 14  1  0  0  0  0
 13 32  1  0  0  0  0
 13 33  1  0  0  0  0
 14 15  1  0  0  0  0
 14 34  1  0  0  0  0
 14 35  1  0  0  0  0
 15 16  1  0  0  0  0
 15 36  1  0  0  0  0
 15 37  1  0  0  0  0
M  END
> <s_m_source_file>
AV-unprocessed.smi

> <i_m_source_file_index>
3165

> <i_lp_mmshare_version>
43012

> <i_f3d_flags>
0

> <s_epik_input>
bjFbY0hdW2NIXVtjSF1uMVtDSDJdW0NAQEhdKFtDSDNdKVtOSF1bQ0gyXVtDQEBIXTJbQ0gyXVtDSDJdW0NIMl1bQ0gyXU8y

> <s_epik_cmdline>
J2VwaWtfcHl0aG9uJywgJy1waCcsICc3LjAnLCAnLXRuJywgJzgnLCAnLW1hJywgJzIwMCcsICctbWV0YWxfYmluZGluZycsICctaW1hZScsICc8aW5maWxlLm1hZT4nLCAnLW9tYWUnLCAnPG91dGZpbGUubWFlPic=

> <r_lp_tautomer_probability>
1

> <r_epik_Ionization_Penalty>
2.51982

> <r_epik_Ionization_Penalty_Charging>
0

> <r_epik_Ionization_Penalty_Neutral>
2.51982

> <r_epik_State_Penalty>
2.68614

> <r_epik_Charging_Adjusted_Penalty>
2.68614

> <i_epik_Tot_Q>
0

> <i_epik_Tot_abs_Q>
0

> <r_epik_Metal_State_Penalty>
2.6861

> <b_epik_Metal_Only>
0

> <s_lp_Force_Field>
OPLS_2005

> <r_lp_Energy>
13.227

> <b_lp_Chiralities_Consistent>
1

> <s_lp_Variant>
AV-unprocessed.smi:3165-7

> <Gold.Version>
5.8.1

> <Gold.Id.Protein>
6NUR|6NUR_protein|mol2

> <Gold.PLP.Fitness>
45.7971

> <Gold.PLP.PLP>
-39.8443

> <Gold.PLP.part.hbond>
-2.5778

> <Gold.PLP.part.metal>
0.0000

> <Gold.PLP.part.buried>
0.7673

> <Gold.PLP.part.nonpolar>
-37.0239

> <Gold.PLP.part.repulsive>
0.1746

> <Gold.PLP.ligand.clash>
0.0000

> <Gold.PLP.ligand.torsion>
0.8418

> <Gold.PLP.Chemscore.Hbond>
0.9760

> <Gold.PLP.Chemscore.CHOScore>
1.5575

> <Gold.PLP.Chemscore.Metal>
0.0000

> <Gold.Chemscore.Hbonds>
donor molecule, donor type, donor heavy atom, donor atom, acceptor molecule, acceptor atom, score
      P1  H  7989  7998       L1     8  0.99
      L1  C     5    23       P1  8028  0.81
      L1  C     7    25       P1  7957  0.39

> <Gold.PLP.Chemscore.Internal.Correction>
0.0360

> <Gold.Rescore>
     Score         DG    S(hbond)    S(metal)    S(lipo)     H(rot)  DE(clash)    DE(int)     intcor
     13.52     -17.30       0.97        0.00     107.60       1.57       1.66       2.11       ----

> <Gold.Chemscore.Fitness>
13.5193

> <Gold.Chemscore.DG>
-17.2960

> <Gold.Chemscore.ZeroCoef>
-5.4800

> <Gold.Chemscore.Hbond>
0.9744

> <Gold.Chemscore.Metal>
0.0000

> <Gold.Chemscore.Lipo>
107.5961

> <Gold.Chemscore.Internal_Hbond>
0.0000

> <Gold.Chemscore.DEClash>
1.6645

> <Gold.Chemscore.DEInternal>
2.1122

> <Gold.Chemscore.Rot>
1.5731

> <Gold.Chemscore.Internal.Correction>
   9.000000E+99

> <Gold.Chemscore.Hbonds>
donor molecule, donor type, donor heavy atom, donor atom, acceptor molecule, acceptor atom, score
      P1  H  7989  7998       L1     8  0.41

> <Gold.Chemscore.Hbond.Weighted>
-3.2545

> <Gold.Chemscore.Metal.Weighted>
-0.0000

> <Gold.Chemscore.Lipo.Weighted>
-12.5887

> <Gold.Chemscore.Internal_Hbond.Weighted>
0.0000

> <Gold.Chemscore.DEClash.Weighted>
1.6645

> <Gold.Chemscore.DEInternal.Weighted>
2.1122

> <Gold.Chemscore.Rot.Weighted>
4.0273

> <Gold.Chemscore.Internal.Correction.Weighted>
   9.000000E+99

> <Gold.Protein.RotatedTorsions>
[ 6907 6896 6895 6894 ] final   -3.05 input  -60.11 | X-H torsion
[ 7974 7965 7964 7962 ] final   65.94 input  175.53 | X-H torsion
[ 8008 7997 7996 7995 ] final  143.89 input   59.86 | X-H torsion
[ 10167 10162 10161 10158 ] final   31.14 input  -65.29 | X-H torsion
[ 10718 10713 10712 10709 ] final  162.24 input   66.30 | X-H torsion
[ 10763 10752 10751 10750 ] final  147.53 input  -60.55 | X-H torsion
[ 11005 11000 10999 10996 ] final    8.10 input  -57.11 | X-H torsion

> <Gold.Protein.ActiveResidues>
 VAL166  LYS551  ARG553  GLY616  TRP617  ASP618  TYR619  PRO620  LYS621  CYS622 
 ASP623  PHE694  ASN695  SER759  ASP760  ASP761  ALA762  ILE779  LEU786  VAL792 
 PHE793  MET794  SER795  GLU796  ALA797  LYS798  CYS799  TRP800  GLU811  SER814 

> <Gold.Protein.RotatedAtoms>
  151.5200  135.1067  159.9875 H   0  0  0  0  0  0  0  0  0  0  0  0  # atno 6907 bound_to 6896
  152.4624  133.7847  159.6880 H   0  0  0  0  0  0  0  0  0  0  0  0  # atno 6908 bound_to 6896
  150.8593  133.7604  159.3023 H   0  0  0  0  0  0  0  0  0  0  0  0  # atno 6909 bound_to 6896
  145.8325  139.3147  143.0979 H   0  0  0  0  0  0  0  0  0  0  0  0  # atno 7974 bound_to 7965
  156.2920  140.2250  156.4963 H   0  0  0  0  0  0  0  0  0  0  0  0  # atno 8008 bound_to 7997
  154.7727  140.0465  157.1086 H   0  0  0  0  0  0  0  0  0  0  0  0  # atno 8009 bound_to 7997
  154.9854  140.3083  155.4932 H   0  0  0  0  0  0  0  0  0  0  0  0  # atno 8010 bound_to 7997
  140.4615  144.0899  150.6214 H   0  0  0  0  0  0  0  0  0  0  0  0  # atno 10167 bound_to 10162
  157.1253  131.0503  151.2396 H   0  0  0  0  0  0  0  0  0  0  0  0  # atno 10718 bound_to 10713
  154.0398  135.2890  155.3356 H   0  0  0  0  0  0  0  0  0  0  0  0  # atno 10763 bound_to 10752
  154.6936  135.5216  153.8430 H   0  0  0  0  0  0  0  0  0  0  0  0  # atno 10764 bound_to 10752
  153.0605  135.6612  154.0603 H   0  0  0  0  0  0  0  0  0  0  0  0  # atno 10765 bound_to 10752
  140.5408  134.0376  155.7903 H   0  0  0  0  0  0  0  0  0  0  0  0  # atno 11005 bound_to 11000
  145.9555  140.8876  143.0237 LP  0  0  0  0  0  0  0  0  0  0  0  0  # atno 17320 bound_to 7965
  144.6739  140.1739  143.7412 LP  0  0  0  0  0  0  0  0  0  0  0  0  # atno 17321 bound_to 7965
  140.4087  143.2667  151.9859 LP  0  0  0  0  0  0  0  0  0  0  0  0  # atno 17342 bound_to 10162
  139.4807  144.5934  151.7732 LP  0  0  0  0  0  0  0  0  0  0  0  0  # atno 17343 bound_to 10162
  157.4441  130.7560  149.7094 LP  0  0  0  0  0  0  0  0  0  0  0  0  # atno 17370 bound_to 10713
  155.9819  130.4014  150.3443 LP  0  0  0  0  0  0  0  0  0  0  0  0  # atno 17371 bound_to 10713
  141.1228  133.9433  157.2695 LP  0  0  0  0  0  0  0  0  0  0  0  0  # atno 17394 bound_to 11000
  139.9505  135.0176  156.8980 LP  0  0  0  0  0  0  0  0  0  0  0  0  # atno 17395 bound_to 11000

$$$$
