AV-unprocessed.smi:1085|AV-procd|sdf|4722|dock2
  -GOLD-   22720 3253D 1   1.00000     0.00000
 Structure written by MMmdl.
 33 34  0  0  0  0  0  0  0  0  1 V2000
  153.0990  139.4865  155.5538 O   0  0  0  0  0  0  0  0  0  0  0  0
  152.0416  139.1944  156.1113 C   0  0  0  0  0  0  0  0  0  0  0  0
  151.0822  138.1997  155.4552 C   0  0  0  0  0  0  0  0  0  0  0  0
  150.8991  137.0189  156.2798 N   0  0  0  0  0  0  0  0  0  0  0  0
  150.2381  136.8427  157.4258 C   0  0  0  0  0  0  0  0  0  0  0  0
  150.3334  135.5942  157.8575 N   0  0  0  0  0  0  0  0  0  0  0  0
  151.1125  134.9841  156.8886 N   0  0  0  0  0  0  0  0  0  0  0  0
  151.4509  135.8244  155.9495 N   0  0  0  0  0  0  0  0  0  0  0  0
  151.6636  139.7001  157.2961 N   0  0  0  0  0  0  0  0  0  0  0  0
  152.4125  140.6760  158.0806 C   0  0  2  0  0  0  0  0  0  0  0  0
  152.7269  140.1154  159.4808 C   0  0  0  0  0  0  0  0  0  0  0  0
  153.4414  141.1605  160.3504 C   0  0  0  0  0  0  0  0  0  0  0  0
  152.6295  142.4622  160.4422 C   0  0  0  0  0  0  0  0  0  0  0  0
  152.3200  143.0405  159.0451 C   0  0  2  0  0  0  0  0  0  0  0  0
  151.5203  144.3571  159.1264 C   0  0  0  0  0  0  0  0  0  0  0  0
  152.0745  145.1957  160.0025 F   0  0  0  0  0  0  0  0  0  0  0  0
  151.4846  144.9445  157.9303 F   0  0  0  0  0  0  0  0  0  0  0  0
  150.2664  144.1067  159.5035 F   0  0  0  0  0  0  0  0  0  0  0  0
  151.6021  141.9815  158.1814 C   0  0  0  0  0  0  0  0  0  0  0  0
  150.1095  138.6660  155.2943 H   0  0  0  0  0  0  0  0  0  0  0  0
  151.4664  137.9067  154.4769 H   0  0  0  0  0  0  0  0  0  0  0  0
  149.6959  137.6221  157.9405 H   0  0  0  0  0  0  0  0  0  0  0  0
  150.7787  139.3963  157.6767 H   0  0  0  0  0  0  0  0  0  0  0  0
  153.3521  140.9020  157.5724 H   0  0  0  0  0  0  0  0  0  0  0  0
  151.8032  139.8060  159.9723 H   0  0  0  0  0  0  0  0  0  0  0  0
  153.3475  139.2223  159.3983 H   0  0  0  0  0  0  0  0  0  0  0  0
  153.6113  140.7579  161.3494 H   0  0  0  0  0  0  0  0  0  0  0  0
  154.4259  141.3724  159.9315 H   0  0  0  0  0  0  0  0  0  0  0  0
  151.6990  142.2720  160.9784 H   0  0  0  0  0  0  0  0  0  0  0  0
  153.1831  143.1903  161.0358 H   0  0  0  0  0  0  0  0  0  0  0  0
  153.2723  143.2688  158.5637 H   0  0  0  0  0  0  0  0  0  0  0  0
  151.4275  142.3772  157.1802 H   0  0  0  0  0  0  0  0  0  0  0  0
  150.6184  141.7716  158.6042 H   0  0  0  0  0  0  0  0  0  0  0  0
  1  2  2  0  0  0  0
  2  3  1  0  0  0  0
  2  9  1  0  0  0  0
  3  4  1  0  0  0  0
  3 20  1  0  0  0  0
  3 21  1  0  0  0  0
  4  8  1  0  0  0  0
  4  5  1  0  0  0  0
  5  6  2  0  0  0  0
  5 22  1  0  0  0  0
  6  7  1  0  0  0  0
  7  8  2  0  0  0  0
  9 10  1  0  0  0  0
  9 23  1  0  0  0  0
 10 19  1  0  0  0  0
 10 11  1  0  0  0  0
 10 24  1  0  0  0  0
 11 12  1  0  0  0  0
 11 25  1  0  0  0  0
 11 26  1  0  0  0  0
 12 13  1  0  0  0  0
 12 27  1  0  0  0  0
 12 28  1  0  0  0  0
 13 14  1  0  0  0  0
 13 29  1  0  0  0  0
 13 30  1  0  0  0  0
 14 15  1  0  0  0  0
 14 19  1  0  0  0  0
 14 31  1  0  0  0  0
 15 16  1  0  0  0  0
 15 17  1  0  0  0  0
 15 18  1  0  0  0  0
 19 32  1  0  0  0  0
 19 33  1  0  0  0  0
M  END
> <s_m_source_file>
AV-unprocessed.smi

> <i_m_source_file_index>
1085

> <i_lp_mmshare_version>
43012

> <i_f3d_flags>
0

> <s_epik_input>
bjFubltjSF1uMVtDSDJdQyg9TylbTkhdW0NAQEhdMltDSDJdW0NIMl1bQ0gyXVtDQEBIXShDKEYpKEYpRilbQ0gyXTI=

> <s_epik_cmdline>
J2VwaWtfcHl0aG9uJywgJy1waCcsICc3LjAnLCAnLXRuJywgJzgnLCAnLW1hJywgJzIwMCcsICctbWV0YWxfYmluZGluZycsICctaW1hZScsICc8aW5maWxlLm1hZT4nLCAnLW9tYWUnLCAnPG91dGZpbGUubWFlPic=

> <r_lp_tautomer_probability>
1

> <r_epik_Ionization_Penalty>
8.41315e-07

> <r_epik_Ionization_Penalty_Charging>
0

> <r_epik_Ionization_Penalty_Neutral>
8.41315e-07

> <r_epik_State_Penalty>
-0

> <r_epik_Charging_Adjusted_Penalty>
0

> <i_epik_Tot_Q>
0

> <i_epik_Tot_abs_Q>
0

> <r_epik_Metal_State_Penalty>
-0

> <b_epik_Metal_Only>
0

> <s_lp_Force_Field>
OPLS_2005

> <r_lp_Energy>
12.3149

> <b_lp_Chiralities_Consistent>
1

> <s_lp_Variant>
AV-unprocessed.smi:1085-3

> <Gold.Version>
5.8.1

> <Gold.Id.Protein>
6NUR|6NUR_protein|mol2

> <Gold.PLP.Fitness>
46.0243

> <Gold.PLP.PLP>
-38.4888

> <Gold.PLP.part.hbond>
-3.5615

> <Gold.PLP.part.metal>
0.0000

> <Gold.PLP.part.buried>
-6.3555

> <Gold.PLP.part.nonpolar>
-28.8601

> <Gold.PLP.part.repulsive>
0.1055

> <Gold.PLP.ligand.clash>
0.0000

> <Gold.PLP.ligand.torsion>
0.3044

> <Gold.PLP.Chemscore.Hbond>
2.7040

> <Gold.PLP.Chemscore.CHOScore>
0.0000

> <Gold.PLP.Chemscore.Metal>
0.0000

> <Gold.Chemscore.Hbonds>
donor molecule, donor type, donor heavy atom, donor atom, acceptor molecule, acceptor atom, score
      P1  H  6896  6908       L1     6  0.70
      P1  H  7997  8008       L1     1  1.00
      P1  H 10752 10763       L1     8  1.00

> <Gold.PLP.Chemscore.Internal.Correction>
0.0324

> <Gold.Rescore>
     Score         DG    S(hbond)    S(metal)    S(lipo)     H(rot)  DE(clash)    DE(int)     intcor
     16.63     -16.88       2.53        0.00      70.13       2.05       0.02       0.23       ----

> <Gold.Chemscore.Fitness>
16.6311

> <Gold.Chemscore.DG>
-16.8837

> <Gold.Chemscore.ZeroCoef>
-5.4800

> <Gold.Chemscore.Hbond>
2.5254

> <Gold.Chemscore.Metal>
0.0000

> <Gold.Chemscore.Lipo>
70.1337

> <Gold.Chemscore.Internal_Hbond>
0.0000

> <Gold.Chemscore.DEClash>
0.0177

> <Gold.Chemscore.DEInternal>
0.2349

> <Gold.Chemscore.Rot>
2.0456

> <Gold.Chemscore.Internal.Correction>
   9.000000E+99

> <Gold.Chemscore.Hbonds>
donor molecule, donor type, donor heavy atom, donor atom, acceptor molecule, acceptor atom, score
      P1  H  6896  6908       L1     6  0.34
      P1  H  7997  8008       L1     1  0.95
      P1  H 10752 10763       L1     8  0.96

> <Gold.Chemscore.Hbond.Weighted>
-8.4349

> <Gold.Chemscore.Metal.Weighted>
-0.0000

> <Gold.Chemscore.Lipo.Weighted>
-8.2056

> <Gold.Chemscore.Internal_Hbond.Weighted>
0.0000

> <Gold.Chemscore.DEClash.Weighted>
0.0177

> <Gold.Chemscore.DEInternal.Weighted>
0.2349

> <Gold.Chemscore.Rot.Weighted>
5.2368

> <Gold.Chemscore.Internal.Correction.Weighted>
   9.000000E+99

> <Gold.Protein.RotatedTorsions>
[ 6907 6896 6895 6894 ] final  171.22 input  -60.11 | X-H torsion
[ 7974 7965 7964 7962 ] final  132.08 input  175.53 | X-H torsion
[ 8008 7997 7996 7995 ] final  -35.76 input   59.86 | X-H torsion
[ 10167 10162 10161 10158 ] final -165.28 input  -65.29 | X-H torsion
[ 10718 10713 10712 10709 ] final  -28.49 input   66.30 | X-H torsion
[ 10763 10752 10751 10750 ] final   80.82 input  -60.55 | X-H torsion
[ 11005 11000 10999 10996 ] final -136.11 input  -57.11 | X-H torsion

> <Gold.Protein.ActiveResidues>
 VAL166  LYS551  ARG553  GLY616  TRP617  ASP618  TYR619  PRO620  LYS621  CYS622 
 ASP623  PHE694  ASN695  SER759  ASP760  ASP761  ALA762  ILE779  LEU786  VAL792 
 PHE793  MET794  SER795  GLU796  ALA797  LYS798  CYS799  TRP800  GLU811  SER814 

> <Gold.Protein.RotatedAtoms>
  151.8038  133.3373  159.3534 H   0  0  0  0  0  0  0  0  0  0  0  0  # atno 6907 bound_to 6896
  150.7349  134.5729  159.5909 H   0  0  0  0  0  0  0  0  0  0  0  0  # atno 6908 bound_to 6896
  152.3124  134.7482  160.0384 H   0  0  0  0  0  0  0  0  0  0  0  0  # atno 6909 bound_to 6896
  145.0006  139.4316  143.5294 H   0  0  0  0  0  0  0  0  0  0  0  0  # atno 7974 bound_to 7965
  154.4088  140.1649  156.2264 H   0  0  0  0  0  0  0  0  0  0  0  0  # atno 8008 bound_to 7997
  155.9320  140.3414  155.6234 H   0  0  0  0  0  0  0  0  0  0  0  0  # atno 8009 bound_to 7997
  155.7094  140.0755  157.2368 H   0  0  0  0  0  0  0  0  0  0  0  0  # atno 8010 bound_to 7997
  139.6193  144.0656  152.1918 H   0  0  0  0  0  0  0  0  0  0  0  0  # atno 10167 bound_to 10162
  156.4245  130.4433  149.7160 H   0  0  0  0  0  0  0  0  0  0  0  0  # atno 10718 bound_to 10713
  153.1065  135.4788  154.8960 H   0  0  0  0  0  0  0  0  0  0  0  0  # atno 10763 bound_to 10752
  154.7435  135.3088  154.8688 H   0  0  0  0  0  0  0  0  0  0  0  0  # atno 10764 bound_to 10752
  153.9290  135.6847  153.4799 H   0  0  0  0  0  0  0  0  0  0  0  0  # atno 10765 bound_to 10752
  140.8836  134.1901  157.4575 H   0  0  0  0  0  0  0  0  0  0  0  0  # atno 11005 bound_to 11000
  146.3451  139.9392  142.8743 LP  0  0  0  0  0  0  0  0  0  0  0  0  # atno 17320 bound_to 7965
  145.2158  140.9915  143.4074 LP  0  0  0  0  0  0  0  0  0  0  0  0  # atno 17321 bound_to 7965
  140.0294  144.6092  150.7500 LP  0  0  0  0  0  0  0  0  0  0  0  0  # atno 17342 bound_to 10162
  140.7371  143.2762  151.3735 LP  0  0  0  0  0  0  0  0  0  0  0  0  # atno 17343 bound_to 10162
  156.4088  130.7711  151.2723 LP  0  0  0  0  0  0  0  0  0  0  0  0  # atno 17370 bound_to 10713
  157.7508  131.0218  150.3764 LP  0  0  0  0  0  0  0  0  0  0  0  0  # atno 17371 bound_to 10713
  139.8722  134.9828  156.5171 LP  0  0  0  0  0  0  0  0  0  0  0  0  # atno 17394 bound_to 11000
  140.8432  133.8189  155.9095 LP  0  0  0  0  0  0  0  0  0  0  0  0  # atno 17395 bound_to 11000

$$$$
