AV-unprocessed.smi:1762|AV-procd|sdf|7122|dock6
  -GOLD-   22720 8353D 1   1.00000     0.00000
 Structure written by MMmdl.
 52 53  0  0  0  0  0  0  0  0  3 V2000
  149.8985  136.5883  158.0305 C   0  0  0  0  0  0  0  0  0  0  0  0
  148.8623  137.0711  157.0099 C   0  0  1  0  0  0  0  0  0  0  0  0
  149.3901  136.9755  155.5620 C   0  0  0  0  0  0  0  0  0  0  0  0
  148.3441  137.3679  154.5733 N   0  3  2  0  0  0  0  0  0  0  0  0
  148.0903  138.8482  154.4723 C   0  0  1  0  0  0  0  0  0  0  0  0
  149.3751  139.6502  154.7934 C   0  0  0  0  0  0  0  0  0  0  0  0
  150.3704  139.4788  154.0809 O   0  0  0  0  0  0  0  0  0  0  0  0
  149.2048  140.4404  155.8891 N   0  5  0  0  0  0  0  0  0  0  0  0
  150.3092  141.0707  156.6067 C   0  0  0  0  0  0  0  0  0  0  0  0
  149.7647  142.1453  157.5724 C   0  0  0  0  0  0  0  0  0  0  0  0
  150.8417  142.8547  158.3875 C   0  0  0  0  0  0  0  0  0  0  0  0
  151.3618  144.0991  157.9634 C   0  0  0  0  0  0  0  0  0  0  0  0
  152.3586  144.7157  158.7437 C   0  0  0  0  0  0  0  0  0  0  0  0
  152.8020  144.0693  159.9132 C   0  0  0  0  0  0  0  0  0  0  0  0
  152.2287  142.8271  160.2498 C   0  0  0  0  0  0  0  0  0  0  0  0
  151.2740  142.2259  159.5080 N   0  0  0  0  0  0  0  0  0  0  0  0
  147.4624  139.3037  153.1113 C   0  0  0  0  0  0  0  0  0  0  0  0
  147.0893  140.7993  153.0452 C   0  0  0  0  0  0  0  0  0  0  0  0
  146.2624  138.4373  152.6802 C   0  0  0  0  0  0  0  0  0  0  0  0
  147.1505  136.5089  154.8029 C   0  0  0  0  0  0  0  0  0  0  0  0
  146.6490  136.6272  156.2569 C   0  0  1  0  0  0  0  0  0  0  0  0
  145.4559  135.7051  156.5295 C   0  0  0  0  0  0  0  0  0  0  0  0
  147.7030  136.2532  157.1390 O   0  0  0  0  0  0  0  0  0  0  0  0
  150.8074  137.1883  157.9782 H   0  0  0  0  0  0  0  0  0  0  0  0
  150.1725  135.5477  157.8543 H   0  0  0  0  0  0  0  0  0  0  0  0
  149.5095  136.6635  159.0462 H   0  0  0  0  0  0  0  0  0  0  0  0
  148.6044  138.1020  157.2546 H   0  0  0  0  0  0  0  0  0  0  0  0
  150.3055  137.5556  155.4501 H   0  0  0  0  0  0  0  0  0  0  0  0
  149.6800  135.9446  155.3540 H   0  0  0  0  0  0  0  0  0  0  0  0
  147.3376  139.0834  155.2261 H   0  0  0  0  0  0  0  0  0  0  0  0
  150.8810  140.3380  157.1775 H   0  0  0  0  0  0  0  0  0  0  0  0
  151.0184  141.5369  155.9214 H   0  0  0  0  0  0  0  0  0  0  0  0
  149.2054  142.8956  157.0110 H   0  0  0  0  0  0  0  0  0  0  0  0
  149.0508  141.6931  158.2623 H   0  0  0  0  0  0  0  0  0  0  0  0
  151.0002  144.5727  157.0624 H   0  0  0  0  0  0  0  0  0  0  0  0
  152.7749  145.6681  158.4507 H   0  0  0  0  0  0  0  0  0  0  0  0
  153.5630  144.5142  160.5368 H   0  0  0  0  0  0  0  0  0  0  0  0
  152.5455  142.3021  161.1388 H   0  0  0  0  0  0  0  0  0  0  0  0
  148.2044  139.1243  152.3345 H   0  0  0  0  0  0  0  0  0  0  0  0
  146.2506  141.0378  153.6991 H   0  0  0  0  0  0  0  0  0  0  0  0
  146.7945  141.0780  152.0333 H   0  0  0  0  0  0  0  0  0  0  0  0
  147.9223  141.4424  153.3268 H   0  0  0  0  0  0  0  0  0  0  0  0
  145.3973  138.5845  153.3276 H   0  0  0  0  0  0  0  0  0  0  0  0
  146.5161  137.3769  152.6987 H   0  0  0  0  0  0  0  0  0  0  0  0
  145.9511  138.6807  151.6639 H   0  0  0  0  0  0  0  0  0  0  0  0
  146.3520  136.7029  154.0903 H   0  0  0  0  0  0  0  0  0  0  0  0
  147.4430  135.4752  154.6125 H   0  0  0  0  0  0  0  0  0  0  0  0
  146.3438  137.6526  156.4703 H   0  0  0  0  0  0  0  0  0  0  0  0
  144.6149  135.9495  155.8800 H   0  0  0  0  0  0  0  0  0  0  0  0
  145.1176  135.8009  157.5615 H   0  0  0  0  0  0  0  0  0  0  0  0
  145.7170  134.6600  156.3605 H   0  0  0  0  0  0  0  0  0  0  0  0
  148.7067  137.1133  153.6655 H   0  0  0  0  0  0  0  0  0  0  0  0
  1  2  1  0  0  0  0
  1 24  1  0  0  0  0
  1 25  1  0  0  0  0
  1 26  1  0  0  0  0
  2 23  1  0  0  0  0
  2  3  1  0  0  0  0
  2 27  1  0  0  0  0
  3  4  1  0  0  0  0
  3 28  1  0  0  0  0
  3 29  1  0  0  0  0
  4  5  1  0  0  0  0
  4 20  1  0  0  0  0
  4 52  1  0  0  0  0
  5  6  1  0  0  0  0
  5 17  1  0  0  0  0
  5 30  1  0  0  0  0
  6  7  2  0  0  0  0
  6  8  1  0  0  0  0
  8  9  1  0  0  0  0
  9 10  1  0  0  0  0
  9 31  1  0  0  0  0
  9 32  1  0  0  0  0
 10 11  1  0  0  0  0
 10 33  1  0  0  0  0
 10 34  1  0  0  0  0
 11 16  1  0  0  0  0
 11 12  2  0  0  0  0
 12 13  1  0  0  0  0
 12 35  1  0  0  0  0
 13 14  2  0  0  0  0
 13 36  1  0  0  0  0
 14 15  1  0  0  0  0
 14 37  1  0  0  0  0
 15 16  2  0  0  0  0
 15 38  1  0  0  0  0
 17 18  1  0  0  0  0
 17 19  1  0  0  0  0
 17 39  1  0  0  0  0
 18 40  1  0  0  0  0
 18 41  1  0  0  0  0
 18 42  1  0  0  0  0
 19 43  1  0  0  0  0
 19 44  1  0  0  0  0
 19 45  1  0  0  0  0
 20 21  1  0  0  0  0
 20 46  1  0  0  0  0
 20 47  1  0  0  0  0
 21 22  1  0  0  0  0
 21 23  1  0  0  0  0
 21 48  1  0  0  0  0
 22 49  1  0  0  0  0
 22 50  1  0  0  0  0
 22 51  1  0  0  0  0
M  CHG  1   4   1
M  CHG  1   8  -1
M  END
> <s_m_source_file>
AV-unprocessed.smi

> <i_m_source_file_index>
1762

> <i_lp_mmshare_version>
43012

> <i_f3d_flags>
0

> <s_epik_input>
W0NIM11bQ0BASF0xW0NIMl1OKFtDSDJdW0NASF0oTzEpW0NIM10pW0NAQEhdKFtDSF0oW0NIM10pW0NIM10pQyg9TylbTkhdW0NIMl1bQ0gyXWMyW2NIXVtjSF1bY0hdW2NIXW4y

> <s_epik_cmdline>
J2VwaWtfcHl0aG9uJywgJy1waCcsICc3LjAnLCAnLXRuJywgJzgnLCAnLW1hJywgJzIwMCcsICctbWV0YWxfYmluZGluZycsICctaW1hZScsICc8aW5maWxlLm1hZT4nLCAnLW9tYWUnLCAnPG91dGZpbGUubWFlPic=

> <r_epik_Ionization_Penalty>
7.82966

> <r_epik_Ionization_Penalty_Charging>
7.7461

> <r_epik_Ionization_Penalty_Neutral>
0.0835571

> <r_epik_State_Penalty>
8.52273

> <r_epik_Charging_Adjusted_Penalty>
16.2688

> <i_epik_Tot_Q>
0

> <i_epik_Tot_abs_Q>
2

> <r_epik_Metal_State_Penalty>
4.47451

> <b_epik_Metal_Only>
1

> <s_lp_Force_Field>
OPLS_2005

> <r_lp_Energy>
22.3574

> <b_lp_Chiralities_Consistent>
1

> <s_lp_Variant>
AV-unprocessed.smi:1762-24

> <Gold.Version>
5.8.1

> <Gold.Id.Protein>
6NUR|6NUR_protein|mol2

> <Gold.PLP.Fitness>
41.1724

> <Gold.PLP.PLP>
-33.8892

> <Gold.PLP.part.hbond>
-2.6339

> <Gold.PLP.part.metal>
0.0000

> <Gold.PLP.part.buried>
-3.0792

> <Gold.PLP.part.nonpolar>
-28.7832

> <Gold.PLP.part.repulsive>
0.6546

> <Gold.PLP.ligand.clash>
0.0000

> <Gold.PLP.ligand.torsion>
1.0340

> <Gold.PLP.Chemscore.Hbond>
3.0000

> <Gold.PLP.Chemscore.CHOScore>
0.0000

> <Gold.PLP.Chemscore.Metal>
0.0000

> <Gold.Chemscore.Hbonds>
donor molecule, donor type, donor heavy atom, donor atom, acceptor molecule, acceptor atom, score
      L1  H     4    52       P1  7948  2.00
      P1  H  7989  7998       L1     7  1.00

> <Gold.PLP.Chemscore.Internal.Correction>
0.3512

> <Gold.Rescore>
     Score         DG    S(hbond)    S(metal)    S(lipo)     H(rot)  DE(clash)    DE(int)     intcor
     18.02     -19.94       1.95        0.00     102.96       1.60       0.70       1.22       ----

> <Gold.Chemscore.Fitness>
18.0162

> <Gold.Chemscore.DG>
-19.9446

> <Gold.Chemscore.ZeroCoef>
-5.4800

> <Gold.Chemscore.Hbond>
1.9513

> <Gold.Chemscore.Metal>
0.0000

> <Gold.Chemscore.Lipo>
102.9579

> <Gold.Chemscore.Internal_Hbond>
0.0000

> <Gold.Chemscore.DEClash>
0.7035

> <Gold.Chemscore.DEInternal>
1.2249

> <Gold.Chemscore.Rot>
1.6012

> <Gold.Chemscore.Internal.Correction>
   9.000000E+99

> <Gold.Chemscore.Hbonds>
donor molecule, donor type, donor heavy atom, donor atom, acceptor molecule, acceptor atom, score
      L1  H     4    52       P1  7948  0.95
      P1  H  7989  7998       L1     7  0.97

> <Gold.Chemscore.Hbond.Weighted>
-6.5175

> <Gold.Chemscore.Metal.Weighted>
-0.0000

> <Gold.Chemscore.Lipo.Weighted>
-12.0461

> <Gold.Chemscore.Internal_Hbond.Weighted>
0.0000

> <Gold.Chemscore.DEClash.Weighted>
0.7035

> <Gold.Chemscore.DEInternal.Weighted>
1.2249

> <Gold.Chemscore.Rot.Weighted>
4.0990

> <Gold.Chemscore.Internal.Correction.Weighted>
   9.000000E+99

> <Gold.Protein.RotatedTorsions>
[ 6907 6896 6895 6894 ] final   64.90 input  -60.11 | X-H torsion
[ 7974 7965 7964 7962 ] final  -89.50 input  175.53 | X-H torsion
[ 8008 7997 7996 7995 ] final -112.28 input   59.86 | X-H torsion
[ 10167 10162 10161 10158 ] final -123.33 input  -65.29 | X-H torsion
[ 10718 10713 10712 10709 ] final   69.56 input   66.30 | X-H torsion
[ 10763 10752 10751 10750 ] final  157.93 input  -60.55 | X-H torsion
[ 11005 11000 10999 10996 ] final -118.40 input  -57.11 | X-H torsion

> <Gold.Protein.ActiveResidues>
 VAL166  LYS551  ARG553  GLY616  TRP617  ASP618  TYR619  PRO620  LYS621  CYS622 
 ASP623  PHE694  ASN695  SER759  ASP760  ASP761  ALA762  ILE779  LEU786  VAL792 
 PHE793  MET794  SER795  GLU796  ALA797  LYS798  CYS799  TRP800  GLU811  SER814 

> <Gold.Protein.RotatedAtoms>
  152.4367  134.5672  159.9910 H   0  0  0  0  0  0  0  0  0  0  0  0  # atno 6907 bound_to 6896
  151.5781  133.3375  159.3011 H   0  0  0  0  0  0  0  0  0  0  0  0  # atno 6908 bound_to 6896
  150.8266  134.7535  159.6883 H   0  0  0  0  0  0  0  0  0  0  0  0  # atno 6909 bound_to 6896
  145.4390  140.9558  143.2086 H   0  0  0  0  0  0  0  0  0  0  0  0  # atno 7974 bound_to 7965
  155.0028  140.0394  157.2367 H   0  0  0  0  0  0  0  0  0  0  0  0  # atno 8008 bound_to 7997
  154.7528  140.2770  155.6255 H   0  0  0  0  0  0  0  0  0  0  0  0  # atno 8009 bound_to 7997
  156.2888  140.2643  156.2286 H   0  0  0  0  0  0  0  0  0  0  0  0  # atno 8010 bound_to 7997
  140.0047  143.5504  152.2288 H   0  0  0  0  0  0  0  0  0  0  0  0  # atno 10167 bound_to 10162
  157.6352  130.9432  150.0530 H   0  0  0  0  0  0  0  0  0  0  0  0  # atno 10718 bound_to 10713
  154.2080  135.2787  155.2968 H   0  0  0  0  0  0  0  0  0  0  0  0  # atno 10763 bound_to 10752
  154.5802  135.5592  153.7181 H   0  0  0  0  0  0  0  0  0  0  0  0  # atno 10764 bound_to 10752
  153.0071  135.6343  154.2218 H   0  0  0  0  0  0  0  0  0  0  0  0  # atno 10765 bound_to 10752
  141.0288  134.0013  157.3174 H   0  0  0  0  0  0  0  0  0  0  0  0  # atno 11005 bound_to 11000
  144.8134  139.5921  143.7019 LP  0  0  0  0  0  0  0  0  0  0  0  0  # atno 17320 bound_to 7965
  146.2567  139.6317  142.9390 LP  0  0  0  0  0  0  0  0  0  0  0  0  # atno 17321 bound_to 7965
  139.6247  144.7635  151.2665 LP  0  0  0  0  0  0  0  0  0  0  0  0  # atno 17342 bound_to 10162
  140.7405  143.6586  150.8184 LP  0  0  0  0  0  0  0  0  0  0  0  0  # atno 17343 bound_to 10162
  156.1586  130.3643  149.9333 LP  0  0  0  0  0  0  0  0  0  0  0  0  # atno 17370 bound_to 10713
  156.7336  130.9052  151.3627 LP  0  0  0  0  0  0  0  0  0  0  0  0  # atno 17371 bound_to 10713
  139.9194  135.0199  156.8006 LP  0  0  0  0  0  0  0  0  0  0  0  0  # atno 17394 bound_to 11000
  140.6443  133.9789  155.7723 LP  0  0  0  0  0  0  0  0  0  0  0  0  # atno 17395 bound_to 11000

$$$$
