#       Name:                AV-unprocessed.smi:107
#       Creating user name   scv26
#       Creation time:       Thu Mar 26 18:02:00 2020


#       File generated by GOLD software.
#

@<TRIPOS>MOLECULE
AV-unprocessed.smi:107
    41    42     1
SMALL
NO_CHARGES


@<TRIPOS>ATOM
      1 ****        -3.4697   1.6346   0.1397 C.3            1 S1                 0.0000
      2 ****        -2.7896   0.2757   0.1546 C.2            1 S1                 0.0000
      3 ****        -1.4392   0.1379   0.1374 C.2            1 S1                 0.0000
      4 ****        -0.7885  -1.0880   0.1504 N.am           1 S1                 0.0000
      5 ****         0.7209  -1.1717   0.1266 C.3            1 S1                 0.0000
      6 ****         1.2565  -0.9455  -1.2879 C.3            1 S1                 0.0000
      7 ****         2.4998  -0.1280  -1.0076 C.3            1 S1                 0.0000
      8 ****         2.8546   0.6541  -2.1295 O.3            1 S1                 0.0000
      9 ****         2.0593   0.7244   0.1850 C.3            1 S1                 0.0000
     10 ****         3.2292   1.2251   1.0454 C.3            1 S1                 0.0000
     11 ****         2.8082   2.3029   1.8539 O.3            1 S1                 0.0000
     12 ****         1.2465  -0.1687   0.9465 O.3            1 S1                 0.0000
     13 ****        -1.5513  -2.2745   0.1657 C.2            1 S1                 0.0000
     14 ****        -1.0486  -3.3974   0.1528 O.2            1 S1                 0.0000
     15 ****        -2.9380  -2.1338   0.1866 N.am           1 S1                 0.0000
     16 ****        -3.6333  -0.9222   0.1843 C.2            1 S1                 0.0000
     17 ****        -4.8630  -0.9278   0.2035 O.2            1 S1                 0.0000
     18 ****        -3.4877  -2.9805   0.2010 H              1 S1                 0.0000
     19 ****        -2.7455   2.4497   0.1364 H              1 S1                 0.0000
     20 ****        -4.1022   1.7544   1.0200 H              1 S1                 0.0000
     21 ****        -4.0943   1.7383  -0.7483 H              1 S1                 0.0000
     22 ****        -0.8409   1.0358   0.1082 H              1 S1                 0.0000
     23 ****         1.0169  -2.1306   0.5544 H              1 S1                 0.0000
     24 ****         1.4503  -1.8907  -1.7959 H              1 S1                 0.0000
     25 ****         0.5341  -0.3690  -1.8688 H              1 S1                 0.0000
     26 ****         3.3250  -0.7856  -0.7295 H              1 S1                 0.0000
     27 ****         2.1240   1.2110  -2.3517 H              1 S1                 0.0000
     28 ****         1.4480   1.5567  -0.1694 H              1 S1                 0.0000
     29 ****         3.6408   0.4244   1.6607 H              1 S1                 0.0000
     30 ****         4.0346   1.5910   0.4077 H              1 S1                 0.0000
     31 ****         3.5440   2.5975   2.3686 H              1 S1                 0.0000
     32 ****         3.0702   0.0569  -2.9021 LP             1 S1                 0.0000
     33 ****         3.6521   1.2161  -1.9099 LP             1 S1                 0.0000
     34 ****         2.0716   2.0023   2.4598 LP             1 S1                 0.0000
     35 ****         2.4803   3.0501   1.2758 LP             1 S1                 0.0000
     36 ****         1.8019  -0.5880   1.6646 LP             1 S1                 0.0000
     37 ****         0.4952   0.3437   1.3625 LP             1 S1                 0.0000
     38 ****        -0.0541  -3.4998   0.1304 LP             1 S1                 0.0000
     39 ****        -1.6345  -4.2077   0.1647 LP             1 S1                 0.0000
     40 ****        -5.3671  -0.0641   0.1994 LP             1 S1                 0.0000
     41 ****        -5.3588  -1.7960   0.2232 LP             1 S1                 0.0000
@<TRIPOS>BOND
    1    1    2 1     
    2    1   19 1     
    3    1   20 1     
    4    1   21 1     
    5    2   16 1     
    6    2    3 2     
    7    3    4 1     
    8    3   22 1     
    9    4    5 1     
   10    4   13 1     
   11    5   12 1     
   12    5    6 1     
   13    5   23 1     
   14    6    7 1     
   15    6   24 1     
   16    6   25 1     
   17    7    8 1     
   18    7    9 1     
   19    7   26 1     
   20    8   27 1     
   21    9   10 1     
   22    9   12 1     
   23    9   28 1     
   24   10   11 1     
   25   10   29 1     
   26   10   30 1     
   27   11   31 1     
   28   13   14 2     
   29   13   15 1     
   30   15   18 1     
   31   15   16 1     
   32   16   17 2     
   33    8   32 1     
   34    8   33 1     
   35   11   34 1     
   36   11   35 1     
   37   12   36 1     
   38   12   37 1     
   39   14   38 1     
   40   14   39 1     
   41   17   40 1     
   42   17   41 1     
@<TRIPOS>SUBSTRUCTURE
      1 S1             1
@<TRIPOS>SET
LONE_PAIRS      STATIC     ATOMS    <user>   **** ""
10 32 33 34 35 36 37 38 39 40 41
DONOR_HYDROGENS      STATIC     ATOMS    <user>   **** ""
3 27 31 18
ATOM$BLUE        STATIC     ATOMS    COLORGROUP SYSTEM
10 32 33 34 35 36 37 38 39 40 41
ATOM$RED        STATIC     ATOMS    COLORGROUP SYSTEM
3 27 31 18
