AV-unprocessed.smi:99|AV-procd|sdf|882|dock4
  -GOLD-   2262017363D 1   1.00000     0.00000
 Structure written by MMmdl.
 52 55  0  0  0  0  0  0  0  0  2 V2000
  147.6964  137.3794  160.6308 O   0  0  0  0  0  0  0  0  0  0  0  0
  148.0765  136.3961  159.9923 C   0  0  0  0  0  0  0  0  0  0  0  0
  148.7228  136.4749  158.8124 O   0  0  0  0  0  0  0  0  0  0  0  0
  149.5491  137.5914  158.5208 C   0  0  0  0  0  0  0  0  0  0  0  0
  149.9718  137.5387  157.0450 C   0  0  1  0  0  0  0  0  0  0  0  0
  148.8660  137.8386  156.1958 O   0  0  0  0  0  0  0  0  0  0  0  0
  149.3116  138.4191  155.0024 C   0  0  1  0  0  0  0  0  0  0  0  0
  148.5639  139.7192  154.7768 N   0  0  0  0  0  0  0  0  0  0  0  0
  148.7669  140.8072  155.6081 C   0  0  0  0  0  0  0  0  0  0  0  0
  148.1126  141.9709  155.4188 C   0  0  0  0  0  0  0  0  0  0  0  0
  147.1631  142.0873  154.3167 C   0  0  0  0  0  0  0  0  0  0  0  0
  146.5756  143.1539  154.1471 O   0  0  0  0  0  0  0  0  0  0  0  0
  146.9684  140.9976  153.5192 N   0  5  0  0  0  0  0  0  0  0  0  0
  147.6309  139.8189  153.7080 C   0  0  0  0  0  0  0  0  0  0  0  0
  147.4665  138.8324  152.9900 O   0  0  0  0  0  0  0  0  0  0  0  0
  150.8363  138.6120  155.1327 C   0  0  1  0  0  0  0  0  0  0  0  0
  151.3921  139.7784  154.5539 O   0  0  0  0  0  0  0  0  0  0  0  0
  151.0677  138.5302  156.6329 C   0  0  1  0  0  0  0  0  0  0  0  0
  150.8385  139.7842  157.2790 O   0  0  0  0  0  0  0  0  0  0  0  0
  151.5760  140.1578  158.3518 C   0  0  0  0  0  0  0  0  0  0  0  0
  152.0637  139.3647  159.1594 O   0  0  0  0  0  0  0  0  0  0  0  0
  151.7387  141.6355  158.4638 C   0  0  0  0  0  0  0  0  0  0  0  0
  152.3712  142.1778  159.6069 C   0  0  0  0  0  0  0  0  0  0  0  0
  152.5420  143.5694  159.7402 C   0  0  0  0  0  0  0  0  0  0  0  0
  152.0801  144.4366  158.7330 C   0  0  0  0  0  0  0  0  0  0  0  0
  151.4446  143.9100  157.5936 C   0  0  0  0  0  0  0  0  0  0  0  0
  151.2731  142.5187  157.4600 C   0  0  0  0  0  0  0  0  0  0  0  0
  147.8750  134.9908  160.4479 C   0  0  0  0  0  0  0  0  0  0  0  0
  148.1915  133.9259  159.5724 C   0  0  0  0  0  0  0  0  0  0  0  0
  148.0080  132.5885  159.9741 C   0  0  0  0  0  0  0  0  0  0  0  0
  147.5039  132.2996  161.2555 C   0  0  0  0  0  0  0  0  0  0  0  0
  147.1819  133.3501  162.1344 C   0  0  0  0  0  0  0  0  0  0  0  0
  147.3653  134.6883  161.7348 C   0  0  0  0  0  0  0  0  0  0  0  0
  149.0061  138.5132  158.7302 H   0  0  0  0  0  0  0  0  0  0  0  0
  150.4374  137.5875  159.1547 H   0  0  0  0  0  0  0  0  0  0  0  0
  150.3072  136.5298  156.7995 H   0  0  0  0  0  0  0  0  0  0  0  0
  149.0317  137.7670  154.1737 H   0  0  0  0  0  0  0  0  0  0  0  0
  149.4594  140.7349  156.4322 H   0  0  0  0  0  0  0  0  0  0  0  0
  148.2861  142.8082  156.0787 H   0  0  0  0  0  0  0  0  0  0  0  0
  151.3066  137.7464  154.6646 H   0  0  0  0  0  0  0  0  0  0  0  0
  151.8788  140.2384  155.2209 H   0  0  0  0  0  0  0  0  0  0  0  0
  152.0560  138.1262  156.8553 H   0  0  0  0  0  0  0  0  0  0  0  0
  152.7363  141.5319  160.3925 H   0  0  0  0  0  0  0  0  0  0  0  0
  153.0292  143.9714  160.6161 H   0  0  0  0  0  0  0  0  0  0  0  0
  152.2121  145.5038  158.8345 H   0  0  0  0  0  0  0  0  0  0  0  0
  151.0871  144.5732  156.8196 H   0  0  0  0  0  0  0  0  0  0  0  0
  150.7756  142.1497  156.5779 H   0  0  0  0  0  0  0  0  0  0  0  0
  148.5795  134.1230  158.5834 H   0  0  0  0  0  0  0  0  0  0  0  0
  148.2545  131.7834  159.2975 H   0  0  0  0  0  0  0  0  0  0  0  0
  147.3633  131.2738  161.5632 H   0  0  0  0  0  0  0  0  0  0  0  0
  146.7925  133.1298  163.1174 H   0  0  0  0  0  0  0  0  0  0  0  0
  147.1036  135.4704  162.4324 H   0  0  0  0  0  0  0  0  0  0  0  0
  1  2  2  0  0  0  0
  2  3  1  0  0  0  0
  2 28  1  0  0  0  0
  3  4  1  0  0  0  0
  4  5  1  0  0  0  0
  4 34  1  0  0  0  0
  4 35  1  0  0  0  0
  5 18  1  0  0  0  0
  5  6  1  0  0  0  0
  5 36  1  0  0  0  0
  6  7  1  0  0  0  0
  7  8  1  0  0  0  0
  7 16  1  0  0  0  0
  7 37  1  0  0  0  0
  8 14  1  0  0  0  0
  8  9  1  0  0  0  0
  9 10  2  0  0  0  0
  9 38  1  0  0  0  0
 10 11  1  0  0  0  0
 10 39  1  0  0  0  0
 11 12  2  0  0  0  0
 11 13  1  0  0  0  0
 13 14  1  0  0  0  0
 14 15  2  0  0  0  0
 16 17  1  0  0  0  0
 16 18  1  0  0  0  0
 16 40  1  0  0  0  0
 17 41  1  0  0  0  0
 18 19  1  0  0  0  0
 18 42  1  0  0  0  0
 19 20  1  0  0  0  0
 20 21  2  0  0  0  0
 20 22  1  0  0  0  0
 22 27  1  0  0  0  0
 22 23  2  0  0  0  0
 23 24  1  0  0  0  0
 23 43  1  0  0  0  0
 24 25  2  0  0  0  0
 24 44  1  0  0  0  0
 25 26  1  0  0  0  0
 25 45  1  0  0  0  0
 26 27  2  0  0  0  0
 26 46  1  0  0  0  0
 27 47  1  0  0  0  0
 28 33  1  0  0  0  0
 28 29  2  0  0  0  0
 29 30  1  0  0  0  0
 29 48  1  0  0  0  0
 30 31  2  0  0  0  0
 30 49  1  0  0  0  0
 31 32  1  0  0  0  0
 31 50  1  0  0  0  0
 32 33  2  0  0  0  0
 32 51  1  0  0  0  0
 33 52  1  0  0  0  0
M  CHG  1  13  -1
M  END
> <s_m_source_file>
AV-unprocessed.smi

> <i_m_source_file_index>
99

> <i_lp_mmshare_version>
43012

> <i_f3d_flags>
0

> <s_epik_input>
W2NIXTFbY0hdW2NIXVtjSF1bY0hdYzFDKD1PKU9bQ0gyXVtDQEBIXTJPW0NAQEhdKG4zW2NIXVtjSF1jKD1PKVtuSF1jMz1PKVtDQEBIXShbT0hdKVtDQEhdMk9DKD1PKWM0W2NIXVtjSF1bY0hdW2NIXVtjSF00

> <s_epik_cmdline>
J2VwaWtfcHl0aG9uJywgJy1waCcsICc3LjAnLCAnLXRuJywgJzgnLCAnLW1hJywgJzIwMCcsICctbWV0YWxfYmluZGluZycsICctaW1hZScsICc8aW5maWxlLm1hZT4nLCAnLW9tYWUnLCAnPG91dGZpbGUubWFlPic=

> <r_lp_tautomer_probability>
1

> <r_epik_Ionization_Penalty>
2.89159

> <r_epik_Ionization_Penalty_Charging>
2.1077e-08

> <r_epik_Ionization_Penalty_Neutral>
2.89159

> <r_epik_State_Penalty>
2.88671

> <r_epik_Charging_Adjusted_Penalty>
2.88671

> <i_epik_Tot_Q>
-1

> <i_epik_Tot_abs_Q>
1

> <r_epik_Metal_State_Penalty>
0.0727308

> <b_epik_Metal_Only>
1

> <s_epik_Chemistry_Notes>
This compound has an ester and may undergo hydrolysis at high or low pH. This compound contains an acetal/aminal-like group ( X-CH(R)-Y where X, Y are N, S, or O) that may be acid/base labile, releasing an aldehyde.

> <s_lp_Force_Field>
OPLS_2005

> <r_lp_Energy>
51.9735

> <b_lp_Chiralities_Consistent>
1

> <s_lp_Variant>
AV-unprocessed.smi:99-18

> <Gold.Version>
5.8.1

> <Gold.Id.Protein>
6NUR|6NUR_protein|mol2

> <Gold.PLP.Fitness>
56.6141

> <Gold.PLP.PLP>
-52.2981

> <Gold.PLP.part.hbond>
-3.5321

> <Gold.PLP.part.metal>
0.0000

> <Gold.PLP.part.buried>
-5.2062

> <Gold.PLP.part.nonpolar>
-46.5957

> <Gold.PLP.part.repulsive>
1.2362

> <Gold.PLP.ligand.clash>
0.0000

> <Gold.PLP.ligand.torsion>
1.5576

> <Gold.PLP.Chemscore.Hbond>
2.2340

> <Gold.PLP.Chemscore.CHOScore>
0.0000

> <Gold.PLP.Chemscore.Metal>
0.0000

> <Gold.Chemscore.Hbonds>
donor molecule, donor type, donor heavy atom, donor atom, acceptor molecule, acceptor atom, score
      P1  H  6931  6943       L1     1  0.70
      P1  H  6934  6947       L1     1  0.90
      P1  H  7989  7998       L1    17  0.65

> <Gold.PLP.Chemscore.Internal.Correction>
0.7293

> <Gold.Rescore>
     Score         DG    S(hbond)    S(metal)    S(lipo)     H(rot)  DE(clash)    DE(int)     intcor
     14.61     -19.11       2.34        0.00     118.30       3.13       0.58       3.92       ----

> <Gold.Chemscore.Fitness>
14.6107

> <Gold.Chemscore.DG>
-19.1061

> <Gold.Chemscore.ZeroCoef>
-5.4800

> <Gold.Chemscore.Hbond>
2.3381

> <Gold.Chemscore.Metal>
0.0000

> <Gold.Chemscore.Lipo>
118.3020

> <Gold.Chemscore.Internal_Hbond>
0.0000

> <Gold.Chemscore.DEClash>
0.5781

> <Gold.Chemscore.DEInternal>
3.9173

> <Gold.Chemscore.Rot>
3.1346

> <Gold.Chemscore.Internal.Correction>
   9.000000E+99

> <Gold.Chemscore.Hbonds>
donor molecule, donor type, donor heavy atom, donor atom, acceptor molecule, acceptor atom, score
      P1  H  6931  6943       L1     1  0.62
      P1  H  6934  6947       L1     1  0.88
      P1  H  7989  7998       L1    17  0.05

> <Gold.Chemscore.Hbond.Weighted>
-7.8093

> <Gold.Chemscore.Metal.Weighted>
-0.0000

> <Gold.Chemscore.Lipo.Weighted>
-13.8413

> <Gold.Chemscore.Internal_Hbond.Weighted>
0.0000

> <Gold.Chemscore.DEClash.Weighted>
0.5781

> <Gold.Chemscore.DEInternal.Weighted>
3.9173

> <Gold.Chemscore.Rot.Weighted>
8.0246

> <Gold.Chemscore.Internal.Correction.Weighted>
   9.000000E+99

> <Gold.Protein.RotatedTorsions>
[ 6907 6896 6895 6894 ] final  -95.18 input  -60.11 | X-H torsion
[ 7974 7965 7964 7962 ] final   19.81 input  175.53 | X-H torsion
[ 8008 7997 7996 7995 ] final  -86.06 input   59.86 | X-H torsion
[ 10167 10162 10161 10158 ] final   95.72 input  -65.29 | X-H torsion
[ 10718 10713 10712 10709 ] final  109.85 input   66.30 | X-H torsion
[ 10763 10752 10751 10750 ] final  157.36 input  -60.55 | X-H torsion
[ 11005 11000 10999 10996 ] final   91.40 input  -57.11 | X-H torsion

> <Gold.Protein.ActiveResidues>
 VAL166  LYS551  ARG553  GLY616  TRP617  ASP618  TYR619  PRO620  LYS621  CYS622 
 ASP623  PHE694  ASN695  SER759  ASP760  ASP761  ALA762  ILE779  LEU786  VAL792 
 PHE793  MET794  SER795  GLU796  ALA797  LYS798  CYS799  TRP800  GLU811  SER814 

> <Gold.Protein.RotatedAtoms>
  150.6958  134.1697  159.4207 H   0  0  0  0  0  0  0  0  0  0  0  0  # atno 6907 bound_to 6896
  151.9675  135.0091  160.0560 H   0  0  0  0  0  0  0  0  0  0  0  0  # atno 6908 bound_to 6896
  152.1871  133.4712  159.5025 H   0  0  0  0  0  0  0  0  0  0  0  0  # atno 6909 bound_to 6896
  146.2135  139.8259  142.8670 H   0  0  0  0  0  0  0  0  0  0  0  0  # atno 7974 bound_to 7965
  154.6476  140.0583  156.9919 H   0  0  0  0  0  0  0  0  0  0  0  0  # atno 8008 bound_to 7997
  155.1420  140.3266  155.4431 H   0  0  0  0  0  0  0  0  0  0  0  0  # atno 8009 bound_to 7997
  156.2561  140.1962  156.6535 H   0  0  0  0  0  0  0  0  0  0  0  0  # atno 8010 bound_to 7997
  139.7962  144.6832  150.9825 H   0  0  0  0  0  0  0  0  0  0  0  0  # atno 10167 bound_to 10162
  157.6522  131.0921  150.6514 H   0  0  0  0  0  0  0  0  0  0  0  0  # atno 10718 bound_to 10713
  154.1991  135.2791  155.2997 H   0  0  0  0  0  0  0  0  0  0  0  0  # atno 10763 bound_to 10752
  154.5869  135.5572  153.7243 H   0  0  0  0  0  0  0  0  0  0  0  0  # atno 10764 bound_to 10752
  153.0092  135.6358  154.2129 H   0  0  0  0  0  0  0  0  0  0  0  0  # atno 10765 bound_to 10752
  139.8839  134.8672  156.3423 H   0  0  0  0  0  0  0  0  0  0  0  0  # atno 11005 bound_to 11000
  145.3047  141.0204  143.3588 LP  0  0  0  0  0  0  0  0  0  0  0  0  # atno 17320 bound_to 7965
  144.8980  139.4687  143.6646 LP  0  0  0  0  0  0  0  0  0  0  0  0  # atno 17321 bound_to 7965
  140.7820  143.4329  151.0668 LP  0  0  0  0  0  0  0  0  0  0  0  0  # atno 17342 bound_to 10162
  139.8003  143.8093  152.3162 LP  0  0  0  0  0  0  0  0  0  0  0  0  # atno 17343 bound_to 10162
  156.6824  130.4571  149.5624 LP  0  0  0  0  0  0  0  0  0  0  0  0  # atno 17370 bound_to 10713
  156.1919  130.6565  151.1071 LP  0  0  0  0  0  0  0  0  0  0  0  0  # atno 17371 bound_to 10713
  140.9650  133.7364  156.0455 LP  0  0  0  0  0  0  0  0  0  0  0  0  # atno 17394 bound_to 11000
  140.7942  134.3583  157.5457 LP  0  0  0  0  0  0  0  0  0  0  0  0  # atno 17395 bound_to 11000

$$$$
