AV-unprocessed.smi:1225|AV-procd|sdf|5139|dock8
  -GOLD-   22720 4203D 1   1.00000     0.00000
 Structure written by MMmdl.
 49 51  0  0  0  0  0  0  0  0  2 V2000
  145.4482  143.3738  155.6932 C   0  0  0  0  0  0  0  0  0  0  0  0
  146.1817  142.3172  154.9405 C   0  0  0  0  0  0  0  0  0  0  0  0
  147.1475  142.5752  154.0559 N   0  0  0  0  0  0  0  0  0  0  0  0
  147.6746  141.4129  153.4881 C   0  0  0  0  0  0  0  0  0  0  0  0
  147.0997  140.2566  153.9548 C   0  0  0  0  0  0  0  0  0  0  0  0
  147.4273  138.8526  153.5559 C   0  0  0  0  0  0  0  0  0  0  0  0
  147.9537  138.0332  154.6488 N   0  0  0  0  0  0  0  0  0  0  0  0
  146.8691  137.5018  155.4736 C   0  0  0  0  0  0  0  0  0  0  0  0
  148.9153  138.8028  155.4455 C   0  0  0  0  0  0  0  0  0  0  0  0
  150.3345  138.9731  154.8577 C   0  0  1  0  0  0  0  0  0  0  0  0
  150.3026  139.7612  153.6839 O   0  0  0  0  0  0  0  0  0  0  0  0
  151.3805  139.5004  155.8633 C   0  0  0  0  0  0  0  0  0  0  0  0
  151.0322  140.8203  156.4054 N   0  0  0  0  0  0  0  0  0  0  0  0
  150.2077  141.7812  155.9070 C   0  0  0  0  0  0  0  0  0  0  0  0
  150.2212  142.8259  156.7807 N   0  3  0  0  0  0  0  0  0  0  0  0
  151.0635  142.5254  157.8537 C   0  0  0  0  0  0  0  0  0  0  0  0
  151.4017  143.2635  158.9817 C   0  0  0  0  0  0  0  0  0  0  0  0
  152.2974  142.6671  159.8982 C   0  0  0  0  0  0  0  0  0  0  0  0
  152.6917  143.4490  161.1396 C   0  0  0  0  0  0  0  0  0  0  0  0
  152.8217  141.3685  159.6673 C   0  0  0  0  0  0  0  0  0  0  0  0
  153.7829  140.7366  160.6598 C   0  0  0  0  0  0  0  0  0  0  0  0
  152.4652  140.6340  158.5137 C   0  0  0  0  0  0  0  0  0  0  0  0
  151.5839  141.2378  157.6206 C   0  0  0  0  0  0  0  0  0  0  0  0
  145.8547  140.5991  155.1296 S   0  0  0  0  0  0  0  0  0  0  0  0
  145.9120  144.3485  155.5383 H   0  0  0  0  0  0  0  0  0  0  0  0
  145.4594  143.1478  156.7595 H   0  0  0  0  0  0  0  0  0  0  0  0
  144.4132  143.4208  155.3549 H   0  0  0  0  0  0  0  0  0  0  0  0
  148.4644  141.5003  152.7566 H   0  0  0  0  0  0  0  0  0  0  0  0
  146.5157  138.3971  153.1670 H   0  0  0  0  0  0  0  0  0  0  0  0
  148.1351  138.8606  152.7257 H   0  0  0  0  0  0  0  0  0  0  0  0
  147.2471  136.8217  156.2353 H   0  0  0  0  0  0  0  0  0  0  0  0
  146.1588  136.9316  154.8747 H   0  0  0  0  0  0  0  0  0  0  0  0
  146.3234  138.3042  155.9716 H   0  0  0  0  0  0  0  0  0  0  0  0
  148.5183  139.8118  155.5643 H   0  0  0  0  0  0  0  0  0  0  0  0
  148.9763  138.3975  156.4568 H   0  0  0  0  0  0  0  0  0  0  0  0
  150.6531  137.9856  154.5233 H   0  0  0  0  0  0  0  0  0  0  0  0
  149.9241  139.2461  152.9883 H   0  0  0  0  0  0  0  0  0  0  0  0
  151.4774  138.8212  156.7110 H   0  0  0  0  0  0  0  0  0  0  0  0
  152.3674  139.5641  155.4032 H   0  0  0  0  0  0  0  0  0  0  0  0
  149.6481  141.7263  154.9840 H   0  0  0  0  0  0  0  0  0  0  0  0
  150.9986  144.2513  159.1508 H   0  0  0  0  0  0  0  0  0  0  0  0
  153.7662  143.6345  161.1488 H   0  0  0  0  0  0  0  0  0  0  0  0
  152.4270  142.8972  162.0420 H   0  0  0  0  0  0  0  0  0  0  0  0
  152.1864  144.4147  161.1802 H   0  0  0  0  0  0  0  0  0  0  0  0
  154.1052  139.7485  160.3298 H   0  0  0  0  0  0  0  0  0  0  0  0
  153.3071  140.6230  161.6342 H   0  0  0  0  0  0  0  0  0  0  0  0
  154.6733  141.3543  160.7780 H   0  0  0  0  0  0  0  0  0  0  0  0
  152.8641  139.6462  158.3366 H   0  0  0  0  0  0  0  0  0  0  0  0
  149.6928  143.6793  156.6518 H   0  0  0  0  0  0  0  0  0  0  0  0
  1  2  1  0  0  0  0
  1 25  1  0  0  0  0
  1 26  1  0  0  0  0
  1 27  1  0  0  0  0
  2 24  1  0  0  0  0
  2  3  2  0  0  0  0
  3  4  1  0  0  0  0
  4  5  2  0  0  0  0
  4 28  1  0  0  0  0
  5  6  1  0  0  0  0
  5 24  1  0  0  0  0
  6  7  1  0  0  0  0
  6 29  1  0  0  0  0
  6 30  1  0  0  0  0
  7  8  1  0  0  0  0
  7  9  1  0  0  0  0
  8 31  1  0  0  0  0
  8 32  1  0  0  0  0
  8 33  1  0  0  0  0
  9 10  1  0  0  0  0
  9 34  1  0  0  0  0
  9 35  1  0  0  0  0
 10 11  1  0  0  0  0
 10 12  1  0  0  0  0
 10 36  1  0  0  0  0
 11 37  1  0  0  0  0
 12 13  1  0  0  0  0
 12 38  1  0  0  0  0
 12 39  1  0  0  0  0
 13 23  1  0  0  0  0
 13 14  1  0  0  0  0
 14 15  2  0  0  0  0
 14 40  1  0  0  0  0
 15 16  1  0  0  0  0
 15 49  1  0  0  0  0
 16 23  2  0  0  0  0
 16 17  1  0  0  0  0
 17 18  2  0  0  0  0
 17 41  1  0  0  0  0
 18 19  1  0  0  0  0
 18 20  1  0  0  0  0
 19 42  1  0  0  0  0
 19 43  1  0  0  0  0
 19 44  1  0  0  0  0
 20 21  1  0  0  0  0
 20 22  2  0  0  0  0
 21 45  1  0  0  0  0
 21 46  1  0  0  0  0
 21 47  1  0  0  0  0
 22 23  1  0  0  0  0
 22 48  1  0  0  0  0
M  CHG  1  15   1
M  END
> <s_m_source_file>
AV-unprocessed.smi

> <i_m_source_file_index>
1225

> <i_lp_mmshare_version>
43012

> <i_f3d_flags>
0

> <s_epik_input>
W0NIM11jMW5bY0hdYyhzMSlbQ0gyXU4oW0NIM10pW0NIMl1bQ0BIXShbT0hdKVtDSDJdbihbY0hdbjIpYyhjMjMpW2NIXWMoW0NIM10pYyhbY0hdMylbQ0gzXQ==

> <s_epik_cmdline>
J2VwaWtfcHl0aG9uJywgJy1waCcsICc3LjAnLCAnLXRuJywgJzgnLCAnLW1hJywgJzIwMCcsICctbWV0YWxfYmluZGluZycsICctaW1hZScsICc8aW5maWxlLm1hZT4nLCAnLW9tYWUnLCAnPG91dGZpbGUubWFlPic=

> <r_epik_Ionization_Penalty>
1.25968

> <r_epik_Ionization_Penalty_Charging>
1.21782

> <r_epik_Ionization_Penalty_Neutral>
0.0418565

> <r_epik_State_Penalty>
1.29962

> <r_epik_Charging_Adjusted_Penalty>
2.51745

> <i_epik_Tot_Q>
1

> <i_epik_Tot_abs_Q>
1

> <r_epik_Metal_State_Penalty>
1.36802

> <b_epik_Metal_Only>
0

> <s_lp_Force_Field>
OPLS_2005

> <r_lp_Energy>
27.2567

> <b_lp_Chiralities_Consistent>
1

> <s_lp_Variant>
AV-unprocessed.smi:1225-4

> <Gold.Version>
5.8.1

> <Gold.Id.Protein>
6NUR|6NUR_protein|mol2

> <Gold.PLP.Fitness>
56.0573

> <Gold.PLP.PLP>
-44.4436

> <Gold.PLP.part.hbond>
-3.0000

> <Gold.PLP.part.metal>
0.0000

> <Gold.PLP.part.buried>
-5.7448

> <Gold.PLP.part.nonpolar>
-36.2243

> <Gold.PLP.part.repulsive>
0.3221

> <Gold.PLP.ligand.clash>
0.0000

> <Gold.PLP.ligand.torsion>
0.7630

> <Gold.PLP.Chemscore.Hbond>
3.3120

> <Gold.PLP.Chemscore.CHOScore>
1.0000

> <Gold.PLP.Chemscore.Metal>
0.0000

> <Gold.Chemscore.Hbonds>
donor molecule, donor type, donor heavy atom, donor atom, acceptor molecule, acceptor atom, score
      L1  H    11    37       P1  7957  0.43
      L1  H    15    49       P1  8028  2.00
      P1  H  7989  7998       L1    11  0.88
      L1  C     4    28       P1  7957  1.00

> <Gold.PLP.Chemscore.Internal.Correction>
0.2037

> <Gold.Rescore>
     Score         DG    S(hbond)    S(metal)    S(lipo)     H(rot)  DE(clash)    DE(int)     intcor
     18.44     -20.51       2.22        0.00     116.78       2.36       0.09       1.98       ----

> <Gold.Chemscore.Fitness>
18.4440

> <Gold.Chemscore.DG>
-20.5107

> <Gold.Chemscore.ZeroCoef>
-5.4800

> <Gold.Chemscore.Hbond>
2.2222

> <Gold.Chemscore.Metal>
0.0000

> <Gold.Chemscore.Lipo>
116.7750

> <Gold.Chemscore.Internal_Hbond>
0.0000

> <Gold.Chemscore.DEClash>
0.0904

> <Gold.Chemscore.DEInternal>
1.9762

> <Gold.Chemscore.Rot>
2.3649

> <Gold.Chemscore.Internal.Correction>
   9.000000E+99

> <Gold.Chemscore.Hbonds>
donor molecule, donor type, donor heavy atom, donor atom, acceptor molecule, acceptor atom, score
      L1  H    11    37       P1  7957  0.39
      L1  H    15    49       P1  8028  0.95
      P1  H  7989  7998       L1    11  0.81

> <Gold.Chemscore.Hbond.Weighted>
-7.4220

> <Gold.Chemscore.Metal.Weighted>
-0.0000

> <Gold.Chemscore.Lipo.Weighted>
-13.6627

> <Gold.Chemscore.Internal_Hbond.Weighted>
0.0000

> <Gold.Chemscore.DEClash.Weighted>
0.0904

> <Gold.Chemscore.DEInternal.Weighted>
1.9762

> <Gold.Chemscore.Rot.Weighted>
6.0540

> <Gold.Chemscore.Internal.Correction.Weighted>
   9.000000E+99

> <Gold.Protein.RotatedTorsions>
[ 6907 6896 6895 6894 ] final  107.75 input  -60.11 | X-H torsion
[ 7974 7965 7964 7962 ] final -100.42 input  175.53 | X-H torsion
[ 8008 7997 7996 7995 ] final -122.06 input   59.86 | X-H torsion
[ 10167 10162 10161 10158 ] final -159.42 input  -65.29 | X-H torsion
[ 10718 10713 10712 10709 ] final   62.13 input   66.30 | X-H torsion
[ 10763 10752 10751 10750 ] final   50.35 input  -60.55 | X-H torsion
[ 11005 11000 10999 10996 ] final -130.14 input  -57.11 | X-H torsion

> <Gold.Protein.ActiveResidues>
 VAL166  LYS551  ARG553  GLY616  TRP617  ASP618  TYR619  PRO620  LYS621  CYS622 
 ASP623  PHE694  ASN695  SER759  ASP760  ASP761  ALA762  ILE779  LEU786  VAL792 
 PHE793  MET794  SER795  GLU796  ALA797  LYS798  CYS799  TRP800  GLU811  SER814 

> <Gold.Protein.RotatedAtoms>
  152.5141  133.9189  159.7524 H   0  0  0  0  0  0  0  0  0  0  0  0  # atno 6907 bound_to 6896
  150.9565  133.6483  159.2769 H   0  0  0  0  0  0  0  0  0  0  0  0  # atno 6908 bound_to 6896
  151.3743  135.0933  159.9528 H   0  0  0  0  0  0  0  0  0  0  0  0  # atno 6909 bound_to 6896
  145.2948  140.9362  143.2857 H   0  0  0  0  0  0  0  0  0  0  0  0  # atno 7974 bound_to 7965
  155.1581  140.0405  157.2836 H   0  0  0  0  0  0  0  0  0  0  0  0  # atno 8008 bound_to 7997
  154.6356  140.2534  155.7355 H   0  0  0  0  0  0  0  0  0  0  0  0  # atno 8009 bound_to 7997
  156.2507  140.2866  156.0727 H   0  0  0  0  0  0  0  0  0  0  0  0  # atno 8010 bound_to 7997
  139.6617  143.9901  152.2229 H   0  0  0  0  0  0  0  0  0  0  0  0  # atno 10167 bound_to 10162
  157.5878  130.9033  149.9548 H   0  0  0  0  0  0  0  0  0  0  0  0  # atno 10718 bound_to 10713
  152.9785  135.5882  154.4237 H   0  0  0  0  0  0  0  0  0  0  0  0  # atno 10763 bound_to 10752
  154.3859  135.2767  155.2186 H   0  0  0  0  0  0  0  0  0  0  0  0  # atno 10764 bound_to 10752
  154.4079  135.6088  153.5990 H   0  0  0  0  0  0  0  0  0  0  0  0  # atno 10765 bound_to 10752
  140.9371  134.1242  157.4184 H   0  0  0  0  0  0  0  0  0  0  0  0  # atno 11005 bound_to 11000
  144.9142  139.4491  143.6572 LP  0  0  0  0  0  0  0  0  0  0  0  0  # atno 17320 bound_to 7965
  146.3172  139.7967  142.8974 LP  0  0  0  0  0  0  0  0  0  0  0  0  # atno 17321 bound_to 7965
  139.9642  144.6537  150.8050 LP  0  0  0  0  0  0  0  0  0  0  0  0  # atno 17342 bound_to 10162
  140.7582  143.3103  151.2861 LP  0  0  0  0  0  0  0  0  0  0  0  0  # atno 17343 bound_to 10162
  156.0929  130.3662  150.0361 LP  0  0  0  0  0  0  0  0  0  0  0  0  # atno 17370 bound_to 10713
  156.8489  130.9452  151.3627 LP  0  0  0  0  0  0  0  0  0  0  0  0  # atno 17371 bound_to 10713
  139.8811  135.0024  156.6127 LP  0  0  0  0  0  0  0  0  0  0  0  0  # atno 17394 bound_to 11000
  140.7784  133.8680  155.8548 LP  0  0  0  0  0  0  0  0  0  0  0  0  # atno 17395 bound_to 11000

$$$$
