AV-unprocessed.smi:1039|AV-procd|sdf|4522|dock3
  -GOLD-   22720 2533D 1   1.00000     0.00000
 Structure written by MMmdl.
 40 41  0  0  0  0  0  0  0  0  1 V2000
  152.7221  142.7537  161.0251 C   0  0  0  0  0  0  0  0  0  0  0  0
  152.9149  141.7391  159.8900 C   0  0  0  0  0  0  0  0  0  0  0  0
  151.5767  141.3884  159.2039 C   0  0  0  0  0  0  0  0  0  0  0  0
  151.7656  140.2921  158.1398 C   0  0  0  0  0  0  0  0  0  0  0  0
  152.3740  139.1116  158.7778 N   0  0  0  0  0  0  0  0  0  0  0  0
  151.7250  137.9723  159.1264 C   0  0  0  0  0  0  0  0  0  0  0  0
  152.1972  137.1295  159.8906 O   0  0  0  0  0  0  0  0  0  0  0  0
  150.5338  137.8064  158.5317 N   0  0  0  0  0  0  0  0  0  0  0  0
  149.6284  136.6872  158.7596 C   0  0  0  0  0  0  0  0  0  0  0  0
  148.2846  137.1531  159.3478 C   0  0  0  0  0  0  0  0  0  0  0  0
  147.9376  136.4983  160.6534 C   0  0  0  0  0  0  0  0  0  0  0  0
  147.7093  137.1788  161.7725 N   0  0  0  0  0  0  0  0  0  0  0  0
  147.4016  136.2114  162.7215 C   0  0  0  0  0  0  0  0  0  0  0  0
  147.4598  134.9687  162.1396 C   0  0  0  0  0  0  0  0  0  0  0  0
  147.8150  135.1638  160.8094 N   0  0  0  0  0  0  0  0  0  0  0  0
  148.0043  134.1254  159.8082 C   0  0  0  0  0  0  0  0  0  0  0  0
  147.7582  132.9214  160.3260 F   0  0  0  0  0  0  0  0  0  0  0  0
  147.1972  134.3356  158.7693 F   0  0  0  0  0  0  0  0  0  0  0  0
  153.7269  139.4110  159.2624 C   0  0  0  0  0  0  0  0  0  0  0  0
  153.6353  140.4648  160.3811 C   0  0  0  0  0  0  0  0  0  0  0  0
  152.0873  142.3495  161.8143 H   0  0  0  0  0  0  0  0  0  0  0  0
  152.2559  143.6687  160.6587 H   0  0  0  0  0  0  0  0  0  0  0  0
  153.6777  143.0268  161.4736 H   0  0  0  0  0  0  0  0  0  0  0  0
  153.5537  142.2055  159.1385 H   0  0  0  0  0  0  0  0  0  0  0  0
  150.8560  141.0471  159.9486 H   0  0  0  0  0  0  0  0  0  0  0  0
  151.1471  142.2792  158.7446 H   0  0  0  0  0  0  0  0  0  0  0  0
  150.8118  140.0914  157.6524 H   0  0  0  0  0  0  0  0  0  0  0  0
  152.4243  140.6513  157.3478 H   0  0  0  0  0  0  0  0  0  0  0  0
  150.2183  138.5269  157.8986 H   0  0  0  0  0  0  0  0  0  0  0  0
  149.4591  136.1379  157.8323 H   0  0  0  0  0  0  0  0  0  0  0  0
  150.1118  135.9987  159.4541 H   0  0  0  0  0  0  0  0  0  0  0  0
  148.3013  138.2352  159.4712 H   0  0  0  0  0  0  0  0  0  0  0  0
  147.4850  136.9479  158.6354 H   0  0  0  0  0  0  0  0  0  0  0  0
  147.1629  136.4811  163.7396 H   0  0  0  0  0  0  0  0  0  0  0  0
  147.2852  133.9874  162.5556 H   0  0  0  0  0  0  0  0  0  0  0  0
  149.0354  134.1254  159.4546 H   0  0  0  0  0  0  0  0  0  0  0  0
  154.2479  138.5236  159.6247 H   0  0  0  0  0  0  0  0  0  0  0  0
  154.3311  139.7908  158.4375 H   0  0  0  0  0  0  0  0  0  0  0  0
  154.6355  140.7145  160.7365 H   0  0  0  0  0  0  0  0  0  0  0  0
  153.1010  140.0418  161.2330 H   0  0  0  0  0  0  0  0  0  0  0  0
  1  2  1  0  0  0  0
  1 21  1  0  0  0  0
  1 22  1  0  0  0  0
  1 23  1  0  0  0  0
  2 20  1  0  0  0  0
  2  3  1  0  0  0  0
  2 24  1  0  0  0  0
  3  4  1  0  0  0  0
  3 25  1  0  0  0  0
  3 26  1  0  0  0  0
  4  5  1  0  0  0  0
  4 27  1  0  0  0  0
  4 28  1  0  0  0  0
  5  6  1  0  0  0  0
  5 19  1  0  0  0  0
  6  7  2  0  0  0  0
  6  8  1  0  0  0  0
  8  9  1  0  0  0  0
  8 29  1  0  0  0  0
  9 10  1  0  0  0  0
  9 30  1  0  0  0  0
  9 31  1  0  0  0  0
 10 11  1  0  0  0  0
 10 32  1  0  0  0  0
 10 33  1  0  0  0  0
 11 15  1  0  0  0  0
 11 12  2  0  0  0  0
 12 13  1  0  0  0  0
 13 14  2  0  0  0  0
 13 34  1  0  0  0  0
 14 15  1  0  0  0  0
 14 35  1  0  0  0  0
 15 16  1  0  0  0  0
 16 17  1  0  0  0  0
 16 18  1  0  0  0  0
 16 36  1  0  0  0  0
 19 20  1  0  0  0  0
 19 37  1  0  0  0  0
 19 38  1  0  0  0  0
 20 39  1  0  0  0  0
 20 40  1  0  0  0  0
M  END
> <s_m_source_file>
AV-unprocessed.smi

> <i_m_source_file_index>
1039

> <i_lp_mmshare_version>
43012

> <i_f3d_flags>
0

> <s_epik_input>
W0NIM11bQ0hdMVtDSDJdW0NIMl1OKFtDSDJdW0NIMl0xKUMoPU8pW05IXVtDSDJdW0NIMl1jMm5bY0hdW2NIXW4yW0NIXShGKUY=

> <s_epik_cmdline>
J2VwaWtfcHl0aG9uJywgJy1waCcsICc3LjAnLCAnLXRuJywgJzgnLCAnLW1hJywgJzIwMCcsICctbWV0YWxfYmluZGluZycsICctaW1hZScsICc8aW5maWxlLm1hZT4nLCAnLW9tYWUnLCAnPG91dGZpbGUubWFlPic=

> <r_lp_tautomer_probability>
1

> <r_epik_Ionization_Penalty>
0.101783

> <r_epik_Ionization_Penalty_Charging>
0.101715

> <r_epik_Ionization_Penalty_Neutral>
6.87123e-05

> <r_epik_State_Penalty>
0.091697

> <r_epik_Charging_Adjusted_Penalty>
0.193412

> <i_epik_Tot_Q>
0

> <i_epik_Tot_abs_Q>
0

> <r_epik_Metal_State_Penalty>
0.0781553

> <b_epik_Metal_Only>
0

> <s_lp_Force_Field>
OPLS_2005

> <r_lp_Energy>
33.8957

> <b_lp_Chiralities_Consistent>
1

> <s_lp_Variant>
AV-unprocessed.smi:1039-1

> <Gold.Version>
5.8.1

> <Gold.Id.Protein>
6NUR|6NUR_protein|mol2

> <Gold.PLP.Fitness>
47.8900

> <Gold.PLP.PLP>
-40.7829

> <Gold.PLP.part.hbond>
-2.9470

> <Gold.PLP.part.metal>
0.0000

> <Gold.PLP.part.buried>
-4.6996

> <Gold.PLP.part.nonpolar>
-33.3529

> <Gold.PLP.part.repulsive>
0.1373

> <Gold.PLP.ligand.clash>
0.0000

> <Gold.PLP.ligand.torsion>
0.4521

> <Gold.PLP.Chemscore.Hbond>
2.6458

> <Gold.PLP.Chemscore.CHOScore>
0.0000

> <Gold.PLP.Chemscore.Metal>
0.0000

> <Gold.Chemscore.Hbonds>
donor molecule, donor type, donor heavy atom, donor atom, acceptor molecule, acceptor atom, score
      P1  H  6896  6909       L1     7  0.99
      P1  H  6931  6943       L1    12  1.00
      P1  H  6934  6947       L1    12  0.59

> <Gold.PLP.Chemscore.Internal.Correction>
0.0738

> <Gold.Rescore>
     Score         DG    S(hbond)    S(metal)    S(lipo)     H(rot)  DE(clash)    DE(int)     intcor
     18.52     -19.05       2.56        0.00      77.20       1.56       0.05       0.48       ----

> <Gold.Chemscore.Fitness>
18.5241

> <Gold.Chemscore.DG>
-19.0519

> <Gold.Chemscore.ZeroCoef>
-5.4800

> <Gold.Chemscore.Hbond>
2.5570

> <Gold.Chemscore.Metal>
0.0000

> <Gold.Chemscore.Lipo>
77.1955

> <Gold.Chemscore.Internal_Hbond>
0.0000

> <Gold.Chemscore.DEClash>
0.0484

> <Gold.Chemscore.DEInternal>
0.4795

> <Gold.Chemscore.Rot>
1.5626

> <Gold.Chemscore.Internal.Correction>
   9.000000E+99

> <Gold.Chemscore.Hbonds>
donor molecule, donor type, donor heavy atom, donor atom, acceptor molecule, acceptor atom, score
      P1  H  6896  6909       L1     7  0.92
      P1  H  6931  6943       L1    12  0.48
      P1  H  6934  6947       L1    12  0.15

> <Gold.Chemscore.Hbond.Weighted>
-8.5404

> <Gold.Chemscore.Metal.Weighted>
-0.0000

> <Gold.Chemscore.Lipo.Weighted>
-9.0319

> <Gold.Chemscore.Internal_Hbond.Weighted>
0.0000

> <Gold.Chemscore.DEClash.Weighted>
0.0484

> <Gold.Chemscore.DEInternal.Weighted>
0.4795

> <Gold.Chemscore.Rot.Weighted>
4.0004

> <Gold.Chemscore.Internal.Correction.Weighted>
   9.000000E+99

> <Gold.Protein.RotatedTorsions>
[ 6907 6896 6895 6894 ] final  126.61 input  -60.11 | X-H torsion
[ 7974 7965 7964 7962 ] final  170.93 input  175.53 | X-H torsion
[ 8008 7997 7996 7995 ] final  156.32 input   59.86 | X-H torsion
[ 10167 10162 10161 10158 ] final -129.46 input  -65.29 | X-H torsion
[ 10718 10713 10712 10709 ] final  -78.96 input   66.30 | X-H torsion
[ 10763 10752 10751 10750 ] final  173.31 input  -60.55 | X-H torsion
[ 11005 11000 10999 10996 ] final -174.62 input  -57.11 | X-H torsion

> <Gold.Protein.ActiveResidues>
 VAL166  LYS551  ARG553  GLY616  TRP617  ASP618  TYR619  PRO620  LYS621  CYS622 
 ASP623  PHE694  ASN695  SER759  ASP760  ASP761  ALA762  ILE779  LEU786  VAL792 
 PHE793  MET794  SER795  GLU796  ALA797  LYS798  CYS799  TRP800  GLU811  SER814 

> <Gold.Protein.RotatedAtoms>
  152.3888  133.6649  159.6220 H   0  0  0  0  0  0  0  0  0  0  0  0  # atno 6907 bound_to 6896
  150.7801  133.8990  159.3344 H   0  0  0  0  0  0  0  0  0  0  0  0  # atno 6908 bound_to 6896
  151.6781  135.0967  160.0262 H   0  0  0  0  0  0  0  0  0  0  0  0  # atno 6909 bound_to 6896
  144.7309  139.9275  143.6423 H   0  0  0  0  0  0  0  0  0  0  0  0  # atno 7974 bound_to 7965
  156.2429  140.1915  156.6937 H   0  0  0  0  0  0  0  0  0  0  0  0  # atno 8008 bound_to 7997
  154.6232  140.0605  156.9668 H   0  0  0  0  0  0  0  0  0  0  0  0  # atno 8009 bound_to 7997
  155.1828  140.3278  155.4375 H   0  0  0  0  0  0  0  0  0  0  0  0  # atno 8010 bound_to 7997
  139.9396  143.6179  152.2507 H   0  0  0  0  0  0  0  0  0  0  0  0  # atno 10167 bound_to 10162
  156.0104  130.4532  150.3576 H   0  0  0  0  0  0  0  0  0  0  0  0  # atno 10718 bound_to 10713
  154.4383  135.2761  155.1865 H   0  0  0  0  0  0  0  0  0  0  0  0  # atno 10763 bound_to 10752
  154.3742  135.6102  153.5760 H   0  0  0  0  0  0  0  0  0  0  0  0  # atno 10764 bound_to 10752
  152.9839  135.5864  154.4706 H   0  0  0  0  0  0  0  0  0  0  0  0  # atno 10765 bound_to 10752
  140.4725  134.6152  157.4887 H   0  0  0  0  0  0  0  0  0  0  0  0  # atno 11005 bound_to 11000
  146.0882  139.3871  143.0422 LP  0  0  0  0  0  0  0  0  0  0  0  0  # atno 17320 bound_to 7965
  145.7747  140.9882  143.1131 LP  0  0  0  0  0  0  0  0  0  0  0  0  # atno 17321 bound_to 7965
  139.6716  144.7660  151.1773 LP  0  0  0  0  0  0  0  0  0  0  0  0  # atno 17342 bound_to 10162
  140.7615  143.5857  150.8848 LP  0  0  0  0  0  0  0  0  0  0  0  0  # atno 17343 bound_to 10162
  157.1666  131.0358  151.2815 LP  0  0  0  0  0  0  0  0  0  0  0  0  # atno 17370 bound_to 10713
  157.4265  130.7467  149.6955 LP  0  0  0  0  0  0  0  0  0  0  0  0  # atno 17371 bound_to 10713
  139.9876  134.7036  155.9746 LP  0  0  0  0  0  0  0  0  0  0  0  0  # atno 17394 bound_to 11000
  141.1570  133.6542  156.4194 LP  0  0  0  0  0  0  0  0  0  0  0  0  # atno 17395 bound_to 11000

$$$$
