AV-unprocessed.smi:1202|AV-procd|sdf|5028|dock5
  -GOLD-   22720 4 53D 1   1.00000     0.00000
 Structure written by MMmdl.
 44 45  0  0  0  0  0  0  0  0  1 V2000
  146.5465  142.3796  157.1634 C   0  0  0  0  0  0  0  0  0  0  0  0
  147.7596  143.0498  157.6053 N   0  0  0  0  0  0  0  0  0  0  0  0
  148.0538  143.3075  158.8880 C   0  0  0  0  0  0  0  0  0  0  0  0
  147.3175  142.9995  159.8255 O   0  0  0  0  0  0  0  0  0  0  0  0
  149.3872  144.0151  159.1593 C   0  0  0  0  0  0  0  0  0  0  0  0
  150.4307  143.1520  159.7590 N   0  0  0  0  0  0  0  0  0  0  0  0
  151.3681  143.9870  160.5192 C   0  0  0  0  0  0  0  0  0  0  0  0
  152.3877  143.1142  161.2717 C   0  0  0  0  0  0  0  0  0  0  0  0
  153.1617  142.2203  160.2880 C   0  0  0  0  0  0  0  0  0  0  0  0
  154.1676  141.3808  160.9426 N   0  0  0  0  0  0  0  0  0  0  0  0
  154.7574  140.2742  160.4590 C   0  0  0  0  0  0  0  0  0  0  0  0
  154.5046  139.7921  159.3545 O   0  0  0  0  0  0  0  0  0  0  0  0
  155.7788  139.6041  161.3893 C   0  0  0  0  0  0  0  0  0  0  0  0
  155.1640  138.6990  162.3747 N   0  0  0  0  0  0  0  0  0  0  0  0
  155.5225  138.8816  163.7253 C   0  0  0  0  0  0  0  0  0  0  0  0
  155.0185  138.1128  164.7038 C   0  0  0  0  0  0  0  0  0  0  0  0
  154.0842  137.0733  164.3423 C   0  0  0  0  0  0  0  0  0  0  0  0
  153.7316  136.8926  163.0539 C   0  0  0  0  0  0  0  0  0  0  0  0
  154.2775  137.7326  161.9816 C   0  0  0  0  0  0  0  0  0  0  0  0
  153.9584  137.5763  160.8025 O   0  0  0  0  0  0  0  0  0  0  0  0
  152.1667  141.4162  159.4336 C   0  0  0  0  0  0  0  0  0  0  0  0
  151.1499  142.3519  158.7551 C   0  0  0  0  0  0  0  0  0  0  0  0
  146.5608  142.2601  156.0801 H   0  0  0  0  0  0  0  0  0  0  0  0
  145.6631  142.9607  157.4314 H   0  0  0  0  0  0  0  0  0  0  0  0
  146.4625  141.3902  157.6144 H   0  0  0  0  0  0  0  0  0  0  0  0
  148.4174  143.3337  156.8938 H   0  0  0  0  0  0  0  0  0  0  0  0
  149.7645  144.4593  158.2359 H   0  0  0  0  0  0  0  0  0  0  0  0
  149.1724  144.8446  159.8348 H   0  0  0  0  0  0  0  0  0  0  0  0
  151.8832  144.6820  159.8537 H   0  0  0  0  0  0  0  0  0  0  0  0
  150.8213  144.5903  161.2451 H   0  0  0  0  0  0  0  0  0  0  0  0
  153.0803  143.7494  161.8249 H   0  0  0  0  0  0  0  0  0  0  0  0
  151.8607  142.5115  162.0121 H   0  0  0  0  0  0  0  0  0  0  0  0
  153.7212  142.8737  159.6171 H   0  0  0  0  0  0  0  0  0  0  0  0
  154.4504  141.6786  161.8650 H   0  0  0  0  0  0  0  0  0  0  0  0
  156.5142  139.0620  160.7917 H   0  0  0  0  0  0  0  0  0  0  0  0
  156.3440  140.3898  161.8925 H   0  0  0  0  0  0  0  0  0  0  0  0
  156.2207  139.6845  163.9123 H   0  0  0  0  0  0  0  0  0  0  0  0
  155.3015  138.2705  165.7341 H   0  0  0  0  0  0  0  0  0  0  0  0
  153.6650  136.4382  165.1086 H   0  0  0  0  0  0  0  0  0  0  0  0
  153.0305  136.1101  162.8026 H   0  0  0  0  0  0  0  0  0  0  0  0
  152.7026  140.8432  158.6760 H   0  0  0  0  0  0  0  0  0  0  0  0
  151.6268  140.6921  160.0445 H   0  0  0  0  0  0  0  0  0  0  0  0
  150.4598  141.7351  158.1796 H   0  0  0  0  0  0  0  0  0  0  0  0
  151.6542  143.0082  158.0437 H   0  0  0  0  0  0  0  0  0  0  0  0
  1  2  1  0  0  0  0
  1 23  1  0  0  0  0
  1 24  1  0  0  0  0
  1 25  1  0  0  0  0
  2  3  1  0  0  0  0
  2 26  1  0  0  0  0
  3  4  2  0  0  0  0
  3  5  1  0  0  0  0
  5  6  1  0  0  0  0
  5 27  1  0  0  0  0
  5 28  1  0  0  0  0
  6 22  1  0  0  0  0
  6  7  1  0  0  0  0
  7  8  1  0  0  0  0
  7 29  1  0  0  0  0
  7 30  1  0  0  0  0
  8  9  1  0  0  0  0
  8 31  1  0  0  0  0
  8 32  1  0  0  0  0
  9 10  1  0  0  0  0
  9 21  1  0  0  0  0
  9 33  1  0  0  0  0
 10 11  1  0  0  0  0
 10 34  1  0  0  0  0
 11 12  2  0  0  0  0
 11 13  1  0  0  0  0
 13 14  1  0  0  0  0
 13 35  1  0  0  0  0
 13 36  1  0  0  0  0
 14 19  1  0  0  0  0
 14 15  1  0  0  0  0
 15 16  2  0  0  0  0
 15 37  1  0  0  0  0
 16 17  1  0  0  0  0
 16 38  1  0  0  0  0
 17 18  2  0  0  0  0
 17 39  1  0  0  0  0
 18 19  1  0  0  0  0
 18 40  1  0  0  0  0
 19 20  2  0  0  0  0
 21 22  1  0  0  0  0
 21 41  1  0  0  0  0
 21 42  1  0  0  0  0
 22 43  1  0  0  0  0
 22 44  1  0  0  0  0
M  END
> <s_m_source_file>
AV-unprocessed.smi

> <i_m_source_file_index>
1202

> <i_lp_mmshare_version>
43012

> <i_f3d_flags>
0

> <s_epik_input>
W0NIM11bTkhdQyg9TylbQ0gyXU4xW0NIMl1bQ0gyXVtDSF0oW0NIMl1bQ0gyXTEpW05IXUMoPU8pW0NIMl1uMltjSF1bY0hdW2NIXVtjSF1jMj1P

> <s_epik_cmdline>
J2VwaWtfcHl0aG9uJywgJy1waCcsICc3LjAnLCAnLXRuJywgJzgnLCAnLW1hJywgJzIwMCcsICctbWV0YWxfYmluZGluZycsICctaW1hZScsICc8aW5maWxlLm1hZT4nLCAnLW9tYWUnLCAnPG91dGZpbGUubWFlPic=

> <r_lp_tautomer_probability>
1

> <r_epik_Ionization_Penalty>
0.12485

> <r_epik_Ionization_Penalty_Charging>
3.59605e-07

> <r_epik_Ionization_Penalty_Neutral>
0.12485

> <r_epik_State_Penalty>
0.114323

> <r_epik_Charging_Adjusted_Penalty>
0.114323

> <i_epik_Tot_Q>
0

> <i_epik_Tot_abs_Q>
0

> <r_epik_Metal_State_Penalty>
0.117995

> <b_epik_Metal_Only>
0

> <s_lp_Force_Field>
OPLS_2005

> <r_lp_Energy>
24.2751

> <b_lp_Chiralities_Consistent>
1

> <s_lp_Variant>
AV-unprocessed.smi:1202-1

> <Gold.Version>
5.8.1

> <Gold.Id.Protein>
6NUR|6NUR_protein|mol2

> <Gold.PLP.Fitness>
48.0187

> <Gold.PLP.PLP>
-40.8635

> <Gold.PLP.part.hbond>
-6.2527

> <Gold.PLP.part.metal>
0.0000

> <Gold.PLP.part.buried>
-3.0504

> <Gold.PLP.part.nonpolar>
-31.7027

> <Gold.PLP.part.repulsive>
0.1783

> <Gold.PLP.ligand.clash>
0.0000

> <Gold.PLP.ligand.torsion>
1.1228

> <Gold.PLP.Chemscore.Hbond>
3.1215

> <Gold.PLP.Chemscore.CHOScore>
0.0000

> <Gold.PLP.Chemscore.Metal>
0.0000

> <Gold.Chemscore.Hbonds>
donor molecule, donor type, donor heavy atom, donor atom, acceptor molecule, acceptor atom, score
      L1  H     2    26       P1  8028  0.86
      P1  H  6933  6944       L1     4  0.73
      P1  H  6934  6946       L1     4  0.17
      P1  H  7997  8009       L1    12  0.73

> <Gold.PLP.Chemscore.Internal.Correction>
0.0363

> <Gold.Rescore>
     Score         DG    S(hbond)    S(metal)    S(lipo)     H(rot)  DE(clash)    DE(int)     intcor
     14.84     -17.80       2.26        0.00      88.61       2.19       0.30       2.67       ----

> <Gold.Chemscore.Fitness>
14.8370

> <Gold.Chemscore.DG>
-17.8039

> <Gold.Chemscore.ZeroCoef>
-5.4800

> <Gold.Chemscore.Hbond>
2.2625

> <Gold.Chemscore.Metal>
0.0000

> <Gold.Chemscore.Lipo>
88.6127

> <Gold.Chemscore.Internal_Hbond>
0.0000

> <Gold.Chemscore.DEClash>
0.3011

> <Gold.Chemscore.DEInternal>
2.6659

> <Gold.Chemscore.Rot>
2.1877

> <Gold.Chemscore.Internal.Correction>
   9.000000E+99

> <Gold.Chemscore.Hbonds>
donor molecule, donor type, donor heavy atom, donor atom, acceptor molecule, acceptor atom, score
      L1  H     2    26       P1  8028  0.22
      P1  H  6933  6944       L1     4  0.49
      P1  H  6934  6946       L1     4  0.17
      P1  H  7997  8009       L1    12  0.70

> <Gold.Chemscore.Hbond.Weighted>
-7.5567

> <Gold.Chemscore.Metal.Weighted>
-0.0000

> <Gold.Chemscore.Lipo.Weighted>
-10.3677

> <Gold.Chemscore.Internal_Hbond.Weighted>
0.0000

> <Gold.Chemscore.DEClash.Weighted>
0.3011

> <Gold.Chemscore.DEInternal.Weighted>
2.6659

> <Gold.Chemscore.Rot.Weighted>
5.6005

> <Gold.Chemscore.Internal.Correction.Weighted>
   9.000000E+99

> <Gold.Protein.RotatedTorsions>
[ 6907 6896 6895 6894 ] final  -31.40 input  -60.11 | X-H torsion
[ 7974 7965 7964 7962 ] final   52.31 input  175.53 | X-H torsion
[ 8008 7997 7996 7995 ] final  110.50 input   59.86 | X-H torsion
[ 10167 10162 10161 10158 ] final -103.12 input  -65.29 | X-H torsion
[ 10718 10713 10712 10709 ] final -151.79 input   66.30 | X-H torsion
[ 10763 10752 10751 10750 ] final  -35.54 input  -60.55 | X-H torsion
[ 11005 11000 10999 10996 ] final -139.72 input  -57.11 | X-H torsion

> <Gold.Protein.ActiveResidues>
 VAL166  LYS551  ARG553  GLY616  TRP617  ASP618  TYR619  PRO620  LYS621  CYS622 
 ASP623  PHE694  ASN695  SER759  ASP760  ASP761  ALA762  ILE779  LEU786  VAL792 
 PHE793  MET794  SER795  GLU796  ALA797  LYS798  CYS799  TRP800  GLU811  SER814 

> <Gold.Protein.RotatedAtoms>
  151.0926  134.9925  159.8409 H   0  0  0  0  0  0  0  0  0  0  0  0  # atno 6907 bound_to 6896
  152.5430  134.2046  159.8736 H   0  0  0  0  0  0  0  0  0  0  0  0  # atno 6908 bound_to 6896
  151.2084  133.4526  159.2631 H   0  0  0  0  0  0  0  0  0  0  0  0  # atno 6909 bound_to 6896
  145.9826  139.4258  143.0122 H   0  0  0  0  0  0  0  0  0  0  0  0  # atno 7974 bound_to 7965
  156.2057  140.3037  155.9622 H   0  0  0  0  0  0  0  0  0  0  0  0  # atno 8008 bound_to 7997
  155.2847  140.0439  157.3035 H   0  0  0  0  0  0  0  0  0  0  0  0  # atno 8009 bound_to 7997
  154.5630  140.2326  155.8315 H   0  0  0  0  0  0  0  0  0  0  0  0  # atno 8010 bound_to 7997
  140.2234  143.3659  152.0950 H   0  0  0  0  0  0  0  0  0  0  0  0  # atno 10167 bound_to 10162
  156.4639  130.8226  151.2457 H   0  0  0  0  0  0  0  0  0  0  0  0  # atno 10718 bound_to 10713
  153.8649  135.6836  153.4779 H   0  0  0  0  0  0  0  0  0  0  0  0  # atno 10763 bound_to 10752
  153.1320  135.4693  154.9362 H   0  0  0  0  0  0  0  0  0  0  0  0  # atno 10764 bound_to 10752
  154.7741  135.3248  154.8078 H   0  0  0  0  0  0  0  0  0  0  0  0  # atno 10765 bound_to 10752
  140.8492  134.2307  157.4769 H   0  0  0  0  0  0  0  0  0  0  0  0  # atno 11005 bound_to 11000
  145.7747  140.9882  143.1131 LP  0  0  0  0  0  0  0  0  0  0  0  0  # atno 17320 bound_to 7965
  144.6866  139.9490  143.7477 LP  0  0  0  0  0  0  0  0  0  0  0  0  # atno 17321 bound_to 7965
  139.5136  144.6935  151.5696 LP  0  0  0  0  0  0  0  0  0  0  0  0  # atno 17342 bound_to 10162
  140.6238  143.9207  150.6548 LP  0  0  0  0  0  0  0  0  0  0  0  0  # atno 17343 bound_to 10162
  157.7496  131.0098  150.3282 LP  0  0  0  0  0  0  0  0  0  0  0  0  # atno 17370 bound_to 10713
  156.3688  130.3860  149.7192 LP  0  0  0  0  0  0  0  0  0  0  0  0  # atno 17371 bound_to 10713
  139.8704  134.9675  156.4597 LP  0  0  0  0  0  0  0  0  0  0  0  0  # atno 17394 bound_to 11000
  140.8809  133.7918  155.9466 LP  0  0  0  0  0  0  0  0  0  0  0  0  # atno 17395 bound_to 11000

$$$$
