AV-unprocessed.smi:1352|AV-procd|sdf|5531|dock1
  -GOLD-   22720 5123D 1   1.00000     0.00000
 Structure written by MMmdl.
 47 48  0  0  0  0  0  0  0  0  2 V2000
  142.2449  137.5157  152.6149 C   0  0  0  0  0  0  0  0  0  0  0  0
  143.2842  136.5637  153.2324 C   0  0  1  0  0  0  0  0  0  0  0  0
  143.4528  135.2586  152.4328 C   0  0  0  0  0  0  0  0  0  0  0  0
  144.2340  135.4882  151.1267 C   0  0  2  0  0  0  0  0  0  0  0  0
  144.4541  134.1713  150.3687 C   0  0  0  0  0  0  0  0  0  0  0  0
  145.5695  136.1987  151.4203 C   0  0  0  0  0  0  0  0  0  0  0  0
  145.3562  137.4730  152.1538 N   0  3  2  0  0  0  0  0  0  0  0  0
  146.6100  138.2543  152.3010 C   0  0  0  0  0  0  0  0  0  0  0  0
  146.4697  139.4007  153.3213 C   0  0  0  0  0  0  0  0  0  0  0  0
  147.7184  140.1371  153.4777 N   0  0  0  0  0  0  0  0  0  0  0  0
  148.1830  140.6243  154.6383 C   0  0  0  0  0  0  0  0  0  0  0  0
  147.5723  140.5186  155.7028 O   0  0  0  0  0  0  0  0  0  0  0  0
  149.5305  141.3575  154.5709 C   0  0  0  0  0  0  0  0  0  0  0  0
  150.3306  141.2201  155.7994 N   0  0  0  0  0  0  0  0  0  0  0  0
  149.9531  142.0103  156.9033 C   0  0  0  0  0  0  0  0  0  0  0  0
  150.6129  141.9599  158.0714 C   0  0  0  0  0  0  0  0  0  0  0  0
  151.7401  141.0647  158.1803 C   0  0  0  0  0  0  0  0  0  0  0  0
  152.1079  140.3020  157.1317 C   0  0  0  0  0  0  0  0  0  0  0  0
  151.3875  140.3515  155.8541 C   0  0  0  0  0  0  0  0  0  0  0  0
  151.7129  139.6552  154.8920 O   0  0  0  0  0  0  0  0  0  0  0  0
  144.6492  137.2484  153.4435 C   0  0  0  0  0  0  0  0  0  0  0  0
  142.5519  137.8758  151.6331 H   0  0  0  0  0  0  0  0  0  0  0  0
  142.0902  138.3883  153.2501 H   0  0  0  0  0  0  0  0  0  0  0  0
  141.2801  137.0212  152.5000 H   0  0  0  0  0  0  0  0  0  0  0  0
  142.9006  136.2915  154.2166 H   0  0  0  0  0  0  0  0  0  0  0  0
  143.9870  134.5331  153.0480 H   0  0  0  0  0  0  0  0  0  0  0  0
  142.4781  134.8169  152.2211 H   0  0  0  0  0  0  0  0  0  0  0  0
  143.6411  136.1356  150.4800 H   0  0  0  0  0  0  0  0  0  0  0  0
  145.0505  133.4704  150.9535 H   0  0  0  0  0  0  0  0  0  0  0  0
  144.9725  134.3431  149.4250 H   0  0  0  0  0  0  0  0  0  0  0  0
  143.5041  133.6881  150.1382 H   0  0  0  0  0  0  0  0  0  0  0  0
  146.2281  135.5506  152.0011 H   0  0  0  0  0  0  0  0  0  0  0  0
  146.0778  136.4029  150.4769 H   0  0  0  0  0  0  0  0  0  0  0  0
  147.4320  137.5899  152.5722 H   0  0  0  0  0  0  0  0  0  0  0  0
  146.8723  138.6872  151.3347 H   0  0  0  0  0  0  0  0  0  0  0  0
  145.6708  140.0824  153.0236 H   0  0  0  0  0  0  0  0  0  0  0  0
  146.1985  139.0172  154.3039 H   0  0  0  0  0  0  0  0  0  0  0  0
  148.2798  140.2703  152.6487 H   0  0  0  0  0  0  0  0  0  0  0  0
  150.0994  140.9939  153.7129 H   0  0  0  0  0  0  0  0  0  0  0  0
  149.3340  142.4089  154.3575 H   0  0  0  0  0  0  0  0  0  0  0  0
  149.0964  142.6484  156.7424 H   0  0  0  0  0  0  0  0  0  0  0  0
  150.3064  142.5702  158.9083 H   0  0  0  0  0  0  0  0  0  0  0  0
  152.2904  141.0054  159.1079 H   0  0  0  0  0  0  0  0  0  0  0  0
  152.9533  139.6375  157.2317 H   0  0  0  0  0  0  0  0  0  0  0  0
  144.4990  138.1898  153.9706 H   0  0  0  0  0  0  0  0  0  0  0  0
  145.2760  136.6305  154.0887 H   0  0  0  0  0  0  0  0  0  0  0  0
  144.7433  138.0284  151.5738 H   0  0  0  0  0  0  0  0  0  0  0  0
  1  2  1  0  0  0  0
  1 22  1  0  0  0  0
  1 23  1  0  0  0  0
  1 24  1  0  0  0  0
  2 21  1  0  0  0  0
  2  3  1  0  0  0  0
  2 25  1  0  0  0  0
  3  4  1  0  0  0  0
  3 26  1  0  0  0  0
  3 27  1  0  0  0  0
  4  5  1  0  0  0  0
  4  6  1  0  0  0  0
  4 28  1  0  0  0  0
  5 29  1  0  0  0  0
  5 30  1  0  0  0  0
  5 31  1  0  0  0  0
  6  7  1  0  0  0  0
  6 32  1  0  0  0  0
  6 33  1  0  0  0  0
  7  8  1  0  0  0  0
  7 21  1  0  0  0  0
  7 47  1  0  0  0  0
  8  9  1  0  0  0  0
  8 34  1  0  0  0  0
  8 35  1  0  0  0  0
  9 10  1  0  0  0  0
  9 36  1  0  0  0  0
  9 37  1  0  0  0  0
 10 11  1  0  0  0  0
 10 38  1  0  0  0  0
 11 12  2  0  0  0  0
 11 13  1  0  0  0  0
 13 14  1  0  0  0  0
 13 39  1  0  0  0  0
 13 40  1  0  0  0  0
 14 19  1  0  0  0  0
 14 15  1  0  0  0  0
 15 16  2  0  0  0  0
 15 41  1  0  0  0  0
 16 17  1  0  0  0  0
 16 42  1  0  0  0  0
 17 18  2  0  0  0  0
 17 43  1  0  0  0  0
 18 19  1  0  0  0  0
 18 44  1  0  0  0  0
 19 20  2  0  0  0  0
 21 45  1  0  0  0  0
 21 46  1  0  0  0  0
M  CHG  1   7   1
M  END
> <s_m_source_file>
AV-unprocessed.smi

> <i_m_source_file_index>
1352

> <i_lp_mmshare_version>
43012

> <i_f3d_flags>
0

> <s_epik_input>
W0NIM11bQ0BASF0xW0NIMl1bQ0BASF0oW0NIM10pW0NIMl1OKFtDSDJdMSlbQ0gyXVtDSDJdW05IXUMoPU8pW0NIMl1uMltjSF1bY0hdW2NIXVtjSF1jMj1P

> <s_epik_cmdline>
J2VwaWtfcHl0aG9uJywgJy1waCcsICc3LjAnLCAnLXRuJywgJzgnLCAnLW1hJywgJzIwMCcsICctbWV0YWxfYmluZGluZycsICctaW1hZScsICc8aW5maWxlLm1hZT4nLCAnLW9tYWUnLCAnPG91dGZpbGUubWFlPic=

> <r_lp_tautomer_probability>
1

> <r_epik_Ionization_Penalty>
0.00156146

> <r_epik_Ionization_Penalty_Charging>
0.00156138

> <r_epik_Ionization_Penalty_Neutral>
8.12891e-08

> <r_epik_State_Penalty>
0.00104868

> <r_epik_Charging_Adjusted_Penalty>
0.00261006

> <i_epik_Tot_Q>
1

> <i_epik_Tot_abs_Q>
1

> <r_epik_Metal_State_Penalty>
-0

> <b_epik_Metal_Only>
0

> <s_lp_Force_Field>
OPLS_2005

> <r_lp_Energy>
27.867

> <b_lp_Chiralities_Consistent>
1

> <s_lp_Variant>
AV-unprocessed.smi:1352-4

> <Gold.Version>
5.8.1

> <Gold.Id.Protein>
6NUR|6NUR_protein|mol2

> <Gold.PLP.Fitness>
46.3716

> <Gold.PLP.PLP>
-36.1359

> <Gold.PLP.part.hbond>
-3.0000

> <Gold.PLP.part.metal>
0.0000

> <Gold.PLP.part.buried>
-0.6376

> <Gold.PLP.part.nonpolar>
-32.5274

> <Gold.PLP.part.repulsive>
0.1514

> <Gold.PLP.ligand.clash>
0.0000

> <Gold.PLP.ligand.torsion>
0.9007

> <Gold.PLP.Chemscore.Hbond>
3.0000

> <Gold.PLP.Chemscore.CHOScore>
1.0000

> <Gold.PLP.Chemscore.Metal>
0.0000

> <Gold.Chemscore.Hbonds>
donor molecule, donor type, donor heavy atom, donor atom, acceptor molecule, acceptor atom, score
      L1  H     7    47       P1 10171  0.98
      L1  H    10    38       P1  7957  1.00
      P1  H  7989  7998       L1    20  1.00
      L1  C    15    41       P1  8028  1.00

> <Gold.PLP.Chemscore.Internal.Correction>
0.0371

> <Gold.Rescore>
     Score         DG    S(hbond)    S(metal)    S(lipo)     H(rot)  DE(clash)    DE(int)     intcor
     15.68     -19.12       2.67        0.00      80.38       1.83       1.43       2.01       ----

> <Gold.Chemscore.Fitness>
15.6783

> <Gold.Chemscore.DG>
-19.1225

> <Gold.Chemscore.ZeroCoef>
-5.4800

> <Gold.Chemscore.Hbond>
2.6736

> <Gold.Chemscore.Metal>
0.0000

> <Gold.Chemscore.Lipo>
80.3828

> <Gold.Chemscore.Internal_Hbond>
0.0000

> <Gold.Chemscore.DEClash>
1.4336

> <Gold.Chemscore.DEInternal>
2.0107

> <Gold.Chemscore.Rot>
1.8329

> <Gold.Chemscore.Internal.Correction>
   9.000000E+99

> <Gold.Chemscore.Hbonds>
donor molecule, donor type, donor heavy atom, donor atom, acceptor molecule, acceptor atom, score
      L1  H     7    47       P1 10171  0.89
      L1  H    10    38       P1  7957  0.96
      P1  H  7989  7998       L1    20  0.34

> <Gold.Chemscore.Hbond.Weighted>
-8.9300

> <Gold.Chemscore.Metal.Weighted>
-0.0000

> <Gold.Chemscore.Lipo.Weighted>
-9.4048

> <Gold.Chemscore.Internal_Hbond.Weighted>
0.0000

> <Gold.Chemscore.DEClash.Weighted>
1.4336

> <Gold.Chemscore.DEInternal.Weighted>
2.0107

> <Gold.Chemscore.Rot.Weighted>
4.6922

> <Gold.Chemscore.Internal.Correction.Weighted>
   9.000000E+99

> <Gold.Protein.RotatedTorsions>
[ 6907 6896 6895 6894 ] final  -20.08 input  -60.11 | X-H torsion
[ 7974 7965 7964 7962 ] final   15.84 input  175.53 | X-H torsion
[ 8008 7997 7996 7995 ] final  122.37 input   59.86 | X-H torsion
[ 10167 10162 10161 10158 ] final  -36.07 input  -65.29 | X-H torsion
[ 10718 10713 10712 10709 ] final  128.69 input   66.30 | X-H torsion
[ 10763 10752 10751 10750 ] final  174.86 input  -60.55 | X-H torsion
[ 11005 11000 10999 10996 ] final   59.88 input  -57.11 | X-H torsion

> <Gold.Protein.ActiveResidues>
 VAL166  LYS551  ARG553  GLY616  TRP617  ASP618  TYR619  PRO620  LYS621  CYS622 
 ASP623  PHE694  ASN695  SER759  ASP760  ASP761  ALA762  ILE779  LEU786  VAL792 
 PHE793  MET794  SER795  GLU796  ALA797  LYS798  CYS799  TRP800  GLU811  SER814 

> <Gold.Protein.RotatedAtoms>
  151.2536  135.0630  159.9070 H   0  0  0  0  0  0  0  0  0  0  0  0  # atno 6907 bound_to 6896
  152.5376  134.0306  159.8033 H   0  0  0  0  0  0  0  0  0  0  0  0  # atno 6908 bound_to 6896
  151.0518  133.5568  159.2673 H   0  0  0  0  0  0  0  0  0  0  0  0  # atno 6909 bound_to 6896
  146.2267  139.8835  142.8567 H   0  0  0  0  0  0  0  0  0  0  0  0  # atno 7974 bound_to 7965
  156.2725  140.2787  156.1457 H   0  0  0  0  0  0  0  0  0  0  0  0  # atno 8008 bound_to 7997
  155.0907  140.0388  157.2685 H   0  0  0  0  0  0  0  0  0  0  0  0  # atno 8009 bound_to 7997
  154.6892  140.2625  155.6836 H   0  0  0  0  0  0  0  0  0  0  0  0  # atno 8010 bound_to 7997
  140.7151  143.3434  151.2309 H   0  0  0  0  0  0  0  0  0  0  0  0  # atno 10167 bound_to 10162
  157.5222  131.1098  150.9137 H   0  0  0  0  0  0  0  0  0  0  0  0  # atno 10718 bound_to 10713
  154.4598  135.2767  155.1721 H   0  0  0  0  0  0  0  0  0  0  0  0  # atno 10763 bound_to 10752
  154.3514  135.6149  153.5648 H   0  0  0  0  0  0  0  0  0  0  0  0  # atno 10764 bound_to 10752
  152.9854  135.5812  154.4958 H   0  0  0  0  0  0  0  0  0  0  0  0  # atno 10765 bound_to 10752
  140.0272  134.6065  155.9556 H   0  0  0  0  0  0  0  0  0  0  0  0  # atno 11005 bound_to 11000
  145.2488  141.0036  143.3893 LP  0  0  0  0  0  0  0  0  0  0  0  0  # atno 17320 bound_to 7965
  144.9391  139.4209  143.6457 LP  0  0  0  0  0  0  0  0  0  0  0  0  # atno 17321 bound_to 7965
  139.6947  143.9633  152.2876 LP  0  0  0  0  0  0  0  0  0  0  0  0  # atno 17342 bound_to 10162
  139.9306  144.6743  150.8366 LP  0  0  0  0  0  0  0  0  0  0  0  0  # atno 17343 bound_to 10162
  156.9744  130.5503  149.5292 LP  0  0  0  0  0  0  0  0  0  0  0  0  # atno 17370 bound_to 10713
  156.0361  130.5448  150.8657 LP  0  0  0  0  0  0  0  0  0  0  0  0  # atno 17371 bound_to 10713
  141.1810  133.6546  156.5019 LP  0  0  0  0  0  0  0  0  0  0  0  0  # atno 17394 bound_to 11000
  140.4286  134.7122  157.4930 LP  0  0  0  0  0  0  0  0  0  0  0  0  # atno 17395 bound_to 11000

$$$$
