#       Name:                AV-unprocessed.smi:1088
#       Creating user name   scv26
#       Creation time:       Fri Mar 27 03:26:32 2020


#       File generated by GOLD software.
#

@<TRIPOS>MOLECULE
AV-unprocessed.smi:1088
    56    57     1
SMALL
NO_CHARGES


@<TRIPOS>ATOM
      1 ****        -3.0029   5.8042  -0.0097 C.3            1 S1                 0.0000
      2 ****        -2.2743   4.5890   0.0035 O.3            1 S1                 0.0000
      3 ****        -2.3462   3.8986  -1.2328 C.3            1 S1                 0.0000
      4 ****        -1.5279   2.6037  -1.1274 C.3            1 S1                 0.0000
      5 ****        -2.0955   1.6593  -0.1344 N.4            1 S1                 1.0000
      6 ****        -3.4040   1.0779  -0.5016 C.3            1 S1                 0.0000
      7 ****        -3.4997  -0.2142   0.2989 C.3            1 S1                 0.0000
      8 ****        -2.0645  -0.7267   0.2878 C.3            1 S1                 0.0000
      9 ****        -1.1894   0.5420   0.2325 C.3            1 S1                 0.0000
     10 ****        -0.4677   0.8564   1.5603 C.3            1 S1                 0.0000
     11 ****         0.4592  -0.2002   1.9497 N.am           1 S1                 0.0000
     12 ****         1.6509  -0.4241   1.3765 C.2            1 S1                 0.0000
     13 ****         2.1097   0.2811   0.4770 O.2            1 S1                 0.0000
     14 ****         2.4466  -1.6223   1.9090 C.3            1 S1                 0.0000
     15 ****         3.1483  -2.3469   0.8422 N.am           1 S1                 0.0000
     16 ****         4.5082  -2.1657   0.6668 C.2            1 S1                 0.0000
     17 ****         5.2252  -2.7913  -0.2922 C.2            1 S1                 0.0000
     18 ****         4.5867  -3.7147  -1.2226 C.2            1 S1                 0.0000
     19 ****         5.2065  -4.3208  -2.0973 O.2            1 S1                 0.0000
     20 ****         3.1926  -3.8695  -1.0314 N.am           1 S1                 0.0000
     21 ****         2.4700  -4.7778  -1.8978 C.3            1 S1                 0.0000
     22 ****         2.4515  -3.2250  -0.0163 C.2            1 S1                 0.0000
     23 ****         1.2407  -3.4147   0.1279 O.2            1 S1                 0.0000
     24 ****        -2.9131   6.2952   0.9593 H              1 S1                 0.0000
     25 ****        -4.0622   5.6263  -0.1998 H              1 S1                 0.0000
     26 ****        -2.6200   6.4867  -0.7694 H              1 S1                 0.0000
     27 ****        -3.3827   3.6885  -1.5000 H              1 S1                 0.0000
     28 ****        -1.9313   4.5258  -2.0234 H              1 S1                 0.0000
     29 ****        -1.4659   2.1160  -2.1013 H              1 S1                 0.0000
     30 ****        -0.5057   2.8556  -0.8401 H              1 S1                 0.0000
     31 ****        -4.2257   1.7609  -0.2838 H              1 S1                 0.0000
     32 ****        -3.4250   0.8495  -1.5686 H              1 S1                 0.0000
     33 ****        -3.8081   0.0043   1.3221 H              1 S1                 0.0000
     34 ****        -4.2093  -0.9256  -0.1244 H              1 S1                 0.0000
     35 ****        -1.8529  -1.3721   1.1409 H              1 S1                 0.0000
     36 ****        -1.8992  -1.3196  -0.6129 H              1 S1                 0.0000
     37 ****        -0.4486   0.4051  -0.5579 H              1 S1                 0.0000
     38 ****         0.0715   1.8026   1.4867 H              1 S1                 0.0000
     39 ****        -1.1972   0.9799   2.3615 H              1 S1                 0.0000
     40 ****         0.1632  -0.8213   2.6892 H              1 S1                 0.0000
     41 ****         3.1604  -1.2549   2.6474 H              1 S1                 0.0000
     42 ****         1.7871  -2.3048   2.4487 H              1 S1                 0.0000
     43 ****         5.0279  -1.4887   1.3291 H              1 S1                 0.0000
     44 ****         6.2866  -2.6068  -0.3719 H              1 S1                 0.0000
     45 ****         1.5162  -4.3185  -2.1632 H              1 S1                 0.0000
     46 ****         2.3262  -5.7025  -1.3371 H              1 S1                 0.0000
     47 ****         3.0282  -4.9577  -2.8164 H              1 S1                 0.0000
     48 ****        -2.2461   2.1793   0.7185 H              1 S1                 0.0000
     49 ****        -2.6457   4.0003   0.7215 LP             1 S1                 0.0000
     50 ****        -1.3154   4.7922   0.2019 LP             1 S1                 0.0000
     51 ****         1.5875   1.0646   0.1402 LP             1 S1                 0.0000
     52 ****         3.0045   0.0701   0.0833 LP             1 S1                 0.0000
     53 ****         6.1933  -4.1897  -2.1930 LP             1 S1                 0.0000
     54 ****         4.7231  -4.9441  -2.7120 LP             1 S1                 0.0000
     55 ****         0.7444  -2.9447   0.8577 LP             1 S1                 0.0000
     56 ****         0.7559  -4.0385  -0.4852 LP             1 S1                 0.0000
@<TRIPOS>BOND
    1    1    2 1     
    2    1   24 1     
    3    1   25 1     
    4    1   26 1     
    5    2    3 1     
    6    3    4 1     
    7    3   27 1     
    8    3   28 1     
    9    4    5 1     
   10    4   29 1     
   11    4   30 1     
   12    5    9 1     
   13    5    6 1     
   14    5   48 1     
   15    6    7 1     
   16    6   31 1     
   17    6   32 1     
   18    7    8 1     
   19    7   33 1     
   20    7   34 1     
   21    8    9 1     
   22    8   35 1     
   23    8   36 1     
   24    9   10 1     
   25    9   37 1     
   26   10   11 1     
   27   10   38 1     
   28   10   39 1     
   29   11   12 am    
   30   11   40 1     
   31   12   13 2     
   32   12   14 1     
   33   14   15 1     
   34   14   41 1     
   35   14   42 1     
   36   15   22 am    
   37   15   16 1     
   38   16   17 2     
   39   16   43 1     
   40   17   18 1     
   41   17   44 1     
   42   18   19 2     
   43   18   20 am    
   44   20   21 1     
   45   20   22 am    
   46   21   45 1     
   47   21   46 1     
   48   21   47 1     
   49   22   23 2     
   50    2   49 1     
   51    2   50 1     
   52   13   51 1     
   53   13   52 1     
   54   19   53 1     
   55   19   54 1     
   56   23   55 1     
   57   23   56 1     
@<TRIPOS>SUBSTRUCTURE
      1 S1             1
@<TRIPOS>SET
LONE_PAIRS      STATIC     ATOMS    <user>   **** ""
8 49 50 51 52 53 54 55 56
DONOR_HYDROGENS      STATIC     ATOMS    <user>   **** ""
2 48 40
ATOM$BLUE        STATIC     ATOMS    COLORGROUP SYSTEM
8 49 50 51 52 53 54 55 56
ATOM$RED        STATIC     ATOMS    COLORGROUP SYSTEM
2 48 40
