AV-unprocessed.smi:99|AV-procd|sdf|874|dock4
  -GOLD-   2262017343D 1   1.00000     0.00000
 Structure written by MMmdl.
 53 56  0  0  0  0  0  0  0  0  1 V2000
  145.7501  136.3949  152.4311 O   0  0  0  0  0  0  0  0  0  0  0  0
  146.0961  135.2352  152.6664 C   0  0  0  0  0  0  0  0  0  0  0  0
  146.7638  134.8675  153.7776 O   0  0  0  0  0  0  0  0  0  0  0  0
  146.7371  135.6980  154.9265 C   0  0  0  0  0  0  0  0  0  0  0  0
  147.8357  135.2558  155.8981 C   0  0  1  0  0  0  0  0  0  0  0  0
  149.1109  135.4239  155.2982 O   0  0  0  0  0  0  0  0  0  0  0  0
  150.0734  135.6077  156.2885 C   0  0  1  0  0  0  0  0  0  0  0  0
  151.0157  136.6944  155.8145 N   0  0  0  0  0  0  0  0  0  0  0  0
  150.6931  137.4746  154.7122 C   0  0  0  0  0  0  0  0  0  0  0  0
  151.5011  138.4503  154.2351 C   0  0  0  0  0  0  0  0  0  0  0  0
  152.7815  138.7299  154.8774 C   0  0  0  0  0  0  0  0  0  0  0  0
  153.5816  139.5909  154.5180 O   0  0  0  0  0  0  0  0  0  0  0  0
  153.0639  137.9235  155.9840 N   0  0  0  0  0  0  0  0  0  0  0  0
  152.2380  136.9165  156.4870 C   0  0  0  0  0  0  0  0  0  0  0  0
  152.5855  136.2767  157.4786 O   0  0  0  0  0  0  0  0  0  0  0  0
  149.3496  135.9644  157.6063 C   0  0  1  0  0  0  0  0  0  0  0  0
  149.8115  137.1460  158.2358 O   0  0  0  0  0  0  0  0  0  0  0  0
  147.9029  136.1210  157.1562 C   0  0  2  0  0  0  0  0  0  0  0  0
  147.0118  135.6016  158.1354 O   0  0  0  0  0  0  0  0  0  0  0  0
  146.9793  136.1188  159.3822 C   0  0  0  0  0  0  0  0  0  0  0  0
  147.2390  137.2955  159.6418 O   0  0  0  0  0  0  0  0  0  0  0  0
  146.5955  135.1150  160.4160 C   0  0  0  0  0  0  0  0  0  0  0  0
  145.9720  133.9108  160.0138 C   0  0  0  0  0  0  0  0  0  0  0  0
  145.5938  132.9453  160.9669 C   0  0  0  0  0  0  0  0  0  0  0  0
  145.8335  133.1729  162.3344 C   0  0  0  0  0  0  0  0  0  0  0  0
  146.4529  134.3668  162.7476 C   0  0  0  0  0  0  0  0  0  0  0  0
  146.8330  135.3334  161.7957 C   0  0  0  0  0  0  0  0  0  0  0  0
  145.8181  134.0915  151.7503 C   0  0  0  0  0  0  0  0  0  0  0  0
  146.4792  132.8588  151.9609 C   0  0  0  0  0  0  0  0  0  0  0  0
  146.2380  131.7611  151.1122 C   0  0  0  0  0  0  0  0  0  0  0  0
  145.3322  131.8823  150.0425 C   0  0  0  0  0  0  0  0  0  0  0  0
  144.6666  133.1024  149.8234 C   0  0  0  0  0  0  0  0  0  0  0  0
  144.9069  134.2015  150.6708 C   0  0  0  0  0  0  0  0  0  0  0  0
  153.9389  138.0846  156.4616 H   0  0  0  0  0  0  0  0  0  0  0  0
  146.8720  136.7451  154.6512 H   0  0  0  0  0  0  0  0  0  0  0  0
  145.7609  135.6059  155.4045 H   0  0  0  0  0  0  0  0  0  0  0  0
  147.7163  134.2062  156.1740 H   0  0  0  0  0  0  0  0  0  0  0  0
  150.6463  134.6827  156.3681 H   0  0  0  0  0  0  0  0  0  0  0  0
  149.7526  137.3055  154.2075 H   0  0  0  0  0  0  0  0  0  0  0  0
  151.1988  139.0280  153.3735 H   0  0  0  0  0  0  0  0  0  0  0  0
  149.4549  135.1178  158.2865 H   0  0  0  0  0  0  0  0  0  0  0  0
  150.7184  137.2743  158.0030 H   0  0  0  0  0  0  0  0  0  0  0  0
  147.6903  137.1577  156.8890 H   0  0  0  0  0  0  0  0  0  0  0  0
  145.7762  133.7138  158.9696 H   0  0  0  0  0  0  0  0  0  0  0  0
  145.1180  132.0297  160.6477 H   0  0  0  0  0  0  0  0  0  0  0  0
  145.5425  132.4327  163.0652 H   0  0  0  0  0  0  0  0  0  0  0  0
  146.6363  134.5427  163.7974 H   0  0  0  0  0  0  0  0  0  0  0  0
  147.3044  136.2395  162.1471 H   0  0  0  0  0  0  0  0  0  0  0  0
  147.1795  132.7415  152.7757 H   0  0  0  0  0  0  0  0  0  0  0  0
  146.7492  130.8251  151.2828 H   0  0  0  0  0  0  0  0  0  0  0  0
  145.1481  131.0406  149.3914 H   0  0  0  0  0  0  0  0  0  0  0  0
  143.9701  133.1958  149.0031 H   0  0  0  0  0  0  0  0  0  0  0  0
  144.3787  135.1231  150.4745 H   0  0  0  0  0  0  0  0  0  0  0  0
  1  2  2  0  0  0  0
  2  3  1  0  0  0  0
  2 28  1  0  0  0  0
  3  4  1  0  0  0  0
  4  5  1  0  0  0  0
  4 35  1  0  0  0  0
  4 36  1  0  0  0  0
  5 18  1  0  0  0  0
  5  6  1  0  0  0  0
  5 37  1  0  0  0  0
  6  7  1  0  0  0  0
  7  8  1  0  0  0  0
  7 16  1  0  0  0  0
  7 38  1  0  0  0  0
  8 14  1  0  0  0  0
  8  9  1  0  0  0  0
  9 10  2  0  0  0  0
  9 39  1  0  0  0  0
 10 11  1  0  0  0  0
 10 40  1  0  0  0  0
 11 12  2  0  0  0  0
 11 13  1  0  0  0  0
 13 34  1  0  0  0  0
 13 14  1  0  0  0  0
 14 15  2  0  0  0  0
 16 17  1  0  0  0  0
 16 18  1  0  0  0  0
 16 41  1  0  0  0  0
 17 42  1  0  0  0  0
 18 19  1  0  0  0  0
 18 43  1  0  0  0  0
 19 20  1  0  0  0  0
 20 21  2  0  0  0  0
 20 22  1  0  0  0  0
 22 27  1  0  0  0  0
 22 23  2  0  0  0  0
 23 24  1  0  0  0  0
 23 44  1  0  0  0  0
 24 25  2  0  0  0  0
 24 45  1  0  0  0  0
 25 26  1  0  0  0  0
 25 46  1  0  0  0  0
 26 27  2  0  0  0  0
 26 47  1  0  0  0  0
 27 48  1  0  0  0  0
 28 33  1  0  0  0  0
 28 29  2  0  0  0  0
 29 30  1  0  0  0  0
 29 49  1  0  0  0  0
 30 31  2  0  0  0  0
 30 50  1  0  0  0  0
 31 32  1  0  0  0  0
 31 51  1  0  0  0  0
 32 33  2  0  0  0  0
 32 52  1  0  0  0  0
 33 53  1  0  0  0  0
M  END
> <s_m_source_file>
AV-unprocessed.smi

> <i_m_source_file_index>
99

> <i_lp_mmshare_version>
43012

> <i_f3d_flags>
0

> <s_epik_input>
W2NIXTFbY0hdW2NIXVtjSF1bY0hdYzFDKD1PKU9bQ0gyXVtDQEBIXTJPW0NAQEhdKG4zW2NIXVtjSF1jKD1PKVtuSF1jMz1PKVtDQEBIXShbT0hdKVtDQEhdMk9DKD1PKWM0W2NIXVtjSF1bY0hdW2NIXVtjSF00

> <s_epik_cmdline>
J2VwaWtfcHl0aG9uJywgJy1waCcsICc3LjAnLCAnLXRuJywgJzgnLCAnLW1hJywgJzIwMCcsICctbWV0YWxfYmluZGluZycsICctaW1hZScsICc8aW5maWxlLm1hZT4nLCAnLW9tYWUnLCAnPG91dGZpbGUubWFlPic=

> <r_lp_tautomer_probability>
1

> <r_epik_Ionization_Penalty>
0.00454555

> <r_epik_Ionization_Penalty_Charging>
0.0045191

> <r_epik_Ionization_Penalty_Neutral>
2.64449e-05

> <r_epik_State_Penalty>
-0

> <r_epik_Charging_Adjusted_Penalty>
0.0045191

> <i_epik_Tot_Q>
0

> <i_epik_Tot_abs_Q>
0

> <r_epik_Metal_State_Penalty>
1.27877

> <b_epik_Metal_Only>
0

> <s_epik_Chemistry_Notes>
This compound has an ester and may undergo hydrolysis at high or low pH. This compound contains an acetal/aminal-like group ( X-CH(R)-Y where X, Y are N, S, or O) that may be acid/base labile, releasing an aldehyde.

> <s_lp_Force_Field>
OPLS_2005

> <r_lp_Energy>
37.9182

> <b_lp_Chiralities_Consistent>
1

> <s_lp_Variant>
AV-unprocessed.smi:99-10

> <Gold.Version>
5.8.1

> <Gold.Id.Protein>
6NUR|6NUR_protein|mol2

> <Gold.PLP.Fitness>
47.0762

> <Gold.PLP.PLP>
-40.9811

> <Gold.PLP.part.hbond>
-3.0000

> <Gold.PLP.part.metal>
0.0000

> <Gold.PLP.part.buried>
-5.3131

> <Gold.PLP.part.nonpolar>
-33.4815

> <Gold.PLP.part.repulsive>
0.5832

> <Gold.PLP.ligand.clash>
0.0058

> <Gold.PLP.ligand.torsion>
1.1972

> <Gold.PLP.Chemscore.Hbond>
1.9120

> <Gold.PLP.Chemscore.CHOScore>
0.7518

> <Gold.PLP.Chemscore.Metal>
0.0000

> <Gold.Chemscore.Hbonds>
donor molecule, donor type, donor heavy atom, donor atom, acceptor molecule, acceptor atom, score
      P1  H  6934  6947       L1    21  0.66
      P1  H  7997  8010       L1    12  1.00
      L1  C     9    39       P1  7948  0.65

> <Gold.PLP.Chemscore.Internal.Correction>
0.5037

> <Gold.Rescore>
     Score         DG    S(hbond)    S(metal)    S(lipo)     H(rot)  DE(clash)    DE(int)     intcor
     11.93     -15.12       1.83        0.00      99.93       3.19       0.15       3.04       ----

> <Gold.Chemscore.Fitness>
11.9285

> <Gold.Chemscore.DG>
-15.1206

> <Gold.Chemscore.ZeroCoef>
-5.4800

> <Gold.Chemscore.Hbond>
1.8310

> <Gold.Chemscore.Metal>
0.0000

> <Gold.Chemscore.Lipo>
99.9325

> <Gold.Chemscore.Internal_Hbond>
0.0000

> <Gold.Chemscore.DEClash>
0.1481

> <Gold.Chemscore.DEInternal>
3.0440

> <Gold.Chemscore.Rot>
3.1903

> <Gold.Chemscore.Internal.Correction>
   9.000000E+99

> <Gold.Chemscore.Hbonds>
donor molecule, donor type, donor heavy atom, donor atom, acceptor molecule, acceptor atom, score
      P1  H  6934  6947       L1    21  0.63
      P1  H  7997  8010       L1    12  0.96

> <Gold.Chemscore.Hbond.Weighted>
-6.1156

> <Gold.Chemscore.Metal.Weighted>
-0.0000

> <Gold.Chemscore.Lipo.Weighted>
-11.6921

> <Gold.Chemscore.Internal_Hbond.Weighted>
0.0000

> <Gold.Chemscore.DEClash.Weighted>
0.1481

> <Gold.Chemscore.DEInternal.Weighted>
3.0440

> <Gold.Chemscore.Rot.Weighted>
8.1671

> <Gold.Chemscore.Internal.Correction.Weighted>
   9.000000E+99

> <Gold.Protein.RotatedTorsions>
[ 6907 6896 6895 6894 ] final  -55.61 input  -60.11 | X-H torsion
[ 7974 7965 7964 7962 ] final  146.88 input  175.53 | X-H torsion
[ 8008 7997 7996 7995 ] final  139.17 input   59.86 | X-H torsion
[ 10167 10162 10161 10158 ] final  -31.97 input  -65.29 | X-H torsion
[ 10718 10713 10712 10709 ] final -158.54 input   66.30 | X-H torsion
[ 10763 10752 10751 10750 ] final   16.26 input  -60.55 | X-H torsion
[ 11005 11000 10999 10996 ] final   94.13 input  -57.11 | X-H torsion

> <Gold.Protein.ActiveResidues>
 VAL166  LYS551  ARG553  GLY616  TRP617  ASP618  TYR619  PRO620  LYS621  CYS622 
 ASP623  PHE694  ASN695  SER759  ASP760  ASP761  ALA762  ILE779  LEU786  VAL792 
 PHE793  MET794  SER795  GLU796  ALA797  LYS798  CYS799  TRP800  GLU811  SER814 

> <Gold.Protein.RotatedAtoms>
  150.8237  134.7458  159.6794 H   0  0  0  0  0  0  0  0  0  0  0  0  # atno 6907 bound_to 6896
  152.4350  134.5700  159.9928 H   0  0  0  0  0  0  0  0  0  0  0  0  # atno 6908 bound_to 6896
  151.5878  133.3332  159.3057 H   0  0  0  0  0  0  0  0  0  0  0  0  # atno 6909 bound_to 6896
  144.8636  139.5959  143.5919 H   0  0  0  0  0  0  0  0  0  0  0  0  # atno 7974 bound_to 7965
  156.2992  140.2374  156.4194 H   0  0  0  0  0  0  0  0  0  0  0  0  # atno 8008 bound_to 7997
  154.8369  140.0430  157.1535 H   0  0  0  0  0  0  0  0  0  0  0  0  # atno 8009 bound_to 7997
  154.9145  140.2995  155.5252 H   0  0  0  0  0  0  0  0  0  0  0  0  # atno 8010 bound_to 7997
  140.7228  143.3730  151.1742 H   0  0  0  0  0  0  0  0  0  0  0  0  # atno 10167 bound_to 10162
  156.5555  130.8624  151.2793 H   0  0  0  0  0  0  0  0  0  0  0  0  # atno 10718 bound_to 10713
  153.1447  135.6767  153.8973 H   0  0  0  0  0  0  0  0  0  0  0  0  # atno 10763 bound_to 10752
  153.8418  135.3104  155.3428 H   0  0  0  0  0  0  0  0  0  0  0  0  # atno 10764 bound_to 10752
  154.7816  135.4885  153.9941 H   0  0  0  0  0  0  0  0  0  0  0  0  # atno 10765 bound_to 10752
  139.8802  134.8828  156.3819 H   0  0  0  0  0  0  0  0  0  0  0  0  # atno 11005 bound_to 11000
  146.2879  139.7055  142.9182 LP  0  0  0  0  0  0  0  0  0  0  0  0  # atno 17320 bound_to 7965
  145.4265  141.0411  143.2935 LP  0  0  0  0  0  0  0  0  0  0  0  0  # atno 17321 bound_to 7965
  139.7305  143.9080  152.3018 LP  0  0  0  0  0  0  0  0  0  0  0  0  # atno 17342 bound_to 10162
  139.8867  144.6988  150.8816 LP  0  0  0  0  0  0  0  0  0  0  0  0  # atno 17343 bound_to 10162
  157.7379  130.9804  150.2220 LP  0  0  0  0  0  0  0  0  0  0  0  0  # atno 17370 bound_to 10713
  156.2845  130.3737  149.7902 LP  0  0  0  0  0  0  0  0  0  0  0  0  # atno 17371 bound_to 10713
  140.9393  133.7526  156.0125 LP  0  0  0  0  0  0  0  0  0  0  0  0  # atno 17394 bound_to 11000
  140.8238  134.3258  157.5372 LP  0  0  0  0  0  0  0  0  0  0  0  0  # atno 17395 bound_to 11000

$$$$
