AV-unprocessed.smi:1205|AV-procd|sdf|5045|dock7
  -GOLD-   22720 4 73D 1   1.00000     0.00000
 Structure written by MMmdl.
 49 50  0  0  0  0  0  0  0  0  2 V2000
  150.1412  142.0766  156.0816 C   0  0  0  0  0  0  0  0  0  0  0  0
  149.9148  140.8191  155.2951 C   0  0  0  0  0  0  0  0  0  0  0  0
  148.7470  140.4317  154.5757 C   0  0  0  0  0  0  0  0  0  0  0  0
  149.1008  139.2147  154.0605 C   0  0  0  0  0  0  0  0  0  0  0  0
  148.3748  138.3752  153.2752 N   0  0  0  0  0  0  0  0  0  0  0  0
  147.0405  138.3102  153.1242 C   0  0  0  0  0  0  0  0  0  0  0  0
  146.2187  139.0279  153.6947 O   0  0  0  0  0  0  0  0  0  0  0  0
  146.6965  137.3414  152.2638 N   0  0  0  0  0  0  0  0  0  0  0  0
  145.3260  137.0079  151.8883 C   0  0  0  0  0  0  0  0  0  0  0  0
  144.7027  135.9300  152.8122 C   0  0  2  0  0  0  0  0  0  0  0  0
  145.2285  136.0124  154.2581 C   0  0  0  0  0  0  0  0  0  0  0  0
  144.8454  134.5439  152.2779 N   0  3  2  0  0  0  0  0  0  0  0  0
  146.1693  133.9040  152.5087 C   0  0  0  0  0  0  0  0  0  0  0  0
  146.1223  132.4129  152.1405 C   0  0  0  0  0  0  0  0  0  0  0  0
  145.6694  132.2230  150.6867 C   0  0  0  0  0  0  0  0  0  0  0  0
  144.3191  132.9218  150.4506 C   0  0  2  0  0  0  0  0  0  0  0  0
  143.8550  132.7683  148.9955 C   0  0  0  0  0  0  0  0  0  0  0  0
  144.4057  134.4054  150.8634 C   0  0  0  0  0  0  0  0  0  0  0  0
  150.3874  138.9212  154.4548 N   0  0  0  0  0  0  0  0  0  0  0  0
  151.2004  137.7576  154.1590 C   0  0  0  0  0  0  0  0  0  0  0  0
  150.8866  139.9167  155.2188 N   0  0  0  0  0  0  0  0  0  0  0  0
  149.2564  142.7134  156.0701 H   0  0  0  0  0  0  0  0  0  0  0  0
  150.9699  142.6530  155.6697 H   0  0  0  0  0  0  0  0  0  0  0  0
  150.3745  141.8524  157.1226 H   0  0  0  0  0  0  0  0  0  0  0  0
  147.8193  140.9729  154.4668 H   0  0  0  0  0  0  0  0  0  0  0  0
  148.9163  137.7063  152.7478 H   0  0  0  0  0  0  0  0  0  0  0  0
  147.4331  136.7985  151.8367 H   0  0  0  0  0  0  0  0  0  0  0  0
  144.7251  137.9183  151.8853 H   0  0  0  0  0  0  0  0  0  0  0  0
  145.3574  136.6556  150.8575 H   0  0  0  0  0  0  0  0  0  0  0  0
  143.6313  136.1243  152.8802 H   0  0  0  0  0  0  0  0  0  0  0  0
  144.9676  136.9648  154.7201 H   0  0  0  0  0  0  0  0  0  0  0  0
  146.3130  135.9166  154.3052 H   0  0  0  0  0  0  0  0  0  0  0  0
  144.7957  135.2267  154.8781 H   0  0  0  0  0  0  0  0  0  0  0  0
  146.9354  134.4004  151.9118 H   0  0  0  0  0  0  0  0  0  0  0  0
  146.4646  134.0021  153.5527 H   0  0  0  0  0  0  0  0  0  0  0  0
  147.1043  131.9621  152.2860 H   0  0  0  0  0  0  0  0  0  0  0  0
  145.4384  131.8899  152.8103 H   0  0  0  0  0  0  0  0  0  0  0  0
  146.4233  132.6322  150.0125 H   0  0  0  0  0  0  0  0  0  0  0  0
  145.5914  131.1594  150.4583 H   0  0  0  0  0  0  0  0  0  0  0  0
  143.5738  132.4389  151.0845 H   0  0  0  0  0  0  0  0  0  0  0  0
  144.5618  133.2264  148.3028 H   0  0  0  0  0  0  0  0  0  0  0  0
  142.8841  133.2398  148.8406 H   0  0  0  0  0  0  0  0  0  0  0  0
  143.7568  131.7168  148.7242 H   0  0  0  0  0  0  0  0  0  0  0  0
  143.4265  134.8691  150.7360 H   0  0  0  0  0  0  0  0  0  0  0  0
  145.0955  134.9374  150.2070 H   0  0  0  0  0  0  0  0  0  0  0  0
  150.6181  136.8499  154.3191 H   0  0  0  0  0  0  0  0  0  0  0  0
  152.0783  137.7294  154.8060 H   0  0  0  0  0  0  0  0  0  0  0  0
  151.5267  137.7948  153.1194 H   0  0  0  0  0  0  0  0  0  0  0  0
  144.1827  133.9960  152.8078 H   0  0  0  0  0  0  0  0  0  0  0  0
  1  2  1  0  0  0  0
  1 22  1  0  0  0  0
  1 23  1  0  0  0  0
  1 24  1  0  0  0  0
  2 21  2  0  0  0  0
  2  3  1  0  0  0  0
  3  4  2  0  0  0  0
  3 25  1  0  0  0  0
  4  5  1  0  0  0  0
  4 19  1  0  0  0  0
  5  6  1  0  0  0  0
  5 26  1  0  0  0  0
  6  7  2  0  0  0  0
  6  8  1  0  0  0  0
  8  9  1  0  0  0  0
  8 27  1  0  0  0  0
  9 10  1  0  0  0  0
  9 28  1  0  0  0  0
  9 29  1  0  0  0  0
 10 11  1  0  0  0  0
 10 12  1  0  0  0  0
 10 30  1  0  0  0  0
 11 31  1  0  0  0  0
 11 32  1  0  0  0  0
 11 33  1  0  0  0  0
 12 18  1  0  0  0  0
 12 13  1  0  0  0  0
 12 49  1  0  0  0  0
 13 14  1  0  0  0  0
 13 34  1  0  0  0  0
 13 35  1  0  0  0  0
 14 15  1  0  0  0  0
 14 36  1  0  0  0  0
 14 37  1  0  0  0  0
 15 16  1  0  0  0  0
 15 38  1  0  0  0  0
 15 39  1  0  0  0  0
 16 17  1  0  0  0  0
 16 18  1  0  0  0  0
 16 40  1  0  0  0  0
 17 41  1  0  0  0  0
 17 42  1  0  0  0  0
 17 43  1  0  0  0  0
 18 44  1  0  0  0  0
 18 45  1  0  0  0  0
 19 20  1  0  0  0  0
 19 21  1  0  0  0  0
 20 46  1  0  0  0  0
 20 47  1  0  0  0  0
 20 48  1  0  0  0  0
M  CHG  1  12   1
M  END
> <s_m_source_file>
AV-unprocessed.smi

> <i_m_source_file_index>
1205

> <i_lp_mmshare_version>
43012

> <i_f3d_flags>
0

> <s_epik_input>
W0NIM11jMVtjSF1jKG4objEpW0NIM10pW05IXUMoPU8pW05IXVtDSDJdW0NASF0oW0NIM10pTjJbQ0gyXVtDSDJdW0NIMl1bQ0BASF0oW0NIM10pW0NIMl0y

> <s_epik_cmdline>
J2VwaWtfcHl0aG9uJywgJy1waCcsICc3LjAnLCAnLXRuJywgJzgnLCAnLW1hJywgJzIwMCcsICctbWV0YWxfYmluZGluZycsICctaW1hZScsICc8aW5maWxlLm1hZT4nLCAnLW9tYWUnLCAnPG91dGZpbGUubWFlPic=

> <r_lp_tautomer_probability>
1

> <r_epik_Ionization_Penalty>
0.0020309

> <r_epik_Ionization_Penalty_Charging>
0.00195276

> <r_epik_Ionization_Penalty_Neutral>
7.81448e-05

> <r_epik_State_Penalty>
0.00133177

> <r_epik_Charging_Adjusted_Penalty>
0.00328452

> <i_epik_Tot_Q>
1

> <i_epik_Tot_abs_Q>
1

> <r_epik_Metal_State_Penalty>
-0

> <b_epik_Metal_Only>
0

> <s_lp_Force_Field>
OPLS_2005

> <r_lp_Energy>
21.6269

> <b_lp_Chiralities_Consistent>
1

> <s_lp_Variant>
AV-unprocessed.smi:1205-7

> <Gold.Version>
5.8.1

> <Gold.Id.Protein>
6NUR|6NUR_protein|mol2

> <Gold.PLP.Fitness>
40.7460

> <Gold.PLP.PLP>
-35.3409

> <Gold.PLP.part.hbond>
-3.9834

> <Gold.PLP.part.metal>
0.0000

> <Gold.PLP.part.buried>
0.4740

> <Gold.PLP.part.nonpolar>
-33.2249

> <Gold.PLP.part.repulsive>
0.3425

> <Gold.PLP.ligand.clash>
0.0000

> <Gold.PLP.ligand.torsion>
0.8498

> <Gold.PLP.Chemscore.Hbond>
2.3220

> <Gold.PLP.Chemscore.CHOScore>
0.0000

> <Gold.PLP.Chemscore.Metal>
0.0000

> <Gold.Chemscore.Hbonds>
donor molecule, donor type, donor heavy atom, donor atom, acceptor molecule, acceptor atom, score
      L1  H     5    26       P1  7948  0.99
      L1  H     8    27       P1  7948  1.00
      P1  H  7989  7998       L1    21  0.20

> <Gold.PLP.Chemscore.Internal.Correction>
0.1387

> <Gold.Rescore>
     Score         DG    S(hbond)    S(metal)    S(lipo)     H(rot)  DE(clash)    DE(int)     intcor
     16.54     -17.67       1.89        0.00      82.23       1.47       0.06       1.08       ----

> <Gold.Chemscore.Fitness>
16.5367

> <Gold.Chemscore.DG>
-17.6708

> <Gold.Chemscore.ZeroCoef>
-5.4800

> <Gold.Chemscore.Hbond>
1.8931

> <Gold.Chemscore.Metal>
0.0000

> <Gold.Chemscore.Lipo>
82.2263

> <Gold.Chemscore.Internal_Hbond>
0.0000

> <Gold.Chemscore.DEClash>
0.0589

> <Gold.Chemscore.DEInternal>
1.0752

> <Gold.Chemscore.Rot>
1.4658

> <Gold.Chemscore.Internal.Correction>
   9.000000E+99

> <Gold.Chemscore.Hbonds>
donor molecule, donor type, donor heavy atom, donor atom, acceptor molecule, acceptor atom, score
      L1  H     5    26       P1  7948  0.94
      L1  H     8    27       P1  7948  0.94

> <Gold.Chemscore.Hbond.Weighted>
-6.3229

> <Gold.Chemscore.Metal.Weighted>
-0.0000

> <Gold.Chemscore.Lipo.Weighted>
-9.6205

> <Gold.Chemscore.Internal_Hbond.Weighted>
0.0000

> <Gold.Chemscore.DEClash.Weighted>
0.0589

> <Gold.Chemscore.DEInternal.Weighted>
1.0752

> <Gold.Chemscore.Rot.Weighted>
3.7526

> <Gold.Chemscore.Internal.Correction.Weighted>
   9.000000E+99

> <Gold.Protein.RotatedTorsions>
[ 6907 6896 6895 6894 ] final   40.82 input  -60.11 | X-H torsion
[ 7974 7965 7964 7962 ] final  -49.78 input  175.53 | X-H torsion
[ 8008 7997 7996 7995 ] final  142.05 input   59.86 | X-H torsion
[ 10167 10162 10161 10158 ] final   28.37 input  -65.29 | X-H torsion
[ 10718 10713 10712 10709 ] final   74.62 input   66.30 | X-H torsion
[ 10763 10752 10751 10750 ] final   63.40 input  -60.55 | X-H torsion
[ 11005 11000 10999 10996 ] final  118.95 input  -57.11 | X-H torsion

> <Gold.Protein.ActiveResidues>
 VAL166  LYS551  ARG553  GLY616  TRP617  ASP618  TYR619  PRO620  LYS621  CYS622 
 ASP623  PHE694  ASN695  SER759  ASP760  ASP761  ALA762  ILE779  LEU786  VAL792 
 PHE793  MET794  SER795  GLU796  ALA797  LYS798  CYS799  TRP800  GLU811  SER814 

> <Gold.Protein.RotatedAtoms>
  152.1873  134.8702  160.0520 H   0  0  0  0  0  0  0  0  0  0  0  0  # atno 6907 bound_to 6896
  151.9604  133.3688  159.4041 H   0  0  0  0  0  0  0  0  0  0  0  0  # atno 6908 bound_to 6896
  150.6928  134.4170  159.5231 H   0  0  0  0  0  0  0  0  0  0  0  0  # atno 6909 bound_to 6896
  145.9368  140.7699  142.9572 H   0  0  0  0  0  0  0  0  0  0  0  0  # atno 7974 bound_to 7965
  156.2956  140.2299  156.4665 H   0  0  0  0  0  0  0  0  0  0  0  0  # atno 8008 bound_to 7997
  154.7972  140.0450  157.1267 H   0  0  0  0  0  0  0  0  0  0  0  0  # atno 8009 bound_to 7997
  154.9575  140.3050  155.5049 H   0  0  0  0  0  0  0  0  0  0  0  0  # atno 8010 bound_to 7997
  140.4858  144.0545  150.6280 H   0  0  0  0  0  0  0  0  0  0  0  0  # atno 10167 bound_to 10162
  157.6600  130.9687  150.1237 H   0  0  0  0  0  0  0  0  0  0  0  0  # atno 10718 bound_to 10713
  153.0017  135.5430  154.6347 H   0  0  0  0  0  0  0  0  0  0  0  0  # atno 10763 bound_to 10752
  154.5616  135.2834  155.0916 H   0  0  0  0  0  0  0  0  0  0  0  0  # atno 10764 bound_to 10752
  154.2116  135.6466  153.5169 H   0  0  0  0  0  0  0  0  0  0  0  0  # atno 10765 bound_to 10752
  139.9128  134.9624  156.7581 H   0  0  0  0  0  0  0  0  0  0  0  0  # atno 11005 bound_to 11000
  144.6773  140.2216  143.7365 LP  0  0  0  0  0  0  0  0  0  0  0  0  # atno 17320 bound_to 7965
  145.8352  139.2104  143.1859 LP  0  0  0  0  0  0  0  0  0  0  0  0  # atno 17321 bound_to 7965
  140.3800  143.2808  152.0181 LP  0  0  0  0  0  0  0  0  0  0  0  0  # atno 17342 bound_to 10162
  139.4841  144.6162  151.7341 LP  0  0  0  0  0  0  0  0  0  0  0  0  # atno 17343 bound_to 10162
  156.2102  130.3666  149.8680 LP  0  0  0  0  0  0  0  0  0  0  0  0  # atno 17370 bound_to 10713
  156.6560  130.8763  151.3539 LP  0  0  0  0  0  0  0  0  0  0  0  0  # atno 17371 bound_to 10713
  140.6720  133.9551  155.7862 LP  0  0  0  0  0  0  0  0  0  0  0  0  # atno 17394 bound_to 11000
  141.0571  134.0401  157.3708 LP  0  0  0  0  0  0  0  0  0  0  0  0  # atno 17395 bound_to 11000

$$$$
