AV-unprocessed.smi:2384|AV-procd|sdf|9462|dock3
  -GOLD-   2272013 93D 1   1.00000     0.00000
 Structure written by MMmdl.
 43 44  0  0  0  0  0  0  0  0  1 V2000
  143.9914  132.7887  149.8384 C   0  0  0  0  0  0  0  0  0  0  0  0
  145.0764  132.2221  150.7302 C   0  0  0  0  0  0  0  0  0  0  0  0
  145.1495  130.8401  150.9899 C   0  0  0  0  0  0  0  0  0  0  0  0
  146.1797  130.3755  151.8309 C   0  0  0  0  0  0  0  0  0  0  0  0
  146.3207  128.9023  152.1509 C   0  0  0  0  0  0  0  0  0  0  0  0
  147.0932  131.1924  152.3972 N   0  0  0  0  0  0  0  0  0  0  0  0
  147.0328  132.5251  152.1544 C   0  0  0  0  0  0  0  0  0  0  0  0
  147.9486  133.4651  152.6974 N   0  0  0  0  0  0  0  0  0  0  0  0
  148.8848  133.2616  153.6413 C   0  0  0  0  0  0  0  0  0  0  0  0
  149.0852  132.1986  154.2300 O   0  0  0  0  0  0  0  0  0  0  0  0
  149.5829  134.3808  153.8809 N   0  0  0  0  0  0  0  0  0  0  0  0
  150.6510  134.5075  154.8672 C   0  0  0  0  0  0  0  0  0  0  0  0
  150.8003  135.9479  155.3889 C   0  0  0  0  0  0  0  0  0  0  0  0
  151.1904  136.9596  154.2949 C   0  0  0  0  0  0  0  0  0  0  0  0
  151.0539  138.3372  154.7602 N   0  0  0  0  0  0  0  0  0  0  0  0
  149.8278  139.0820  154.5265 C   0  0  0  0  0  0  0  0  0  0  0  0
  150.1359  140.5180  154.9764 C   0  0  0  0  0  0  0  0  0  0  0  0
  151.4807  140.4526  155.7087 C   0  0  0  0  0  0  0  0  0  0  0  0
  151.9837  139.0523  155.4037 C   0  0  0  0  0  0  0  0  0  0  0  0
  153.1066  138.6632  155.7217 O   0  0  0  0  0  0  0  0  0  0  0  0
  146.0334  133.0734  151.3190 C   0  0  0  0  0  0  0  0  0  0  0  0
  143.3626  131.9981  149.4272 H   0  0  0  0  0  0  0  0  0  0  0  0
  144.4325  133.3396  149.0075 H   0  0  0  0  0  0  0  0  0  0  0  0
  143.3557  133.4697  150.4046 H   0  0  0  0  0  0  0  0  0  0  0  0
  144.4360  130.1547  150.5563 H   0  0  0  0  0  0  0  0  0  0  0  0
  145.5596  128.3111  151.6411 H   0  0  0  0  0  0  0  0  0  0  0  0
  146.2185  128.7365  153.2236 H   0  0  0  0  0  0  0  0  0  0  0  0
  147.2997  128.5383  151.8377 H   0  0  0  0  0  0  0  0  0  0  0  0
  147.8832  134.4004  152.3243 H   0  0  0  0  0  0  0  0  0  0  0  0
  149.3540  135.2085  153.3502 H   0  0  0  0  0  0  0  0  0  0  0  0
  150.4720  133.8239  155.6987 H   0  0  0  0  0  0  0  0  0  0  0  0
  151.5826  134.1847  154.4021 H   0  0  0  0  0  0  0  0  0  0  0  0
  149.8704  136.2642  155.8637 H   0  0  0  0  0  0  0  0  0  0  0  0
  151.5554  135.9525  156.1758 H   0  0  0  0  0  0  0  0  0  0  0  0
  152.2190  136.7878  153.9741 H   0  0  0  0  0  0  0  0  0  0  0  0
  150.5665  136.8199  153.4114 H   0  0  0  0  0  0  0  0  0  0  0  0
  149.5357  139.0457  153.4762 H   0  0  0  0  0  0  0  0  0  0  0  0
  149.0225  138.6477  155.1206 H   0  0  0  0  0  0  0  0  0  0  0  0
  150.2156  141.1757  154.1098 H   0  0  0  0  0  0  0  0  0  0  0  0
  149.3469  140.9145  155.6163 H   0  0  0  0  0  0  0  0  0  0  0  0
  152.1802  141.2096  155.3527 H   0  0  0  0  0  0  0  0  0  0  0  0
  151.3554  140.5688  156.7856 H   0  0  0  0  0  0  0  0  0  0  0  0
  145.9964  134.1371  151.1323 H   0  0  0  0  0  0  0  0  0  0  0  0
  1  2  1  0  0  0  0
  1 22  1  0  0  0  0
  1 23  1  0  0  0  0
  1 24  1  0  0  0  0
  2 21  1  0  0  0  0
  2  3  2  0  0  0  0
  3  4  1  0  0  0  0
  3 25  1  0  0  0  0
  4  5  1  0  0  0  0
  4  6  2  0  0  0  0
  5 26  1  0  0  0  0
  5 27  1  0  0  0  0
  5 28  1  0  0  0  0
  6  7  1  0  0  0  0
  7  8  1  0  0  0  0
  7 21  2  0  0  0  0
  8  9  1  0  0  0  0
  8 29  1  0  0  0  0
  9 10  2  0  0  0  0
  9 11  1  0  0  0  0
 11 12  1  0  0  0  0
 11 30  1  0  0  0  0
 12 13  1  0  0  0  0
 12 31  1  0  0  0  0
 12 32  1  0  0  0  0
 13 14  1  0  0  0  0
 13 33  1  0  0  0  0
 13 34  1  0  0  0  0
 14 15  1  0  0  0  0
 14 35  1  0  0  0  0
 14 36  1  0  0  0  0
 15 19  1  0  0  0  0
 15 16  1  0  0  0  0
 16 17  1  0  0  0  0
 16 37  1  0  0  0  0
 16 38  1  0  0  0  0
 17 18  1  0  0  0  0
 17 39  1  0  0  0  0
 17 40  1  0  0  0  0
 18 19  1  0  0  0  0
 18 41  1  0  0  0  0
 18 42  1  0  0  0  0
 19 20  2  0  0  0  0
 21 43  1  0  0  0  0
M  END
> <s_m_source_file>
AV-unprocessed.smi

> <i_m_source_file_index>
2384

> <i_lp_mmshare_version>
43012

> <i_f3d_flags>
0

> <s_epik_input>
W0NIM11jMVtjSF1jKFtDSDNdKW5jKFtjSF0xKVtOSF1DKD1PKVtOSF1bQ0gyXVtDSDJdW0NIMl1OMltDSDJdW0NIMl1bQ0gyXUMyPU8=

> <s_epik_cmdline>
J2VwaWtfcHl0aG9uJywgJy1waCcsICc3LjAnLCAnLXRuJywgJzgnLCAnLW1hJywgJzIwMCcsICctbWV0YWxfYmluZGluZycsICctaW1hZScsICc8aW5maWxlLm1hZT4nLCAnLW9tYWUnLCAnPG91dGZpbGUubWFlPic=

> <r_lp_tautomer_probability>
1

> <r_epik_Ionization_Penalty>
0.000241796

> <r_epik_Ionization_Penalty_Charging>
0

> <r_epik_Ionization_Penalty_Neutral>
0.000241796

> <r_epik_State_Penalty>
-0

> <r_epik_Charging_Adjusted_Penalty>
0

> <i_epik_Tot_Q>
0

> <i_epik_Tot_abs_Q>
0

> <r_epik_Metal_State_Penalty>
-0

> <b_epik_Metal_Only>
0

> <s_lp_Force_Field>
OPLS_2005

> <r_lp_Energy>
18.86

> <b_lp_Chiralities_Consistent>
1

> <s_lp_Variant>
AV-unprocessed.smi:2384-1

> <Gold.Version>
5.8.1

> <Gold.Id.Protein>
6NUR|6NUR_protein|mol2

> <Gold.PLP.Fitness>
52.4039

> <Gold.PLP.PLP>
-44.9007

> <Gold.PLP.part.hbond>
-3.0000

> <Gold.PLP.part.metal>
0.0000

> <Gold.PLP.part.buried>
-4.9039

> <Gold.PLP.part.nonpolar>
-36.9669

> <Gold.PLP.part.repulsive>
0.6668

> <Gold.PLP.ligand.clash>
0.0000

> <Gold.PLP.ligand.torsion>
0.6039

> <Gold.PLP.Chemscore.Hbond>
2.8960

> <Gold.PLP.Chemscore.CHOScore>
0.0000

> <Gold.PLP.Chemscore.Metal>
0.0000

> <Gold.Chemscore.Hbonds>
donor molecule, donor type, donor heavy atom, donor atom, acceptor molecule, acceptor atom, score
      L1  H     8    29       P1  7948  0.71
      L1  H    11    30       P1  7948  0.75
      P1  H  7997  8008       L1    20  1.00

> <Gold.PLP.Chemscore.Internal.Correction>
0.0230

> <Gold.Rescore>
     Score         DG    S(hbond)    S(metal)    S(lipo)     H(rot)  DE(clash)    DE(int)     intcor
     16.96     -18.74       2.24        0.00      87.63       1.75       0.12       1.66       ----

> <Gold.Chemscore.Fitness>
16.9597

> <Gold.Chemscore.DG>
-18.7428

> <Gold.Chemscore.ZeroCoef>
-5.4800

> <Gold.Chemscore.Hbond>
2.2387

> <Gold.Chemscore.Metal>
0.0000

> <Gold.Chemscore.Lipo>
87.6338

> <Gold.Chemscore.Internal_Hbond>
0.0000

> <Gold.Chemscore.DEClash>
0.1197

> <Gold.Chemscore.DEInternal>
1.6634

> <Gold.Chemscore.Rot>
1.7451

> <Gold.Chemscore.Internal.Correction>
   9.000000E+99

> <Gold.Chemscore.Hbonds>
donor molecule, donor type, donor heavy atom, donor atom, acceptor molecule, acceptor atom, score
      L1  H     8    29       P1  7948  0.23
      L1  H    11    30       P1  7948  0.09
      P1  H  7997  8008       L1    20  0.83

> <Gold.Chemscore.Hbond.Weighted>
-7.4771

> <Gold.Chemscore.Metal.Weighted>
-0.0000

> <Gold.Chemscore.Lipo.Weighted>
-10.2532

> <Gold.Chemscore.Internal_Hbond.Weighted>
0.0000

> <Gold.Chemscore.DEClash.Weighted>
0.1197

> <Gold.Chemscore.DEInternal.Weighted>
1.6634

> <Gold.Chemscore.Rot.Weighted>
4.4675

> <Gold.Chemscore.Internal.Correction.Weighted>
   9.000000E+99

> <Gold.Protein.RotatedTorsions>
[ 6907 6896 6895 6894 ] final  -51.07 input  -60.11 | X-H torsion
[ 7974 7965 7964 7962 ] final   87.89 input  175.53 | X-H torsion
[ 8008 7997 7996 7995 ] final  -28.14 input   59.86 | X-H torsion
[ 10167 10162 10161 10158 ] final   41.47 input  -65.29 | X-H torsion
[ 10718 10713 10712 10709 ] final -143.94 input   66.30 | X-H torsion
[ 10763 10752 10751 10750 ] final -158.03 input  -60.55 | X-H torsion
[ 11005 11000 10999 10996 ] final  100.07 input  -57.11 | X-H torsion

> <Gold.Protein.ActiveResidues>
 VAL166  LYS551  ARG553  GLY616  TRP617  ASP618  TYR619  PRO620  LYS621  CYS622 
 ASP623  PHE694  ASN695  SER759  ASP760  ASP761  ALA762  ILE779  LEU786  VAL792 
 PHE793  MET794  SER795  GLU796  ALA797  LYS798  CYS799  TRP800  GLU811  SER814 

> <Gold.Protein.RotatedAtoms>
  150.8646  134.8006  159.7108 H   0  0  0  0  0  0  0  0  0  0  0  0  # atno 6907 bound_to 6896
  152.4672  134.5044  159.9744 H   0  0  0  0  0  0  0  0  0  0  0  0  # atno 6908 bound_to 6896
  151.5143  133.3440  159.2926 H   0  0  0  0  0  0  0  0  0  0  0  0  # atno 6909 bound_to 6896
  145.5529  139.2297  143.2502 H   0  0  0  0  0  0  0  0  0  0  0  0  # atno 7974 bound_to 7965
  154.4345  140.1853  156.1043 H   0  0  0  0  0  0  0  0  0  0  0  0  # atno 8008 bound_to 7997
  156.0268  140.3335  155.7071 H   0  0  0  0  0  0  0  0  0  0  0  0  # atno 8009 bound_to 7997
  155.5898  140.0630  157.2752 H   0  0  0  0  0  0  0  0  0  0  0  0  # atno 8010 bound_to 7997
  140.3640  144.2192  150.6136 H   0  0  0  0  0  0  0  0  0  0  0  0  # atno 10167 bound_to 10162
  156.3640  130.7753  151.1925 H   0  0  0  0  0  0  0  0  0  0  0  0  # atno 10718 bound_to 10713
  154.7589  135.3112  154.8416 H   0  0  0  0  0  0  0  0  0  0  0  0  # atno 10763 bound_to 10752
  153.9183  135.6798  153.4753 H   0  0  0  0  0  0  0  0  0  0  0  0  # atno 10764 bound_to 10752
  153.1188  135.4832  154.9091 H   0  0  0  0  0  0  0  0  0  0  0  0  # atno 10765 bound_to 10752
  139.8771  134.9124  156.4701 H   0  0  0  0  0  0  0  0  0  0  0  0  # atno 11005 bound_to 11000
  146.1904  140.6352  142.9148 LP  0  0  0  0  0  0  0  0  0  0  0  0  # atno 17320 bound_to 7965
  144.7520  140.5215  143.6795 LP  0  0  0  0  0  0  0  0  0  0  0  0  # atno 17321 bound_to 7965
  140.5099  143.2293  151.8551 LP  0  0  0  0  0  0  0  0  0  0  0  0  # atno 17342 bound_to 10162
  139.4811  144.4961  151.9121 LP  0  0  0  0  0  0  0  0  0  0  0  0  # atno 17343 bound_to 10162
  157.7477  131.0391  150.4537 LP  0  0  0  0  0  0  0  0  0  0  0  0  # atno 17370 bound_to 10713
  156.4753  130.4061  149.6494 LP  0  0  0  0  0  0  0  0  0  0  0  0  # atno 17371 bound_to 10713
  140.8802  133.7923  155.9458 LP  0  0  0  0  0  0  0  0  0  0  0  0  # atno 17394 bound_to 11000
  140.8862  134.2551  157.5119 LP  0  0  0  0  0  0  0  0  0  0  0  0  # atno 17395 bound_to 11000

$$$$
