#       Name:                AV-unprocessed.smi:50
#       Creating user name   scv26
#       Creation time:       Thu Mar 26 16:35:36 2020


#       File generated by GOLD software.
#

@<TRIPOS>MOLECULE
AV-unprocessed.smi:50
    52    53     1
SMALL
NO_CHARGES


@<TRIPOS>ATOM
      1 ****        -1.9410   4.2720   0.8212 C.3            1 S1                 0.0000
      2 ****        -2.3599   4.1555  -0.6576 C.3            1 S1                 0.0000
      3 ****        -3.8967   4.1044  -0.7489 C.3            1 S1                 0.0000
      4 ****        -1.6961   2.9423  -1.3653 C.3            1 S1                 0.0000
      5 ****        -2.1343   2.8211  -2.7684 N.4            1 S1                 1.0000
      6 ****        -0.1611   3.0073  -1.4139 C.2            1 S1                 0.0000
      7 ****         0.4954   4.0493  -1.3819 O.2            1 S1                 0.0000
      8 ****         0.3535   1.7717  -1.5363 O.3            1 S1                 0.0000
      9 ****         1.7610   1.5991  -1.5900 C.3            1 S1                 0.0000
     10 ****         2.0951   0.1049  -1.5928 C.3            1 S1                 0.0000
     11 ****         1.8534  -0.4177  -0.2964 O.3            1 S1                 0.0000
     12 ****         2.1959  -1.7591  -0.1713 C.3            1 S1                 0.0000
     13 ****         1.8443  -2.1963   1.1685 N.pl3          1 S1                 0.0000
     14 ****         1.7737  -1.4649   2.3297 C.2            1 S1                 0.0000
     15 ****         1.4308  -2.1629   3.3763 N.2            1 S1                 0.0000
     16 ****         1.2712  -3.4557   2.8867 C.2            1 S1                 0.0000
     17 ****         0.9046  -4.6647   3.5686 C.2            1 S1                 0.0000
     18 ****         0.6407  -4.8181   4.7593 O.2            1 S1                 0.0000
     19 ****         0.8639  -5.7664   2.7044 N.am           1 S1                 0.0000
     20 ****         1.1445  -5.7023   1.3416 C.2            1 S1                 0.0000
     21 ****         1.0643  -6.8497   0.6552 N.pl3          1 S1                 0.0000
     22 ****         1.4780  -4.5879   0.7143 N.2            1 S1                 0.0000
     23 ****         1.5273  -3.4886   1.5295 C.2            1 S1                 0.0000
     24 ****        -1.9961   2.0303  -0.8478 H              1 S1                 0.0000
     25 ****         0.6149  -6.6560   3.1112 H              1 S1                 0.0000
     26 ****        -2.2079   3.3737   1.3789 H              1 S1                 0.0000
     27 ****        -2.4336   5.1175   1.3024 H              1 S1                 0.0000
     28 ****        -0.8682   4.4257   0.9346 H              1 S1                 0.0000
     29 ****        -2.0399   5.0692  -1.1617 H              1 S1                 0.0000
     30 ****        -4.2899   3.1936  -0.2958 H              1 S1                 0.0000
     31 ****        -4.2453   4.1423  -1.7809 H              1 S1                 0.0000
     32 ****        -4.3481   4.9514  -0.2309 H              1 S1                 0.0000
     33 ****        -1.7108   2.0024  -3.1812 H              1 S1                 0.0000
     34 ****        -1.8474   3.6431  -3.2806 H              1 S1                 0.0000
     35 ****         2.1393   2.0637  -2.5015 H              1 S1                 0.0000
     36 ****         2.2442   2.0925  -0.7452 H              1 S1                 0.0000
     37 ****         1.5072  -0.4222  -2.3460 H              1 S1                 0.0000
     38 ****         3.1480  -0.0265  -1.8461 H              1 S1                 0.0000
     39 ****         1.6443  -2.3587  -0.8981 H              1 S1                 0.0000
     40 ****         3.2686  -1.9030  -0.3097 H              1 S1                 0.0000
     41 ****         1.9804  -0.4056   2.3788 H              1 S1                 0.0000
     42 ****         0.8100  -7.7022   1.1334 H              1 S1                 0.0000
     43 ****         1.2546  -6.8654  -0.3362 H              1 S1                 0.0000
     44 ****        -3.1401   2.7358  -2.8023 H              1 S1                 0.0000
     45 ****         0.0296   4.9320  -1.3201 LP             1 S1                 0.0000
     46 ****         1.4941   4.0124  -1.4176 LP             1 S1                 0.0000
     47 ****         0.8799  -0.3182  -0.0905 LP             1 S1                 0.0000
     48 ****         2.3891   0.1095   0.3633 LP             1 S1                 0.0000
     49 ****         1.3101  -1.8425   4.3159 LP             1 S1                 0.0000
     50 ****         0.6683  -4.0364   5.3823 LP             1 S1                 0.0000
     51 ****         0.3984  -5.7246   5.1050 LP             1 S1                 0.0000
     52 ****         1.6761  -4.5508  -0.2652 LP             1 S1                 0.0000
@<TRIPOS>BOND
    1    1    2 1     
    2    1   26 1     
    3    1   27 1     
    4    1   28 1     
    5    2    3 1     
    6    2    4 1     
    7    2   29 1     
    8    3   30 1     
    9    3   31 1     
   10    3   32 1     
   11    4   24 1     
   12    4    5 1     
   13    4    6 1     
   14    5   33 1     
   15    5   34 1     
   16    5   44 1     
   17    6    7 2     
   18    6    8 1     
   19    8    9 1     
   20    9   10 1     
   21    9   35 1     
   22    9   36 1     
   23   10   11 1     
   24   10   37 1     
   25   10   38 1     
   26   11   12 1     
   27   12   13 1     
   28   12   39 1     
   29   12   40 1     
   30   13   23 1     
   31   13   14 1     
   32   14   15 2     
   33   14   41 1     
   34   15   16 1     
   35   16   23 2     
   36   16   17 1     
   37   17   18 2     
   38   17   19 am    
   39   19   25 1     
   40   19   20 1     
   41   20   21 1     
   42   20   22 2     
   43   21   42 1     
   44   21   43 1     
   45   22   23 1     
   46    7   45 1     
   47    7   46 1     
   48   11   47 1     
   49   11   48 1     
   50   15   49 1     
   51   18   50 1     
   52   18   51 1     
   53   22   52 1     
@<TRIPOS>SUBSTRUCTURE
      1 S1             1
@<TRIPOS>SET
LONE_PAIRS      STATIC     ATOMS    <user>   **** ""
8 45 46 47 48 49 50 51 52
DONOR_HYDROGENS      STATIC     ATOMS    <user>   **** ""
6 33 34 44 25 42 43
ATOM$BLUE        STATIC     ATOMS    COLORGROUP SYSTEM
8 45 46 47 48 49 50 51 52
ATOM$RED        STATIC     ATOMS    COLORGROUP SYSTEM
6 33 34 44 25 42 43
