AV-unprocessed.smi:3124|AV-procd|sdf|11905|dock3
  -GOLD-   2272017293D 1   1.00000     0.00000
 Structure written by MMmdl.
 24 24  0  0  0  0  0  0  0  0  2 V2000
  139.6284  137.3086  153.8948 C   0  0  0  0  0  0  0  0  0  0  0  0
  140.7563  136.3345  153.7190 C   0  0  0  0  0  0  0  0  0  0  0  0
  142.0088  136.5458  153.0717 C   0  0  0  0  0  0  0  0  0  0  0  0
  142.6595  135.3474  153.1876 C   0  0  0  0  0  0  0  0  0  0  0  0
  144.0122  134.8848  152.7398 C   0  0  0  0  0  0  0  0  0  0  0  0
  144.0877  134.4146  151.2735 C   0  0  1  0  0  0  0  0  0  0  0  0
  145.5315  134.1127  150.8494 C   0  0  0  0  0  0  0  0  0  0  0  0
  143.2380  133.2287  151.0555 N   0  3  0  0  0  0  0  0  0  0  0  0
  141.8049  134.5187  153.8787 N   0  0  0  0  0  0  0  0  0  0  0  0
  140.6387  135.1072  154.2013 N   0  0  0  0  0  0  0  0  0  0  0  0
  142.0001  133.5605  154.1330 H   0  0  0  0  0  0  0  0  0  0  0  0
  139.9758  138.3362  153.7857 H   0  0  0  0  0  0  0  0  0  0  0  0
  139.1741  137.2175  154.8819 H   0  0  0  0  0  0  0  0  0  0  0  0
  138.8484  137.1409  153.1518 H   0  0  0  0  0  0  0  0  0  0  0  0
  142.3695  137.4464  152.5973 H   0  0  0  0  0  0  0  0  0  0  0  0
  144.7168  135.7044  152.8848 H   0  0  0  0  0  0  0  0  0  0  0  0
  144.3536  134.0823  153.3955 H   0  0  0  0  0  0  0  0  0  0  0  0
  143.7108  135.2098  150.6291 H   0  0  0  0  0  0  0  0  0  0  0  0
  146.1658  134.9926  150.9622 H   0  0  0  0  0  0  0  0  0  0  0  0
  145.5796  133.8072  149.8035 H   0  0  0  0  0  0  0  0  0  0  0  0
  145.9644  133.3123  151.4507 H   0  0  0  0  0  0  0  0  0  0  0  0
  142.4100  133.4947  150.5420 H   0  0  0  0  0  0  0  0  0  0  0  0
  142.9697  132.8365  151.9469 H   0  0  0  0  0  0  0  0  0  0  0  0
  143.7535  132.5393  150.5264 H   0  0  0  0  0  0  0  0  0  0  0  0
  1  2  1  0  0  0  0
  1 12  1  0  0  0  0
  1 13  1  0  0  0  0
  1 14  1  0  0  0  0
  2 10  2  0  0  0  0
  2  3  1  0  0  0  0
  3  4  2  0  0  0  0
  3 15  1  0  0  0  0
  4  5  1  0  0  0  0
  4  9  1  0  0  0  0
  5  6  1  0  0  0  0
  5 16  1  0  0  0  0
  5 17  1  0  0  0  0
  6  7  1  0  0  0  0
  6  8  1  0  0  0  0
  6 18  1  0  0  0  0
  7 19  1  0  0  0  0
  7 20  1  0  0  0  0
  7 21  1  0  0  0  0
  8 22  1  0  0  0  0
  8 23  1  0  0  0  0
  8 24  1  0  0  0  0
  9 11  1  0  0  0  0
  9 10  1  0  0  0  0
M  CHG  1   8   1
M  END
> <s_m_source_file>
AV-unprocessed.smi

> <i_m_source_file_index>
3124

> <i_lp_mmshare_version>
43012

> <i_f3d_flags>
0

> <s_epik_input>
W0NIM11jMVtjSF1jKFtuSF1uMSlbQ0gyXVtDQEhdKFtDSDNdKVtOSDJd

> <s_epik_cmdline>
J2VwaWtfcHl0aG9uJywgJy1waCcsICc3LjAnLCAnLXRuJywgJzgnLCAnLW1hJywgJzIwMCcsICctbWV0YWxfYmluZGluZycsICctaW1hZScsICc8aW5maWxlLm1hZT4nLCAnLW9tYWUnLCAnPG91dGZpbGUubWFlPic=

> <r_lp_tautomer_probability>
0.5

> <r_epik_Ionization_Penalty>
0.00227197

> <r_epik_Ionization_Penalty_Charging>
0.00223142

> <r_epik_Ionization_Penalty_Neutral>
4.05538e-05

> <r_epik_State_Penalty>
0.446108

> <r_epik_Charging_Adjusted_Penalty>
0.448339

> <i_epik_Tot_Q>
1

> <i_epik_Tot_abs_Q>
1

> <r_epik_Metal_State_Penalty>
0.444886

> <b_epik_Metal_Only>
0

> <s_lp_Force_Field>
OPLS_2005

> <r_lp_Energy>
4.61405

> <b_lp_Chiralities_Consistent>
1

> <s_lp_Variant>
AV-unprocessed.smi:3124-4

> <Gold.Version>
5.8.1

> <Gold.Id.Protein>
6NUR|6NUR_protein|mol2

> <Gold.PLP.Fitness>
33.2008

> <Gold.PLP.PLP>
-21.8772

> <Gold.PLP.part.hbond>
-4.3598

> <Gold.PLP.part.metal>
0.0000

> <Gold.PLP.part.buried>
-5.6076

> <Gold.PLP.part.nonpolar>
-11.6492

> <Gold.PLP.part.repulsive>
0.2747

> <Gold.PLP.ligand.clash>
0.0000

> <Gold.PLP.ligand.torsion>
0.3398

> <Gold.PLP.Chemscore.Hbond>
4.0000

> <Gold.PLP.Chemscore.CHOScore>
0.0000

> <Gold.PLP.Chemscore.Metal>
0.0000

> <Gold.Chemscore.Hbonds>
donor molecule, donor type, donor heavy atom, donor atom, acceptor molecule, acceptor atom, score
      L1  H     8    22       P1 10186  2.00
      L1  H     9    11       P1 10957  1.00
      P1  H 11000 11005       L1    10  0.95

> <Gold.PLP.Chemscore.Internal.Correction>
0.0033

> <Gold.Rescore>
     Score         DG    S(hbond)    S(metal)    S(lipo)     H(rot)  DE(clash)    DE(int)     intcor
     16.07     -16.30       2.94        0.00      37.03       1.30       0.05       0.19       ----

> <Gold.Chemscore.Fitness>
16.0651

> <Gold.Chemscore.DG>
-16.3027

> <Gold.Chemscore.ZeroCoef>
-5.4800

> <Gold.Chemscore.Hbond>
2.9385

> <Gold.Chemscore.Metal>
0.0000

> <Gold.Chemscore.Lipo>
37.0321

> <Gold.Chemscore.Internal_Hbond>
0.0000

> <Gold.Chemscore.DEClash>
0.0504

> <Gold.Chemscore.DEInternal>
0.1872

> <Gold.Chemscore.Rot>
1.2987

> <Gold.Chemscore.Internal.Correction>
   9.000000E+99

> <Gold.Chemscore.Hbonds>
donor molecule, donor type, donor heavy atom, donor atom, acceptor molecule, acceptor atom, score
      L1  H     8    22       P1 10186  0.97
      L1  H     9    11       P1 10957  0.96
      P1  H 11000 11005       L1    10  0.21

> <Gold.Chemscore.Hbond.Weighted>
-9.8146

> <Gold.Chemscore.Metal.Weighted>
-0.0000

> <Gold.Chemscore.Lipo.Weighted>
-4.3328

> <Gold.Chemscore.Internal_Hbond.Weighted>
0.0000

> <Gold.Chemscore.DEClash.Weighted>
0.0504

> <Gold.Chemscore.DEInternal.Weighted>
0.1872

> <Gold.Chemscore.Rot.Weighted>
3.3246

> <Gold.Chemscore.Internal.Correction.Weighted>
   9.000000E+99

> <Gold.Protein.RotatedTorsions>
[ 6907 6896 6895 6894 ] final   72.85 input  -60.11 | X-H torsion
[ 7974 7965 7964 7962 ] final   33.17 input  175.53 | X-H torsion
[ 8008 7997 7996 7995 ] final  -33.10 input   59.86 | X-H torsion
[ 10167 10162 10161 10158 ] final  -79.88 input  -65.29 | X-H torsion
[ 10718 10713 10712 10709 ] final   25.36 input   66.30 | X-H torsion
[ 10763 10752 10751 10750 ] final -116.65 input  -60.55 | X-H torsion
[ 11005 11000 10999 10996 ] final   29.00 input  -57.11 | X-H torsion

> <Gold.Protein.ActiveResidues>
 VAL166  LYS551  ARG553  GLY616  TRP617  ASP618  TYR619  PRO620  LYS621  CYS622 
 ASP623  PHE694  ASN695  SER759  ASP760  ASP761  ALA762  ILE779  LEU786  VAL792 
 PHE793  MET794  SER795  GLU796  ALA797  LYS798  CYS799  TRP800  GLU811  SER814 

> <Gold.Protein.RotatedAtoms>
  152.4891  134.4510  159.9574 H   0  0  0  0  0  0  0  0  0  0  0  0  # atno 6907 bound_to 6896
  151.4500  133.3614  159.2802 H   0  0  0  0  0  0  0  0  0  0  0  0  # atno 6908 bound_to 6896
  150.9028  134.8465  159.7432 H   0  0  0  0  0  0  0  0  0  0  0  0  # atno 6909 bound_to 6896
  146.1438  139.6432  142.9145 H   0  0  0  0  0  0  0  0  0  0  0  0  # atno 7974 bound_to 7965
  154.4159  140.1720  156.1833 H   0  0  0  0  0  0  0  0  0  0  0  0  # atno 8008 bound_to 7997
  155.9664  140.3389  155.6512 H   0  0  0  0  0  0  0  0  0  0  0  0  # atno 8009 bound_to 7997
  155.6682  140.0708  157.2520 H   0  0  0  0  0  0  0  0  0  0  0  0  # atno 8010 bound_to 7997
  140.4554  143.2470  151.8428 H   0  0  0  0  0  0  0  0  0  0  0  0  # atno 10167 bound_to 10162
  157.1922  130.6851  149.6155 H   0  0  0  0  0  0  0  0  0  0  0  0  # atno 10718 bound_to 10713
  154.8527  135.4338  154.1854 H   0  0  0  0  0  0  0  0  0  0  0  0  # atno 10763 bound_to 10752
  153.2935  135.6963  153.7276 H   0  0  0  0  0  0  0  0  0  0  0  0  # atno 10764 bound_to 10752
  153.6434  135.3464  155.3053 H   0  0  0  0  0  0  0  0  0  0  0  0  # atno 10765 bound_to 10752
  140.3096  134.2664  155.7737 H   0  0  0  0  0  0  0  0  0  0  0  0  # atno 11005 bound_to 11000
  145.4984  141.0438  143.2554 LP  0  0  0  0  0  0  0  0  0  0  0  0  # atno 17320 bound_to 7965
  144.7823  139.6500  143.7149 LP  0  0  0  0  0  0  0  0  0  0  0  0  # atno 17321 bound_to 7965
  139.4800  144.5071  151.8983 LP  0  0  0  0  0  0  0  0  0  0  0  0  # atno 17342 bound_to 10162
  140.4158  144.2309  150.5888 LP  0  0  0  0  0  0  0  0  0  0  0  0  # atno 17343 bound_to 10162
  155.9710  130.4610  150.6095 LP  0  0  0  0  0  0  0  0  0  0  0  0  # atno 17370 bound_to 10713
  157.3849  131.0786  151.1445 LP  0  0  0  0  0  0  0  0  0  0  0  0  # atno 17371 bound_to 10713
  141.2111  133.7699  156.9888 LP  0  0  0  0  0  0  0  0  0  0  0  0  # atno 17394 bound_to 11000
  140.1036  134.9520  157.1961 LP  0  0  0  0  0  0  0  0  0  0  0  0  # atno 17395 bound_to 11000

$$$$
