#       Name:                AV-unprocessed.smi:1901
#       Creating user name   scv26
#       Creation time:       Fri Mar 27 09:45:52 2020


#       File generated by GOLD software.
#

@<TRIPOS>MOLECULE
AV-unprocessed.smi:1901
    33    34     1
SMALL
NO_CHARGES


@<TRIPOS>ATOM
      1 ****        -0.3875   1.2848  -1.0102 O.2            1 S1                 0.0000
      2 ****        -0.8444   0.1436  -0.9390 C.2            1 S1                 0.0000
      3 ****        -0.0813  -0.9568  -0.8684 N.am           1 S1                 0.0000
      4 ****         1.3783  -0.9772  -0.8611 C.3            1 S1                 0.0000
      5 ****         1.9454  -1.0309   0.5699 C.3            1 S1                 0.0000
      6 ****         3.4560  -1.1271   0.6254 C.3            1 S1                 0.0000
      7 ****         3.7492  -0.7067   2.0625 C.3            1 S1                 0.0000
      8 ****         2.7168   0.2076   2.4202 O.3            1 S1                 0.0000
      9 ****         1.7080   0.2224   1.4148 C.3            1 S1                 0.0000
     10 ****        -2.1516  -0.1704  -0.9191 N.am           1 S1                 0.0000
     11 ****        -3.2662   0.7079  -0.9531 C.2            1 S1                 0.0000
     12 ****        -3.1752   2.0418  -1.0127 N.2            1 S1                 0.0000
     13 ****        -4.4315   2.6528  -1.0341 C.2            1 S1                 0.0000
     14 ****        -5.4758   1.7629  -0.9887 C.2            1 S1                 0.0000
     15 ****        -4.9194   0.1121  -0.9173 S.3            1 S1                 0.0000
     16 ****        -0.5452  -1.8518  -0.8141 H              1 S1                 0.0000
     17 ****         1.6963  -1.8636  -1.4103 H              1 S1                 0.0000
     18 ****         1.7828  -0.1218  -1.4052 H              1 S1                 0.0000
     19 ****         1.5268  -1.8919   1.0940 H              1 S1                 0.0000
     20 ****         3.8320  -2.1234   0.3904 H              1 S1                 0.0000
     21 ****         3.9083  -0.4185  -0.0701 H              1 S1                 0.0000
     22 ****         3.6945  -1.5677   2.7298 H              1 S1                 0.0000
     23 ****         4.7365  -0.2572   2.1702 H              1 S1                 0.0000
     24 ****         1.8372   1.1235   0.8137 H              1 S1                 0.0000
     25 ****         0.7106   0.2498   1.8540 H              1 S1                 0.0000
     26 ****        -2.3765  -1.1528  -0.8662 H              1 S1                 0.0000
     27 ****        -4.4907   3.7300  -1.0827 H              1 S1                 0.0000
     28 ****        -6.5339   1.9778  -0.9934 H              1 S1                 0.0000
     29 ****         0.6022   1.4276  -1.0176 LP             1 S1                 0.0000
     30 ****        -1.0061   2.0689  -1.0606 LP             1 S1                 0.0000
     31 ****         3.1045   1.1247   2.5136 LP             1 S1                 0.0000
     32 ****         2.3126  -0.0736   3.2906 LP             1 S1                 0.0000
     33 ****        -2.3098   2.5423  -1.0388 LP             1 S1                 0.0000
@<TRIPOS>BOND
    1    1    2 2     
    2    2    3 am    
    3    2   10 am    
    4    3    4 1     
    5    3   16 1     
    6    4    5 1     
    7    4   17 1     
    8    4   18 1     
    9    5    9 1     
   10    5    6 1     
   11    5   19 1     
   12    6    7 1     
   13    6   20 1     
   14    6   21 1     
   15    7    8 1     
   16    7   22 1     
   17    7   23 1     
   18    8    9 1     
   19    9   24 1     
   20    9   25 1     
   21   10   11 1     
   22   10   26 1     
   23   11   15 1     
   24   11   12 2     
   25   12   13 1     
   26   13   14 2     
   27   13   27 1     
   28   14   15 1     
   29   14   28 1     
   30    1   29 1     
   31    1   30 1     
   32    8   31 1     
   33    8   32 1     
   34   12   33 1     
@<TRIPOS>SUBSTRUCTURE
      1 S1             1
@<TRIPOS>SET
LONE_PAIRS      STATIC     ATOMS    <user>   **** ""
5 29 30 31 32 33
DONOR_HYDROGENS      STATIC     ATOMS    <user>   **** ""
2 16 26
ATOM$BLUE        STATIC     ATOMS    COLORGROUP SYSTEM
5 29 30 31 32 33
ATOM$RED        STATIC     ATOMS    COLORGROUP SYSTEM
2 16 26
