AV-unprocessed.smi:2458|AV-procd|sdf|9708|dock6
  -GOLD-   2272013343D 1   1.00000     0.00000
 Structure written by MMmdl.
 47 48  0  0  0  0  0  0  0  0  1 V2000
  152.2371  144.9920  159.1699 C   0  0  0  0  0  0  0  0  0  0  0  0
  151.4559  143.8997  159.9261 C   0  0  0  0  0  0  0  0  0  0  0  0
  152.1583  143.6319  161.2715 C   0  0  0  0  0  0  0  0  0  0  0  0
  151.2598  142.6060  159.0813 C   0  0  1  0  0  0  0  0  0  0  0  0
  150.7000  142.9035  157.6680 C   0  0  0  0  0  0  0  0  0  0  0  0
  150.5202  141.6307  156.8246 C   0  0  0  0  0  0  0  0  0  0  0  0
  151.8412  140.8515  156.6941 C   0  0  2  0  0  0  0  0  0  0  0  0
  151.6508  139.5794  155.8565 C   0  0  0  0  0  0  0  0  0  0  0  0
  152.3188  139.3985  154.8379 O   0  0  0  0  0  0  0  0  0  0  0  0
  150.7342  138.7052  156.2955 N   0  0  0  0  0  0  0  0  0  0  0  0
  150.4157  137.4443  155.6383 C   0  0  0  0  0  0  0  0  0  0  0  0
  151.0108  136.2537  156.4110 C   0  0  2  0  0  0  0  0  0  0  0  0
  152.4186  136.2900  156.2826 O   0  0  0  0  0  0  0  0  0  0  0  0
  150.4432  134.9333  155.9149 C   0  0  0  0  0  0  0  0  0  0  0  0
  150.8087  133.7073  156.5123 C   0  0  0  0  0  0  0  0  0  0  0  0
  150.2600  132.5131  156.0071 C   0  0  0  0  0  0  0  0  0  0  0  0
  149.3662  132.5930  154.9208 C   0  0  0  0  0  0  0  0  0  0  0  0
  149.0097  133.7580  154.3387 N   0  0  0  0  0  0  0  0  0  0  0  0
  149.5405  134.8987  154.8295 C   0  0  0  0  0  0  0  0  0  0  0  0
  152.3832  140.5182  158.0961 C   0  0  0  0  0  0  0  0  0  0  0  0
  152.5672  141.7864  158.9454 C   0  0  0  0  0  0  0  0  0  0  0  0
  150.5312  141.9797  159.5985 H   0  0  0  0  0  0  0  0  0  0  0  0
  152.5678  141.4911  156.1897 H   0  0  0  0  0  0  0  0  0  0  0  0
  153.1995  144.6197  158.8178 H   0  0  0  0  0  0  0  0  0  0  0  0
  152.4315  145.8524  159.8109 H   0  0  0  0  0  0  0  0  0  0  0  0
  151.6848  145.3696  158.3103 H   0  0  0  0  0  0  0  0  0  0  0  0
  150.4702  144.3081  160.1535 H   0  0  0  0  0  0  0  0  0  0  0  0
  153.1152  143.1295  161.1262 H   0  0  0  0  0  0  0  0  0  0  0  0
  151.5509  143.0185  161.9358 H   0  0  0  0  0  0  0  0  0  0  0  0
  152.3526  144.5623  161.8059 H   0  0  0  0  0  0  0  0  0  0  0  0
  149.7309  143.3965  157.7322 H   0  0  0  0  0  0  0  0  0  0  0  0
  151.3647  143.5935  157.1464 H   0  0  0  0  0  0  0  0  0  0  0  0
  149.7540  141.0027  157.2822 H   0  0  0  0  0  0  0  0  0  0  0  0
  150.1462  141.9012  155.8361 H   0  0  0  0  0  0  0  0  0  0  0  0
  150.2304  138.9219  157.1434 H   0  0  0  0  0  0  0  0  0  0  0  0
  149.3280  137.3565  155.6161 H   0  0  0  0  0  0  0  0  0  0  0  0
  150.7548  137.4476  154.6008 H   0  0  0  0  0  0  0  0  0  0  0  0
  150.7729  136.3501  157.4717 H   0  0  0  0  0  0  0  0  0  0  0  0
  152.7969  136.3800  157.1439 H   0  0  0  0  0  0  0  0  0  0  0  0
  151.4997  133.6805  157.3420 H   0  0  0  0  0  0  0  0  0  0  0  0
  150.5190  131.5585  156.4406 H   0  0  0  0  0  0  0  0  0  0  0  0
  148.9276  131.6968  154.5077 H   0  0  0  0  0  0  0  0  0  0  0  0
  149.2349  135.8105  154.3378 H   0  0  0  0  0  0  0  0  0  0  0  0
  151.7038  139.8384  158.6130 H   0  0  0  0  0  0  0  0  0  0  0  0
  153.3373  139.9956  158.0139 H   0  0  0  0  0  0  0  0  0  0  0  0
  153.3482  142.4082  158.5058 H   0  0  0  0  0  0  0  0  0  0  0  0
  152.9320  141.4776  159.9241 H   0  0  0  0  0  0  0  0  0  0  0  0
  1  2  1  0  0  0  0
  1 24  1  0  0  0  0
  1 25  1  0  0  0  0
  1 26  1  0  0  0  0
  2  3  1  0  0  0  0
  2  4  1  0  0  0  0
  2 27  1  0  0  0  0
  3 28  1  0  0  0  0
  3 29  1  0  0  0  0
  3 30  1  0  0  0  0
  4 22  1  0  0  0  0
  4 21  1  0  0  0  0
  4  5  1  0  0  0  0
  5  6  1  0  0  0  0
  5 31  1  0  0  0  0
  5 32  1  0  0  0  0
  6  7  1  0  0  0  0
  6 33  1  0  0  0  0
  6 34  1  0  0  0  0
  7 23  1  0  0  0  0
  7  8  1  0  0  0  0
  7 20  1  0  0  0  0
  8  9  2  0  0  0  0
  8 10  1  0  0  0  0
 10 11  1  0  0  0  0
 10 35  1  0  0  0  0
 11 12  1  0  0  0  0
 11 36  1  0  0  0  0
 11 37  1  0  0  0  0
 12 13  1  0  0  0  0
 12 14  1  0  0  0  0
 12 38  1  0  0  0  0
 13 39  1  0  0  0  0
 14 19  1  0  0  0  0
 14 15  2  0  0  0  0
 15 16  1  0  0  0  0
 15 40  1  0  0  0  0
 16 17  2  0  0  0  0
 16 41  1  0  0  0  0
 17 18  1  0  0  0  0
 17 42  1  0  0  0  0
 18 19  2  0  0  0  0
 19 43  1  0  0  0  0
 20 21  1  0  0  0  0
 20 44  1  0  0  0  0
 20 45  1  0  0  0  0
 21 46  1  0  0  0  0
 21 47  1  0  0  0  0
M  END
> <s_m_source_file>
AV-unprocessed.smi

> <i_m_source_file_index>
2458

> <i_lp_mmshare_version>
43012

> <i_f3d_flags>
0

> <s_epik_input>
W0NIM11bQ0hdKFtDSDNdKVtDQEhdMVtDSDJdW0NIMl1bQ0BASF0oW0NIMl1bQ0gyXTEpQyg9TylbTkhdW0NIMl1bQ0BIXShbT0hdKWMyW2NIXVtjSF1bY0hdbltjSF0y

> <s_epik_cmdline>
J2VwaWtfcHl0aG9uJywgJy1waCcsICc3LjAnLCAnLXRuJywgJzgnLCAnLW1hJywgJzIwMCcsICctbWV0YWxfYmluZGluZycsICctaW1hZScsICc8aW5maWxlLm1hZT4nLCAnLW9tYWUnLCAnPG91dGZpbGUubWFlPic=

> <r_epik_Ionization_Penalty>
0.00169206

> <r_epik_Ionization_Penalty_Charging>
0

> <r_epik_Ionization_Penalty_Neutral>
0.00169206

> <r_epik_State_Penalty>
0.0011427

> <r_epik_Charging_Adjusted_Penalty>
0.0011427

> <i_epik_Tot_Q>
0

> <i_epik_Tot_abs_Q>
0

> <r_epik_Metal_State_Penalty>
-0

> <b_epik_Metal_Only>
0

> <s_lp_Force_Field>
OPLS_2005

> <r_lp_Energy>
18.0059

> <b_lp_Chiralities_Consistent>
1

> <s_lp_Variant>
AV-unprocessed.smi:2458-1

> <Gold.Version>
5.8.1

> <Gold.Id.Protein>
6NUR|6NUR_protein|mol2

> <Gold.PLP.Fitness>
47.2827

> <Gold.PLP.PLP>
-39.7909

> <Gold.PLP.part.hbond>
-1.8948

> <Gold.PLP.part.metal>
0.0000

> <Gold.PLP.part.buried>
-4.9620

> <Gold.PLP.part.nonpolar>
-32.5887

> <Gold.PLP.part.repulsive>
0.2071

> <Gold.PLP.ligand.clash>
0.0000

> <Gold.PLP.ligand.torsion>
0.2904

> <Gold.PLP.Chemscore.Hbond>
1.7200

> <Gold.PLP.Chemscore.CHOScore>
0.9551

> <Gold.PLP.Chemscore.Metal>
0.0000

> <Gold.Chemscore.Hbonds>
donor molecule, donor type, donor heavy atom, donor atom, acceptor molecule, acceptor atom, score
      P1  H  7989  7998       L1     9  0.67
      P1  H 10752 10763       L1    13  1.00
      L1  C    19    43       P1  7948  0.95

> <Gold.PLP.Chemscore.Internal.Correction>
0.0471

> <Gold.Rescore>
     Score         DG    S(hbond)    S(metal)    S(lipo)     H(rot)  DE(clash)    DE(int)     intcor
     19.46     -19.78       1.85        0.00     114.42       2.06       0.02       0.30       ----

> <Gold.Chemscore.Fitness>
19.4647

> <Gold.Chemscore.DG>
-19.7774

> <Gold.Chemscore.ZeroCoef>
-5.4800

> <Gold.Chemscore.Hbond>
1.8506

> <Gold.Chemscore.Metal>
0.0000

> <Gold.Chemscore.Lipo>
114.4168

> <Gold.Chemscore.Internal_Hbond>
0.0000

> <Gold.Chemscore.DEClash>
0.0174

> <Gold.Chemscore.DEInternal>
0.2953

> <Gold.Chemscore.Rot>
2.0588

> <Gold.Chemscore.Internal.Correction>
   9.000000E+99

> <Gold.Chemscore.Hbonds>
donor molecule, donor type, donor heavy atom, donor atom, acceptor molecule, acceptor atom, score
      P1  H  7989  7998       L1     9  0.32
      P1  H 10752 10763       L1    13  0.93

> <Gold.Chemscore.Hbond.Weighted>
-6.1811

> <Gold.Chemscore.Metal.Weighted>
-0.0000

> <Gold.Chemscore.Lipo.Weighted>
-13.3868

> <Gold.Chemscore.Internal_Hbond.Weighted>
0.0000

> <Gold.Chemscore.DEClash.Weighted>
0.0174

> <Gold.Chemscore.DEInternal.Weighted>
0.2953

> <Gold.Chemscore.Rot.Weighted>
5.2705

> <Gold.Chemscore.Internal.Correction.Weighted>
   9.000000E+99

> <Gold.Protein.RotatedTorsions>
[ 6907 6896 6895 6894 ] final -137.10 input  -60.11 | X-H torsion
[ 7974 7965 7964 7962 ] final   40.73 input  175.53 | X-H torsion
[ 8008 7997 7996 7995 ] final   -7.20 input   59.86 | X-H torsion
[ 10167 10162 10161 10158 ] final   55.93 input  -65.29 | X-H torsion
[ 10718 10713 10712 10709 ] final   18.83 input   66.30 | X-H torsion
[ 10763 10752 10751 10750 ] final   99.66 input  -60.55 | X-H torsion
[ 11005 11000 10999 10996 ] final  165.83 input  -57.11 | X-H torsion

> <Gold.Protein.ActiveResidues>
 VAL166  LYS551  ARG553  GLY616  TRP617  ASP618  TYR619  PRO620  LYS621  CYS622 
 ASP623  PHE694  ASN695  SER759  ASP760  ASP761  ALA762  ILE779  LEU786  VAL792 
 PHE793  MET794  SER795  GLU796  ALA797  LYS798  CYS799  TRP800  GLU811  SER814 

> <Gold.Protein.RotatedAtoms>
  151.0183  133.5901  159.2674 H   0  0  0  0  0  0  0  0  0  0  0  0  # atno 6907 bound_to 6896
  151.3027  135.0772  159.9254 H   0  0  0  0  0  0  0  0  0  0  0  0  # atno 6908 bound_to 6896
  152.5317  133.9861  159.7883 H   0  0  0  0  0  0  0  0  0  0  0  0  # atno 6909 bound_to 6896
  146.0881  139.5498  142.9493 H   0  0  0  0  0  0  0  0  0  0  0  0  # atno 7974 bound_to 7965
  154.5861  140.2413  155.7985 H   0  0  0  0  0  0  0  0  0  0  0  0  # atno 8008 bound_to 7997
  156.2214  140.2996  155.9917 H   0  0  0  0  0  0  0  0  0  0  0  0  # atno 8009 bound_to 7997
  155.2455  140.0408  157.2971 H   0  0  0  0  0  0  0  0  0  0  0  0  # atno 8010 bound_to 7997
  140.2141  144.3857  150.6476 H   0  0  0  0  0  0  0  0  0  0  0  0  # atno 10167 bound_to 10162
  157.1019  130.6471  149.5874 H   0  0  0  0  0  0  0  0  0  0  0  0  # atno 10718 bound_to 10713
  153.3042  135.4106  155.1279 H   0  0  0  0  0  0  0  0  0  0  0  0  # atno 10763 bound_to 10752
  154.8558  135.3549  154.5811 H   0  0  0  0  0  0  0  0  0  0  0  0  # atno 10764 bound_to 10752
  153.6237  135.7063  153.5359 H   0  0  0  0  0  0  0  0  0  0  0  0  # atno 10765 bound_to 10752
  140.2602  134.7908  157.3583 H   0  0  0  0  0  0  0  0  0  0  0  0  # atno 11005 bound_to 11000
  145.6091  141.0342  143.1976 LP  0  0  0  0  0  0  0  0  0  0  0  0  # atno 17320 bound_to 7965
  144.7340  139.7640  143.7336 LP  0  0  0  0  0  0  0  0  0  0  0  0  # atno 17321 bound_to 7965
  140.6302  143.2186  151.6512 LP  0  0  0  0  0  0  0  0  0  0  0  0  # atno 17342 bound_to 10162
  139.5168  144.3334  152.0806 LP  0  0  0  0  0  0  0  0  0  0  0  0  # atno 17343 bound_to 10162
  155.9871  130.4909  150.7112 LP  0  0  0  0  0  0  0  0  0  0  0  0  # atno 17370 bound_to 10713
  157.4634  131.0885  151.0721 LP  0  0  0  0  0  0  0  0  0  0  0  0  # atno 17371 bound_to 10713
  140.1472  134.4896  155.7987 LP  0  0  0  0  0  0  0  0  0  0  0  0  # atno 17394 bound_to 11000
  141.2191  133.6848  156.7315 LP  0  0  0  0  0  0  0  0  0  0  0  0  # atno 17395 bound_to 11000

$$$$
