AV-unprocessed.smi:1683|AV-procd|sdf|6751|dock9
  -GOLD-   22720 7513D 1   1.00000     0.00000
 Structure written by MMmdl.
 37 38  0  0  0  0  0  0  0  0  2 V2000
  148.6344  138.3950  155.2279 O   0  0  0  0  0  0  0  0  0  0  0  0
  149.0315  138.7610  154.1219 C   0  0  0  0  0  0  0  0  0  0  0  0
  150.2748  139.2074  153.8928 N   0  0  0  0  0  0  0  0  0  0  0  0
  151.3169  139.3460  154.9053 C   0  0  0  0  0  0  0  0  0  0  0  0
  150.8137  140.0577  156.1767 C   0  0  2  0  0  0  0  0  0  0  0  0
  149.8901  141.2396  155.9021 C   0  0  0  0  0  0  0  0  0  0  0  0
  149.9427  142.0108  157.2173 C   0  0  0  0  0  0  0  0  0  0  0  0
  151.3334  141.8690  157.7046 N   0  3  1  0  0  0  0  0  0  0  0  0
  151.4921  141.9021  159.1800 C   0  0  0  0  0  0  0  0  0  0  0  0
  152.7875  142.6019  159.6293 C   0  0  0  0  0  0  0  0  0  0  0  0
  152.7334  142.9416  160.9167 F   0  0  0  0  0  0  0  0  0  0  0  0
  153.8118  141.7677  159.4580 F   0  0  0  0  0  0  0  0  0  0  0  0
  152.9981  143.6934  158.8937 F   0  0  0  0  0  0  0  0  0  0  0  0
  151.9151  140.6680  157.0564 C   0  0  0  0  0  0  0  0  0  0  0  0
  148.2954  138.7669  152.9989 N   0  0  0  0  0  0  0  0  0  0  0  0
  146.9460  138.3575  152.8556 C   0  0  0  0  0  0  0  0  0  0  0  0
  146.0283  137.9070  153.8498 C   0  0  0  0  0  0  0  0  0  0  0  0
  144.8503  137.6138  153.3173 N   0  0  0  0  0  0  0  0  0  0  0  0
  145.0062  137.8709  151.9991 N   0  0  0  0  0  0  0  0  0  0  0  0
  146.2661  138.3235  151.6749 C   0  0  0  0  0  0  0  0  0  0  0  0
  144.2515  137.7345  151.3417 H   0  0  0  0  0  0  0  0  0  0  0  0
  150.5109  139.4930  152.9535 H   0  0  0  0  0  0  0  0  0  0  0  0
  151.6775  138.3474  155.1537 H   0  0  0  0  0  0  0  0  0  0  0  0
  152.1679  139.8838  154.4835 H   0  0  0  0  0  0  0  0  0  0  0  0
  150.2541  139.3456  156.7860 H   0  0  0  0  0  0  0  0  0  0  0  0
  150.2854  141.8548  155.0920 H   0  0  0  0  0  0  0  0  0  0  0  0
  148.8786  140.9338  155.6330 H   0  0  0  0  0  0  0  0  0  0  0  0
  149.6635  143.0575  157.0948 H   0  0  0  0  0  0  0  0  0  0  0  0
  149.2500  141.5571  157.9283 H   0  0  0  0  0  0  0  0  0  0  0  0
  150.6203  142.3680  159.6423 H   0  0  0  0  0  0  0  0  0  0  0  0
  151.5208  140.8726  159.5402 H   0  0  0  0  0  0  0  0  0  0  0  0
  152.2873  139.9372  157.7760 H   0  0  0  0  0  0  0  0  0  0  0  0
  152.7632  140.9915  156.4516 H   0  0  0  0  0  0  0  0  0  0  0  0
  148.7436  139.1050  152.1600 H   0  0  0  0  0  0  0  0  0  0  0  0
  146.1636  137.7820  154.9139 H   0  0  0  0  0  0  0  0  0  0  0  0
  146.5560  138.5746  150.6653 H   0  0  0  0  0  0  0  0  0  0  0  0
  151.8504  142.6552  157.3368 H   0  0  0  0  0  0  0  0  0  0  0  0
  1  2  2  0  0  0  0
  2  3  1  0  0  0  0
  2 15  1  0  0  0  0
  3  4  1  0  0  0  0
  3 22  1  0  0  0  0
  4  5  1  0  0  0  0
  4 23  1  0  0  0  0
  4 24  1  0  0  0  0
  5 14  1  0  0  0  0
  5  6  1  0  0  0  0
  5 25  1  0  0  0  0
  6  7  1  0  0  0  0
  6 26  1  0  0  0  0
  6 27  1  0  0  0  0
  7  8  1  0  0  0  0
  7 28  1  0  0  0  0
  7 29  1  0  0  0  0
  8  9  1  0  0  0  0
  8 14  1  0  0  0  0
  8 37  1  0  0  0  0
  9 10  1  0  0  0  0
  9 30  1  0  0  0  0
  9 31  1  0  0  0  0
 10 11  1  0  0  0  0
 10 12  1  0  0  0  0
 10 13  1  0  0  0  0
 14 32  1  0  0  0  0
 14 33  1  0  0  0  0
 15 16  1  0  0  0  0
 15 34  1  0  0  0  0
 16 20  2  0  0  0  0
 16 17  1  0  0  0  0
 17 18  2  0  0  0  0
 17 35  1  0  0  0  0
 18 19  1  0  0  0  0
 19 21  1  0  0  0  0
 19 20  1  0  0  0  0
 20 36  1  0  0  0  0
M  CHG  1   8   1
M  END
> <s_m_source_file>
AV-unprocessed.smi

> <i_m_source_file_index>
1683

> <i_lp_mmshare_version>
43012

> <i_f3d_flags>
0

> <s_epik_input>
W2NIXTFbbkhdbltjSF1jMVtOSF1DKD1PKVtOSF1bQ0gyXVtDQEBIXTJbQ0gyXVtDSDJdTihbQ0gyXTIpW0NIMl1DKEYpKEYpRg==

> <s_epik_cmdline>
J2VwaWtfcHl0aG9uJywgJy1waCcsICc3LjAnLCAnLXRuJywgJzgnLCAnLW1hJywgJzIwMCcsICctbWV0YWxfYmluZGluZycsICctaW1hZScsICc8aW5maWxlLm1hZT4nLCAnLW9tYWUnLCAnPG91dGZpbGUubWFlPic=

> <r_lp_tautomer_probability>
0.5

> <r_epik_Ionization_Penalty>
0.641865

> <r_epik_Ionization_Penalty_Charging>
0.64182

> <r_epik_Ionization_Penalty_Neutral>
4.50685e-05

> <r_epik_State_Penalty>
0.65957

> <r_epik_Charging_Adjusted_Penalty>
1.30139

> <i_epik_Tot_Q>
1

> <i_epik_Tot_abs_Q>
1

> <r_epik_Metal_State_Penalty>
0.659571

> <b_epik_Metal_Only>
0

> <s_lp_Force_Field>
OPLS_2005

> <r_lp_Energy>
31.6125

> <b_lp_Chiralities_Consistent>
1

> <s_lp_Variant>
AV-unprocessed.smi:1683-5

> <Gold.Version>
5.8.1

> <Gold.Id.Protein>
6NUR|6NUR_protein|mol2

> <Gold.PLP.Fitness>
45.1529

> <Gold.PLP.PLP>
-38.8980

> <Gold.PLP.part.hbond>
-4.9094

> <Gold.PLP.part.metal>
0.0000

> <Gold.PLP.part.buried>
-1.5380

> <Gold.PLP.part.nonpolar>
-33.2651

> <Gold.PLP.part.repulsive>
1.1095

> <Gold.PLP.ligand.clash>
0.0000

> <Gold.PLP.ligand.torsion>
0.9152

> <Gold.PLP.Chemscore.Hbond>
2.4552

> <Gold.PLP.Chemscore.CHOScore>
0.1006

> <Gold.PLP.Chemscore.Metal>
0.0000

> <Gold.Chemscore.Hbonds>
donor molecule, donor type, donor heavy atom, donor atom, acceptor molecule, acceptor atom, score
      L1  H     3    22       P1  7957  0.76
      L1  H    15    34       P1  7957  1.00
      L1  H    19    21       P1 10171  0.62
      L1  C    20    36       P1 10171  0.08

> <Gold.PLP.Chemscore.Internal.Correction>
0.4176

> <Gold.Rescore>
     Score         DG    S(hbond)    S(metal)    S(lipo)     H(rot)  DE(clash)    DE(int)     intcor
     13.13     -16.63       2.33        0.00      68.35       1.81       0.36       3.13       ----

> <Gold.Chemscore.Fitness>
13.1309

> <Gold.Chemscore.DG>
-16.6255

> <Gold.Chemscore.ZeroCoef>
-5.4800

> <Gold.Chemscore.Hbond>
2.3314

> <Gold.Chemscore.Metal>
0.0000

> <Gold.Chemscore.Lipo>
68.3452

> <Gold.Chemscore.Internal_Hbond>
0.0000

> <Gold.Chemscore.DEClash>
0.3647

> <Gold.Chemscore.DEInternal>
3.1299

> <Gold.Chemscore.Rot>
1.8116

> <Gold.Chemscore.Internal.Correction>
   9.000000E+99

> <Gold.Chemscore.Hbonds>
donor molecule, donor type, donor heavy atom, donor atom, acceptor molecule, acceptor atom, score
      L1  H     3    22       P1  7957  0.60
      L1  H    15    34       P1  7957  0.98
      L1  H    19    21       P1 10171  0.62

> <Gold.Chemscore.Hbond.Weighted>
-7.7869

> <Gold.Chemscore.Metal.Weighted>
-0.0000

> <Gold.Chemscore.Lipo.Weighted>
-7.9964

> <Gold.Chemscore.Internal_Hbond.Weighted>
0.0000

> <Gold.Chemscore.DEClash.Weighted>
0.3647

> <Gold.Chemscore.DEInternal.Weighted>
3.1299

> <Gold.Chemscore.Rot.Weighted>
4.6378

> <Gold.Chemscore.Internal.Correction.Weighted>
   9.000000E+99

> <Gold.Protein.RotatedTorsions>
[ 6907 6896 6895 6894 ] final  105.88 input  -60.11 | X-H torsion
[ 7974 7965 7964 7962 ] final  -63.49 input  175.53 | X-H torsion
[ 8008 7997 7996 7995 ] final  -55.37 input   59.86 | X-H torsion
[ 10167 10162 10161 10158 ] final  -87.75 input  -65.29 | X-H torsion
[ 10718 10713 10712 10709 ] final -173.94 input   66.30 | X-H torsion
[ 10763 10752 10751 10750 ] final  -36.59 input  -60.55 | X-H torsion
[ 11005 11000 10999 10996 ] final  -73.15 input  -57.11 | X-H torsion

> <Gold.Protein.ActiveResidues>
 VAL166  LYS551  ARG553  GLY616  TRP617  ASP618  TYR619  PRO620  LYS621  CYS622 
 ASP623  PHE694  ASN695  SER759  ASP760  ASP761  ALA762  ILE779  LEU786  VAL792 
 PHE793  MET794  SER795  GLU796  ALA797  LYS798  CYS799  TRP800  GLU811  SER814 

> <Gold.Protein.RotatedAtoms>
  152.5214  133.9464  159.7650 H   0  0  0  0  0  0  0  0  0  0  0  0  # atno 6907 bound_to 6896
  150.9783  133.6263  159.2733 H   0  0  0  0  0  0  0  0  0  0  0  0  # atno 6908 bound_to 6896
  151.3450  135.0878  159.9437 H   0  0  0  0  0  0  0  0  0  0  0  0  # atno 6909 bound_to 6896
  145.7784  140.8775  143.0343 H   0  0  0  0  0  0  0  0  0  0  0  0  # atno 7974 bound_to 7965
  154.4193  140.1154  156.5466 H   0  0  0  0  0  0  0  0  0  0  0  0  # atno 8008 bound_to 7997
  155.6453  140.3496  155.4710 H   0  0  0  0  0  0  0  0  0  0  0  0  # atno 8009 bound_to 7997
  155.9837  140.1165  157.0692 H   0  0  0  0  0  0  0  0  0  0  0  0  # atno 8010 bound_to 7997
  140.3814  143.2747  151.9379 H   0  0  0  0  0  0  0  0  0  0  0  0  # atno 10167 bound_to 10162
  156.7777  130.9472  151.3120 H   0  0  0  0  0  0  0  0  0  0  0  0  # atno 10718 bound_to 10713
  153.8823  135.6820  153.4766 H   0  0  0  0  0  0  0  0  0  0  0  0  # atno 10763 bound_to 10752
  153.1227  135.4733  154.9219 H   0  0  0  0  0  0  0  0  0  0  0  0  # atno 10764 bound_to 10752
  154.7663  135.3225  154.8232 H   0  0  0  0  0  0  0  0  0  0  0  0  # atno 10765 bound_to 10752
  141.1619  133.6869  156.7168 H   0  0  0  0  0  0  0  0  0  0  0  0  # atno 11005 bound_to 11000
  144.6800  139.9954  143.7484 LP  0  0  0  0  0  0  0  0  0  0  0  0  # atno 17320 bound_to 7965
  146.0099  139.3161  143.0876 LP  0  0  0  0  0  0  0  0  0  0  0  0  # atno 17321 bound_to 7965
  139.4795  144.5815  151.7924 LP  0  0  0  0  0  0  0  0  0  0  0  0  # atno 17342 bound_to 10162
  140.4934  144.1277  150.5955 LP  0  0  0  0  0  0  0  0  0  0  0  0  # atno 17343 bound_to 10162
  157.6661  130.9009  149.9935 LP  0  0  0  0  0  0  0  0  0  0  0  0  # atno 17370 bound_to 10713
  156.1237  130.3645  149.9844 LP  0  0  0  0  0  0  0  0  0  0  0  0  # atno 17371 bound_to 10713
  140.2846  134.8290  157.3963 LP  0  0  0  0  0  0  0  0  0  0  0  0  # atno 17394 bound_to 11000
  140.1402  134.4981  155.8037 LP  0  0  0  0  0  0  0  0  0  0  0  0  # atno 17395 bound_to 11000

$$$$
