AV-unprocessed.smi:1300|AV-procd|sdf|5419|dock1
  -GOLD-   22720 4573D 1   1.00000     0.00000
 Structure written by MMmdl.
 35 36  0  0  0  0  0  0  0  0  1 V2000
  153.3799  142.6386  160.1661 C   0  0  0  0  0  0  0  0  0  0  0  0
  152.8104  141.3423  159.6565 C   0  0  0  0  0  0  0  0  0  0  0  0
  151.8339  141.4288  158.8146 N   0  0  0  0  0  0  0  0  0  0  0  0
  151.2492  140.2999  158.2722 N   0  0  0  0  0  0  0  0  0  0  0  0
  150.1978  140.5752  157.2806 C   0  0  0  0  0  0  0  0  0  0  0  0
  150.3990  139.8583  155.9178 C   0  0  2  0  0  0  0  0  0  0  0  0
  151.6294  140.2655  155.3512 O   0  0  0  0  0  0  0  0  0  0  0  0
  149.2161  139.9662  154.9564 C   0  0  0  0  0  0  0  0  0  0  0  0
  148.8142  141.2178  154.4355 C   0  0  0  0  0  0  0  0  0  0  0  0
  147.7037  141.3081  153.5748 C   0  0  0  0  0  0  0  0  0  0  0  0
  146.9862  140.1486  153.2266 C   0  0  0  0  0  0  0  0  0  0  0  0
  147.3799  138.8987  153.7405 C   0  0  0  0  0  0  0  0  0  0  0  0
  148.4898  138.8065  154.6030 C   0  0  0  0  0  0  0  0  0  0  0  0
  148.8473  137.5984  155.1008 F   0  0  0  0  0  0  0  0  0  0  0  0
  151.5956  139.0195  158.5861 C   0  0  0  0  0  0  0  0  0  0  0  0
  151.0301  138.0409  158.0969 O   0  0  0  0  0  0  0  0  0  0  0  0
  152.7032  138.9289  159.5400 C   0  0  0  0  0  0  0  0  0  0  0  0
  153.1134  137.6046  159.8791 C   0  0  0  0  0  0  0  0  0  0  0  0
  153.4258  136.5248  160.1554 N   0  0  0  0  0  0  0  0  0  0  0  0
  153.3023  140.0292  160.0603 C   0  0  0  0  0  0  0  0  0  0  0  0
  154.4576  139.9889  161.0511 C   0  0  0  0  0  0  0  0  0  0  0  0
  153.3256  142.6850  161.2539 H   0  0  0  0  0  0  0  0  0  0  0  0
  152.8413  143.5022  159.7730 H   0  0  0  0  0  0  0  0  0  0  0  0
  154.4250  142.7419  159.8737 H   0  0  0  0  0  0  0  0  0  0  0  0
  149.2029  140.3864  157.6888 H   0  0  0  0  0  0  0  0  0  0  0  0
  150.2061  141.6499  157.0877 H   0  0  0  0  0  0  0  0  0  0  0  0
  150.5456  138.7978  156.1265 H   0  0  0  0  0  0  0  0  0  0  0  0
  152.3282  139.8018  155.7864 H   0  0  0  0  0  0  0  0  0  0  0  0
  149.3457  142.1191  154.7037 H   0  0  0  0  0  0  0  0  0  0  0  0
  147.4007  142.2683  153.1842 H   0  0  0  0  0  0  0  0  0  0  0  0
  146.1335  140.2180  152.5674 H   0  0  0  0  0  0  0  0  0  0  0  0
  146.8278  138.0093  153.4755 H   0  0  0  0  0  0  0  0  0  0  0  0
  154.7851  138.9715  161.2623 H   0  0  0  0  0  0  0  0  0  0  0  0
  154.1643  140.4424  161.9984 H   0  0  0  0  0  0  0  0  0  0  0  0
  155.3180  140.5330  160.6602 H   0  0  0  0  0  0  0  0  0  0  0  0
  1  2  1  0  0  0  0
  1 22  1  0  0  0  0
  1 23  1  0  0  0  0
  1 24  1  0  0  0  0
  2 20  1  0  0  0  0
  2  3  2  0  0  0  0
  3  4  1  0  0  0  0
  4  5  1  0  0  0  0
  4 15  1  0  0  0  0
  5  6  1  0  0  0  0
  5 25  1  0  0  0  0
  5 26  1  0  0  0  0
  6  7  1  0  0  0  0
  6  8  1  0  0  0  0
  6 27  1  0  0  0  0
  7 28  1  0  0  0  0
  8 13  1  0  0  0  0
  8  9  2  0  0  0  0
  9 10  1  0  0  0  0
  9 29  1  0  0  0  0
 10 11  2  0  0  0  0
 10 30  1  0  0  0  0
 11 12  1  0  0  0  0
 11 31  1  0  0  0  0
 12 13  2  0  0  0  0
 12 32  1  0  0  0  0
 13 14  1  0  0  0  0
 15 16  2  0  0  0  0
 15 17  1  0  0  0  0
 17 18  1  0  0  0  0
 17 20  2  0  0  0  0
 18 19  3  0  0  0  0
 20 21  1  0  0  0  0
 21 33  1  0  0  0  0
 21 34  1  0  0  0  0
 21 35  1  0  0  0  0
M  END
> <s_m_source_file>
AV-unprocessed.smi

> <i_m_source_file_index>
1300

> <i_lp_mmshare_version>
43012

> <i_f3d_flags>
0

> <s_epik_input>
TiNDYyhjMVtDSDNdKWMoPU8pbihuYzFbQ0gzXSlbQ0gyXVtDQEhdKFtPSF0pYzJbY0hdW2NIXVtjSF1bY0hdYzJG

> <s_epik_cmdline>
J2VwaWtfcHl0aG9uJywgJy1waCcsICc3LjAnLCAnLXRuJywgJzgnLCAnLW1hJywgJzIwMCcsICctbWV0YWxfYmluZGluZycsICctaW1hZScsICc8aW5maWxlLm1hZT4nLCAnLW9tYWUnLCAnPG91dGZpbGUubWFlPic=

> <r_lp_tautomer_probability>
1

> <r_epik_Ionization_Penalty>
7.1854e-08

> <r_epik_Ionization_Penalty_Charging>
1.40848e-10

> <r_epik_Ionization_Penalty_Neutral>
7.17131e-08

> <r_epik_State_Penalty>
-0

> <r_epik_Charging_Adjusted_Penalty>
1.40848e-10

> <i_epik_Tot_Q>
0

> <i_epik_Tot_abs_Q>
0

> <r_epik_Metal_State_Penalty>
-0

> <b_epik_Metal_Only>
0

> <s_lp_Force_Field>
OPLS_2005

> <r_lp_Energy>
27.5545

> <b_lp_Chiralities_Consistent>
1

> <s_lp_Variant>
AV-unprocessed.smi:1300-1

> <Gold.Version>
5.8.1

> <Gold.Id.Protein>
6NUR|6NUR_protein|mol2

> <Gold.PLP.Fitness>
41.8769

> <Gold.PLP.PLP>
-36.4998

> <Gold.PLP.part.hbond>
-2.0000

> <Gold.PLP.part.metal>
0.0000

> <Gold.PLP.part.buried>
-5.0186

> <Gold.PLP.part.nonpolar>
-30.0444

> <Gold.PLP.part.repulsive>
0.0000

> <Gold.PLP.ligand.clash>
0.0000

> <Gold.PLP.ligand.torsion>
0.0992

> <Gold.PLP.Chemscore.Hbond>
1.8320

> <Gold.PLP.Chemscore.CHOScore>
0.0000

> <Gold.PLP.Chemscore.Metal>
0.0000

> <Gold.Chemscore.Hbonds>
donor molecule, donor type, donor heavy atom, donor atom, acceptor molecule, acceptor atom, score
      P1  H  6896  6908       L1    19  1.00
      P1  H  7989  7998       L1     7  0.90

> <Gold.PLP.Chemscore.Internal.Correction>
0.0795

> <Gold.Rescore>
     Score         DG    S(hbond)    S(metal)    S(lipo)     H(rot)  DE(clash)    DE(int)     intcor
     15.56     -16.94       1.88        0.00      87.81       2.00       0.05       1.33       ----

> <Gold.Chemscore.Fitness>
15.5552

> <Gold.Chemscore.DG>
-16.9366

> <Gold.Chemscore.ZeroCoef>
-5.4800

> <Gold.Chemscore.Hbond>
1.8840

> <Gold.Chemscore.Metal>
0.0000

> <Gold.Chemscore.Lipo>
87.8082

> <Gold.Chemscore.Internal_Hbond>
0.0000

> <Gold.Chemscore.DEClash>
0.0465

> <Gold.Chemscore.DEInternal>
1.3349

> <Gold.Chemscore.Rot>
1.9960

> <Gold.Chemscore.Internal.Correction>
   9.000000E+99

> <Gold.Chemscore.Hbonds>
donor molecule, donor type, donor heavy atom, donor atom, acceptor molecule, acceptor atom, score
      P1  H  6896  6908       L1    19  0.94
      P1  H  7989  7998       L1     7  0.84

> <Gold.Chemscore.Hbond.Weighted>
-6.2927

> <Gold.Chemscore.Metal.Weighted>
-0.0000

> <Gold.Chemscore.Lipo.Weighted>
-10.2736

> <Gold.Chemscore.Internal_Hbond.Weighted>
0.0000

> <Gold.Chemscore.DEClash.Weighted>
0.0465

> <Gold.Chemscore.DEInternal.Weighted>
1.3349

> <Gold.Chemscore.Rot.Weighted>
5.1097

> <Gold.Chemscore.Internal.Correction.Weighted>
   9.000000E+99

> <Gold.Protein.RotatedTorsions>
[ 6907 6896 6895 6894 ] final  -72.44 input  -60.11 | X-H torsion
[ 7974 7965 7964 7962 ] final   34.59 input  175.53 | X-H torsion
[ 8008 7997 7996 7995 ] final    5.30 input   59.86 | X-H torsion
[ 10167 10162 10161 10158 ] final -125.31 input  -65.29 | X-H torsion
[ 10718 10713 10712 10709 ] final  -80.83 input   66.30 | X-H torsion
[ 10763 10752 10751 10750 ] final  -61.73 input  -60.55 | X-H torsion
[ 11005 11000 10999 10996 ] final   54.14 input  -57.11 | X-H torsion

> <Gold.Protein.ActiveResidues>
 VAL166  LYS551  ARG553  GLY616  TRP617  ASP618  TYR619  PRO620  LYS621  CYS622 
 ASP623  PHE694  ASN695  SER759  ASP760  ASP761  ALA762  ILE779  LEU786  VAL792 
 PHE793  MET794  SER795  GLU796  ALA797  LYS798  CYS799  TRP800  GLU811  SER814 

> <Gold.Protein.RotatedAtoms>
  150.7170  134.5162  159.5631 H   0  0  0  0  0  0  0  0  0  0  0  0  # atno 6907 bound_to 6896
  152.2728  134.7911  160.0420 H   0  0  0  0  0  0  0  0  0  0  0  0  # atno 6908 bound_to 6896
  151.8585  133.3417  159.3733 H   0  0  0  0  0  0  0  0  0  0  0  0  # atno 6909 bound_to 6896
  146.1342  139.6249  142.9206 H   0  0  0  0  0  0  0  0  0  0  0  0  # atno 7974 bound_to 7965
  154.7267  140.2722  155.6493 H   0  0  0  0  0  0  0  0  0  0  0  0  # atno 8008 bound_to 7997
  156.2838  140.2724  156.1879 H   0  0  0  0  0  0  0  0  0  0  0  0  # atno 8009 bound_to 7997
  155.0436  140.0371  157.2508 H   0  0  0  0  0  0  0  0  0  0  0  0  # atno 8010 bound_to 7997
  139.9835  143.5717  152.2369 H   0  0  0  0  0  0  0  0  0  0  0  0  # atno 10167 bound_to 10162
  156.0062  130.4586  150.3860 H   0  0  0  0  0  0  0  0  0  0  0  0  # atno 10718 bound_to 10713
  154.2890  135.6257  153.5377 H   0  0  0  0  0  0  0  0  0  0  0  0  # atno 10763 bound_to 10752
  152.9855  135.5651  154.5411 H   0  0  0  0  0  0  0  0  0  0  0  0  # atno 10764 bound_to 10752
  154.5017  135.2872  155.1391 H   0  0  0  0  0  0  0  0  0  0  0  0  # atno 10765 bound_to 10752
  140.0710  134.5469  155.9046 H   0  0  0  0  0  0  0  0  0  0  0  0  # atno 11005 bound_to 11000
  145.5193  141.0432  143.2444 LP  0  0  0  0  0  0  0  0  0  0  0  0  # atno 17320 bound_to 7965
  144.7722  139.6709  143.7190 LP  0  0  0  0  0  0  0  0  0  0  0  0  # atno 17321 bound_to 7965
  139.6392  144.7653  151.2374 LP  0  0  0  0  0  0  0  0  0  0  0  0  # atno 17342 bound_to 10162
  140.7480  143.6346  150.8391 LP  0  0  0  0  0  0  0  0  0  0  0  0  # atno 17343 bound_to 10162
  157.1938  131.0421  151.2686 LP  0  0  0  0  0  0  0  0  0  0  0  0  # atno 17370 bound_to 10713
  157.4038  130.7347  149.6787 LP  0  0  0  0  0  0  0  0  0  0  0  0  # atno 17371 bound_to 10713
  141.2012  133.6617  156.5936 LP  0  0  0  0  0  0  0  0  0  0  0  0  # atno 17394 bound_to 11000
  140.3627  134.7674  157.4545 LP  0  0  0  0  0  0  0  0  0  0  0  0  # atno 17395 bound_to 11000

$$$$
