AV-unprocessed.smi:200|AV-procd|sdf|1576|dock9
  -GOLD-   2262019453D 1   1.00000     0.00000
 Structure written by MMmdl.
 56 59  0  0  0  0  0  0  0  0  1 V2000
  150.8140  137.8572  154.9638 C   0  0  0  0  0  0  0  0  0  0  0  0
  151.1617  139.0958  154.3701 O   0  0  0  0  0  0  0  0  0  0  0  0
  152.0288  139.8649  155.1857 C   0  0  0  0  0  0  0  0  0  0  0  0
  151.1752  140.7449  156.1131 C   0  0  0  0  0  0  0  0  0  0  0  0
  151.7345  140.8794  157.4618 N   0  0  0  0  0  0  0  0  0  0  0  0
  151.9414  139.7323  158.1507 C   0  0  0  0  0  0  0  0  0  0  0  0
  150.8938  138.8762  158.2493 N   0  0  0  0  0  0  0  0  0  0  0  0
  151.0326  137.7206  158.9050 C   0  0  0  0  0  0  0  0  0  0  0  0
  152.1141  137.2316  159.5145 N   0  0  0  0  0  0  0  0  0  0  0  0
  153.1743  138.0825  159.4057 C   0  0  0  0  0  0  0  0  0  0  0  0
  153.1747  139.3468  158.7506 C   0  0  0  0  0  0  0  0  0  0  0  0
  154.4350  139.9250  158.8438 N   0  0  0  0  0  0  0  0  0  0  0  0
  155.1359  139.0575  159.5202 C   0  0  0  0  0  0  0  0  0  0  0  0
  154.4621  137.9135  159.8842 N   0  0  0  0  0  0  0  0  0  0  0  0
  155.0085  136.7855  160.6234 C   0  0  0  0  0  0  0  0  0  0  0  0
  155.4569  137.1281  162.0602 C   0  0  0  0  0  0  0  0  0  0  0  0
  156.5308  138.2309  162.0540 C   0  0  0  0  0  0  0  0  0  0  0  0
  156.9302  138.5709  163.3665 O   0  0  0  0  0  0  0  0  0  0  0  0
  154.3281  137.3380  163.0788 C   0  0  0  0  0  0  0  0  0  0  0  0
  154.9254  136.4166  164.0153 O   0  0  0  0  0  0  0  0  0  0  0  0
  155.7874  135.9317  162.9646 C   0  0  0  0  0  0  0  0  0  0  0  0
  151.2895  141.9747  158.3293 C   0  0  2  0  0  0  0  0  0  0  0  0
  151.1840  143.3402  157.6384 C   0  0  0  0  0  0  0  0  0  0  0  0
  151.2005  144.3209  158.8070 C   0  0  0  0  0  0  0  0  0  0  0  0
  152.2293  143.7283  159.7789 C   0  0  1  0  0  0  0  0  0  0  0  0
  152.0324  144.1783  161.2327 C   0  0  0  0  0  0  0  0  0  0  0  0
  152.1563  142.2022  159.5816 C   0  0  0  0  0  0  0  0  0  0  0  0
  150.1449  137.3087  154.3009 H   0  0  0  0  0  0  0  0  0  0  0  0
  150.2996  138.0052  155.9141 H   0  0  0  0  0  0  0  0  0  0  0  0
  151.6972  137.2408  155.1354 H   0  0  0  0  0  0  0  0  0  0  0  0
  152.6740  139.2003  155.7621 H   0  0  0  0  0  0  0  0  0  0  0  0
  152.6691  140.4905  154.5620 H   0  0  0  0  0  0  0  0  0  0  0  0
  151.0811  141.7316  155.6626 H   0  0  0  0  0  0  0  0  0  0  0  0
  150.1619  140.3490  156.1635 H   0  0  0  0  0  0  0  0  0  0  0  0
  150.1518  137.0967  158.9435 H   0  0  0  0  0  0  0  0  0  0  0  0
  156.1760  139.2226  159.7614 H   0  0  0  0  0  0  0  0  0  0  0  0
  154.2580  135.9942  160.6384 H   0  0  0  0  0  0  0  0  0  0  0  0
  155.8425  136.3823  160.0475 H   0  0  0  0  0  0  0  0  0  0  0  0
  157.4174  137.8976  161.5131 H   0  0  0  0  0  0  0  0  0  0  0  0
  156.1864  139.1277  161.5387 H   0  0  0  0  0  0  0  0  0  0  0  0
  156.5172  137.9727  163.9706 H   0  0  0  0  0  0  0  0  0  0  0  0
  154.2639  138.3535  163.4715 H   0  0  0  0  0  0  0  0  0  0  0  0
  153.3519  136.9909  162.7363 H   0  0  0  0  0  0  0  0  0  0  0  0
  155.4430  134.9703  162.5815 H   0  0  0  0  0  0  0  0  0  0  0  0
  156.8336  135.8771  163.2678 H   0  0  0  0  0  0  0  0  0  0  0  0
  150.2896  141.7360  158.6979 H   0  0  0  0  0  0  0  0  0  0  0  0
  152.0475  143.5298  157.0005 H   0  0  0  0  0  0  0  0  0  0  0  0
  150.2877  143.4323  157.0243 H   0  0  0  0  0  0  0  0  0  0  0  0
  151.4532  145.3355  158.4977 H   0  0  0  0  0  0  0  0  0  0  0  0
  150.2137  144.3506  159.2712 H   0  0  0  0  0  0  0  0  0  0  0  0
  153.2169  144.0550  159.4495 H   0  0  0  0  0  0  0  0  0  0  0  0
  151.0528  143.8829  161.6099 H   0  0  0  0  0  0  0  0  0  0  0  0
  152.1105  145.2621  161.3196 H   0  0  0  0  0  0  0  0  0  0  0  0
  152.7873  143.7374  161.8844 H   0  0  0  0  0  0  0  0  0  0  0  0
  151.6987  141.7054  160.4381 H   0  0  0  0  0  0  0  0  0  0  0  0
  153.1611  141.7916  159.4869 H   0  0  0  0  0  0  0  0  0  0  0  0
  1  2  1  0  0  0  0
  1 28  1  0  0  0  0
  1 29  1  0  0  0  0
  1 30  1  0  0  0  0
  2  3  1  0  0  0  0
  3  4  1  0  0  0  0
  3 31  1  0  0  0  0
  3 32  1  0  0  0  0
  4  5  1  0  0  0  0
  4 33  1  0  0  0  0
  4 34  1  0  0  0  0
  5  6  1  0  0  0  0
  5 22  1  0  0  0  0
  6 11  1  0  0  0  0
  6  7  2  0  0  0  0
  7  8  1  0  0  0  0
  8  9  2  0  0  0  0
  8 35  1  0  0  0  0
  9 10  1  0  0  0  0
 10 14  1  0  0  0  0
 10 11  2  0  0  0  0
 11 12  1  0  0  0  0
 12 13  2  0  0  0  0
 13 14  1  0  0  0  0
 13 36  1  0  0  0  0
 14 15  1  0  0  0  0
 15 16  1  0  0  0  0
 15 37  1  0  0  0  0
 15 38  1  0  0  0  0
 16 21  1  0  0  0  0
 16 17  1  0  0  0  0
 16 19  1  0  0  0  0
 17 18  1  0  0  0  0
 17 39  1  0  0  0  0
 17 40  1  0  0  0  0
 18 41  1  0  0  0  0
 19 20  1  0  0  0  0
 19 42  1  0  0  0  0
 19 43  1  0  0  0  0
 20 21  1  0  0  0  0
 21 44  1  0  0  0  0
 21 45  1  0  0  0  0
 22 27  1  0  0  0  0
 22 23  1  0  0  0  0
 22 46  1  0  0  0  0
 23 24  1  0  0  0  0
 23 47  1  0  0  0  0
 23 48  1  0  0  0  0
 24 25  1  0  0  0  0
 24 49  1  0  0  0  0
 24 50  1  0  0  0  0
 25 26  1  0  0  0  0
 25 27  1  0  0  0  0
 25 51  1  0  0  0  0
 26 52  1  0  0  0  0
 26 53  1  0  0  0  0
 26 54  1  0  0  0  0
 27 55  1  0  0  0  0
 27 56  1  0  0  0  0
M  END
> <s_m_source_file>
AV-unprocessed.smi

> <i_m_source_file_index>
200

> <i_lp_mmshare_version>
43012

> <i_f3d_flags>
0

> <s_epik_input>
W0NIM11bQ0BASF0oW0NIMl0xKVtDSDJdW0NIMl1bQ0BIXTFOKFtDSDJdW0NIMl1PW0NIM10pYyhuW2NIXW4yKWMoYzIzKW5bY0hdbjNbQ0gyXUM0KFtDSDJdW09IXSlbQ0gyXU9bQ0gyXTQ=

> <s_epik_cmdline>
J2VwaWtfcHl0aG9uJywgJy1waCcsICc3LjAnLCAnLXRuJywgJzgnLCAnLW1hJywgJzIwMCcsICctbWV0YWxfYmluZGluZycsICctaW1hZScsICc8aW5maWxlLm1hZT4nLCAnLW9tYWUnLCAnPG91dGZpbGUubWFlPic=

> <r_lp_tautomer_probability>
1

> <r_epik_Ionization_Penalty>
0.00363087

> <r_epik_Ionization_Penalty_Charging>
0

> <r_epik_Ionization_Penalty_Neutral>
0.00363087

> <r_epik_State_Penalty>
0.0024341

> <r_epik_Charging_Adjusted_Penalty>
0.0024341

> <i_epik_Tot_Q>
0

> <i_epik_Tot_abs_Q>
0

> <r_epik_Metal_State_Penalty>
-0

> <b_epik_Metal_Only>
0

> <s_lp_Force_Field>
OPLS_2005

> <r_lp_Energy>
49.2687

> <b_lp_Chiralities_Consistent>
1

> <s_lp_Variant>
AV-unprocessed.smi:200-1

> <Gold.Version>
5.8.1

> <Gold.Id.Protein>
6NUR|6NUR_protein|mol2

> <Gold.PLP.Fitness>
53.5848

> <Gold.PLP.PLP>
-48.7438

> <Gold.PLP.part.hbond>
-2.9986

> <Gold.PLP.part.metal>
0.0000

> <Gold.PLP.part.buried>
-5.9098

> <Gold.PLP.part.nonpolar>
-40.0574

> <Gold.PLP.part.repulsive>
0.2197

> <Gold.PLP.ligand.clash>
0.0000

> <Gold.PLP.ligand.torsion>
1.2733

> <Gold.PLP.Chemscore.Hbond>
2.0000

> <Gold.PLP.Chemscore.CHOScore>
0.0000

> <Gold.PLP.Chemscore.Metal>
0.0000

> <Gold.Chemscore.Hbonds>
donor molecule, donor type, donor heavy atom, donor atom, acceptor molecule, acceptor atom, score
      P1  H  6896  6908       L1     9  0.65
      P1  H  7997  8009       L1    12  1.00

> <Gold.PLP.Chemscore.Internal.Correction>
1.3875

> <Gold.Rescore>
     Score         DG    S(hbond)    S(metal)    S(lipo)     H(rot)  DE(clash)    DE(int)     intcor
     14.89     -17.24       1.87        0.00     118.67       3.28       0.01       2.34       ----

> <Gold.Chemscore.Fitness>
14.8908

> <Gold.Chemscore.DG>
-17.2390

> <Gold.Chemscore.ZeroCoef>
-5.4800

> <Gold.Chemscore.Hbond>
1.8748

> <Gold.Chemscore.Metal>
0.0000

> <Gold.Chemscore.Lipo>
118.6653

> <Gold.Chemscore.Internal_Hbond>
0.0000

> <Gold.Chemscore.DEClash>
0.0073

> <Gold.Chemscore.DEInternal>
2.3409

> <Gold.Chemscore.Rot>
3.2761

> <Gold.Chemscore.Internal.Correction>
   9.000000E+99

> <Gold.Chemscore.Hbonds>
donor molecule, donor type, donor heavy atom, donor atom, acceptor molecule, acceptor atom, score
      P1  H  6896  6908       L1     9  0.39
      P1  H  7997  8009       L1    12  0.36

> <Gold.Chemscore.Hbond.Weighted>
-6.2620

> <Gold.Chemscore.Metal.Weighted>
-0.0000

> <Gold.Chemscore.Lipo.Weighted>
-13.8838

> <Gold.Chemscore.Internal_Hbond.Weighted>
0.0000

> <Gold.Chemscore.DEClash.Weighted>
0.0073

> <Gold.Chemscore.DEInternal.Weighted>
2.3409

> <Gold.Chemscore.Rot.Weighted>
8.3868

> <Gold.Chemscore.Internal.Correction.Weighted>
   9.000000E+99

> <Gold.Protein.RotatedTorsions>
[ 6907 6896 6895 6894 ] final -113.00 input  -60.11 | X-H torsion
[ 7974 7965 7964 7962 ] final  -10.16 input  175.53 | X-H torsion
[ 8008 7997 7996 7995 ] final  130.91 input   59.86 | X-H torsion
[ 10167 10162 10161 10158 ] final   50.51 input  -65.29 | X-H torsion
[ 10718 10713 10712 10709 ] final  -30.62 input   66.30 | X-H torsion
[ 10763 10752 10751 10750 ] final -169.01 input  -60.55 | X-H torsion
[ 11005 11000 10999 10996 ] final  -16.34 input  -57.11 | X-H torsion

> <Gold.Protein.ActiveResidues>
 VAL166  LYS551  ARG553  GLY616  TRP617  ASP618  TYR619  PRO620  LYS621  CYS622 
 ASP623  PHE694  ASN695  SER759  ASP760  ASP761  ALA762  ILE779  LEU786  VAL792 
 PHE793  MET794  SER795  GLU796  ALA797  LYS798  CYS799  TRP800  GLU811  SER814 

> <Gold.Protein.RotatedAtoms>
  150.7798  133.9008  159.3340 H   0  0  0  0  0  0  0  0  0  0  0  0  # atno 6907 bound_to 6896
  151.6874  135.0950  160.0236 H   0  0  0  0  0  0  0  0  0  0  0  0  # atno 6908 bound_to 6896
  152.3846  133.6554  159.6223 H   0  0  0  0  0  0  0  0  0  0  0  0  # atno 6909 bound_to 6896
  146.2229  140.2723  142.8357 H   0  0  0  0  0  0  0  0  0  0  0  0  # atno 7974 bound_to 7965
  156.2962  140.2584  156.2840 H   0  0  0  0  0  0  0  0  0  0  0  0  # atno 8008 bound_to 7997
  154.9575  140.0393  157.2192 H   0  0  0  0  0  0  0  0  0  0  0  0  # atno 8009 bound_to 7997
  154.7978  140.2823  155.5948 H   0  0  0  0  0  0  0  0  0  0  0  0  # atno 8010 bound_to 7997
  140.2717  144.3258  150.6288 H   0  0  0  0  0  0  0  0  0  0  0  0  # atno 10167 bound_to 10162
  156.3975  130.4384  149.7347 H   0  0  0  0  0  0  0  0  0  0  0  0  # atno 10718 bound_to 10713
  154.6568  135.2919  154.9918 H   0  0  0  0  0  0  0  0  0  0  0  0  # atno 10763 bound_to 10752
  154.0991  135.6579  153.4869 H   0  0  0  0  0  0  0  0  0  0  0  0  # atno 10764 bound_to 10752
  153.0407  135.5238  154.7500 H   0  0  0  0  0  0  0  0  0  0  0  0  # atno 10765 bound_to 10752
  140.8057  133.8179  155.9514 H   0  0  0  0  0  0  0  0  0  0  0  0  # atno 11005 bound_to 11000
  144.9259  140.7920  143.5719 LP  0  0  0  0  0  0  0  0  0  0  0  0  # atno 17320 bound_to 7965
  145.2663  139.1972  143.4865 LP  0  0  0  0  0  0  0  0  0  0  0  0  # atno 17321 bound_to 7965
  140.5884  143.2169  151.7299 LP  0  0  0  0  0  0  0  0  0  0  0  0  # atno 17342 bound_to 10162
  139.4987  144.3976  152.0215 LP  0  0  0  0  0  0  0  0  0  0  0  0  # atno 17343 bound_to 10162
  156.4376  130.7845  151.2866 LP  0  0  0  0  0  0  0  0  0  0  0  0  # atno 17370 bound_to 10713
  157.7502  131.0134  150.3425 LP  0  0  0  0  0  0  0  0  0  0  0  0  # atno 17371 bound_to 10713
  140.9249  134.2095  157.4902 LP  0  0  0  0  0  0  0  0  0  0  0  0  # atno 17394 bound_to 11000
  139.8718  134.9808  156.5091 LP  0  0  0  0  0  0  0  0  0  0  0  0  # atno 17395 bound_to 11000

$$$$
