AV-unprocessed.smi:49|AV-procd|sdf|489|dock7
  -GOLD-   2262016353D 1   1.00000     0.00000
 Structure written by MMmdl.
 26 27  0  0  0  0  0  0  0  0  2 V2000
  152.7551  141.8949  159.2062 C   0  0  0  0  0  0  0  0  0  0  0  0
  151.6816  140.8379  158.9284 C   0  0  0  0  0  0  0  0  0  0  0  0
  151.4185  140.6680  157.4482 C   0  0  0  0  0  0  0  0  0  0  0  0
  150.2888  140.9734  156.8176 N   0  0  0  0  0  0  0  0  0  0  0  0
  150.5101  140.7105  155.5217 C   0  0  0  0  0  0  0  0  0  0  0  0
  149.4666  140.8759  154.4327 C   0  0  2  0  0  0  0  0  0  0  0  0
  148.1275  141.3897  154.9756 C   0  0  0  0  0  0  0  0  0  0  0  0
  147.1309  140.8332  153.9701 C   0  0  2  0  0  0  0  0  0  0  0  0
  145.8177  140.7473  154.4816 O   0  0  0  0  0  0  0  0  0  0  0  0
  147.7252  139.4629  153.6558 C   0  0  0  0  0  0  0  0  0  0  0  0
  149.1750  139.6391  153.6972 N   0  0  0  0  0  0  0  0  0  0  0  0
  151.7540  140.2378  155.3404 N   0  0  0  0  0  0  0  0  0  0  0  0
  152.3053  140.2308  156.5371 N   0  5  0  0  0  0  0  0  0  0  0  0
  149.8468  141.6104  153.7220 H   0  0  0  0  0  0  0  0  0  0  0  0
  147.1284  141.4517  153.0714 H   0  0  0  0  0  0  0  0  0  0  0  0
  152.9337  141.9965  160.2766 H   0  0  0  0  0  0  0  0  0  0  0  0
  152.4530  142.8699  158.8230 H   0  0  0  0  0  0  0  0  0  0  0  0
  153.7003  141.6270  158.7331 H   0  0  0  0  0  0  0  0  0  0  0  0
  151.9877  139.8772  159.3435 H   0  0  0  0  0  0  0  0  0  0  0  0
  150.7499  141.1128  159.4237 H   0  0  0  0  0  0  0  0  0  0  0  0
  147.9333  140.9586  155.9597 H   0  0  0  0  0  0  0  0  0  0  0  0
  148.0941  142.4752  155.0723 H   0  0  0  0  0  0  0  0  0  0  0  0
  145.2310  140.5495  153.7677 H   0  0  0  0  0  0  0  0  0  0  0  0
  147.4298  138.7483  154.4253 H   0  0  0  0  0  0  0  0  0  0  0  0
  147.3897  139.0704  152.6956 H   0  0  0  0  0  0  0  0  0  0  0  0
  149.5156  139.7465  152.7477 H   0  0  0  0  0  0  0  0  0  0  0  0
  1  2  1  0  0  0  0
  1 16  1  0  0  0  0
  1 17  1  0  0  0  0
  1 18  1  0  0  0  0
  2  3  1  0  0  0  0
  2 19  1  0  0  0  0
  2 20  1  0  0  0  0
  3 13  1  0  0  0  0
  3  4  2  0  0  0  0
  4  5  1  0  0  0  0
  5  6  1  0  0  0  0
  5 12  2  0  0  0  0
  6 14  1  0  0  0  0
  6 11  1  0  0  0  0
  6  7  1  0  0  0  0
  7  8  1  0  0  0  0
  7 21  1  0  0  0  0
  7 22  1  0  0  0  0
  8 15  1  0  0  0  0
  8  9  1  0  0  0  0
  8 10  1  0  0  0  0
  9 23  1  0  0  0  0
 10 11  1  0  0  0  0
 10 24  1  0  0  0  0
 10 25  1  0  0  0  0
 11 26  1  0  0  0  0
 12 13  1  0  0  0  0
M  CHG  1  13  -1
M  END
> <s_m_source_file>
AV-unprocessed.smi

> <i_m_source_file_index>
49

> <i_lp_mmshare_version>
43012

> <i_f3d_flags>
0

> <s_epik_input>
W0NIM11bQ0gyXWMxbmMobltuSF0xKVtDQEBIXTJbQ0gyXVtDQEBIXShbT0hdKVtDSDJdW05IXTI=

> <s_epik_cmdline>
J2VwaWtfcHl0aG9uJywgJy1waCcsICc3LjAnLCAnLXRuJywgJzgnLCAnLW1hJywgJzIwMCcsICctbWV0YWxfYmluZGluZycsICctaW1hZScsICc8aW5maWxlLm1hZT4nLCAnLW9tYWUnLCAnPG91dGZpbGUubWFlPic=

> <r_lp_tautomer_probability>
0.948284

> <r_epik_Ionization_Penalty>
20.726

> <r_epik_Ionization_Penalty_Charging>
17.6814

> <r_epik_Ionization_Penalty_Neutral>
3.04463

> <r_epik_State_Penalty>
7.95092

> <r_epik_Charging_Adjusted_Penalty>
25.6323

> <i_epik_Tot_Q>
-1

> <i_epik_Tot_abs_Q>
1

> <r_epik_Metal_State_Penalty>
4.146

> <b_epik_Metal_Only>
1

> <s_lp_Force_Field>
OPLS_2005

> <r_lp_Energy>
18.025

> <b_lp_Chiralities_Consistent>
1

> <s_lp_Variant>
AV-unprocessed.smi:49-27

> <Gold.Version>
5.8.1

> <Gold.Id.Protein>
6NUR|6NUR_protein|mol2

> <Gold.PLP.Fitness>
36.1792

> <Gold.PLP.PLP>
-23.1807

> <Gold.PLP.part.hbond>
-4.0000

> <Gold.PLP.part.metal>
0.0000

> <Gold.PLP.part.buried>
-0.7249

> <Gold.PLP.part.nonpolar>
-17.7171

> <Gold.PLP.part.repulsive>
0.0575

> <Gold.PLP.ligand.clash>
0.0000

> <Gold.PLP.ligand.torsion>
0.0356

> <Gold.PLP.Chemscore.Hbond>
4.3520

> <Gold.PLP.Chemscore.CHOScore>
0.0000

> <Gold.PLP.Chemscore.Metal>
0.0000

> <Gold.Chemscore.Hbonds>
donor molecule, donor type, donor heavy atom, donor atom, acceptor molecule, acceptor atom, score
      L1  H     9    23       P1 10175  1.00
      L1  H    11    26       P1  7957  1.00
      P1  H  7989  7998       L1    12  0.34
      P1  H  7997  8008       L1    13  1.95

> <Gold.PLP.Chemscore.Internal.Correction>
0.0137

> <Gold.Rescore>
     Score         DG    S(hbond)    S(metal)    S(lipo)     H(rot)  DE(clash)    DE(int)     intcor
     15.16     -15.42       2.84        0.00      43.66       1.82       0.10       0.16       ----

> <Gold.Chemscore.Fitness>
15.1614

> <Gold.Chemscore.DG>
-15.4204

> <Gold.Chemscore.ZeroCoef>
-5.4800

> <Gold.Chemscore.Hbond>
2.8437

> <Gold.Chemscore.Metal>
0.0000

> <Gold.Chemscore.Lipo>
43.6601

> <Gold.Chemscore.Internal_Hbond>
0.0000

> <Gold.Chemscore.DEClash>
0.0984

> <Gold.Chemscore.DEInternal>
0.1606

> <Gold.Chemscore.Rot>
1.8226

> <Gold.Chemscore.Internal.Correction>
   9.000000E+99

> <Gold.Chemscore.Hbonds>
donor molecule, donor type, donor heavy atom, donor atom, acceptor molecule, acceptor atom, score
      L1  H     9    23       P1 10175  0.94
      L1  H    11    26       P1  7957  0.99
      P1  H  7989  7998       L1    12  0.01
      P1  H  7997  8008       L1    13  0.57

> <Gold.Chemscore.Hbond.Weighted>
-9.4980

> <Gold.Chemscore.Metal.Weighted>
-0.0000

> <Gold.Chemscore.Lipo.Weighted>
-5.1082

> <Gold.Chemscore.Internal_Hbond.Weighted>
0.0000

> <Gold.Chemscore.DEClash.Weighted>
0.0984

> <Gold.Chemscore.DEInternal.Weighted>
0.1606

> <Gold.Chemscore.Rot.Weighted>
4.6658

> <Gold.Chemscore.Internal.Correction.Weighted>
   9.000000E+99

> <Gold.Protein.RotatedTorsions>
[ 6907 6896 6895 6894 ] final  -26.63 input  -60.11 | X-H torsion
[ 7974 7965 7964 7962 ] final  -92.89 input  175.53 | X-H torsion
[ 8008 7997 7996 7995 ] final  -39.68 input   59.86 | X-H torsion
[ 10167 10162 10161 10158 ] final   47.39 input  -65.29 | X-H torsion
[ 10718 10713 10712 10709 ] final  -59.68 input   66.30 | X-H torsion
[ 10763 10752 10751 10750 ] final  -53.57 input  -60.55 | X-H torsion
[ 11005 11000 10999 10996 ] final  -29.98 input  -57.11 | X-H torsion

> <Gold.Protein.ActiveResidues>
 VAL166  LYS551  ARG553  GLY616  TRP617  ASP618  TYR619  PRO620  LYS621  CYS622 
 ASP623  PHE694  ASN695  SER759  ASP760  ASP761  ALA762  ILE779  LEU786  VAL792 
 PHE793  MET794  SER795  GLU796  ALA797  LYS798  CYS799  TRP800  GLU811  SER814 

> <Gold.Protein.RotatedAtoms>
  151.1582  135.0260  159.8698 H   0  0  0  0  0  0  0  0  0  0  0  0  # atno 6907 bound_to 6896
  152.5452  134.1310  159.8449 H   0  0  0  0  0  0  0  0  0  0  0  0  # atno 6908 bound_to 6896
  151.1402  133.4930  159.2629 H   0  0  0  0  0  0  0  0  0  0  0  0  # atno 6909 bound_to 6896
  145.3938  140.9531  143.2325 H   0  0  0  0  0  0  0  0  0  0  0  0  # atno 7974 bound_to 7965
  154.4020  140.1545  156.2903 H   0  0  0  0  0  0  0  0  0  0  0  0  # atno 8008 bound_to 7997
  155.8791  140.3445  155.5853 H   0  0  0  0  0  0  0  0  0  0  0  0  # atno 8009 bound_to 7997
  155.7687  140.0827  157.2109 H   0  0  0  0  0  0  0  0  0  0  0  0  # atno 8010 bound_to 7997
  140.3041  144.2899  150.6213 H   0  0  0  0  0  0  0  0  0  0  0  0  # atno 10167 bound_to 10162
  156.1044  130.4182  150.0749 H   0  0  0  0  0  0  0  0  0  0  0  0  # atno 10718 bound_to 10713
  154.1610  135.6475  153.4986 H   0  0  0  0  0  0  0  0  0  0  0  0  # atno 10763 bound_to 10752
  153.0110  135.5360  154.6711 H   0  0  0  0  0  0  0  0  0  0  0  0  # atno 10764 bound_to 10752
  154.6024  135.2945  155.0492 H   0  0  0  0  0  0  0  0  0  0  0  0  # atno 10765 bound_to 10752
  140.9343  133.7318  156.0981 H   0  0  0  0  0  0  0  0  0  0  0  0  # atno 11005 bound_to 11000
  144.8422  139.5454  143.6895 LP  0  0  0  0  0  0  0  0  0  0  0  0  # atno 17320 bound_to 7965
  146.2785  139.6815  142.9246 LP  0  0  0  0  0  0  0  0  0  0  0  0  # atno 17321 bound_to 7965
  140.5625  143.2190  151.7740 LP  0  0  0  0  0  0  0  0  0  0  0  0  # atno 17342 bound_to 10162
  139.4908  144.4328  151.9853 LP  0  0  0  0  0  0  0  0  0  0  0  0  # atno 17343 bound_to 10162
  156.8728  130.9530  151.3607 LP  0  0  0  0  0  0  0  0  0  0  0  0  # atno 17370 bound_to 10713
  157.6219  130.8661  149.9123 LP  0  0  0  0  0  0  0  0  0  0  0  0  # atno 17371 bound_to 10713
  140.7821  134.3714  157.5485 LP  0  0  0  0  0  0  0  0  0  0  0  0  # atno 17394 bound_to 11000
  139.8804  134.9088  156.2976 LP  0  0  0  0  0  0  0  0  0  0  0  0  # atno 17395 bound_to 11000

$$$$
