#       Name:                AV-unprocessed.smi:1047
#       Creating user name   scv26
#       Creation time:       Fri Mar 27 03:01:46 2020


#       File generated by GOLD software.
#

@<TRIPOS>MOLECULE
AV-unprocessed.smi:1047
    62    64     1
SMALL
NO_CHARGES


@<TRIPOS>ATOM
      1 ****        -5.4058   2.7732  -4.1062 C.3            1 S1                 0.0000
      2 ****        -4.3207   3.5772  -3.3754 C.3            1 S1                 0.0000
      3 ****        -4.2668   3.2760  -1.9227 N.4            1 S1                 1.0000
      4 ****        -3.5402   4.3182  -1.1586 C.3            1 S1                 0.0000
      5 ****        -3.5646   4.0009   0.3460 C.3            1 S1                 0.0000
      6 ****        -3.0028   2.7140   0.5745 O.3            1 S1                 0.0000
      7 ****        -3.7281   1.6839  -0.0881 C.3            1 S1                 0.0000
      8 ****        -3.1415   0.3206   0.3183 C.3            1 S1                 0.0000
      9 ****        -1.7102   0.2011  -0.0304 N.4            1 S1                 1.0000
     10 ****        -1.1046  -1.0936   0.3414 C.3            1 S1                 0.0000
     11 ****         0.3893  -1.1314  -0.0188 C.3            1 S1                 0.0000
     12 ****         1.0813  -0.2213   0.8155 O.3            1 S1                 0.0000
     13 ****         0.9886  -2.5416   0.1455 C.3            1 S1                 0.0000
     14 ****         2.4044  -2.5831  -0.1744 N.pl3          1 S1                 0.0000
     15 ****         2.9563  -2.6177  -1.4027 C.2            1 S1                 0.0000
     16 ****         4.2837  -2.6461  -1.4734 N.2            1 S1                 0.0000
     17 ****         4.6348  -2.6319  -0.1344 C.ar           1 S1                 0.0000
     18 ****         5.9061  -2.6471   0.4798 C.ar           1 S1                 0.0000
     19 ****         6.0316  -2.6298   1.8872 C.ar           1 S1                 0.0000
     20 ****         7.4190  -2.6499   2.5045 C.3            1 S1                 0.0000
     21 ****         4.8724  -2.5980   2.7034 C.ar           1 S1                 0.0000
     22 ****         4.9822  -2.5873   4.2177 C.3            1 S1                 0.0000
     23 ****         3.5946  -2.5780   2.1062 C.ar           1 S1                 0.0000
     24 ****         3.4826  -2.5957   0.7045 C.ar           1 S1                 0.0000
     25 ****        -3.7179   1.9323  -1.6117 C.3            1 S1                 0.0000
     26 ****        -5.4869   3.0961  -5.1445 H              1 S1                 0.0000
     27 ****        -6.3821   2.9132  -3.6412 H              1 S1                 0.0000
     28 ****        -5.1867   1.7060  -4.1187 H              1 S1                 0.0000
     29 ****        -3.3443   3.4073  -3.8315 H              1 S1                 0.0000
     30 ****        -4.5441   4.6366  -3.5086 H              1 S1                 0.0000
     31 ****        -2.5095   4.3805  -1.5116 H              1 S1                 0.0000
     32 ****        -3.9976   5.2930  -1.3325 H              1 S1                 0.0000
     33 ****        -2.9835   4.7419   0.8954 H              1 S1                 0.0000
     34 ****        -4.5826   4.0426   0.7368 H              1 S1                 0.0000
     35 ****        -4.7617   1.7116   0.2620 H              1 S1                 0.0000
     36 ****        -3.2549   0.1811   1.3942 H              1 S1                 0.0000
     37 ****        -3.6992  -0.4821  -0.1661 H              1 S1                 0.0000
     38 ****        -1.6024   0.3291  -1.0264 H              1 S1                 0.0000
     39 ****        -1.2454  -1.2794   1.4074 H              1 S1                 0.0000
     40 ****        -1.6326  -1.8843  -0.1932 H              1 S1                 0.0000
     41 ****         0.5196  -0.8107  -1.0536 H              1 S1                 0.0000
     42 ****         1.0850  -0.5596   1.6983 H              1 S1                 0.0000
     43 ****         0.8491  -2.9016   1.1656 H              1 S1                 0.0000
     44 ****         0.4728  -3.2487  -0.5056 H              1 S1                 0.0000
     45 ****         2.3487  -2.6183  -2.2959 H              1 S1                 0.0000
     46 ****         6.7886  -2.6737  -0.1424 H              1 S1                 0.0000
     47 ****         7.5719  -3.5719   3.0653 H              1 S1                 0.0000
     48 ****         7.5516  -1.8060   3.1815 H              1 S1                 0.0000
     49 ****         8.1948  -2.5885   1.7411 H              1 S1                 0.0000
     50 ****         3.9993  -2.6217   4.6881 H              1 S1                 0.0000
     51 ****         5.4856  -1.6820   4.5575 H              1 S1                 0.0000
     52 ****         5.5486  -3.4513   4.5663 H              1 S1                 0.0000
     53 ****         2.7050  -2.5513   2.7178 H              1 S1                 0.0000
     54 ****        -4.3080   1.1602  -2.1044 H              1 S1                 0.0000
     55 ****        -2.7032   1.8603  -2.0058 H              1 S1                 0.0000
     56 ****        -1.2009   0.9336   0.4446 H              1 S1                 0.0000
     57 ****        -5.2207   3.2941  -1.5904 H              1 S1                 0.0000
     58 ****        -3.0083   2.5303   1.5575 LP             1 S1                 0.0000
     59 ****        -2.0604   2.7102   0.2401 LP             1 S1                 0.0000
     60 ****         0.6220   0.6668   0.7979 LP             1 S1                 0.0000
     61 ****         2.0217  -0.1168   0.4917 LP             1 S1                 0.0000
     62 ****         4.8731  -2.6711  -2.2809 LP             1 S1                 0.0000
@<TRIPOS>BOND
    1    1    2 1     
    2    1   26 1     
    3    1   27 1     
    4    1   28 1     
    5    2    3 1     
    6    2   29 1     
    7    2   30 1     
    8    3   25 1     
    9    3    4 1     
   10    3   57 1     
   11    4    5 1     
   12    4   31 1     
   13    4   32 1     
   14    5    6 1     
   15    5   33 1     
   16    5   34 1     
   17    6    7 1     
   18    7    8 1     
   19    7   25 1     
   20    7   35 1     
   21    8    9 1     
   22    8   36 1     
   23    8   37 1     
   24    9   10 1     
   25    9   38 1     
   26    9   56 1     
   27   10   11 1     
   28   10   39 1     
   29   10   40 1     
   30   11   12 1     
   31   11   13 1     
   32   11   41 1     
   33   12   42 1     
   34   13   14 1     
   35   13   43 1     
   36   13   44 1     
   37   14   24 1     
   38   14   15 1     
   39   15   16 2     
   40   15   45 1     
   41   16   17 1     
   42   17   24 ar    
   43   17   18 ar    
   44   18   19 ar    
   45   18   46 1     
   46   19   20 1     
   47   19   21 ar    
   48   20   47 1     
   49   20   48 1     
   50   20   49 1     
   51   21   22 1     
   52   21   23 ar    
   53   22   50 1     
   54   22   51 1     
   55   22   52 1     
   56   23   24 ar    
   57   23   53 1     
   58   25   54 1     
   59   25   55 1     
   60    6   58 1     
   61    6   59 1     
   62   12   60 1     
   63   12   61 1     
   64   16   62 1     
@<TRIPOS>SUBSTRUCTURE
      1 S1             1
@<TRIPOS>SET
LONE_PAIRS      STATIC     ATOMS    <user>   **** ""
5 58 59 60 61 62
DONOR_HYDROGENS      STATIC     ATOMS    <user>   **** ""
4 57 38 56 42
ATOM$BLUE        STATIC     ATOMS    COLORGROUP SYSTEM
5 58 59 60 61 62
ATOM$RED        STATIC     ATOMS    COLORGROUP SYSTEM
4 57 38 56 42
