#       Name:                AV-unprocessed.smi:3260
#       Creating user name   scv26
#       Creation time:       Fri Mar 27 18:37:51 2020


#       File generated by GOLD software.
#

@<TRIPOS>MOLECULE
AV-unprocessed.smi:3260
    43    44     1
SMALL
NO_CHARGES


@<TRIPOS>ATOM
      1 ****        -4.1837   5.6438   1.8130 C.3            1 S1                 0.0000
      2 ****        -3.6771   4.5207   1.0537 N.pl3          1 S1                 0.0000
      3 ****        -3.3417   3.2608   1.5005 C.2            1 S1                 0.0000
      4 ****        -2.9084   2.5446   0.4202 C.2            1 S1                 0.0000
      5 ****        -2.4234   1.1229   0.3645 C.3            1 S1                 0.0000
      6 ****        -1.0388   0.9716   1.0153 C.3            1 S1                 0.0000
      7 ****        -0.5676  -0.4071   0.9575 N.am           1 S1                 0.0000
      8 ****         0.0376  -0.9650  -0.1001 C.2            1 S1                 0.0000
      9 ****         0.2652  -0.3726  -1.1552 O.2            1 S1                 0.0000
     10 ****         0.3654  -2.2438   0.1315 N.am           1 S1                 0.0000
     11 ****         1.0656  -3.1106  -0.8093 C.3            1 S1                 0.0000
     12 ****         2.5871  -3.0522  -0.5971 C.3            1 S1                 0.0000
     13 ****         3.3714  -4.0064  -1.4944 C.3            1 S1                 0.0000
     14 ****         4.7523  -3.3734  -1.5593 C.3            1 S1                 0.0000
     15 ****         4.5247  -1.9324  -1.0917 C.3            1 S1                 0.0000
     16 ****         3.1153  -1.7916  -0.9778 O.3            1 S1                 0.0000
     17 ****        -3.0220   3.4700  -0.6564 C.2            1 S1                 0.0000
     18 ****        -3.4829   4.6501  -0.2747 N.2            1 S1                 0.0000
     19 ****        -4.1606   5.4154   2.8789 H              1 S1                 0.0000
     20 ****        -5.2115   5.8547   1.5168 H              1 S1                 0.0000
     21 ****        -3.5683   6.5248   1.6270 H              1 S1                 0.0000
     22 ****        -3.4347   2.9805   2.5394 H              1 S1                 0.0000
     23 ****        -3.1305   0.4604   0.8648 H              1 S1                 0.0000
     24 ****        -2.3783   0.7797  -0.6699 H              1 S1                 0.0000
     25 ****        -0.3161   1.6347   0.5361 H              1 S1                 0.0000
     26 ****        -1.0842   1.2689   2.0634 H              1 S1                 0.0000
     27 ****        -0.7087  -0.9736   1.7809 H              1 S1                 0.0000
     28 ****         0.1332  -2.6405   1.0301 H              1 S1                 0.0000
     29 ****         0.7137  -4.1290  -0.6431 H              1 S1                 0.0000
     30 ****         0.8075  -2.8604  -1.8400 H              1 S1                 0.0000
     31 ****         2.8346  -3.2424   0.4493 H              1 S1                 0.0000
     32 ****         3.3884  -5.0272  -1.1117 H              1 S1                 0.0000
     33 ****         2.9340  -4.0282  -2.4936 H              1 S1                 0.0000
     34 ****         5.4530  -3.8828  -0.8970 H              1 S1                 0.0000
     35 ****         5.1565  -3.4145  -2.5712 H              1 S1                 0.0000
     36 ****         4.9825  -1.7698  -0.1149 H              1 S1                 0.0000
     37 ****         4.9335  -1.1972  -1.7853 H              1 S1                 0.0000
     38 ****        -2.7830   3.3189  -1.6989 H              1 S1                 0.0000
     39 ****        -0.0062   0.5841  -1.2601 LP             1 S1                 0.0000
     40 ****         0.7214  -0.8483  -1.9073 LP             1 S1                 0.0000
     41 ****         2.8962  -1.1064  -0.2833 LP             1 S1                 0.0000
     42 ****         2.7286  -1.5112  -1.8564 LP             1 S1                 0.0000
     43 ****        -3.6496   5.4559  -0.8429 LP             1 S1                 0.0000
@<TRIPOS>BOND
    1    1    2 1     
    2    1   19 1     
    3    1   20 1     
    4    1   21 1     
    5    2   18 1     
    6    2    3 1     
    7    3    4 2     
    8    3   22 1     
    9    4    5 1     
   10    4   17 1     
   11    5    6 1     
   12    5   23 1     
   13    5   24 1     
   14    6    7 1     
   15    6   25 1     
   16    6   26 1     
   17    7    8 am    
   18    7   27 1     
   19    8    9 2     
   20    8   10 am    
   21   10   11 1     
   22   10   28 1     
   23   11   12 1     
   24   11   29 1     
   25   11   30 1     
   26   12   16 1     
   27   12   13 1     
   28   12   31 1     
   29   13   14 1     
   30   13   32 1     
   31   13   33 1     
   32   14   15 1     
   33   14   34 1     
   34   14   35 1     
   35   15   16 1     
   36   15   36 1     
   37   15   37 1     
   38   17   18 2     
   39   17   38 1     
   40    9   39 1     
   41    9   40 1     
   42   16   41 1     
   43   16   42 1     
   44   18   43 1     
@<TRIPOS>SUBSTRUCTURE
      1 S1             1
@<TRIPOS>SET
LONE_PAIRS      STATIC     ATOMS    <user>   **** ""
5 39 40 41 42 43
DONOR_HYDROGENS      STATIC     ATOMS    <user>   **** ""
2 27 28
ATOM$BLUE        STATIC     ATOMS    COLORGROUP SYSTEM
5 39 40 41 42 43
ATOM$RED        STATIC     ATOMS    COLORGROUP SYSTEM
2 27 28
