AV-unprocessed.smi:3051|AV-procd|sdf|11634|dock5
  -GOLD-   2272017 23D 1   1.00000     0.00000
 Structure written by MMmdl.
 37 37  0  0  0  0  0  0  0  0  1 V2000
  149.4331  137.7602  158.9880 C   0  0  0  0  0  0  0  0  0  0  0  0
  149.9984  136.8639  157.8786 C   0  0  0  0  0  0  0  0  0  0  0  0
  150.2558  137.6186  156.6584 N   0  0  0  0  0  0  0  0  0  0  0  0
  151.4288  137.6616  156.0070 C   0  0  0  0  0  0  0  0  0  0  0  0
  152.4306  137.0456  156.3699 O   0  0  0  0  0  0  0  0  0  0  0  0
  151.4805  138.5329  154.7507 C   0  0  0  0  0  0  0  0  0  0  0  0
  150.7203  139.7568  154.9309 N   0  0  0  0  0  0  0  0  0  0  0  0
  149.5705  140.1561  154.2780 C   0  0  0  0  0  0  0  0  0  0  0  0
  149.2298  141.3873  154.7626 C   0  0  0  0  0  0  0  0  0  0  0  0
  150.2498  141.6558  155.7156 C   0  0  0  0  0  0  0  0  0  0  0  0
  150.2858  142.8484  156.4483 N   0  0  0  0  0  0  0  0  0  0  0  0
  151.3450  143.0964  157.4198 C   0  0  1  0  0  0  0  0  0  0  0  0
  152.0632  144.4236  157.1214 C   0  0  0  0  0  0  0  0  0  0  0  0
  150.7689  143.0961  158.8442 C   0  0  0  0  0  0  0  0  0  0  0  0
  151.8167  143.3134  159.7752 O   0  0  0  0  0  0  0  0  0  0  0  0
  151.9712  144.6816  160.1086 C   0  0  0  0  0  0  0  0  0  0  0  0
  151.1382  140.6799  155.8250 N   0  0  0  0  0  0  0  0  0  0  0  0
  149.2767  137.1896  159.9035 H   0  0  0  0  0  0  0  0  0  0  0  0
  148.4741  138.1923  158.7003 H   0  0  0  0  0  0  0  0  0  0  0  0
  150.1149  138.5792  159.2193 H   0  0  0  0  0  0  0  0  0  0  0  0
  150.9383  136.4207  158.2076 H   0  0  0  0  0  0  0  0  0  0  0  0
  149.3185  136.0349  157.6761 H   0  0  0  0  0  0  0  0  0  0  0  0
  149.4893  138.1616  156.2869 H   0  0  0  0  0  0  0  0  0  0  0  0
  152.5142  138.7930  154.5181 H   0  0  0  0  0  0  0  0  0  0  0  0
  151.0877  137.9810  153.8951 H   0  0  0  0  0  0  0  0  0  0  0  0
  149.0991  139.5386  153.5277 H   0  0  0  0  0  0  0  0  0  0  0  0
  148.3881  141.9997  154.4747 H   0  0  0  0  0  0  0  0  0  0  0  0
  149.5798  143.5552  156.3009 H   0  0  0  0  0  0  0  0  0  0  0  0
  152.0761  142.2895  157.3547 H   0  0  0  0  0  0  0  0  0  0  0  0
  152.8690  144.6005  157.8342 H   0  0  0  0  0  0  0  0  0  0  0  0
  151.3760  145.2683  157.1810 H   0  0  0  0  0  0  0  0  0  0  0  0
  152.5068  144.4267  156.1256 H   0  0  0  0  0  0  0  0  0  0  0  0
  150.0342  143.8966  158.9458 H   0  0  0  0  0  0  0  0  0  0  0  0
  150.2554  142.1556  159.0524 H   0  0  0  0  0  0  0  0  0  0  0  0
  152.7807  144.7943  160.8296 H   0  0  0  0  0  0  0  0  0  0  0  0
  151.0621  145.0836  160.5582 H   0  0  0  0  0  0  0  0  0  0  0  0
  152.2193  145.2763  159.2285 H   0  0  0  0  0  0  0  0  0  0  0  0
  1  2  1  0  0  0  0
  1 18  1  0  0  0  0
  1 19  1  0  0  0  0
  1 20  1  0  0  0  0
  2  3  1  0  0  0  0
  2 21  1  0  0  0  0
  2 22  1  0  0  0  0
  3  4  1  0  0  0  0
  3 23  1  0  0  0  0
  4  5  2  0  0  0  0
  4  6  1  0  0  0  0
  6  7  1  0  0  0  0
  6 24  1  0  0  0  0
  6 25  1  0  0  0  0
  7 17  1  0  0  0  0
  7  8  1  0  0  0  0
  8  9  2  0  0  0  0
  8 26  1  0  0  0  0
  9 10  1  0  0  0  0
  9 27  1  0  0  0  0
 10 11  1  0  0  0  0
 10 17  2  0  0  0  0
 11 12  1  0  0  0  0
 11 28  1  0  0  0  0
 12 13  1  0  0  0  0
 12 14  1  0  0  0  0
 12 29  1  0  0  0  0
 13 30  1  0  0  0  0
 13 31  1  0  0  0  0
 13 32  1  0  0  0  0
 14 15  1  0  0  0  0
 14 33  1  0  0  0  0
 14 34  1  0  0  0  0
 15 16  1  0  0  0  0
 16 35  1  0  0  0  0
 16 36  1  0  0  0  0
 16 37  1  0  0  0  0
M  END
> <s_m_source_file>
AV-unprocessed.smi

> <i_m_source_file_index>
3051

> <i_lp_mmshare_version>
43012

> <i_f3d_flags>
0

> <s_epik_input>
W0NIM11bQ0gyXVtOSF1DKD1PKVtDSDJdbjFbY0hdW2NIXWMobjEpW05IXVtDQEhdKFtDSDNdKVtDSDJdT1tDSDNd

> <s_epik_cmdline>
J2VwaWtfcHl0aG9uJywgJy1waCcsICc3LjAnLCAnLXRuJywgJzgnLCAnLW1hJywgJzIwMCcsICctbWV0YWxfYmluZGluZycsICctaW1hZScsICc8aW5maWxlLm1hZT4nLCAnLW9tYWUnLCAnPG91dGZpbGUubWFlPic=

> <r_lp_tautomer_probability>
1

> <r_epik_Ionization_Penalty>
0.00023157

> <r_epik_Ionization_Penalty_Charging>
0

> <r_epik_Ionization_Penalty_Neutral>
0.00023157

> <r_epik_State_Penalty>
-0

> <r_epik_Charging_Adjusted_Penalty>
0

> <i_epik_Tot_Q>
0

> <i_epik_Tot_abs_Q>
0

> <r_epik_Metal_State_Penalty>
-0

> <b_epik_Metal_Only>
0

> <s_lp_Force_Field>
OPLS_2005

> <r_lp_Energy>
3.21547

> <b_lp_Chiralities_Consistent>
1

> <s_lp_Variant>
AV-unprocessed.smi:3051-2

> <Gold.Version>
5.8.1

> <Gold.Id.Protein>
6NUR|6NUR_protein|mol2

> <Gold.PLP.Fitness>
39.1729

> <Gold.PLP.PLP>
-32.3509

> <Gold.PLP.part.hbond>
-2.2963

> <Gold.PLP.part.metal>
0.0000

> <Gold.PLP.part.buried>
-3.1597

> <Gold.PLP.part.nonpolar>
-26.6371

> <Gold.PLP.part.repulsive>
0.0987

> <Gold.PLP.ligand.clash>
0.0075

> <Gold.PLP.ligand.torsion>
0.6216

> <Gold.PLP.Chemscore.Hbond>
1.8960

> <Gold.PLP.Chemscore.CHOScore>
0.7817

> <Gold.PLP.Chemscore.Metal>
0.0000

> <Gold.Chemscore.Hbonds>
donor molecule, donor type, donor heavy atom, donor atom, acceptor molecule, acceptor atom, score
      L1  H    11    28       P1  8028  0.93
      P1  H 10752 10765       L1     5  0.64
      L1  C     8    26       P1  7957  0.75

> <Gold.PLP.Chemscore.Internal.Correction>
0.0395

> <Gold.Rescore>
     Score         DG    S(hbond)    S(metal)    S(lipo)     H(rot)  DE(clash)    DE(int)     intcor
     12.86     -14.98       1.92        0.00      74.26       2.19       1.53       0.59       ----

> <Gold.Chemscore.Fitness>
12.8593

> <Gold.Chemscore.DG>
-14.9813

> <Gold.Chemscore.ZeroCoef>
-5.4800

> <Gold.Chemscore.Hbond>
1.9213

> <Gold.Chemscore.Metal>
0.0000

> <Gold.Chemscore.Lipo>
74.2580

> <Gold.Chemscore.Internal_Hbond>
0.0000

> <Gold.Chemscore.DEClash>
1.5304

> <Gold.Chemscore.DEInternal>
0.5917

> <Gold.Chemscore.Rot>
2.1890

> <Gold.Chemscore.Internal.Correction>
   9.000000E+99

> <Gold.Chemscore.Hbonds>
donor molecule, donor type, donor heavy atom, donor atom, acceptor molecule, acceptor atom, score
      L1  H    11    28       P1  8028  0.88
      P1  H 10752 10765       L1     5  0.60

> <Gold.Chemscore.Hbond.Weighted>
-6.4171

> <Gold.Chemscore.Metal.Weighted>
-0.0000

> <Gold.Chemscore.Lipo.Weighted>
-8.6882

> <Gold.Chemscore.Internal_Hbond.Weighted>
0.0000

> <Gold.Chemscore.DEClash.Weighted>
1.5304

> <Gold.Chemscore.DEInternal.Weighted>
0.5917

> <Gold.Chemscore.Rot.Weighted>
5.6039

> <Gold.Chemscore.Internal.Correction.Weighted>
   9.000000E+99

> <Gold.Protein.RotatedTorsions>
[ 6907 6896 6895 6894 ] final  128.26 input  -60.11 | X-H torsion
[ 7974 7965 7964 7962 ] final   78.55 input  175.53 | X-H torsion
[ 8008 7997 7996 7995 ] final -155.16 input   59.86 | X-H torsion
[ 10167 10162 10161 10158 ] final  -65.81 input  -65.29 | X-H torsion
[ 10718 10713 10712 10709 ] final  128.11 input   66.30 | X-H torsion
[ 10763 10752 10751 10750 ] final -151.23 input  -60.55 | X-H torsion
[ 11005 11000 10999 10996 ] final   74.81 input  -57.11 | X-H torsion

> <Gold.Protein.ActiveResidues>
 VAL166  LYS551  ARG553  GLY616  TRP617  ASP618  TYR619  PRO620  LYS621  CYS622 
 ASP623  PHE694  ASN695  SER759  ASP760  ASP761  ALA762  ILE779  LEU786  VAL792 
 PHE793  MET794  SER795  GLU796  ALA797  LYS798  CYS799  TRP800  GLU811  SER814 

> <Gold.Protein.RotatedAtoms>
  152.3736  133.6451  159.6105 H   0  0  0  0  0  0  0  0  0  0  0  0  # atno 6907 bound_to 6896
  150.7687  133.9230  159.3412 H   0  0  0  0  0  0  0  0  0  0  0  0  # atno 6908 bound_to 6896
  151.7049  135.0924  160.0308 H   0  0  0  0  0  0  0  0  0  0  0  0  # atno 6909 bound_to 6896
  145.6756  139.2509  143.1843 H   0  0  0  0  0  0  0  0  0  0  0  0  # atno 7974 bound_to 7965
  155.6976  140.0763  157.2423 H   0  0  0  0  0  0  0  0  0  0  0  0  # atno 8008 bound_to 7997
  154.4078  140.1653  156.2208 H   0  0  0  0  0  0  0  0  0  0  0  0  # atno 8009 bound_to 7997
  155.9397  140.3385  155.6320 H   0  0  0  0  0  0  0  0  0  0  0  0  # atno 8010 bound_to 7997
  140.5703  143.2317  151.6552 H   0  0  0  0  0  0  0  0  0  0  0  0  # atno 10167 bound_to 10162
  157.5274  131.1098  150.9062 H   0  0  0  0  0  0  0  0  0  0  0  0  # atno 10718 bound_to 10713
  154.8070  135.3265  154.7404 H   0  0  0  0  0  0  0  0  0  0  0  0  # atno 10763 bound_to 10752
  153.8060  135.6899  153.4852 H   0  0  0  0  0  0  0  0  0  0  0  0  # atno 10764 bound_to 10752
  153.1823  135.4582  154.9989 H   0  0  0  0  0  0  0  0  0  0  0  0  # atno 10765 bound_to 10752
  139.9373  134.7465  156.1194 H   0  0  0  0  0  0  0  0  0  0  0  0  # atno 11005 bound_to 11000
  146.1008  140.7546  142.9550 LP  0  0  0  0  0  0  0  0  0  0  0  0  # atno 17320 bound_to 7965
  144.7042  140.3784  143.7131 LP  0  0  0  0  0  0  0  0  0  0  0  0  # atno 17321 bound_to 7965
  139.5114  144.3511  152.0651 LP  0  0  0  0  0  0  0  0  0  0  0  0  # atno 17342 bound_to 10162
  140.2648  144.4028  150.6172 LP  0  0  0  0  0  0  0  0  0  0  0  0  # atno 17343 bound_to 10162
  156.9654  130.5471  149.5288 LP  0  0  0  0  0  0  0  0  0  0  0  0  # atno 17370 bound_to 10713
  156.0397  130.5481  150.8740 LP  0  0  0  0  0  0  0  0  0  0  0  0  # atno 17371 bound_to 10713
  141.0992  133.6683  156.2716 LP  0  0  0  0  0  0  0  0  0  0  0  0  # atno 17394 bound_to 11000
  140.6043  134.5523  157.5523 LP  0  0  0  0  0  0  0  0  0  0  0  0  # atno 17395 bound_to 11000

$$$$
