#       Name:                AV-unprocessed.smi:1697
#       Creating user name   scv26
#       Creation time:       Fri Mar 27 07:57:58 2020


#       File generated by GOLD software.
#

@<TRIPOS>MOLECULE
AV-unprocessed.smi:1697
    59    61     1
SMALL
NO_CHARGES


@<TRIPOS>ATOM
      1 ****        -5.6267   3.2321  -3.9982 C.3            1 S1                 0.0000
      2 ****        -4.6620   3.8696  -2.9962 C.3            1 S1                 0.0000
      3 ****        -4.3792   2.9243  -1.9750 O.3            1 S1                 0.0000
      4 ****        -3.5108   3.3971  -0.9517 C.3            1 S1                 0.0000
      5 ****        -2.0355   3.3365  -1.3901 C.3            1 S1                 0.0000
      6 ****        -1.5750   1.8862  -1.6132 C.3            1 S1                 0.0000
      7 ****        -1.7843   1.0626  -0.3924 N.4            1 S1                 1.0000
      8 ****        -1.2376  -0.3138  -0.5119 C.3            1 S1                 0.0000
      9 ****         0.2892  -0.3599  -0.3054 C.3            1 S1                 0.0000
     10 ****         0.5787   0.0106   1.0294 O.3            1 S1                 0.0000
     11 ****         0.8655  -1.7613  -0.5845 C.3            1 S1                 0.0000
     12 ****         2.3077  -1.8085  -0.4216 N.pl3          1 S1                 0.0000
     13 ****         3.2350  -1.4144  -1.3154 C.2            1 S1                 0.0000
     14 ****         4.5112  -1.5375  -0.9641 N.2            1 S1                 0.0000
     15 ****         4.3999  -2.0768   0.3060 C.ar           1 S1                 0.0000
     16 ****         5.3969  -2.4478   1.2344 C.ar           1 S1                 0.0000
     17 ****         5.0502  -2.9866   2.4936 C.ar           1 S1                 0.0000
     18 ****         6.1554  -3.3713   3.4614 C.3            1 S1                 0.0000
     19 ****         3.6865  -3.1617   2.8406 C.ar           1 S1                 0.0000
     20 ****         3.2911  -3.7395   4.1879 C.3            1 S1                 0.0000
     21 ****         2.6773  -2.7952   1.9255 C.ar           1 S1                 0.0000
     22 ****         3.0349  -2.2603   0.6750 C.ar           1 S1                 0.0000
     23 ****        -3.2073   1.0709   0.0347 C.3            1 S1                 0.0000
     24 ****        -3.7086   2.5049   0.2831 C.3            1 S1                 0.0000
     25 ****        -5.8774   3.9307  -4.7967 H              1 S1                 0.0000
     26 ****        -6.5555   2.9339  -3.5114 H              1 S1                 0.0000
     27 ****        -5.1873   2.3450  -4.4550 H              1 S1                 0.0000
     28 ****        -3.7505   4.1748  -3.5097 H              1 S1                 0.0000
     29 ****        -5.1148   4.7642  -2.5663 H              1 S1                 0.0000
     30 ****        -3.7807   4.4205  -0.6857 H              1 S1                 0.0000
     31 ****        -1.8692   3.9249  -2.2918 H              1 S1                 0.0000
     32 ****        -1.4141   3.7936  -0.6188 H              1 S1                 0.0000
     33 ****        -2.1186   1.4451  -2.4505 H              1 S1                 0.0000
     34 ****        -0.5225   1.8916  -1.8930 H              1 S1                 0.0000
     35 ****        -1.7050  -0.9668   0.2271 H              1 S1                 0.0000
     36 ****        -1.5062  -0.7224  -1.4874 H              1 S1                 0.0000
     37 ****         0.7817   0.3523  -0.9667 H              1 S1                 0.0000
     38 ****         0.2514  -0.6606   1.6092 H              1 S1                 0.0000
     39 ****         0.4129  -2.5034   0.0746 H              1 S1                 0.0000
     40 ****         0.6299  -2.0681  -1.6045 H              1 S1                 0.0000
     41 ****         2.9569  -1.0108  -2.2781 H              1 S1                 0.0000
     42 ****         6.4356  -2.3136   0.9702 H              1 S1                 0.0000
     43 ****         6.1012  -4.4335   3.7008 H              1 S1                 0.0000
     44 ****         6.0675  -2.8019   4.3868 H              1 S1                 0.0000
     45 ****         7.1412  -3.1736   3.0395 H              1 S1                 0.0000
     46 ****         2.2077  -3.8125   4.2873 H              1 S1                 0.0000
     47 ****         3.6598  -3.1090   4.9971 H              1 S1                 0.0000
     48 ****         3.7059  -4.7401   4.3110 H              1 S1                 0.0000
     49 ****         1.6355  -2.9221   2.1791 H              1 S1                 0.0000
     50 ****        -3.8193   0.5804  -0.7241 H              1 S1                 0.0000
     51 ****        -3.3194   0.4931   0.9529 H              1 S1                 0.0000
     52 ****        -3.1693   2.9334   1.1290 H              1 S1                 0.0000
     53 ****        -4.7613   2.4892   0.5678 H              1 S1                 0.0000
     54 ****        -1.2661   1.5043   0.3542 H              1 S1                 0.0000
     55 ****        -3.9543   2.1248  -2.3995 LP             1 S1                 0.0000
     56 ****        -5.2440   2.6562  -1.5505 LP             1 S1                 0.0000
     57 ****         0.1358   0.8821   1.2400 LP             1 S1                 0.0000
     58 ****         1.5676   0.1026   1.1459 LP             1 S1                 0.0000
     59 ****         5.3343  -1.3025  -1.4809 LP             1 S1                 0.0000
@<TRIPOS>BOND
    1    1    2 1     
    2    1   25 1     
    3    1   26 1     
    4    1   27 1     
    5    2    3 1     
    6    2   28 1     
    7    2   29 1     
    8    3    4 1     
    9    4   24 1     
   10    4    5 1     
   11    4   30 1     
   12    5    6 1     
   13    5   31 1     
   14    5   32 1     
   15    6    7 1     
   16    6   33 1     
   17    6   34 1     
   18    7    8 1     
   19    7   23 1     
   20    7   54 1     
   21    8    9 1     
   22    8   35 1     
   23    8   36 1     
   24    9   10 1     
   25    9   11 1     
   26    9   37 1     
   27   10   38 1     
   28   11   12 1     
   29   11   39 1     
   30   11   40 1     
   31   12   22 1     
   32   12   13 1     
   33   13   14 2     
   34   13   41 1     
   35   14   15 1     
   36   15   22 ar    
   37   15   16 ar    
   38   16   17 ar    
   39   16   42 1     
   40   17   18 1     
   41   17   19 ar    
   42   18   43 1     
   43   18   44 1     
   44   18   45 1     
   45   19   20 1     
   46   19   21 ar    
   47   20   46 1     
   48   20   47 1     
   49   20   48 1     
   50   21   22 ar    
   51   21   49 1     
   52   23   24 1     
   53   23   50 1     
   54   23   51 1     
   55   24   52 1     
   56   24   53 1     
   57    3   55 1     
   58    3   56 1     
   59   10   57 1     
   60   10   58 1     
   61   14   59 1     
@<TRIPOS>SUBSTRUCTURE
      1 S1             1
@<TRIPOS>SET
LONE_PAIRS      STATIC     ATOMS    <user>   **** ""
5 55 56 57 58 59
DONOR_HYDROGENS      STATIC     ATOMS    <user>   **** ""
2 54 38
ATOM$BLUE        STATIC     ATOMS    COLORGROUP SYSTEM
5 55 56 57 58 59
ATOM$RED        STATIC     ATOMS    COLORGROUP SYSTEM
2 54 38
