AV-unprocessed.smi:39|AV-procd|sdf|354|dock3
  -GOLD-   2262016193D 1   1.00000     0.00000
 Structure written by MMmdl.
 32 33  0  0  0  0  0  0  0  0  3 V2000
  146.9274  142.2921  153.7998 C   0  0  0  0  0  0  0  0  0  0  0  0
  147.9440  141.1698  153.9315 C   0  0  0  0  0  0  0  0  0  0  0  0
  149.0119  141.2491  154.7668 C   0  0  0  0  0  0  0  0  0  0  0  0
  149.9572  140.2389  154.9081 N   0  0  0  0  0  0  0  0  0  0  0  0
  151.1508  140.3527  155.8371 C   0  0  2  0  0  0  0  0  0  0  0  0
  150.9229  139.5353  157.1242 C   0  0  0  0  0  0  0  0  0  0  0  0
  151.2237  140.5411  158.2267 C   0  0  1  0  0  0  0  0  0  0  0  0
  152.6519  140.5382  158.5744 N   0  0  0  0  0  0  0  0  0  0  0  0
  153.3438  139.6432  158.0712 N   0  3  0  0  0  0  0  0  0  0  0  0
  153.8894  138.8092  157.5219 N   0  5  0  0  0  0  0  0  0  0  0  0
  150.7976  141.8468  157.5460 C   0  0  1  0  0  0  0  0  0  0  0  0
  151.3315  143.1339  158.1970 C   0  0  0  0  0  0  0  0  0  0  0  0
  150.9923  144.2507  157.4031 O   0  0  0  0  0  0  0  0  0  0  0  0
  151.3250  141.6814  156.2352 O   0  0  0  0  0  0  0  0  0  0  0  0
  149.8307  139.0669  154.1339 C   0  0  0  0  0  0  0  0  0  0  0  0
  150.6392  138.1410  154.1923 O   0  0  0  0  0  0  0  0  0  0  0  0
  148.7339  138.9842  153.2788 N   0  0  0  0  0  0  0  0  0  0  0  0
  147.7551  139.9669  153.1162 C   0  0  0  0  0  0  0  0  0  0  0  0
  146.8291  139.7773  152.3293 O   0  0  0  0  0  0  0  0  0  0  0  0
  152.0149  140.0343  155.2508 H   0  0  0  0  0  0  0  0  0  0  0  0
  150.6083  140.3572  159.1097 H   0  0  0  0  0  0  0  0  0  0  0  0
  149.7068  141.8736  157.5035 H   0  0  0  0  0  0  0  0  0  0  0  0
  148.6401  138.1437  152.7274 H   0  0  0  0  0  0  0  0  0  0  0  0
  147.1620  143.1312  154.4555 H   0  0  0  0  0  0  0  0  0  0  0  0
  145.9297  141.9354  154.0583 H   0  0  0  0  0  0  0  0  0  0  0  0
  146.9033  142.6656  152.7756 H   0  0  0  0  0  0  0  0  0  0  0  0
  149.1159  142.1561  155.3427 H   0  0  0  0  0  0  0  0  0  0  0  0
  149.8809  139.2170  157.1853 H   0  0  0  0  0  0  0  0  0  0  0  0
  151.5571  138.6479  157.1431 H   0  0  0  0  0  0  0  0  0  0  0  0
  150.8738  143.2767  159.1764 H   0  0  0  0  0  0  0  0  0  0  0  0
  152.4108  143.0893  158.3450 H   0  0  0  0  0  0  0  0  0  0  0  0
  150.1922  144.0573  156.9390 H   0  0  0  0  0  0  0  0  0  0  0  0
  1  2  1  0  0  0  0
  1 24  1  0  0  0  0
  1 25  1  0  0  0  0
  1 26  1  0  0  0  0
  2 18  1  0  0  0  0
  2  3  2  0  0  0  0
  3  4  1  0  0  0  0
  3 27  1  0  0  0  0
  4  5  1  0  0  0  0
  4 15  1  0  0  0  0
  5 20  1  0  0  0  0
  5 14  1  0  0  0  0
  5  6  1  0  0  0  0
  6  7  1  0  0  0  0
  6 28  1  0  0  0  0
  6 29  1  0  0  0  0
  7 21  1  0  0  0  0
  7  8  1  0  0  0  0
  7 11  1  0  0  0  0
  8  9  2  0  0  0  0
  9 10  2  0  0  0  0
 11 22  1  0  0  0  0
 11 12  1  0  0  0  0
 11 14  1  0  0  0  0
 12 13  1  0  0  0  0
 12 30  1  0  0  0  0
 12 31  1  0  0  0  0
 13 32  1  0  0  0  0
 15 16  2  0  0  0  0
 15 17  1  0  0  0  0
 17 23  1  0  0  0  0
 17 18  1  0  0  0  0
 18 19  2  0  0  0  0
M  CHG  1   9   1
M  CHG  1  10  -1
M  END
> <s_m_source_file>
AV-unprocessed.smi

> <i_m_source_file_index>
39

> <i_lp_mmshare_version>
43012

> <i_f3d_flags>
0

> <s_epik_input>
Tz1jMVtuSF1jKD1PKW4oW2NIXWMxW0NIM10pW0NASF0yW0NIMl1bQ0BIXShOPVtOK109W04tXSlbQ0BIXShPMilbQ0gyXVtPSF0=

> <s_epik_cmdline>
J2VwaWtfcHl0aG9uJywgJy1waCcsICc3LjAnLCAnLXRuJywgJzgnLCAnLW1hJywgJzIwMCcsICctbWV0YWxfYmluZGluZycsICctaW1hZScsICc8aW5maWxlLm1hZT4nLCAnLW9tYWUnLCAnPG91dGZpbGUubWFlPic=

> <r_lp_tautomer_probability>
0.999537

> <r_epik_Ionization_Penalty>
0.00127512

> <r_epik_Ionization_Penalty_Charging>
0.00127507

> <r_epik_Ionization_Penalty_Neutral>
5.43433e-08

> <r_epik_State_Penalty>
0.000844892

> <r_epik_Charging_Adjusted_Penalty>
0.00211996

> <i_epik_Tot_Q>
0

> <i_epik_Tot_abs_Q>
2

> <r_epik_Metal_State_Penalty>
0.680636

> <b_epik_Metal_Only>
0

> <s_epik_Chemistry_Notes>
This compound contains an acetal/aminal-like group ( X-CH(R)-Y where X, Y are N, S, or O) that may be acid/base labile, releasing an aldehyde.

> <s_lp_Force_Field>
OPLS_2005

> <r_lp_Energy>
25.8418

> <b_lp_Chiralities_Consistent>
1

> <s_lp_Variant>
AV-unprocessed.smi:39-4

> <Gold.Version>
5.8.1

> <Gold.Id.Protein>
6NUR|6NUR_protein|mol2

> <Gold.PLP.Fitness>
38.2504

> <Gold.PLP.PLP>
-31.3659

> <Gold.PLP.part.hbond>
-4.6969

> <Gold.PLP.part.metal>
0.0000

> <Gold.PLP.part.buried>
-1.0510

> <Gold.PLP.part.nonpolar>
-25.1561

> <Gold.PLP.part.repulsive>
1.2593

> <Gold.PLP.ligand.clash>
0.0000

> <Gold.PLP.ligand.torsion>
0.4850

> <Gold.PLP.Chemscore.Hbond>
1.7735

> <Gold.PLP.Chemscore.CHOScore>
0.8280

> <Gold.PLP.Chemscore.Metal>
0.0000

> <Gold.Chemscore.Hbonds>
donor molecule, donor type, donor heavy atom, donor atom, acceptor molecule, acceptor atom, score
      L1  H    13    32       P1  8028  0.88
      L1  H    17    23       P1  7948  0.84
      L1  C     3    27       P1  8028  0.86

> <Gold.PLP.Chemscore.Internal.Correction>
0.0499

> <Gold.Rescore>
     Score         DG    S(hbond)    S(metal)    S(lipo)     H(rot)  DE(clash)    DE(int)     intcor
      7.54      -9.44       1.71        0.00      45.34       2.75       0.72       1.18       ----

> <Gold.Chemscore.Fitness>
7.5395

> <Gold.Chemscore.DG>
-9.4431

> <Gold.Chemscore.ZeroCoef>
-5.4800

> <Gold.Chemscore.Hbond>
1.7079

> <Gold.Chemscore.Metal>
0.0000

> <Gold.Chemscore.Lipo>
45.3391

> <Gold.Chemscore.Internal_Hbond>
0.0000

> <Gold.Chemscore.DEClash>
0.7216

> <Gold.Chemscore.DEInternal>
1.1820

> <Gold.Chemscore.Rot>
2.7524

> <Gold.Chemscore.Internal.Correction>
   9.000000E+99

> <Gold.Chemscore.Hbonds>
donor molecule, donor type, donor heavy atom, donor atom, acceptor molecule, acceptor atom, score
      L1  H    13    32       P1  8028  0.83
      L1  H    17    23       P1  7948  0.82

> <Gold.Chemscore.Hbond.Weighted>
-5.7045

> <Gold.Chemscore.Metal.Weighted>
-0.0000

> <Gold.Chemscore.Lipo.Weighted>
-5.3047

> <Gold.Chemscore.Internal_Hbond.Weighted>
0.0000

> <Gold.Chemscore.DEClash.Weighted>
0.7216

> <Gold.Chemscore.DEInternal.Weighted>
1.1820

> <Gold.Chemscore.Rot.Weighted>
7.0461

> <Gold.Chemscore.Internal.Correction.Weighted>
   9.000000E+99

> <Gold.Protein.RotatedTorsions>
[ 6907 6896 6895 6894 ] final  -91.55 input  -60.11 | X-H torsion
[ 7974 7965 7964 7962 ] final    9.83 input  175.53 | X-H torsion
[ 8008 7997 7996 7995 ] final  161.62 input   59.86 | X-H torsion
[ 10167 10162 10161 10158 ] final  139.40 input  -65.29 | X-H torsion
[ 10718 10713 10712 10709 ] final  -31.34 input   66.30 | X-H torsion
[ 10763 10752 10751 10750 ] final  111.71 input  -60.55 | X-H torsion
[ 11005 11000 10999 10996 ] final  175.60 input  -57.11 | X-H torsion

> <Gold.Protein.ActiveResidues>
 VAL166  LYS551  ARG553  GLY616  TRP617  ASP618  TYR619  PRO620  LYS621  CYS622 
 ASP623  PHE694  ASN695  SER759  ASP760  ASP761  ALA762  ILE779  LEU786  VAL792 
 PHE793  MET794  SER795  GLU796  ALA797  LYS798  CYS799  TRP800  GLU811  SER814 

> <Gold.Protein.RotatedAtoms>
  150.6894  134.2260  159.4415 H   0  0  0  0  0  0  0  0  0  0  0  0  # atno 6907 bound_to 6896
  152.0213  134.9818  160.0580 H   0  0  0  0  0  0  0  0  0  0  0  0  # atno 6908 bound_to 6896
  152.1394  133.4420  159.4796 H   0  0  0  0  0  0  0  0  0  0  0  0  # atno 6909 bound_to 6896
  146.2397  139.9724  142.8445 H   0  0  0  0  0  0  0  0  0  0  0  0  # atno 7974 bound_to 7965
  156.2090  140.1772  156.7737 H   0  0  0  0  0  0  0  0  0  0  0  0  # atno 8008 bound_to 7997
  154.5695  140.0685  156.8973 H   0  0  0  0  0  0  0  0  0  0  0  0  # atno 8009 bound_to 7997
  155.2699  140.3341  155.4268 H   0  0  0  0  0  0  0  0  0  0  0  0  # atno 8010 bound_to 7997
  139.5080  144.6296  151.5850 H   0  0  0  0  0  0  0  0  0  0  0  0  # atno 10167 bound_to 10162
  156.3886  130.4369  149.7413 H   0  0  0  0  0  0  0  0  0  0  0  0  # atno 10718 bound_to 10713
  153.4672  135.3709  155.2371 H   0  0  0  0  0  0  0  0  0  0  0  0  # atno 10763 bound_to 10752
  154.8757  135.3923  154.3854 H   0  0  0  0  0  0  0  0  0  0  0  0  # atno 10764 bound_to 10752
  153.4437  135.7084  153.6217 H   0  0  0  0  0  0  0  0  0  0  0  0  # atno 10765 bound_to 10752
  140.3640  134.7088  157.4349 H   0  0  0  0  0  0  0  0  0  0  0  0  # atno 11005 bound_to 11000
  145.1668  140.9701  143.4345 LP  0  0  0  0  0  0  0  0  0  0  0  0  # atno 17320 bound_to 7965
  145.0065  139.3550  143.6141 LP  0  0  0  0  0  0  0  0  0  0  0  0  # atno 17321 bound_to 7965
  140.6025  143.9584  150.6396 LP  0  0  0  0  0  0  0  0  0  0  0  0  # atno 17342 bound_to 10162
  140.2800  143.3396  152.1159 LP  0  0  0  0  0  0  0  0  0  0  0  0  # atno 17343 bound_to 10162
  156.4475  130.7891  151.2912 LP  0  0  0  0  0  0  0  0  0  0  0  0  # atno 17370 bound_to 10713
  157.7497  131.0106  150.3311 LP  0  0  0  0  0  0  0  0  0  0  0  0  # atno 17371 bound_to 10713
  140.0604  134.6003  155.8755 LP  0  0  0  0  0  0  0  0  0  0  0  0  # atno 17394 bound_to 11000
  141.1975  133.6597  156.5746 LP  0  0  0  0  0  0  0  0  0  0  0  0  # atno 17395 bound_to 11000

$$$$
