#       Name:                AV-unprocessed.smi:249
#       Creating user name   scv26
#       Creation time:       Thu Mar 26 20:57:41 2020


#       File generated by GOLD software.
#

@<TRIPOS>MOLECULE
AV-unprocessed.smi:249
    71    74     1
SMALL
NO_CHARGES


@<TRIPOS>ATOM
      1 ****        -3.4418  -6.4497  -2.0898 C.3            1 S1                 0.0000
      2 ****        -4.0986  -5.1411  -2.5536 C.3            1 S1                 0.0000
      3 ****        -3.4138  -3.9230  -2.0418 N.4            1 S1                 1.0000
      4 ****        -3.8724  -2.6909  -2.7387 C.3            1 S1                 0.0000
      5 ****        -3.0006  -1.4791  -2.3747 C.3            1 S1                 0.0000
      6 ****        -2.9637  -1.2718  -0.8484 C.3            1 S1                 0.0000
      7 ****        -2.2254  -0.0723  -0.4288 N.pl3          1 S1                 0.0000
      8 ****        -2.8469   1.2268  -0.6642 C.3            1 S1                 0.0000
      9 ****        -0.8682  -0.0315  -0.3552 C.ar           1 S1                 0.0000
     10 ****        -0.1112  -0.7764  -1.2029 N.ar           1 S1                 0.0000
     11 ****         1.2227  -0.7204  -1.1484 C.ar           1 S1                 0.0000
     12 ****         1.9942   0.0050  -0.3376 N.ar           1 S1                 0.0000
     13 ****         1.2434   0.7583   0.5151 C.ar           1 S1                 0.0000
     14 ****        -0.1787   0.8009   0.5724 C.ar           1 S1                 0.0000
     15 ****        -0.5846   1.6773   1.5722 N.2            1 S1                 0.0000
     16 ****         0.5319   2.1312   2.0726 C.2            1 S1                 0.0000
     17 ****         1.6774   1.6375   1.4920 N.pl3          1 S1                 0.0000
     18 ****         3.0430   1.9753   1.8542 C.3            1 S1                 0.0000
     19 ****         3.4513   3.4046   1.4194 C.3            1 S1                 0.0000
     20 ****         3.2051   3.6623  -0.0874 C.3            1 S1                 0.0000
     21 ****         4.0046   2.8209  -0.8930 O.3            1 S1                 0.0000
     22 ****         4.9042   3.7386   1.8427 C.3            1 S1                 0.0000
     23 ****         5.1669   3.6629   3.3365 C.3            1 S1                 0.0000
     24 ****         6.4556   4.4648   3.4772 C.3            1 S1                 0.0000
     25 ****         6.3920   5.4710   2.4733 O.3            1 S1                 0.0000
     26 ****         5.3403   5.1800   1.5579 C.3            1 S1                 0.0000
     27 ****        -2.5114  -2.5712  -0.1473 C.3            1 S1                 0.0000
     28 ****        -3.3842  -3.7775  -0.5521 C.3            1 S1                 0.0000
     29 ****        -4.7849  -3.7323   0.0966 C.3            1 S1                 0.0000
     30 ****        -3.8906  -7.3027  -2.5992 H              1 S1                 0.0000
     31 ****        -3.5700  -6.6143  -1.0201 H              1 S1                 0.0000
     32 ****        -2.3743  -6.4581  -2.3111 H              1 S1                 0.0000
     33 ****        -4.0610  -5.1227  -3.6436 H              1 S1                 0.0000
     34 ****        -5.1566  -5.1286  -2.2914 H              1 S1                 0.0000
     35 ****        -3.8252  -2.8424  -3.8178 H              1 S1                 0.0000
     36 ****        -4.9180  -2.4929  -2.5012 H              1 S1                 0.0000
     37 ****        -1.9984  -1.6351  -2.7720 H              1 S1                 0.0000
     38 ****        -3.3917  -0.5897  -2.8694 H              1 S1                 0.0000
     39 ****        -3.9901  -1.0886  -0.5293 H              1 S1                 0.0000
     40 ****        -3.0345   1.7324   0.2828 H              1 S1                 0.0000
     41 ****        -3.8030   1.1215  -1.1771 H              1 S1                 0.0000
     42 ****        -2.2118   1.8678  -1.2772 H              1 S1                 0.0000
     43 ****         1.7473  -1.3439  -1.8573 H              1 S1                 0.0000
     44 ****         0.5517   2.8465   2.8822 H              1 S1                 0.0000
     45 ****         3.1303   1.8628   2.9348 H              1 S1                 0.0000
     46 ****         3.7162   1.2388   1.4140 H              1 S1                 0.0000
     47 ****         2.7976   4.0939   1.9559 H              1 S1                 0.0000
     48 ****         2.1584   3.5040  -0.3468 H              1 S1                 0.0000
     49 ****         3.4221   4.6989  -0.3448 H              1 S1                 0.0000
     50 ****         3.8112   3.0000  -1.8005 H              1 S1                 0.0000
     51 ****         5.5969   3.0612   1.3404 H              1 S1                 0.0000
     52 ****         4.3625   4.1477   3.8918 H              1 S1                 0.0000
     53 ****         5.2714   2.6424   3.7055 H              1 S1                 0.0000
     54 ****         6.5717   4.8975   4.4709 H              1 S1                 0.0000
     55 ****         7.3210   3.8310   3.2795 H              1 S1                 0.0000
     56 ****         5.6692   5.3198   0.5278 H              1 S1                 0.0000
     57 ****         4.5226   5.8769   1.7478 H              1 S1                 0.0000
     58 ****        -1.4779  -2.8063  -0.3986 H              1 S1                 0.0000
     59 ****        -2.5345  -2.4394   0.9352 H              1 S1                 0.0000
     60 ****        -2.8789  -4.6529  -0.1453 H              1 S1                 0.0000
     61 ****        -4.7040  -3.6005   1.1759 H              1 S1                 0.0000
     62 ****        -5.3349  -4.6591  -0.0637 H              1 S1                 0.0000
     63 ****        -5.3949  -2.9135  -0.2831 H              1 S1                 0.0000
     64 ****        -2.4474  -4.0308  -2.3155 H              1 S1                 0.0000
     65 ****        -0.5558  -1.3711  -1.8727 LP             1 S1                 0.0000
     66 ****         2.9941  -0.0027  -0.3531 LP             1 S1                 0.0000
     67 ****        -1.5186   1.9073   1.8455 LP             1 S1                 0.0000
     68 ****         3.8000   1.8639  -0.6874 LP             1 S1                 0.0000
     69 ****         4.9716   3.0012  -0.7126 LP             1 S1                 0.0000
     70 ****         7.2613   5.5020   1.9800 LP             1 S1                 0.0000
     71 ****         6.2210   6.3574   2.9033 LP             1 S1                 0.0000
@<TRIPOS>BOND
    1    1    2 1     
    2    1   30 1     
    3    1   31 1     
    4    1   32 1     
    5    2    3 1     
    6    2   33 1     
    7    2   34 1     
    8    3   28 1     
    9    3    4 1     
   10    3   64 1     
   11    4    5 1     
   12    4   35 1     
   13    4   36 1     
   14    5    6 1     
   15    5   37 1     
   16    5   38 1     
   17    6    7 1     
   18    6   27 1     
   19    6   39 1     
   20    7    8 1     
   21    7    9 1     
   22    8   40 1     
   23    8   41 1     
   24    8   42 1     
   25    9   14 ar    
   26    9   10 ar    
   27   10   11 ar    
   28   11   12 ar    
   29   11   43 1     
   30   12   13 ar    
   31   13   17 1     
   32   13   14 ar    
   33   14   15 1     
   34   15   16 2     
   35   16   17 1     
   36   16   44 1     
   37   17   18 1     
   38   18   19 1     
   39   18   45 1     
   40   18   46 1     
   41   19   20 1     
   42   19   22 1     
   43   19   47 1     
   44   20   21 1     
   45   20   48 1     
   46   20   49 1     
   47   21   50 1     
   48   22   26 1     
   49   22   23 1     
   50   22   51 1     
   51   23   24 1     
   52   23   52 1     
   53   23   53 1     
   54   24   25 1     
   55   24   54 1     
   56   24   55 1     
   57   25   26 1     
   58   26   56 1     
   59   26   57 1     
   60   27   28 1     
   61   27   58 1     
   62   27   59 1     
   63   28   29 1     
   64   28   60 1     
   65   29   61 1     
   66   29   62 1     
   67   29   63 1     
   68   10   65 1     
   69   12   66 1     
   70   15   67 1     
   71   21   68 1     
   72   21   69 1     
   73   25   70 1     
   74   25   71 1     
@<TRIPOS>SUBSTRUCTURE
      1 S1             1
@<TRIPOS>SET
LONE_PAIRS      STATIC     ATOMS    <user>   **** ""
7 65 66 67 68 69 70 71
DONOR_HYDROGENS      STATIC     ATOMS    <user>   **** ""
2 64 50
ATOM$BLUE        STATIC     ATOMS    COLORGROUP SYSTEM
7 65 66 67 68 69 70 71
ATOM$RED        STATIC     ATOMS    COLORGROUP SYSTEM
2 64 50
