AV-unprocessed.smi:801|AV-procd|sdf|3790|dock6
  -GOLD-   22720 1223D 1   1.00000     0.00000
 Structure written by MMmdl.
 43 44  0  0  0  0  0  0  0  0  2 V2000
  144.8305  136.9901  157.1468 C   0  0  0  0  0  0  0  0  0  0  0  0
  146.0983  136.4628  156.7983 O   0  0  0  0  0  0  0  0  0  0  0  0
  146.6952  137.1575  155.7166 C   0  0  0  0  0  0  0  0  0  0  0  0
  148.0486  136.5072  155.3935 C   0  0  0  0  0  0  0  0  0  0  0  0
  149.0361  136.7600  156.4648 N   0  0  0  0  0  0  0  0  0  0  0  0
  149.4849  138.0882  156.6952 C   0  0  0  0  0  0  0  0  0  0  0  0
  149.0193  139.1125  155.8532 N   0  0  0  0  0  0  0  0  0  0  0  0
  149.7913  139.8921  155.0747 C   0  0  0  0  0  0  0  0  0  0  0  0
  149.0713  141.0123  154.3325 C   0  0  0  0  0  0  0  0  0  0  0  0
  151.0081  139.7547  154.9479 O   0  0  0  0  0  0  0  0  0  0  0  0
  150.3934  138.3557  157.6772 C   0  0  0  0  0  0  0  0  0  0  0  0
  150.8866  139.6471  157.8822 N   0  0  0  0  0  0  0  0  0  0  0  0
  151.8414  140.1809  158.8420 C   0  0  0  0  0  0  0  0  0  0  0  0
  152.0142  141.6873  158.7495 C   0  0  0  0  0  0  0  0  0  0  0  0
  152.8496  142.3721  159.6596 C   0  0  0  0  0  0  0  0  0  0  0  0
  153.0009  143.7697  159.5709 C   0  0  0  0  0  0  0  0  0  0  0  0
  152.3150  144.4909  158.5747 C   0  0  0  0  0  0  0  0  0  0  0  0
  151.4755  143.8139  157.6692 C   0  0  0  0  0  0  0  0  0  0  0  0
  151.3237  142.4163  157.7578 C   0  0  0  0  0  0  0  0  0  0  0  0
  150.8684  137.2292  158.5012 C   0  0  0  0  0  0  0  0  0  0  0  0
  151.6538  137.4032  159.4321 O   0  0  0  0  0  0  0  0  0  0  0  0
  150.4133  135.9840  158.2011 N   0  5  0  0  0  0  0  0  0  0  0  0
  149.5268  135.7209  157.2021 C   0  0  0  0  0  0  0  0  0  0  0  0
  149.1602  134.5728  156.9474 O   0  0  0  0  0  0  0  0  0  0  0  0
  144.4138  136.4228  157.9789 H   0  0  0  0  0  0  0  0  0  0  0  0
  144.1323  136.9239  156.3114 H   0  0  0  0  0  0  0  0  0  0  0  0
  144.9087  138.0334  157.4562 H   0  0  0  0  0  0  0  0  0  0  0  0
  146.0421  137.1227  154.8431 H   0  0  0  0  0  0  0  0  0  0  0  0
  146.8336  138.2066  155.9826 H   0  0  0  0  0  0  0  0  0  0  0  0
  147.9168  135.4389  155.2228 H   0  0  0  0  0  0  0  0  0  0  0  0
  148.4063  136.8743  154.4301 H   0  0  0  0  0  0  0  0  0  0  0  0
  148.0518  139.3767  155.9676 H   0  0  0  0  0  0  0  0  0  0  0  0
  148.6707  141.7388  155.0400 H   0  0  0  0  0  0  0  0  0  0  0  0
  148.2464  140.6113  153.7428 H   0  0  0  0  0  0  0  0  0  0  0  0
  149.7526  141.5313  153.6573 H   0  0  0  0  0  0  0  0  0  0  0  0
  150.5080  140.3515  157.2663 H   0  0  0  0  0  0  0  0  0  0  0  0
  151.5145  139.9159  159.8483 H   0  0  0  0  0  0  0  0  0  0  0  0
  152.8151  139.7175  158.6803 H   0  0  0  0  0  0  0  0  0  0  0  0
  153.3767  141.8287  160.4304 H   0  0  0  0  0  0  0  0  0  0  0  0
  153.6420  144.2887  160.2682 H   0  0  0  0  0  0  0  0  0  0  0  0
  152.4305  145.5625  158.5066 H   0  0  0  0  0  0  0  0  0  0  0  0
  150.9474  144.3669  156.9065 H   0  0  0  0  0  0  0  0  0  0  0  0
  150.6762  141.9061  157.0597 H   0  0  0  0  0  0  0  0  0  0  0  0
  1  2  1  0  0  0  0
  1 25  1  0  0  0  0
  1 26  1  0  0  0  0
  1 27  1  0  0  0  0
  2  3  1  0  0  0  0
  3  4  1  0  0  0  0
  3 28  1  0  0  0  0
  3 29  1  0  0  0  0
  4  5  1  0  0  0  0
  4 30  1  0  0  0  0
  4 31  1  0  0  0  0
  5 23  1  0  0  0  0
  5  6  1  0  0  0  0
  6  7  1  0  0  0  0
  6 11  2  0  0  0  0
  7  8  1  0  0  0  0
  7 32  1  0  0  0  0
  8  9  1  0  0  0  0
  8 10  2  0  0  0  0
  9 33  1  0  0  0  0
  9 34  1  0  0  0  0
  9 35  1  0  0  0  0
 11 12  1  0  0  0  0
 11 20  1  0  0  0  0
 12 13  1  0  0  0  0
 12 36  1  0  0  0  0
 13 14  1  0  0  0  0
 13 37  1  0  0  0  0
 13 38  1  0  0  0  0
 14 19  1  0  0  0  0
 14 15  2  0  0  0  0
 15 16  1  0  0  0  0
 15 39  1  0  0  0  0
 16 17  2  0  0  0  0
 16 40  1  0  0  0  0
 17 18  1  0  0  0  0
 17 41  1  0  0  0  0
 18 19  2  0  0  0  0
 18 42  1  0  0  0  0
 19 43  1  0  0  0  0
 20 21  2  0  0  0  0
 20 22  1  0  0  0  0
 22 23  1  0  0  0  0
 23 24  2  0  0  0  0
M  CHG  1  22  -1
M  END
> <s_m_source_file>
AV-unprocessed.smi

> <i_m_source_file_index>
801

> <i_lp_mmshare_version>
43012

> <i_f3d_flags>
0

> <s_epik_input>
W0NIM11PW0NIMl1bQ0gyXW4xYyhbTkhdQyg9TylbQ0gzXSljKGMoPU8pW25IXWMxPU8pW05IXVtDSDJdYzJbY0hdW2NIXVtjSF1bY0hdW2NIXTI=

> <s_epik_cmdline>
J2VwaWtfcHl0aG9uJywgJy1waCcsICc3LjAnLCAnLXRuJywgJzgnLCAnLW1hJywgJzIwMCcsICctbWV0YWxfYmluZGluZycsICctaW1hZScsICc8aW5maWxlLm1hZT4nLCAnLW9tYWUnLCAnPG91dGZpbGUubWFlPic=

> <r_lp_tautomer_probability>
0.999901

> <r_epik_Ionization_Penalty>
3.93073

> <r_epik_Ionization_Penalty_Charging>
1.379e-07

> <r_epik_Ionization_Penalty_Neutral>
3.93073

> <r_epik_State_Penalty>
3.9304

> <r_epik_Charging_Adjusted_Penalty>
3.9304

> <i_epik_Tot_Q>
-1

> <i_epik_Tot_abs_Q>
1

> <r_epik_Metal_State_Penalty>
0.600886

> <b_epik_Metal_Only>
1

> <s_lp_Force_Field>
OPLS_2005

> <r_lp_Energy>
31.5589

> <b_lp_Chiralities_Consistent>
1

> <s_lp_Variant>
AV-unprocessed.smi:801-2

> <Gold.Version>
5.8.1

> <Gold.Id.Protein>
6NUR|6NUR_protein|mol2

> <Gold.PLP.Fitness>
43.2993

> <Gold.PLP.PLP>
-34.4172

> <Gold.PLP.part.hbond>
-2.0000

> <Gold.PLP.part.metal>
0.0000

> <Gold.PLP.part.buried>
-4.4948

> <Gold.PLP.part.nonpolar>
-27.8796

> <Gold.PLP.part.repulsive>
0.1457

> <Gold.PLP.ligand.clash>
0.0000

> <Gold.PLP.ligand.torsion>
0.6229

> <Gold.PLP.Chemscore.Hbond>
3.0000

> <Gold.PLP.Chemscore.CHOScore>
0.0000

> <Gold.PLP.Chemscore.Metal>
0.0000

> <Gold.Chemscore.Hbonds>
donor molecule, donor type, donor heavy atom, donor atom, acceptor molecule, acceptor atom, score
      P1  H  6896  6907       L1    22  1.60
      P1  H  7989  7998       L1    10  1.00

> <Gold.PLP.Chemscore.Internal.Correction>
1.1278

> <Gold.Rescore>
     Score         DG    S(hbond)    S(metal)    S(lipo)     H(rot)  DE(clash)    DE(int)     intcor
     14.36     -16.45       1.74        0.00      87.42       1.98       0.00       2.10       ----

> <Gold.Chemscore.Fitness>
14.3568

> <Gold.Chemscore.DG>
-16.4539

> <Gold.Chemscore.ZeroCoef>
-5.4800

> <Gold.Chemscore.Hbond>
1.7428

> <Gold.Chemscore.Metal>
0.0000

> <Gold.Chemscore.Lipo>
87.4184

> <Gold.Chemscore.Internal_Hbond>
0.0000

> <Gold.Chemscore.DEClash>
0.0015

> <Gold.Chemscore.DEInternal>
2.0956

> <Gold.Chemscore.Rot>
1.9824

> <Gold.Chemscore.Internal.Correction>
   9.000000E+99

> <Gold.Chemscore.Hbonds>
donor molecule, donor type, donor heavy atom, donor atom, acceptor molecule, acceptor atom, score
      P1  H  6896  6907       L1    22  0.56
      P1  H  7989  7998       L1    10  0.74

> <Gold.Chemscore.Hbond.Weighted>
-5.8209

> <Gold.Chemscore.Metal.Weighted>
-0.0000

> <Gold.Chemscore.Lipo.Weighted>
-10.2280

> <Gold.Chemscore.Internal_Hbond.Weighted>
0.0000

> <Gold.Chemscore.DEClash.Weighted>
0.0015

> <Gold.Chemscore.DEInternal.Weighted>
2.0956

> <Gold.Chemscore.Rot.Weighted>
5.0749

> <Gold.Chemscore.Internal.Correction.Weighted>
   9.000000E+99

> <Gold.Protein.RotatedTorsions>
[ 6907 6896 6895 6894 ] final  -52.82 input  -60.11 | X-H torsion
[ 7974 7965 7964 7962 ] final  124.09 input  175.53 | X-H torsion
[ 8008 7997 7996 7995 ] final  110.17 input   59.86 | X-H torsion
[ 10167 10162 10161 10158 ] final -114.02 input  -65.29 | X-H torsion
[ 10718 10713 10712 10709 ] final   79.69 input   66.30 | X-H torsion
[ 10763 10752 10751 10750 ] final   18.76 input  -60.55 | X-H torsion
[ 11005 11000 10999 10996 ] final  -61.88 input  -57.11 | X-H torsion

> <Gold.Protein.ActiveResidues>
 VAL166  LYS551  ARG553  GLY616  TRP617  ASP618  TYR619  PRO620  LYS621  CYS622 
 ASP623  PHE694  ASN695  SER759  ASP760  ASP761  ALA762  ILE779  LEU786  VAL792 
 PHE793  MET794  SER795  GLU796  ALA797  LYS798  CYS799  TRP800  GLU811  SER814 

> <Gold.Protein.RotatedAtoms>
  150.8483  134.7799  159.6987 H   0  0  0  0  0  0  0  0  0  0  0  0  # atno 6907 bound_to 6896
  152.4554  134.5299  159.9818 H   0  0  0  0  0  0  0  0  0  0  0  0  # atno 6908 bound_to 6896
  151.5425  133.3392  159.2974 H   0  0  0  0  0  0  0  0  0  0  0  0  # atno 6909 bound_to 6896
  145.0884  139.3605  143.4873 H   0  0  0  0  0  0  0  0  0  0  0  0  # atno 7974 bound_to 7965
  156.2033  140.3044  155.9573 H   0  0  0  0  0  0  0  0  0  0  0  0  # atno 8008 bound_to 7997
  155.2902  140.0441  157.3039 H   0  0  0  0  0  0  0  0  0  0  0  0  # atno 8009 bound_to 7997
  154.5599  140.2317  155.8360 H   0  0  0  0  0  0  0  0  0  0  0  0  # atno 8010 bound_to 7997
  140.1055  143.4575  152.1786 H   0  0  0  0  0  0  0  0  0  0  0  0  # atno 10167 bound_to 10162
  157.6784  130.9925  150.1969 H   0  0  0  0  0  0  0  0  0  0  0  0  # atno 10718 bound_to 10713
  153.1221  135.6721  153.9319 H   0  0  0  0  0  0  0  0  0  0  0  0  # atno 10763 bound_to 10752
  153.8831  135.3056  155.3447 H   0  0  0  0  0  0  0  0  0  0  0  0  # atno 10764 bound_to 10752
  154.7631  135.4978  153.9581 H   0  0  0  0  0  0  0  0  0  0  0  0  # atno 10765 bound_to 10752
  141.1340  133.6634  156.5443 H   0  0  0  0  0  0  0  0  0  0  0  0  # atno 11005 bound_to 11000
  146.3531  140.0706  142.8623 LP  0  0  0  0  0  0  0  0  0  0  0  0  # atno 17320 bound_to 7965
  145.1095  140.9396  143.4665 LP  0  0  0  0  0  0  0  0  0  0  0  0  # atno 17321 bound_to 7965
  139.5648  144.7428  151.4053 LP  0  0  0  0  0  0  0  0  0  0  0  0  # atno 17342 bound_to 10162
  140.6955  143.7760  150.7319 LP  0  0  0  0  0  0  0  0  0  0  0  0  # atno 17343 bound_to 10162
  156.2668  130.3717  149.8073 LP  0  0  0  0  0  0  0  0  0  0  0  0  # atno 17370 bound_to 10713
  156.5801  130.8462  151.3380 LP  0  0  0  0  0  0  0  0  0  0  0  0  # atno 17371 bound_to 10713
  140.4114  134.7268  157.4838 LP  0  0  0  0  0  0  0  0  0  0  0  0  # atno 17394 bound_to 11000
  140.0424  134.6248  155.8963 LP  0  0  0  0  0  0  0  0  0  0  0  0  # atno 17395 bound_to 11000

$$$$
