AV-unprocessed.smi:2971|AV-procd|sdf|11332|dock8
  -GOLD-   2272016243D 1   1.00000     0.00000
 Structure written by MMmdl.
 36 38  0  0  0  0  0  0  0  0  1 V2000
  152.6208  139.4878  155.6926 O   0  0  0  0  0  0  0  0  0  0  0  0
  151.4017  140.0902  155.3032 C   0  0  2  0  0  0  0  0  0  0  0  0
  151.1803  141.3429  156.1656 C   0  0  0  0  0  0  0  0  0  0  0  0
  151.6690  141.0917  157.4767 O   0  0  0  0  0  0  0  0  0  0  0  0
  151.8437  142.1632  158.3273 C   0  0  0  0  0  0  0  0  0  0  0  0
  151.3881  143.4783  158.0533 C   0  0  0  0  0  0  0  0  0  0  0  0
  151.6082  144.5173  158.9786 C   0  0  0  0  0  0  0  0  0  0  0  0
  152.2847  144.2586  160.1847 C   0  0  0  0  0  0  0  0  0  0  0  0
  152.7415  142.9577  160.4650 C   0  0  0  0  0  0  0  0  0  0  0  0
  152.5207  141.9175  159.5412 C   0  0  0  0  0  0  0  0  0  0  0  0
  152.9641  140.6693  159.8245 F   0  0  0  0  0  0  0  0  0  0  0  0
  150.2612  139.0677  155.4740 C   0  0  0  0  0  0  0  0  0  0  0  0
  149.0092  139.5258  154.8977 N   0  0  0  0  0  0  0  0  0  0  0  0
  148.4763  139.1498  153.7194 C   0  0  0  0  0  0  0  0  0  0  0  0
  147.3148  139.6969  153.3726 N   0  0  0  0  0  0  0  0  0  0  0  0
  147.0631  140.5250  154.4533 C   0  0  0  0  0  0  0  0  0  0  0  0
  145.9785  141.3942  154.7093 C   0  0  0  0  0  0  0  0  0  0  0  0
  145.9352  142.1520  155.8982 C   0  0  0  0  0  0  0  0  0  0  0  0
  146.9723  142.0515  156.8484 C   0  0  0  0  0  0  0  0  0  0  0  0
  148.0633  141.1924  156.6153 C   0  0  0  0  0  0  0  0  0  0  0  0
  148.1042  140.4401  155.4267 C   0  0  0  0  0  0  0  0  0  0  0  0
  152.7423  138.7023  155.1809 H   0  0  0  0  0  0  0  0  0  0  0  0
  151.4670  140.3760  154.2523 H   0  0  0  0  0  0  0  0  0  0  0  0
  151.7461  142.1750  155.7430 H   0  0  0  0  0  0  0  0  0  0  0  0
  150.1260  141.6262  156.1736 H   0  0  0  0  0  0  0  0  0  0  0  0
  150.8664  143.7177  157.1395 H   0  0  0  0  0  0  0  0  0  0  0  0
  151.2568  145.5153  158.7612 H   0  0  0  0  0  0  0  0  0  0  0  0
  152.4531  145.0562  160.8934 H   0  0  0  0  0  0  0  0  0  0  0  0
  153.2618  142.7564  161.3897 H   0  0  0  0  0  0  0  0  0  0  0  0
  150.5299  138.1136  155.0183 H   0  0  0  0  0  0  0  0  0  0  0  0
  150.0908  138.8677  156.5327 H   0  0  0  0  0  0  0  0  0  0  0  0
  148.9707  138.4338  153.0791 H   0  0  0  0  0  0  0  0  0  0  0  0
  145.1779  141.4780  153.9893 H   0  0  0  0  0  0  0  0  0  0  0  0
  145.1014  142.8132  156.0826 H   0  0  0  0  0  0  0  0  0  0  0  0
  146.9291  142.6339  157.7571 H   0  0  0  0  0  0  0  0  0  0  0  0
  148.8579  141.1098  157.3419 H   0  0  0  0  0  0  0  0  0  0  0  0
  1  2  1  0  0  0  0
  1 22  1  0  0  0  0
  2  3  1  0  0  0  0
  2 12  1  0  0  0  0
  2 23  1  0  0  0  0
  3  4  1  0  0  0  0
  3 24  1  0  0  0  0
  3 25  1  0  0  0  0
  4  5  1  0  0  0  0
  5 10  1  0  0  0  0
  5  6  2  0  0  0  0
  6  7  1  0  0  0  0
  6 26  1  0  0  0  0
  7  8  2  0  0  0  0
  7 27  1  0  0  0  0
  8  9  1  0  0  0  0
  8 28  1  0  0  0  0
  9 10  2  0  0  0  0
  9 29  1  0  0  0  0
 10 11  1  0  0  0  0
 12 13  1  0  0  0  0
 12 30  1  0  0  0  0
 12 31  1  0  0  0  0
 13 21  1  0  0  0  0
 13 14  1  0  0  0  0
 14 15  2  0  0  0  0
 14 32  1  0  0  0  0
 15 16  1  0  0  0  0
 16 21  2  0  0  0  0
 16 17  1  0  0  0  0
 17 18  2  0  0  0  0
 17 33  1  0  0  0  0
 18 19  1  0  0  0  0
 18 34  1  0  0  0  0
 19 20  2  0  0  0  0
 19 35  1  0  0  0  0
 20 21  1  0  0  0  0
 20 36  1  0  0  0  0
M  END
> <s_m_source_file>
AV-unprocessed.smi

> <i_m_source_file_index>
2971

> <i_lp_mmshare_version>
43012

> <i_f3d_flags>
0

> <s_epik_input>
W2NIXTFbY0hdW2NIXVtjSF1jKGMxMiluKFtjSF1uMilbQ0gyXVtDQEhdKFtPSF0pW0NIMl1PYzNbY0hdW2NIXVtjSF1bY0hdYzNG

> <s_epik_cmdline>
J2VwaWtfcHl0aG9uJywgJy1waCcsICc3LjAnLCAnLXRuJywgJzgnLCAnLW1hJywgJzIwMCcsICctbWV0YWxfYmluZGluZycsICctaW1hZScsICc8aW5maWxlLm1hZT4nLCAnLW9tYWUnLCAnPG91dGZpbGUubWFlPic=

> <r_lp_tautomer_probability>
1

> <r_epik_Ionization_Penalty>
0.0600913

> <r_epik_Ionization_Penalty_Charging>
0

> <r_epik_Ionization_Penalty_Neutral>
0.0600913

> <r_epik_State_Penalty>
0.0520726

> <r_epik_Charging_Adjusted_Penalty>
0.0520726

> <i_epik_Tot_Q>
0

> <i_epik_Tot_abs_Q>
0

> <r_epik_Metal_State_Penalty>
5.44269e-05

> <b_epik_Metal_Only>
0

> <s_lp_Force_Field>
OPLS_2005

> <r_lp_Energy>
16.3694

> <b_lp_Chiralities_Consistent>
1

> <s_lp_Variant>
AV-unprocessed.smi:2971-1

> <Gold.Version>
5.8.1

> <Gold.Id.Protein>
6NUR|6NUR_protein|mol2

> <Gold.PLP.Fitness>
44.0005

> <Gold.PLP.PLP>
-38.3562

> <Gold.PLP.part.hbond>
-1.0000

> <Gold.PLP.part.metal>
0.0000

> <Gold.PLP.part.buried>
-1.8235

> <Gold.PLP.part.nonpolar>
-34.7164

> <Gold.PLP.part.repulsive>
0.3700

> <Gold.PLP.ligand.clash>
0.0000

> <Gold.PLP.ligand.torsion>
0.6920

> <Gold.PLP.Chemscore.Hbond>
1.0000

> <Gold.PLP.Chemscore.CHOScore>
1.3153

> <Gold.PLP.Chemscore.Metal>
0.0000

> <Gold.Chemscore.Hbonds>
donor molecule, donor type, donor heavy atom, donor atom, acceptor molecule, acceptor atom, score
      P1  H  7997  8009       L1     1  1.00
      L1  C    14    32       P1  7948  1.00
      L1  C    14    32       P1  7957  0.34

> <Gold.PLP.Chemscore.Internal.Correction>
0.0823

> <Gold.Rescore>
     Score         DG    S(hbond)    S(metal)    S(lipo)     H(rot)  DE(clash)    DE(int)     intcor
     14.89     -15.56       0.97        0.00     110.31       2.37       0.03       0.64       ----

> <Gold.Chemscore.Fitness>
14.8948

> <Gold.Chemscore.DG>
-15.5618

> <Gold.Chemscore.ZeroCoef>
-5.4800

> <Gold.Chemscore.Hbond>
0.9735

> <Gold.Chemscore.Metal>
0.0000

> <Gold.Chemscore.Lipo>
110.3114

> <Gold.Chemscore.Internal_Hbond>
0.0000

> <Gold.Chemscore.DEClash>
0.0276

> <Gold.Chemscore.DEInternal>
0.6394

> <Gold.Chemscore.Rot>
2.3735

> <Gold.Chemscore.Internal.Correction>
   9.000000E+99

> <Gold.Chemscore.Hbonds>
donor molecule, donor type, donor heavy atom, donor atom, acceptor molecule, acceptor atom, score
      P1  H  7997  8009       L1     1  0.65

> <Gold.Chemscore.Hbond.Weighted>
-3.2516

> <Gold.Chemscore.Metal.Weighted>
-0.0000

> <Gold.Chemscore.Lipo.Weighted>
-12.9064

> <Gold.Chemscore.Internal_Hbond.Weighted>
0.0000

> <Gold.Chemscore.DEClash.Weighted>
0.0276

> <Gold.Chemscore.DEInternal.Weighted>
0.6394

> <Gold.Chemscore.Rot.Weighted>
6.0762

> <Gold.Chemscore.Internal.Correction.Weighted>
   9.000000E+99

> <Gold.Protein.RotatedTorsions>
[ 6907 6896 6895 6894 ] final   33.61 input  -60.11 | X-H torsion
[ 7974 7965 7964 7962 ] final   23.59 input  175.53 | X-H torsion
[ 8008 7997 7996 7995 ] final -154.67 input   59.86 | X-H torsion
[ 10167 10162 10161 10158 ] final  -21.17 input  -65.29 | X-H torsion
[ 10718 10713 10712 10709 ] final -122.43 input   66.30 | X-H torsion
[ 10763 10752 10751 10750 ] final    9.12 input  -60.55 | X-H torsion
[ 11005 11000 10999 10996 ] final  148.70 input  -57.11 | X-H torsion

> <Gold.Protein.ActiveResidues>
 VAL166  LYS551  ARG553  GLY616  TRP617  ASP618  TYR619  PRO620  LYS621  CYS622 
 ASP623  PHE694  ASN695  SER759  ASP760  ASP761  ALA762  ILE779  LEU786  VAL792 
 PHE793  MET794  SER795  GLU796  ALA797  LYS798  CYS799  TRP800  GLU811  SER814 

> <Gold.Protein.RotatedAtoms>
  152.0909  134.9407  160.0571 H   0  0  0  0  0  0  0  0  0  0  0  0  # atno 6907 bound_to 6896
  152.0659  133.4079  159.4446 H   0  0  0  0  0  0  0  0  0  0  0  0  # atno 6908 bound_to 6896
  150.6837  134.3067  159.4772 H   0  0  0  0  0  0  0  0  0  0  0  0  # atno 6909 bound_to 6896
  146.1977  139.7723  142.8785 H   0  0  0  0  0  0  0  0  0  0  0  0  # atno 7974 bound_to 7965
  155.6899  140.0754  157.2452 H   0  0  0  0  0  0  0  0  0  0  0  0  # atno 8008 bound_to 7997
  154.4090  140.1666  156.2127 H   0  0  0  0  0  0  0  0  0  0  0  0  # atno 8009 bound_to 7997
  155.9461  140.3381  155.6371 H   0  0  0  0  0  0  0  0  0  0  0  0  # atno 8010 bound_to 7997
  140.7280  143.4653  151.0322 H   0  0  0  0  0  0  0  0  0  0  0  0  # atno 10167 bound_to 10162
  156.1418  130.6471  150.9783 H   0  0  0  0  0  0  0  0  0  0  0  0  # atno 10718 bound_to 10713
  153.2175  135.6877  153.8040 H   0  0  0  0  0  0  0  0  0  0  0  0  # atno 10763 bound_to 10752
  153.7251  135.3261  155.3275 H   0  0  0  0  0  0  0  0  0  0  0  0  # atno 10764 bound_to 10752
  154.8253  135.4622  154.1008 H   0  0  0  0  0  0  0  0  0  0  0  0  # atno 10765 bound_to 10752
  140.0982  134.9000  157.1755 H   0  0  0  0  0  0  0  0  0  0  0  0  # atno 11005 bound_to 11000
  145.3588  141.0322  143.3296 LP  0  0  0  0  0  0  0  0  0  0  0  0  # atno 17320 bound_to 7965
  144.8616  139.5169  143.6810 LP  0  0  0  0  0  0  0  0  0  0  0  0  # atno 17321 bound_to 7965
  139.8341  143.7652  152.3180 LP  0  0  0  0  0  0  0  0  0  0  0  0  # atno 17342 bound_to 10162
  139.7778  144.7455  151.0132 LP  0  0  0  0  0  0  0  0  0  0  0  0  # atno 17343 bound_to 10162
  157.6582  131.0885  150.7898 LP  0  0  0  0  0  0  0  0  0  0  0  0  # atno 17370 bound_to 10713
  156.7973  130.4909  149.5375 LP  0  0  0  0  0  0  0  0  0  0  0  0  # atno 17371 bound_to 10713
  140.3257  134.2866  155.7237 LP  0  0  0  0  0  0  0  0  0  0  0  0  # atno 17394 bound_to 11000
  141.2098  133.7738  156.9973 LP  0  0  0  0  0  0  0  0  0  0  0  0  # atno 17395 bound_to 11000

$$$$
