AV-unprocessed.smi:2087|AV-procd|sdf|8524|dock1
  -GOLD-   2272011243D 1   1.00000     0.00000
 Structure written by MMmdl.
 50 51  0  0  0  0  0  0  0  0  1 V2000
  151.9394  143.6118  158.5194 C   0  0  0  0  0  0  0  0  0  0  0  0
  151.2100  142.3303  158.0906 C   0  0  0  0  0  0  0  0  0  0  0  0
  151.9604  141.0889  158.6003 C   0  0  0  0  0  0  0  0  0  0  0  0
  151.0279  142.3018  156.5577 C   0  0  0  0  0  0  0  0  0  0  0  0
  150.2014  141.2133  156.0334 N   0  0  0  0  0  0  0  0  0  0  0  0
  149.3934  141.6163  154.8845 C   0  0  0  0  0  0  0  0  0  0  0  0
  148.5469  140.4514  154.3432 C   0  0  0  0  0  0  0  0  0  0  0  0
  149.3903  139.3527  154.0145 O   0  0  0  0  0  0  0  0  0  0  0  0
  150.1735  138.8992  155.1161 C   0  0  1  0  0  0  0  0  0  0  0  0
  151.0069  137.6778  154.6820 C   0  0  0  0  0  0  0  0  0  0  0  0
  150.1830  136.5089  154.3856 N   0  0  0  0  0  0  0  0  0  0  0  0
  149.8605  135.5462  155.2625 C   0  0  0  0  0  0  0  0  0  0  0  0
  150.2370  135.5464  156.4355 O   0  0  0  0  0  0  0  0  0  0  0  0
  148.9545  134.4277  154.7296 C   0  0  0  0  0  0  0  0  0  0  0  0
  149.5731  133.0982  154.8117 N   0  0  0  0  0  0  0  0  0  0  0  0
  150.6509  132.8944  155.6539 C   0  0  0  0  0  0  0  0  0  0  0  0
  151.2839  131.7075  155.7795 C   0  0  0  0  0  0  0  0  0  0  0  0
  150.8542  130.5433  155.0136 C   0  0  0  0  0  0  0  0  0  0  0  0
  151.4035  129.4447  155.1015 O   0  0  0  0  0  0  0  0  0  0  0  0
  149.7502  130.7808  154.1587 N   0  0  0  0  0  0  0  0  0  0  0  0
  149.2367  129.6969  153.3470 C   0  0  0  0  0  0  0  0  0  0  0  0
  149.0941  132.0246  154.0311 C   0  0  0  0  0  0  0  0  0  0  0  0
  148.1370  132.1777  153.2677 O   0  0  0  0  0  0  0  0  0  0  0  0
  151.0240  140.0707  155.6524 C   0  0  0  0  0  0  0  0  0  0  0  0
  152.9404  143.6615  158.0894 H   0  0  0  0  0  0  0  0  0  0  0  0
  152.0406  143.6628  159.6039 H   0  0  0  0  0  0  0  0  0  0  0  0
  151.3948  144.5007  158.1993 H   0  0  0  0  0  0  0  0  0  0  0  0
  150.2316  142.3545  158.5693 H   0  0  0  0  0  0  0  0  0  0  0  0
  152.9510  141.0128  158.1513 H   0  0  0  0  0  0  0  0  0  0  0  0
  151.4175  140.1729  158.3658 H   0  0  0  0  0  0  0  0  0  0  0  0
  152.0866  141.1228  159.6827 H   0  0  0  0  0  0  0  0  0  0  0  0
  150.6149  143.2559  156.2264 H   0  0  0  0  0  0  0  0  0  0  0  0
  152.0202  142.2390  156.1085 H   0  0  0  0  0  0  0  0  0  0  0  0
  148.7233  142.4307  155.1560 H   0  0  0  0  0  0  0  0  0  0  0  0
  150.0399  141.9931  154.0904 H   0  0  0  0  0  0  0  0  0  0  0  0
  147.8050  140.1399  155.0799 H   0  0  0  0  0  0  0  0  0  0  0  0
  148.0023  140.7609  153.4510 H   0  0  0  0  0  0  0  0  0  0  0  0
  149.4907  138.5720  155.9023 H   0  0  0  0  0  0  0  0  0  0  0  0
  151.5637  137.9243  153.7779 H   0  0  0  0  0  0  0  0  0  0  0  0
  151.7545  137.4415  155.4411 H   0  0  0  0  0  0  0  0  0  0  0  0
  149.8267  136.4301  153.4441 H   0  0  0  0  0  0  0  0  0  0  0  0
  148.0267  134.4407  155.3033 H   0  0  0  0  0  0  0  0  0  0  0  0
  148.6662  134.6447  153.6994 H   0  0  0  0  0  0  0  0  0  0  0  0
  151.0102  133.7274  156.2407 H   0  0  0  0  0  0  0  0  0  0  0  0
  152.1214  131.6184  156.4558 H   0  0  0  0  0  0  0  0  0  0  0  0
  148.1943  129.5452  153.6335 H   0  0  0  0  0  0  0  0  0  0  0  0
  149.7998  128.7781  153.5061 H   0  0  0  0  0  0  0  0  0  0  0  0
  149.3222  130.0064  152.3038 H   0  0  0  0  0  0  0  0  0  0  0  0
  151.7470  140.3802  154.8962 H   0  0  0  0  0  0  0  0  0  0  0  0
  151.6010  139.7298  156.5130 H   0  0  0  0  0  0  0  0  0  0  0  0
  1  2  1  0  0  0  0
  1 25  1  0  0  0  0
  1 26  1  0  0  0  0
  1 27  1  0  0  0  0
  2  3  1  0  0  0  0
  2  4  1  0  0  0  0
  2 28  1  0  0  0  0
  3 29  1  0  0  0  0
  3 30  1  0  0  0  0
  3 31  1  0  0  0  0
  4  5  1  0  0  0  0
  4 32  1  0  0  0  0
  4 33  1  0  0  0  0
  5 24  1  0  0  0  0
  5  6  1  0  0  0  0
  6  7  1  0  0  0  0
  6 34  1  0  0  0  0
  6 35  1  0  0  0  0
  7  8  1  0  0  0  0
  7 36  1  0  0  0  0
  7 37  1  0  0  0  0
  8  9  1  0  0  0  0
  9 10  1  0  0  0  0
  9 24  1  0  0  0  0
  9 38  1  0  0  0  0
 10 11  1  0  0  0  0
 10 39  1  0  0  0  0
 10 40  1  0  0  0  0
 11 12  1  0  0  0  0
 11 41  1  0  0  0  0
 12 13  2  0  0  0  0
 12 14  1  0  0  0  0
 14 15  1  0  0  0  0
 14 42  1  0  0  0  0
 14 43  1  0  0  0  0
 15 22  1  0  0  0  0
 15 16  1  0  0  0  0
 16 17  2  0  0  0  0
 16 44  1  0  0  0  0
 17 18  1  0  0  0  0
 17 45  1  0  0  0  0
 18 19  2  0  0  0  0
 18 20  1  0  0  0  0
 20 21  1  0  0  0  0
 20 22  1  0  0  0  0
 21 46  1  0  0  0  0
 21 47  1  0  0  0  0
 21 48  1  0  0  0  0
 22 23  2  0  0  0  0
 24 49  1  0  0  0  0
 24 50  1  0  0  0  0
M  END
> <s_m_source_file>
AV-unprocessed.smi

> <i_m_source_file_index>
2087

> <i_lp_mmshare_version>
43012

> <i_f3d_flags>
0

> <s_epik_input>
W0NIM11bQ0hdKFtDSDNdKVtDSDJdTjFbQ0gyXVtDSDJdT1tDQEhdKFtDSDJdMSlbQ0gyXVtOSF1DKD1PKVtDSDJdbjJbY0hdW2NIXWMoPU8pbihbQ0gzXSljMj1P

> <s_epik_cmdline>
J2VwaWtfcHl0aG9uJywgJy1waCcsICc3LjAnLCAnLXRuJywgJzgnLCAnLW1hJywgJzIwMCcsICctbWV0YWxfYmluZGluZycsICctaW1hZScsICc8aW5maWxlLm1hZT4nLCAnLW9tYWUnLCAnPG91dGZpbGUubWFlPic=

> <r_lp_tautomer_probability>
1

> <r_epik_Ionization_Penalty>
1.11669

> <r_epik_Ionization_Penalty_Charging>
1.16423e-08

> <r_epik_Ionization_Penalty_Neutral>
1.11669

> <r_epik_State_Penalty>
1.17516

> <r_epik_Charging_Adjusted_Penalty>
1.17516

> <i_epik_Tot_Q>
0

> <i_epik_Tot_abs_Q>
0

> <r_epik_Metal_State_Penalty>
1.17513

> <b_epik_Metal_Only>
0

> <s_lp_Force_Field>
OPLS_2005

> <r_lp_Energy>
34.2639

> <b_lp_Chiralities_Consistent>
1

> <s_lp_Variant>
AV-unprocessed.smi:2087-5

> <Gold.Version>
5.8.1

> <Gold.Id.Protein>
6NUR|6NUR_protein|mol2

> <Gold.PLP.Fitness>
44.9370

> <Gold.PLP.PLP>
-43.7011

> <Gold.PLP.part.hbond>
-1.6875

> <Gold.PLP.part.metal>
0.0000

> <Gold.PLP.part.buried>
-7.1859

> <Gold.PLP.part.nonpolar>
-36.7994

> <Gold.PLP.part.repulsive>
1.5444

> <Gold.PLP.ligand.clash>
0.0000

> <Gold.PLP.ligand.torsion>
0.9604

> <Gold.PLP.Chemscore.Hbond>
1.0000

> <Gold.PLP.Chemscore.CHOScore>
0.0000

> <Gold.PLP.Chemscore.Metal>
0.0000

> <Gold.Chemscore.Hbonds>
donor molecule, donor type, donor heavy atom, donor atom, acceptor molecule, acceptor atom, score
      L1  H    11    41       P1  7948  0.95

> <Gold.PLP.Chemscore.Internal.Correction>
0.1566

> <Gold.Rescore>
     Score         DG    S(hbond)    S(metal)    S(lipo)     H(rot)  DE(clash)    DE(int)     intcor
     11.26     -13.53       0.89        0.00      90.62       2.16       0.06       2.21       ----

> <Gold.Chemscore.Fitness>
11.2619

> <Gold.Chemscore.DG>
-13.5302

> <Gold.Chemscore.ZeroCoef>
-5.4800

> <Gold.Chemscore.Hbond>
0.8943

> <Gold.Chemscore.Metal>
0.0000

> <Gold.Chemscore.Lipo>
90.6192

> <Gold.Chemscore.Internal_Hbond>
0.0000

> <Gold.Chemscore.DEClash>
0.0568

> <Gold.Chemscore.DEInternal>
2.2115

> <Gold.Chemscore.Rot>
2.1638

> <Gold.Chemscore.Internal.Correction>
   9.000000E+99

> <Gold.Chemscore.Hbonds>
donor molecule, donor type, donor heavy atom, donor atom, acceptor molecule, acceptor atom, score
      L1  H    11    41       P1  7948  0.22

> <Gold.Chemscore.Hbond.Weighted>
-2.9870

> <Gold.Chemscore.Metal.Weighted>
-0.0000

> <Gold.Chemscore.Lipo.Weighted>
-10.6024

> <Gold.Chemscore.Internal_Hbond.Weighted>
0.0000

> <Gold.Chemscore.DEClash.Weighted>
0.0568

> <Gold.Chemscore.DEInternal.Weighted>
2.2115

> <Gold.Chemscore.Rot.Weighted>
5.5393

> <Gold.Chemscore.Internal.Correction.Weighted>
   9.000000E+99

> <Gold.Protein.RotatedTorsions>
[ 6907 6896 6895 6894 ] final  -14.09 input  -60.11 | X-H torsion
[ 7974 7965 7964 7962 ] final  173.83 input  175.53 | X-H torsion
[ 8008 7997 7996 7995 ] final   35.36 input   59.86 | X-H torsion
[ 10167 10162 10161 10158 ] final   28.62 input  -65.29 | X-H torsion
[ 10718 10713 10712 10709 ] final -107.32 input   66.30 | X-H torsion
[ 10763 10752 10751 10750 ] final  -56.87 input  -60.55 | X-H torsion
[ 11005 11000 10999 10996 ] final -110.25 input  -57.11 | X-H torsion

> <Gold.Protein.ActiveResidues>
 VAL166  LYS551  ARG553  GLY616  TRP617  ASP618  TYR619  PRO620  LYS621  CYS622 
 ASP623  PHE694  ASN695  SER759  ASP760  ASP761  ALA762  ILE779  LEU786  VAL792 
 PHE793  MET794  SER795  GLU796  ALA797  LYS798  CYS799  TRP800  GLU811  SER814 

> <Gold.Protein.RotatedAtoms>
  151.3448  135.0871  159.9382 H   0  0  0  0  0  0  0  0  0  0  0  0  # atno 6907 bound_to 6896
  152.5202  133.9411  159.7637 H   0  0  0  0  0  0  0  0  0  0  0  0  # atno 6908 bound_to 6896
  150.9775  133.6226  159.2757 H   0  0  0  0  0  0  0  0  0  0  0  0  # atno 6909 bound_to 6896
  144.7235  139.9706  143.6437 H   0  0  0  0  0  0  0  0  0  0  0  0  # atno 7974 bound_to 7965
  155.1698  140.3291  155.4395 H   0  0  0  0  0  0  0  0  0  0  0  0  # atno 8008 bound_to 7997
  156.2514  140.1945  156.6752 H   0  0  0  0  0  0  0  0  0  0  0  0  # atno 8009 bound_to 7997
  154.6345  140.0578  156.9759 H   0  0  0  0  0  0  0  0  0  0  0  0  # atno 8010 bound_to 7997
  140.4836  144.0577  150.6273 H   0  0  0  0  0  0  0  0  0  0  0  0  # atno 10167 bound_to 10162
  156.0431  130.5656  150.7804 H   0  0  0  0  0  0  0  0  0  0  0  0  # atno 10718 bound_to 10713
  154.2134  135.6390  153.5122 H   0  0  0  0  0  0  0  0  0  0  0  0  # atno 10763 bound_to 10752
  152.9985  135.5479  154.6191 H   0  0  0  0  0  0  0  0  0  0  0  0  # atno 10764 bound_to 10752
  154.5633  135.2910  155.0872 H   0  0  0  0  0  0  0  0  0  0  0  0  # atno 10765 bound_to 10752
  141.0802  133.9232  157.2304 H   0  0  0  0  0  0  0  0  0  0  0  0  # atno 11005 bound_to 11000
  146.0566  139.3562  143.0607 LP  0  0  0  0  0  0  0  0  0  0  0  0  # atno 17320 bound_to 7965
  145.8147  140.9708  143.0930 LP  0  0  0  0  0  0  0  0  0  0  0  0  # atno 17321 bound_to 7965
  140.3826  143.2795  152.0153 LP  0  0  0  0  0  0  0  0  0  0  0  0  # atno 17342 bound_to 10162
  139.4838  144.6143  151.7376 LP  0  0  0  0  0  0  0  0  0  0  0  0  # atno 17343 bound_to 10162
  157.5273  131.0935  151.0000 LP  0  0  0  0  0  0  0  0  0  0  0  0  # atno 17370 bound_to 10713
  157.0316  130.5713  149.5344 LP  0  0  0  0  0  0  0  0  0  0  0  0  # atno 17371 bound_to 10713
  139.9616  135.0153  156.9275 LP  0  0  0  0  0  0  0  0  0  0  0  0  # atno 17394 bound_to 11000
  140.5485  134.0650  155.7362 LP  0  0  0  0  0  0  0  0  0  0  0  0  # atno 17395 bound_to 11000

$$$$
