AV-unprocessed.smi:67|AV-procd|sdf|637|dock2
  -GOLD-   2262016533D 1   1.00000     0.00000
 Structure written by MMmdl.
 48 50  0  0  0  0  0  0  0  0  2 V2000
  149.3096  141.3671  153.4949 O   0  0  0  0  0  0  0  0  0  0  0  0
  148.3901  140.5346  154.1789 C   0  0  1  0  0  0  0  0  0  0  0  0
  148.8619  139.0609  154.0464 C   0  0  0  0  0  0  0  0  0  0  0  0
  149.8801  138.6280  155.0466 N   0  3  2  0  0  0  0  0  0  0  0  0
  149.2382  138.1875  156.3141 C   0  0  0  0  0  0  0  0  0  0  0  0
  150.2641  137.6185  157.3076 C   0  0  0  0  0  0  0  0  0  0  0  0
  151.3755  138.6399  157.6122 C   0  0  2  0  0  0  0  0  0  0  0  0
  150.8541  139.7997  158.2581 O   0  0  0  0  0  0  0  0  0  0  0  0
  151.7102  140.7137  158.8369 C   0  0  0  0  0  0  0  0  0  0  0  0
  152.8438  140.3772  159.6184 C   0  0  0  0  0  0  0  0  0  0  0  0
  153.6595  141.3886  160.1606 C   0  0  0  0  0  0  0  0  0  0  0  0
  153.3554  142.7430  159.9319 C   0  0  0  0  0  0  0  0  0  0  0  0
  152.2293  143.0955  159.1597 C   0  0  0  0  0  0  0  0  0  0  0  0
  151.9024  144.5586  158.9003 C   0  0  0  0  0  0  0  0  0  0  0  0
  150.6234  144.7074  158.5526 F   0  0  0  0  0  0  0  0  0  0  0  0
  152.1263  145.2950  159.9893 F   0  0  0  0  0  0  0  0  0  0  0  0
  152.6717  145.0101  157.9106 F   0  0  0  0  0  0  0  0  0  0  0  0
  151.4205  142.0756  158.6137 C   0  0  0  0  0  0  0  0  0  0  0  0
  152.0078  139.0918  156.2889 C   0  0  0  0  0  0  0  0  0  0  0  0
  150.9569  139.6237  155.2979 C   0  0  0  0  0  0  0  0  0  0  0  0
  148.1680  141.0070  155.6338 C   0  0  0  0  0  0  0  0  0  0  0  0
  146.7320  141.5274  155.6794 C   0  0  0  0  0  0  0  0  0  0  0  0
  146.0515  140.8179  154.6133 N   0  0  0  0  0  0  0  0  0  0  0  0
  147.0075  140.7410  153.5225 C   0  0  0  0  0  0  0  0  0  0  0  0
  149.3022  141.1370  152.5782 H   0  0  0  0  0  0  0  0  0  0  0  0
  148.0124  138.3762  154.0527 H   0  0  0  0  0  0  0  0  0  0  0  0
  149.3157  138.9554  153.0599 H   0  0  0  0  0  0  0  0  0  0  0  0
  148.7062  139.0276  156.7635 H   0  0  0  0  0  0  0  0  0  0  0  0
  148.4927  137.4196  156.1037 H   0  0  0  0  0  0  0  0  0  0  0  0
  149.7564  137.3077  158.2201 H   0  0  0  0  0  0  0  0  0  0  0  0
  150.7089  136.7153  156.8881 H   0  0  0  0  0  0  0  0  0  0  0  0
  152.1640  138.1889  158.2151 H   0  0  0  0  0  0  0  0  0  0  0  0
  153.1136  139.3521  159.8181 H   0  0  0  0  0  0  0  0  0  0  0  0
  154.5230  141.1242  160.7532 H   0  0  0  0  0  0  0  0  0  0  0  0
  153.9919  143.5093  160.3495 H   0  0  0  0  0  0  0  0  0  0  0  0
  150.5620  142.3367  158.0124 H   0  0  0  0  0  0  0  0  0  0  0  0
  152.7606  139.8576  156.4787 H   0  0  0  0  0  0  0  0  0  0  0  0
  152.5353  138.2514  155.8354 H   0  0  0  0  0  0  0  0  0  0  0  0
  151.4762  139.8585  154.3720 H   0  0  0  0  0  0  0  0  0  0  0  0
  150.5201  140.5526  155.6677 H   0  0  0  0  0  0  0  0  0  0  0  0
  148.2448  140.1689  156.3269 H   0  0  0  0  0  0  0  0  0  0  0  0
  148.8835  141.7652  155.9555 H   0  0  0  0  0  0  0  0  0  0  0  0
  146.2562  141.3659  156.6471 H   0  0  0  0  0  0  0  0  0  0  0  0
  146.7221  142.5989  155.4754 H   0  0  0  0  0  0  0  0  0  0  0  0
  145.2152  141.3168  154.3254 H   0  0  0  0  0  0  0  0  0  0  0  0
  146.9877  141.6836  152.9723 H   0  0  0  0  0  0  0  0  0  0  0  0
  146.7425  139.9562  152.8134 H   0  0  0  0  0  0  0  0  0  0  0  0
  150.3272  137.8104  154.6562 H   0  0  0  0  0  0  0  0  0  0  0  0
  1  2  1  0  0  0  0
  1 25  1  0  0  0  0
  2 24  1  0  0  0  0
  2  3  1  0  0  0  0
  2 21  1  0  0  0  0
  3  4  1  0  0  0  0
  3 26  1  0  0  0  0
  3 27  1  0  0  0  0
  4 20  1  0  0  0  0
  4  5  1  0  0  0  0
  4 48  1  0  0  0  0
  5  6  1  0  0  0  0
  5 28  1  0  0  0  0
  5 29  1  0  0  0  0
  6  7  1  0  0  0  0
  6 30  1  0  0  0  0
  6 31  1  0  0  0  0
  7  8  1  0  0  0  0
  7 19  1  0  0  0  0
  7 32  1  0  0  0  0
  8  9  1  0  0  0  0
  9 18  1  0  0  0  0
  9 10  2  0  0  0  0
 10 11  1  0  0  0  0
 10 33  1  0  0  0  0
 11 12  2  0  0  0  0
 11 34  1  0  0  0  0
 12 13  1  0  0  0  0
 12 35  1  0  0  0  0
 13 14  1  0  0  0  0
 13 18  2  0  0  0  0
 14 15  1  0  0  0  0
 14 16  1  0  0  0  0
 14 17  1  0  0  0  0
 18 36  1  0  0  0  0
 19 20  1  0  0  0  0
 19 37  1  0  0  0  0
 19 38  1  0  0  0  0
 20 39  1  0  0  0  0
 20 40  1  0  0  0  0
 21 22  1  0  0  0  0
 21 41  1  0  0  0  0
 21 42  1  0  0  0  0
 22 23  1  0  0  0  0
 22 43  1  0  0  0  0
 22 44  1  0  0  0  0
 23 24  1  0  0  0  0
 23 45  1  0  0  0  0
 24 46  1  0  0  0  0
 24 47  1  0  0  0  0
M  CHG  1   4   1
M  END
> <s_m_source_file>
AV-unprocessed.smi

> <i_m_source_file_index>
67

> <i_lp_mmshare_version>
43012

> <i_f3d_flags>
0

> <s_epik_input>
W0NIMl0xW05IXVtDSDJdW0NIMl1bQ0BAXTEoW09IXSlbQ0gyXU4yW0NIMl1bQ0gyXVtDSF0oW0NIMl1bQ0gyXTIpT2MzW2NIXVtjSF1bY0hdYyhDKEYpKEYpRilbY0hdMw==

> <s_epik_cmdline>
J2VwaWtfcHl0aG9uJywgJy1waCcsICc3LjAnLCAnLXRuJywgJzgnLCAnLW1hJywgJzIwMCcsICctbWV0YWxfYmluZGluZycsICctaW1hZScsICc8aW5maWxlLm1hZT4nLCAnLW9tYWUnLCAnPG91dGZpbGUubWFlPic=

> <r_epik_Ionization_Penalty>
2.37709

> <r_epik_Ionization_Penalty_Charging>
0.0305656

> <r_epik_Ionization_Penalty_Neutral>
2.34653

> <r_epik_State_Penalty>
2.56959

> <r_epik_Charging_Adjusted_Penalty>
2.60016

> <i_epik_Tot_Q>
1

> <i_epik_Tot_abs_Q>
1

> <r_epik_Metal_State_Penalty>
2.56925

> <b_epik_Metal_Only>
0

> <s_lp_Force_Field>
OPLS_2005

> <r_lp_Energy>
51.6978

> <b_lp_Chiralities_Consistent>
1

> <s_lp_Variant>
AV-unprocessed.smi:67-9

> <Gold.Version>
5.8.1

> <Gold.Id.Protein>
6NUR|6NUR_protein|mol2

> <Gold.PLP.Fitness>
51.8976

> <Gold.PLP.PLP>
-50.4625

> <Gold.PLP.part.hbond>
-3.2614

> <Gold.PLP.part.metal>
0.0000

> <Gold.PLP.part.buried>
-4.6282

> <Gold.PLP.part.nonpolar>
-41.6145

> <Gold.PLP.part.repulsive>
0.0385

> <Gold.PLP.ligand.clash>
0.0000

> <Gold.PLP.ligand.torsion>
1.7306

> <Gold.PLP.Chemscore.Hbond>
1.0161

> <Gold.PLP.Chemscore.CHOScore>
0.0000

> <Gold.PLP.Chemscore.Metal>
0.0000

> <Gold.Chemscore.Hbonds>
donor molecule, donor type, donor heavy atom, donor atom, acceptor molecule, acceptor atom, score
      L1  H     1    25       P1  7957  1.00
      P1  H  7989  7998       L1     1  0.01

> <Gold.PLP.Chemscore.Internal.Correction>
1.8478

> <Gold.Rescore>
     Score         DG    S(hbond)    S(metal)    S(lipo)     H(rot)  DE(clash)    DE(int)     intcor
     16.71     -19.79       1.94        0.00     114.37       2.17       0.13       2.95       ----

> <Gold.Chemscore.Fitness>
16.7119

> <Gold.Chemscore.DG>
-19.7883

> <Gold.Chemscore.ZeroCoef>
-5.4800

> <Gold.Chemscore.Hbond>
1.9434

> <Gold.Chemscore.Metal>
0.0000

> <Gold.Chemscore.Lipo>
114.3692

> <Gold.Chemscore.Internal_Hbond>
0.0000

> <Gold.Chemscore.DEClash>
0.1274

> <Gold.Chemscore.DEInternal>
2.9489

> <Gold.Chemscore.Rot>
2.1734

> <Gold.Chemscore.Internal.Correction>
   9.000000E+99

> <Gold.Chemscore.Hbonds>
donor molecule, donor type, donor heavy atom, donor atom, acceptor molecule, acceptor atom, score
      L1  H     1    25       P1  7957  0.99

> <Gold.Chemscore.Hbond.Weighted>
-6.4911

> <Gold.Chemscore.Metal.Weighted>
-0.0000

> <Gold.Chemscore.Lipo.Weighted>
-13.3812

> <Gold.Chemscore.Internal_Hbond.Weighted>
0.0000

> <Gold.Chemscore.DEClash.Weighted>
0.1274

> <Gold.Chemscore.DEInternal.Weighted>
2.9489

> <Gold.Chemscore.Rot.Weighted>
5.5640

> <Gold.Chemscore.Internal.Correction.Weighted>
   9.000000E+99

> <Gold.Protein.RotatedTorsions>
[ 6907 6896 6895 6894 ] final -122.58 input  -60.11 | X-H torsion
[ 7974 7965 7964 7962 ] final  132.90 input  175.53 | X-H torsion
[ 8008 7997 7996 7995 ] final  -46.67 input   59.86 | X-H torsion
[ 10167 10162 10161 10158 ] final -173.20 input  -65.29 | X-H torsion
[ 10718 10713 10712 10709 ] final  -49.73 input   66.30 | X-H torsion
[ 10763 10752 10751 10750 ] final   73.90 input  -60.55 | X-H torsion
[ 11005 11000 10999 10996 ] final  -60.36 input  -57.11 | X-H torsion

> <Gold.Protein.ActiveResidues>
 VAL166  LYS551  ARG553  GLY616  TRP617  ASP618  TYR619  PRO620  LYS621  CYS622 
 ASP623  PHE694  ASN695  SER759  ASP760  ASP761  ALA762  ILE779  LEU786  VAL792 
 PHE793  MET794  SER795  GLU796  ALA797  LYS798  CYS799  TRP800  GLU811  SER814 

> <Gold.Protein.RotatedAtoms>
  150.8590  133.7672  159.2998 H   0  0  0  0  0  0  0  0  0  0  0  0  # atno 6907 bound_to 6896
  151.5321  135.1067  159.9915 H   0  0  0  0  0  0  0  0  0  0  0  0  # atno 6908 bound_to 6896
  152.4611  133.7781  159.6891 H   0  0  0  0  0  0  0  0  0  0  0  0  # atno 6909 bound_to 6896
  144.9920  139.4397  143.5334 H   0  0  0  0  0  0  0  0  0  0  0  0  # atno 7974 bound_to 7965
  154.4009  140.1365  156.4050 H   0  0  0  0  0  0  0  0  0  0  0  0  # atno 8008 bound_to 7997
  155.7788  140.3482  155.5266 H   0  0  0  0  0  0  0  0  0  0  0  0  # atno 8009 bound_to 7997
  155.8694  140.0969  157.1551 H   0  0  0  0  0  0  0  0  0  0  0  0  # atno 8010 bound_to 7997
  139.5701  144.1661  152.1372 H   0  0  0  0  0  0  0  0  0  0  0  0  # atno 10167 bound_to 10162
  156.1866  130.4151  149.9430 H   0  0  0  0  0  0  0  0  0  0  0  0  # atno 10718 bound_to 10713
  153.0552  135.5045  154.7963 H   0  0  0  0  0  0  0  0  0  0  0  0  # atno 10763 bound_to 10752
  154.6794  135.2966  154.9635 H   0  0  0  0  0  0  0  0  0  0  0  0  # atno 10764 bound_to 10752
  154.0427  135.6715  153.4844 H   0  0  0  0  0  0  0  0  0  0  0  0  # atno 10765 bound_to 10752
  141.1284  133.6622  156.5212 H   0  0  0  0  0  0  0  0  0  0  0  0  # atno 11005 bound_to 11000
  146.3433  139.9257  142.8760 LP  0  0  0  0  0  0  0  0  0  0  0  0  # atno 17320 bound_to 7965
  145.2272  140.9959  143.4011 LP  0  0  0  0  0  0  0  0  0  0  0  0  # atno 17321 bound_to 7965
  140.1192  144.5388  150.6874 LP  0  0  0  0  0  0  0  0  0  0  0  0  # atno 17342 bound_to 10162
  140.6986  143.2420  151.4930 LP  0  0  0  0  0  0  0  0  0  0  0  0  # atno 17343 bound_to 10162
  156.7184  130.8997  151.3616 LP  0  0  0  0  0  0  0  0  0  0  0  0  # atno 17370 bound_to 10713
  157.6903  130.9226  150.0495 LP  0  0  0  0  0  0  0  0  0  0  0  0  # atno 17371 bound_to 10713
  140.4291  134.7118  157.4932 LP  0  0  0  0  0  0  0  0  0  0  0  0  # atno 17394 bound_to 11000
  140.0306  134.6411  155.9111 LP  0  0  0  0  0  0  0  0  0  0  0  0  # atno 17395 bound_to 11000

$$$$
