#       Name:                AV-unprocessed.smi:2121
#       Creating user name   scv26
#       Creation time:       Fri Mar 27 11:38:55 2020


#       File generated by GOLD software.
#

@<TRIPOS>MOLECULE
AV-unprocessed.smi:2121
    57    58     1
SMALL
NO_CHARGES


@<TRIPOS>ATOM
      1 ****        -5.0196   0.7522   2.5267 C.3            1 S1                 0.0000
      2 ****        -4.5483  -0.7130   2.5126 C.3            1 S1                 0.0000
      3 ****        -3.0176  -0.8656   2.6072 C.3            1 S1                 0.0000
      4 ****        -2.3773  -0.5300   1.3380 N.3            1 S1                 0.0000
      5 ****        -0.9786  -0.3423   1.3871 C.ar           1 S1                 0.0000
      6 ****        -0.4118   0.5411   2.3365 C.ar           1 S1                 0.0000
      7 ****         0.9858   0.7067   2.3730 C.ar           1 S1                 0.0000
      8 ****         1.7844  -0.0041   1.4566 C.ar           1 S1                 0.0000
      9 ****         3.2989   0.1485   1.4796 C.3            1 S1                 0.0000
     10 ****         3.9287   0.0504   0.1675 N.am           1 S1                 0.0000
     11 ****         3.9203   1.0178  -0.7619 C.2            1 S1                 0.0000
     12 ****         3.3966   2.1191  -0.5854 O.2            1 S1                 0.0000
     13 ****         4.6164   0.6859  -2.0912 C.3            1 S1                 0.0000
     14 ****         5.9639   1.4256  -2.1306 C.3            1 S1                 0.0000
     15 ****         3.8096   1.1483  -3.2194 N.am           1 S1                 0.0000
     16 ****         2.7429   0.5054  -3.7165 C.2            1 S1                 0.0000
     17 ****         2.1813   1.1645  -4.7303 N.am           1 S1                 0.0000
     18 ****         2.3176  -0.5687  -3.2956 O.2            1 S1                 0.0000
     19 ****         1.1324  -0.8585   0.5417 C.ar           1 S1                 0.0000
     20 ****        -0.2064  -1.0236   0.5048 N.ar           1 S1                 0.0000
     21 ****        -2.9351  -1.2605   0.2030 C.3            1 S1                 0.0000
     22 ****        -4.4603  -1.0648   0.1350 C.3            1 S1                 0.0000
     23 ****        -5.0990  -1.9268  -0.9587 C.3            1 S1                 0.0000
     24 ****        -5.0480  -1.4311   1.3827 O.3            1 S1                 0.0000
     25 ****        -4.7405   1.2376   3.4622 H              1 S1                 0.0000
     26 ****        -6.1042   0.8126   2.4348 H              1 S1                 0.0000
     27 ****        -4.5811   1.3359   1.7177 H              1 S1                 0.0000
     28 ****        -4.9831  -1.1910   3.3907 H              1 S1                 0.0000
     29 ****        -2.6461  -0.2574   3.4307 H              1 S1                 0.0000
     30 ****        -2.7687  -1.8999   2.8487 H              1 S1                 0.0000
     31 ****        -1.0285   1.1002   3.0242 H              1 S1                 0.0000
     32 ****         1.4347   1.3753   3.0927 H              1 S1                 0.0000
     33 ****         3.5711   1.0961   1.9476 H              1 S1                 0.0000
     34 ****         3.7106  -0.6374   2.1129 H              1 S1                 0.0000
     35 ****         4.3845  -0.8219  -0.0583 H              1 S1                 0.0000
     36 ****         4.7868  -0.3895  -2.1731 H              1 S1                 0.0000
     37 ****         6.6121   1.1105  -1.3118 H              1 S1                 0.0000
     38 ****         5.8379   2.5071  -2.0589 H              1 S1                 0.0000
     39 ****         6.4939   1.2174  -3.0607 H              1 S1                 0.0000
     40 ****         4.0728   2.0298  -3.6344 H              1 S1                 0.0000
     41 ****         1.3720   0.7836  -5.1976 H              1 S1                 0.0000
     42 ****         2.5752   2.0441  -5.0310 H              1 S1                 0.0000
     43 ****         1.6949  -1.4319  -0.1805 H              1 S1                 0.0000
     44 ****        -2.4867  -0.9125  -0.7284 H              1 S1                 0.0000
     45 ****        -2.6937  -2.3196   0.3055 H              1 S1                 0.0000
     46 ****        -4.6847  -0.0209  -0.0847 H              1 S1                 0.0000
     47 ****        -4.6908  -1.6827  -1.9397 H              1 S1                 0.0000
     48 ****        -6.1771  -1.7694  -0.9986 H              1 S1                 0.0000
     49 ****        -4.9237  -2.9875  -0.7773 H              1 S1                 0.0000
     50 ****        -2.6459   0.4123   1.1382 LP             1 S1                 0.0000
     51 ****         2.9495   2.3264   0.2847 LP             1 S1                 0.0000
     52 ****         3.4187   2.8055  -1.3123 LP             1 S1                 0.0000
     53 ****         2.7748  -1.0223  -2.5306 LP             1 S1                 0.0000
     54 ****         1.5146  -0.9887  -3.7183 LP             1 S1                 0.0000
     55 ****        -0.6231  -1.6396  -0.1637 LP             1 S1                 0.0000
     56 ****        -6.0330  -1.2700   1.3221 LP             1 S1                 0.0000
     57 ****        -4.8782  -2.4051   1.5328 LP             1 S1                 0.0000
@<TRIPOS>BOND
    1    1    2 1     
    2    1   25 1     
    3    1   26 1     
    4    1   27 1     
    5    2   24 1     
    6    2    3 1     
    7    2   28 1     
    8    3    4 1     
    9    3   29 1     
   10    3   30 1     
   11    4    5 1     
   12    4   21 1     
   13    5   20 ar    
   14    5    6 ar    
   15    6    7 ar    
   16    6   31 1     
   17    7    8 ar    
   18    7   32 1     
   19    8    9 1     
   20    8   19 ar    
   21    9   10 1     
   22    9   33 1     
   23    9   34 1     
   24   10   11 am    
   25   10   35 1     
   26   11   12 2     
   27   11   13 1     
   28   13   14 1     
   29   13   15 1     
   30   13   36 1     
   31   14   37 1     
   32   14   38 1     
   33   14   39 1     
   34   15   16 am    
   35   15   40 1     
   36   16   17 am    
   37   16   18 2     
   38   17   41 1     
   39   17   42 1     
   40   19   20 ar    
   41   19   43 1     
   42   21   22 1     
   43   21   44 1     
   44   21   45 1     
   45   22   23 1     
   46   22   24 1     
   47   22   46 1     
   48   23   47 1     
   49   23   48 1     
   50   23   49 1     
   51    4   50 1     
   52   12   51 1     
   53   12   52 1     
   54   18   53 1     
   55   18   54 1     
   56   20   55 1     
   57   24   56 1     
   58   24   57 1     
@<TRIPOS>SUBSTRUCTURE
      1 S1             1
@<TRIPOS>SET
LONE_PAIRS      STATIC     ATOMS    <user>   **** ""
8 50 51 52 53 54 55 56 57
DONOR_HYDROGENS      STATIC     ATOMS    <user>   **** ""
4 35 40 41 42
ATOM$BLUE        STATIC     ATOMS    COLORGROUP SYSTEM
8 50 51 52 53 54 55 56 57
ATOM$RED        STATIC     ATOMS    COLORGROUP SYSTEM
4 35 40 41 42
