AV-unprocessed.smi:2929|AV-procd|sdf|11239|dock9
  -GOLD-   2272016133D 1   1.00000     0.00000
 Structure written by MMmdl.
 33 34  0  0  0  0  0  0  0  0  1 V2000
  147.2767  122.0493  150.3727 C   0  0  0  0  0  0  0  0  0  0  0  0
  148.7237  122.8590  151.1677 S   0  0  0  0  0  0  0  0  0  0  0  0
  148.7013  122.5189  152.5990 O   0  0  0  0  0  0  0  0  0  0  0  0
  149.9204  122.5549  150.3676 O   0  0  0  0  0  0  0  0  0  0  0  0
  148.3774  124.6062  150.9995 C   0  0  0  0  0  0  0  0  0  0  0  0
  148.8963  125.3342  149.9101 C   0  0  0  0  0  0  0  0  0  0  0  0
  148.6314  126.7157  149.8481 C   0  0  0  0  0  0  0  0  0  0  0  0
  147.8629  127.3134  150.8780 C   0  0  0  0  0  0  0  0  0  0  0  0
  147.5358  128.6956  150.9444 N   0  0  0  0  0  0  0  0  0  0  0  0
  146.4242  129.2819  151.4218 C   0  0  0  0  0  0  0  0  0  0  0  0
  145.4664  128.6957  151.9252 O   0  0  0  0  0  0  0  0  0  0  0  0
  146.4894  130.6146  151.2942 N   0  0  0  0  0  0  0  0  0  0  0  0
  145.4443  131.5440  151.7035 C   0  0  0  0  0  0  0  0  0  0  0  0
  145.2116  132.7001  150.7501 C   0  0  0  0  0  0  0  0  0  0  0  0
  144.0176  132.6971  149.8244 C   0  0  0  0  0  0  0  0  0  0  0  0
  145.4084  132.5387  149.2602 C   0  0  0  0  0  0  0  0  0  0  0  0
  147.4184  126.4862  151.9320 C   0  0  0  0  0  0  0  0  0  0  0  0
  147.6679  125.1620  152.0040 N   0  0  0  0  0  0  0  0  0  0  0  0
  147.3928  120.9671  150.4241 H   0  0  0  0  0  0  0  0  0  0  0  0
  147.2151  122.3590  149.3295 H   0  0  0  0  0  0  0  0  0  0  0  0
  146.3653  122.3426  150.8930 H   0  0  0  0  0  0  0  0  0  0  0  0
  149.4847  124.8541  149.1426 H   0  0  0  0  0  0  0  0  0  0  0  0
  149.0353  127.2815  149.0238 H   0  0  0  0  0  0  0  0  0  0  0  0
  148.2579  129.3226  150.6209 H   0  0  0  0  0  0  0  0  0  0  0  0
  147.3161  131.0143  150.8749 H   0  0  0  0  0  0  0  0  0  0  0  0
  144.5078  131.0078  151.8682 H   0  0  0  0  0  0  0  0  0  0  0  0
  145.7320  131.9563  152.6708 H   0  0  0  0  0  0  0  0  0  0  0  0
  145.4718  133.6707  151.1686 H   0  0  0  0  0  0  0  0  0  0  0  0
  143.3748  131.8191  149.8268 H   0  0  0  0  0  0  0  0  0  0  0  0
  143.5113  133.6454  149.6553 H   0  0  0  0  0  0  0  0  0  0  0  0
  145.8316  133.3811  148.7169 H   0  0  0  0  0  0  0  0  0  0  0  0
  145.6909  131.5554  148.8888 H   0  0  0  0  0  0  0  0  0  0  0  0
  146.8433  126.9004  152.7472 H   0  0  0  0  0  0  0  0  0  0  0  0
  1  2  1  0  0  0  0
  1 19  1  0  0  0  0
  1 20  1  0  0  0  0
  1 21  1  0  0  0  0
  2  3  2  0  0  0  0
  2  4  2  0  0  0  0
  2  5  1  0  0  0  0
  5 18  1  0  0  0  0
  5  6  2  0  0  0  0
  6  7  1  0  0  0  0
  6 22  1  0  0  0  0
  7  8  2  0  0  0  0
  7 23  1  0  0  0  0
  8  9  1  0  0  0  0
  8 17  1  0  0  0  0
  9 10  1  0  0  0  0
  9 24  1  0  0  0  0
 10 11  2  0  0  0  0
 10 12  1  0  0  0  0
 12 13  1  0  0  0  0
 12 25  1  0  0  0  0
 13 14  1  0  0  0  0
 13 26  1  0  0  0  0
 13 27  1  0  0  0  0
 14 16  1  0  0  0  0
 14 15  1  0  0  0  0
 14 28  1  0  0  0  0
 15 16  1  0  0  0  0
 15 29  1  0  0  0  0
 15 30  1  0  0  0  0
 16 31  1  0  0  0  0
 16 32  1  0  0  0  0
 17 18  2  0  0  0  0
 17 33  1  0  0  0  0
M  END
> <s_m_source_file>
AV-unprocessed.smi

> <i_m_source_file_index>
2929

> <i_lp_mmshare_version>
43012

> <i_f3d_flags>
0

> <s_epik_input>
W0NIM11TKD1PKSg9TyljMVtjSF1bY0hdYyhbY0hdbjEpW05IXUMoPU8pW05IXVtDSDJdW0NIXTJbQ0gyXVtDSDJdMg==

> <s_epik_cmdline>
J2VwaWtfcHl0aG9uJywgJy1waCcsICc3LjAnLCAnLXRuJywgJzgnLCAnLW1hJywgJzIwMCcsICctbWV0YWxfYmluZGluZycsICctaW1hZScsICc8aW5maWxlLm1hZT4nLCAnLW9tYWUnLCAnPG91dGZpbGUubWFlPic=

> <r_lp_tautomer_probability>
1

> <r_epik_Ionization_Penalty>
4.04513e-05

> <r_epik_Ionization_Penalty_Charging>
0

> <r_epik_Ionization_Penalty_Neutral>
4.04513e-05

> <r_epik_State_Penalty>
-0

> <r_epik_Charging_Adjusted_Penalty>
0

> <i_epik_Tot_Q>
0

> <i_epik_Tot_abs_Q>
0

> <r_epik_Metal_State_Penalty>
-0

> <b_epik_Metal_Only>
0

> <s_lp_Force_Field>
OPLS_2005

> <r_lp_Energy>
13.7936

> <b_lp_Chiralities_Consistent>
1

> <s_lp_Variant>
AV-unprocessed.smi:2929-1

> <Gold.Version>
5.8.1

> <Gold.Id.Protein>
6NUR|6NUR_protein|mol2

> <Gold.PLP.Fitness>
39.4807

> <Gold.PLP.PLP>
-34.7213

> <Gold.PLP.part.hbond>
-2.7816

> <Gold.PLP.part.metal>
0.0000

> <Gold.PLP.part.buried>
-5.1065

> <Gold.PLP.part.nonpolar>
-26.8708

> <Gold.PLP.part.repulsive>
0.2765

> <Gold.PLP.ligand.clash>
0.0000

> <Gold.PLP.ligand.torsion>
1.8630

> <Gold.PLP.Chemscore.Hbond>
1.9760

> <Gold.PLP.Chemscore.CHOScore>
0.0000

> <Gold.PLP.Chemscore.Metal>
0.0000

> <Gold.Chemscore.Hbonds>
donor molecule, donor type, donor heavy atom, donor atom, acceptor molecule, acceptor atom, score
      L1  H     9    24       P1 10747  0.85
      L1  H    12    25       P1 10747  1.00

> <Gold.PLP.Chemscore.Internal.Correction>
2.5574

> <Gold.Rescore>
     Score         DG    S(hbond)    S(metal)    S(lipo)     H(rot)  DE(clash)    DE(int)     intcor
     12.83     -15.90       1.36        0.00      77.16       1.23       0.07       3.00       ----

> <Gold.Chemscore.Fitness>
12.8321

> <Gold.Chemscore.DG>
-15.9047

> <Gold.Chemscore.ZeroCoef>
-5.4800

> <Gold.Chemscore.Hbond>
1.3650

> <Gold.Chemscore.Metal>
0.0000

> <Gold.Chemscore.Lipo>
77.1560

> <Gold.Chemscore.Internal_Hbond>
0.0000

> <Gold.Chemscore.DEClash>
0.0686

> <Gold.Chemscore.DEInternal>
3.0041

> <Gold.Chemscore.Rot>
1.2350

> <Gold.Chemscore.Internal.Correction>
   9.000000E+99

> <Gold.Chemscore.Hbonds>
donor molecule, donor type, donor heavy atom, donor atom, acceptor molecule, acceptor atom, score
      L1  H     9    24       P1 10747  0.15
      L1  H    12    25       P1 10747  0.94

> <Gold.Chemscore.Hbond.Weighted>
-4.5591

> <Gold.Chemscore.Metal.Weighted>
-0.0000

> <Gold.Chemscore.Lipo.Weighted>
-9.0272

> <Gold.Chemscore.Internal_Hbond.Weighted>
0.0000

> <Gold.Chemscore.DEClash.Weighted>
0.0686

> <Gold.Chemscore.DEInternal.Weighted>
3.0041

> <Gold.Chemscore.Rot.Weighted>
3.1616

> <Gold.Chemscore.Internal.Correction.Weighted>
   9.000000E+99

> <Gold.Protein.RotatedTorsions>
[ 6907 6896 6895 6894 ] final -119.02 input  -60.11 | X-H torsion
[ 7974 7965 7964 7962 ] final -164.45 input  175.53 | X-H torsion
[ 8008 7997 7996 7995 ] final  121.26 input   59.86 | X-H torsion
[ 10167 10162 10161 10158 ] final -110.73 input  -65.29 | X-H torsion
[ 10718 10713 10712 10709 ] final  -92.40 input   66.30 | X-H torsion
[ 10763 10752 10751 10750 ] final -170.50 input  -60.55 | X-H torsion
[ 11005 11000 10999 10996 ] final  -54.16 input  -57.11 | X-H torsion

> <Gold.Protein.ActiveResidues>
 VAL166  LYS551  ARG553  GLY616  TRP617  ASP618  TYR619  PRO620  LYS621  CYS622 
 ASP623  PHE694  ASN695  SER759  ASP760  ASP761  ALA762  ILE779  LEU786  VAL792 
 PHE793  MET794  SER795  GLU796  ALA797  LYS798  CYS799  TRP800  GLU811  SER814 

> <Gold.Protein.RotatedAtoms>
  150.8269  133.8156  159.3114 H   0  0  0  0  0  0  0  0  0  0  0  0  # atno 6907 bound_to 6896
  151.5897  135.1052  160.0046 H   0  0  0  0  0  0  0  0  0  0  0  0  # atno 6908 bound_to 6896
  152.4353  133.7309  159.6643 H   0  0  0  0  0  0  0  0  0  0  0  0  # atno 6909 bound_to 6896
  144.7296  140.2959  143.6212 H   0  0  0  0  0  0  0  0  0  0  0  0  # atno 7974 bound_to 7965
  156.2679  140.2812  156.1280 H   0  0  0  0  0  0  0  0  0  0  0  0  # atno 8008 bound_to 7997
  155.1084  140.0390  157.2734 H   0  0  0  0  0  0  0  0  0  0  0  0  # atno 8009 bound_to 7997
  154.6761  140.2598  155.6962 H   0  0  0  0  0  0  0  0  0  0  0  0  # atno 8010 bound_to 7997
  140.1413  143.4277  152.1560 H   0  0  0  0  0  0  0  0  0  0  0  0  # atno 10167 bound_to 10162
  156.0002  130.4986  150.5620 H   0  0  0  0  0  0  0  0  0  0  0  0  # atno 10718 bound_to 10713
  154.6408  135.2898  155.0106 H   0  0  0  0  0  0  0  0  0  0  0  0  # atno 10763 bound_to 10752
  154.1233  135.6545  153.4911 H   0  0  0  0  0  0  0  0  0  0  0  0  # atno 10764 bound_to 10752
  153.0325  135.5293  154.7274 H   0  0  0  0  0  0  0  0  0  0  0  0  # atno 10765 bound_to 10752
  141.1012  133.6618  156.4280 H   0  0  0  0  0  0  0  0  0  0  0  0  # atno 11005 bound_to 11000
  145.7809  139.1891  143.2158 LP  0  0  0  0  0  0  0  0  0  0  0  0  # atno 17320 bound_to 7965
  146.0835  140.7737  142.9630 LP  0  0  0  0  0  0  0  0  0  0  0  0  # atno 17321 bound_to 7965
  139.5471  144.7307  151.4550 LP  0  0  0  0  0  0  0  0  0  0  0  0  # atno 17342 bound_to 10162
  140.6759  143.8191  150.7057 LP  0  0  0  0  0  0  0  0  0  0  0  0  # atno 17343 bound_to 10162
  157.3528  131.0736  151.1699 LP  0  0  0  0  0  0  0  0  0  0  0  0  # atno 17370 bound_to 10713
  157.2510  130.6614  149.5931 LP  0  0  0  0  0  0  0  0  0  0  0  0  # atno 17371 bound_to 10713
  140.5017  134.6479  157.5251 LP  0  0  0  0  0  0  0  0  0  0  0  0  # atno 17394 bound_to 11000
  139.9864  134.7054  155.9766 LP  0  0  0  0  0  0  0  0  0  0  0  0  # atno 17395 bound_to 11000

$$$$
