#       Name:                AV-unprocessed.smi:2921
#       Creating user name   scv26
#       Creation time:       Fri Mar 27 16:08:56 2020


#       File generated by GOLD software.
#

@<TRIPOS>MOLECULE
AV-unprocessed.smi:2921
    44    45     1
SMALL
NO_CHARGES


@<TRIPOS>ATOM
      1 ****        -3.2670  -2.0762  -2.7352 C.3            1 S1                 0.0000
      2 ****        -2.7789  -1.7228  -1.3218 C.3            1 S1                 0.0000
      3 ****        -3.2400  -2.7562  -0.2807 C.3            1 S1                 0.0000
      4 ****        -3.1910  -0.3727  -0.9498 N.pl3          1 S1                 0.0000
      5 ****        -4.5017  -0.0911  -0.7609 N.2            1 S1                 0.0000
      6 ****        -4.5413   1.1978  -0.4514 C.2            1 S1                 0.0000
      7 ****        -3.2546   1.8057  -0.4354 C.2            1 S1                 0.0000
      8 ****        -2.4291   0.7638  -0.7603 C.2            1 S1                 0.0000
      9 ****        -1.0772   0.7684  -0.9059 N.am           1 S1                 0.0000
     10 ****        -0.2047   1.7538  -0.6316 C.2            1 S1                 0.0000
     11 ****        -0.4963   2.8638  -0.1860 O.2            1 S1                 0.0000
     12 ****         1.0527   1.3705  -0.8938 N.am           1 S1                 0.0000
     13 ****         2.2444   2.1793  -0.6603 C.3            1 S1                 0.0000
     14 ****         2.6586   2.2270   0.8238 C.3            1 S1                 0.0000
     15 ****         3.1789   0.9071   1.3690 C.2            1 S1                 0.0000
     16 ****         4.4378   0.6401   1.7150 C.2            1 S1                 0.0000
     17 ****         4.6114  -0.7540   2.2519 C.3            1 S1                 0.0000
     18 ****         3.1775  -1.3271   2.2699 C.3            1 S1                 0.0000
     19 ****         2.2627  -0.2647   1.6214 C.3            1 S1                 0.0000
     20 ****        -2.9062  -3.0591  -3.0393 H              1 S1                 0.0000
     21 ****        -2.9064  -1.3521  -3.4666 H              1 S1                 0.0000
     22 ****        -4.3559  -2.0916  -2.7905 H              1 S1                 0.0000
     23 ****        -1.6892  -1.7466  -1.3369 H              1 S1                 0.0000
     24 ****        -2.8593  -3.7491  -0.5213 H              1 S1                 0.0000
     25 ****        -4.3275  -2.8235  -0.2336 H              1 S1                 0.0000
     26 ****        -2.8781  -2.4974   0.7147 H              1 S1                 0.0000
     27 ****        -5.5001   1.6534  -0.2524 H              1 S1                 0.0000
     28 ****        -3.0035   2.8340  -0.2241 H              1 S1                 0.0000
     29 ****        -0.6786  -0.0956  -1.2420 H              1 S1                 0.0000
     30 ****         1.2007   0.4417  -1.2606 H              1 S1                 0.0000
     31 ****         3.0602   1.7767  -1.2614 H              1 S1                 0.0000
     32 ****         2.0686   3.1920  -1.0267 H              1 S1                 0.0000
     33 ****         3.4467   2.9721   0.9375 H              1 S1                 0.0000
     34 ****         1.8316   2.5673   1.4479 H              1 S1                 0.0000
     35 ****         5.2656   1.3290   1.6329 H              1 S1                 0.0000
     36 ****         5.2673  -1.3259   1.5950 H              1 S1                 0.0000
     37 ****         5.0508  -0.7300   3.2496 H              1 S1                 0.0000
     38 ****         3.1239  -2.2753   1.7339 H              1 S1                 0.0000
     39 ****         2.8615  -1.5179   3.2962 H              1 S1                 0.0000
     40 ****         1.4434   0.0213   2.2816 H              1 S1                 0.0000
     41 ****         1.8434  -0.6341   0.6863 H              1 S1                 0.0000
     42 ****        -5.2749  -0.7206  -0.8382 LP             1 S1                 0.0000
     43 ****        -1.4517   3.0920   0.0017 LP             1 S1                 0.0000
     44 ****         0.2222   3.5371  -0.0116 LP             1 S1                 0.0000
@<TRIPOS>BOND
    1    1    2 1     
    2    1   20 1     
    3    1   21 1     
    4    1   22 1     
    5    2    3 1     
    6    2    4 1     
    7    2   23 1     
    8    3   24 1     
    9    3   25 1     
   10    3   26 1     
   11    4    8 1     
   12    4    5 1     
   13    5    6 2     
   14    6    7 1     
   15    6   27 1     
   16    7    8 2     
   17    7   28 1     
   18    8    9 1     
   19    9   10 am    
   20    9   29 1     
   21   10   11 2     
   22   10   12 am    
   23   12   13 1     
   24   12   30 1     
   25   13   14 1     
   26   13   31 1     
   27   13   32 1     
   28   14   15 1     
   29   14   33 1     
   30   14   34 1     
   31   15   19 1     
   32   15   16 2     
   33   16   17 1     
   34   16   35 1     
   35   17   18 1     
   36   17   36 1     
   37   17   37 1     
   38   18   19 1     
   39   18   38 1     
   40   18   39 1     
   41   19   40 1     
   42   19   41 1     
   43    5   42 1     
   44   11   43 1     
   45   11   44 1     
@<TRIPOS>SUBSTRUCTURE
      1 S1             1
@<TRIPOS>SET
LONE_PAIRS      STATIC     ATOMS    <user>   **** ""
3 42 43 44
DONOR_HYDROGENS      STATIC     ATOMS    <user>   **** ""
2 29 30
ATOM$BLUE        STATIC     ATOMS    COLORGROUP SYSTEM
3 42 43 44
ATOM$RED        STATIC     ATOMS    COLORGROUP SYSTEM
2 29 30
