AV-unprocessed.smi:2613|AV-procd|sdf|10213|dock7
  -GOLD-   2272014223D 1   1.00000     0.00000
 Structure written by MMmdl.
 28 29  0  0  0  0  0  0  0  0  3 V2000
  146.5537  142.6068  153.7990 C   0  0  0  0  0  0  0  0  0  0  0  0
  147.6383  141.6363  154.1254 C   0  0  0  0  0  0  0  0  0  0  0  0
  148.7797  141.9099  154.8183 N   0  3  0  0  0  0  0  0  0  0  0  0
  149.5567  140.7550  154.9222 C   0  0  0  0  0  0  0  0  0  0  0  0
  150.7890  140.5395  155.5286 C   0  0  0  0  0  0  0  0  0  0  0  0
  151.3274  139.2318  155.4561 C   0  0  0  0  0  0  0  0  0  0  0  0
  152.6601  138.9372  156.0896 C   0  0  0  0  0  0  0  0  0  0  0  0
  153.3756  138.0347  155.6015 O   0  0  0  0  0  0  0  0  0  0  0  0
  153.0130  139.6062  157.0863 O   0  5  0  0  0  0  0  0  0  0  0  0
  150.6166  138.2048  154.7882 C   0  0  0  0  0  0  0  0  0  0  0  0
  149.3663  138.4352  154.1775 C   0  0  0  0  0  0  0  0  0  0  0  0
  148.8558  139.7281  154.2610 C   0  0  0  0  0  0  0  0  0  0  0  0
  147.6779  140.3160  153.7878 N   0  0  0  0  0  0  0  0  0  0  0  0
  146.7150  139.4974  153.0408 C   0  0  0  0  0  0  0  0  0  0  0  0
  146.8388  139.7090  151.5256 C   0  0  0  0  0  0  0  0  0  0  0  0
  146.6539  138.4789  150.8609 O   0  0  0  0  0  0  0  0  0  0  0  0
  146.8251  143.6102  154.1279 H   0  0  0  0  0  0  0  0  0  0  0  0
  145.6281  142.3165  154.2962 H   0  0  0  0  0  0  0  0  0  0  0  0
  146.3798  142.6287  152.7230 H   0  0  0  0  0  0  0  0  0  0  0  0
  151.3129  141.3390  156.0324 H   0  0  0  0  0  0  0  0  0  0  0  0
  151.0326  137.2088  154.7360 H   0  0  0  0  0  0  0  0  0  0  0  0
  148.8421  137.6382  153.6717 H   0  0  0  0  0  0  0  0  0  0  0  0
  146.8600  138.4501  153.3087 H   0  0  0  0  0  0  0  0  0  0  0  0
  145.7146  139.7684  153.3803 H   0  0  0  0  0  0  0  0  0  0  0  0
  146.0897  140.4191  151.1738 H   0  0  0  0  0  0  0  0  0  0  0  0
  147.8188  140.1099  151.2655 H   0  0  0  0  0  0  0  0  0  0  0  0
  145.7803  138.4582  150.5006 H   0  0  0  0  0  0  0  0  0  0  0  0
  149.0109  142.8214  155.1917 H   0  0  0  0  0  0  0  0  0  0  0  0
  1  2  1  0  0  0  0
  1 17  1  0  0  0  0
  1 18  1  0  0  0  0
  1 19  1  0  0  0  0
  2 13  1  0  0  0  0
  2  3  2  0  0  0  0
  3  4  1  0  0  0  0
  3 28  1  0  0  0  0
  4 12  2  0  0  0  0
  4  5  1  0  0  0  0
  5  6  2  0  0  0  0
  5 20  1  0  0  0  0
  6  7  1  0  0  0  0
  6 10  1  0  0  0  0
  7  8  2  0  0  0  0
  7  9  1  0  0  0  0
 10 11  2  0  0  0  0
 10 21  1  0  0  0  0
 11 12  1  0  0  0  0
 11 22  1  0  0  0  0
 12 13  1  0  0  0  0
 13 14  1  0  0  0  0
 14 15  1  0  0  0  0
 14 23  1  0  0  0  0
 14 24  1  0  0  0  0
 15 16  1  0  0  0  0
 15 25  1  0  0  0  0
 15 26  1  0  0  0  0
 16 27  1  0  0  0  0
M  CHG  1   3   1
M  CHG  1   9  -1
M  END
> <s_m_source_file>
AV-unprocessed.smi

> <i_m_source_file_index>
2613

> <i_lp_mmshare_version>
43012

> <i_f3d_flags>
0

> <s_epik_input>
W09IXVtDSDJdW0NIMl1uKGMobjEpW0NIM10pYyhjMTIpW2NIXVtjSF1jKFtjSF0yKUMoPU8pW09IXQ==

> <s_epik_cmdline>
J2VwaWtfcHl0aG9uJywgJy1waCcsICc3LjAnLCAnLXRuJywgJzgnLCAnLW1hJywgJzIwMCcsICctbWV0YWxfYmluZGluZycsICctaW1hZScsICc8aW5maWxlLm1hZT4nLCAnLW9tYWUnLCAnPG91dGZpbGUubWFlPic=

> <r_epik_Ionization_Penalty>
0.929425

> <r_epik_Ionization_Penalty_Charging>
0.929425

> <r_epik_Ionization_Penalty_Neutral>
5.76694e-08

> <r_epik_State_Penalty>
0.971794

> <r_epik_Charging_Adjusted_Penalty>
1.90122

> <i_epik_Tot_Q>
0

> <i_epik_Tot_abs_Q>
2

> <r_epik_Metal_State_Penalty>
4.93694

> <b_epik_Metal_Only>
0

> <s_lp_Force_Field>
OPLS_2005

> <r_lp_Energy>
5.88702

> <b_lp_Chiralities_Consistent>
1

> <s_lp_Variant>
AV-unprocessed.smi:2613-2

> <Gold.Version>
5.8.1

> <Gold.Id.Protein>
6NUR|6NUR_protein|mol2

> <Gold.PLP.Fitness>
50.3255

> <Gold.PLP.PLP>
-34.1348

> <Gold.PLP.part.hbond>
-5.3309

> <Gold.PLP.part.metal>
0.0000

> <Gold.PLP.part.buried>
1.2313

> <Gold.PLP.part.nonpolar>
-30.6325

> <Gold.PLP.part.repulsive>
0.1981

> <Gold.PLP.ligand.clash>
0.0000

> <Gold.PLP.ligand.torsion>
0.8933

> <Gold.PLP.Chemscore.Hbond>
5.9920

> <Gold.PLP.Chemscore.CHOScore>
0.0000

> <Gold.PLP.Chemscore.Metal>
0.0000

> <Gold.Chemscore.Hbonds>
donor molecule, donor type, donor heavy atom, donor atom, acceptor molecule, acceptor atom, score
      L1  H     3    28       P1  8028  2.00
      L1  H    16    27       P1 10171  1.00
      P1  H  7954  7966       L1    16  0.98
      P1  H  7997  8010       L1     9  1.89

> <Gold.PLP.Chemscore.Internal.Correction>
0.0014

> <Gold.Rescore>
     Score         DG    S(hbond)    S(metal)    S(lipo)     H(rot)  DE(clash)    DE(int)     intcor
     18.69     -20.90       3.74        0.00      65.71       1.86       1.38       0.83       ----

> <Gold.Chemscore.Fitness>
18.6945

> <Gold.Chemscore.DG>
-20.8990

> <Gold.Chemscore.ZeroCoef>
-5.4800

> <Gold.Chemscore.Hbond>
3.7385

> <Gold.Chemscore.Metal>
0.0000

> <Gold.Chemscore.Lipo>
65.7149

> <Gold.Chemscore.Internal_Hbond>
0.0000

> <Gold.Chemscore.DEClash>
1.3754

> <Gold.Chemscore.DEInternal>
0.8291

> <Gold.Chemscore.Rot>
1.8579

> <Gold.Chemscore.Internal.Correction>
   9.000000E+99

> <Gold.Chemscore.Hbonds>
donor molecule, donor type, donor heavy atom, donor atom, acceptor molecule, acceptor atom, score
      L1  H     3    28       P1  8028  0.98
      L1  H    16    27       P1 10171  0.94
      P1  H  7954  7966       L1    16  0.81
      P1  H  7997  8010       L1     9  0.27

> <Gold.Chemscore.Hbond.Weighted>
-12.4865

> <Gold.Chemscore.Metal.Weighted>
-0.0000

> <Gold.Chemscore.Lipo.Weighted>
-7.6886

> <Gold.Chemscore.Internal_Hbond.Weighted>
0.0000

> <Gold.Chemscore.DEClash.Weighted>
1.3754

> <Gold.Chemscore.DEInternal.Weighted>
0.8291

> <Gold.Chemscore.Rot.Weighted>
4.7561

> <Gold.Chemscore.Internal.Correction.Weighted>
   9.000000E+99

> <Gold.Protein.RotatedTorsions>
[ 6907 6896 6895 6894 ] final   45.06 input  -60.11 | X-H torsion
[ 7974 7965 7964 7962 ] final  159.73 input  175.53 | X-H torsion
[ 8008 7997 7996 7995 ] final   60.20 input   59.86 | X-H torsion
[ 10167 10162 10161 10158 ] final   97.32 input  -65.29 | X-H torsion
[ 10718 10713 10712 10709 ] final   15.28 input   66.30 | X-H torsion
[ 10763 10752 10751 10750 ] final -132.09 input  -60.55 | X-H torsion
[ 11005 11000 10999 10996 ] final  154.97 input  -57.11 | X-H torsion

> <Gold.Protein.ActiveResidues>
 VAL166  LYS551  ARG553  GLY616  TRP617  ASP618  TYR619  PRO620  LYS621  CYS622 
 ASP623  PHE694  ASN695  SER759  ASP760  ASP761  ALA762  ILE779  LEU786  VAL792 
 PHE793  MET794  SER795  GLU796  ALA797  LYS798  CYS799  TRP800  GLU811  SER814 

> <Gold.Protein.RotatedAtoms>
  152.2400  134.8238  160.0461 H   0  0  0  0  0  0  0  0  0  0  0  0  # atno 6907 bound_to 6896
  151.8955  133.3521  159.3821 H   0  0  0  0  0  0  0  0  0  0  0  0  # atno 6908 bound_to 6896
  150.7051  134.4806  159.5513 H   0  0  0  0  0  0  0  0  0  0  0  0  # atno 6909 bound_to 6896
  144.7774  139.7658  143.6273 H   0  0  0  0  0  0  0  0  0  0  0  0  # atno 7974 bound_to 7965
  155.5784  140.3491  155.4534 H   0  0  0  0  0  0  0  0  0  0  0  0  # atno 8008 bound_to 7997
  156.0392  140.1292  157.0200 H   0  0  0  0  0  0  0  0  0  0  0  0  # atno 8009 bound_to 7997
  154.4384  140.1027  156.6197 H   0  0  0  0  0  0  0  0  0  0  0  0  # atno 8010 bound_to 7997
  139.7812  144.6887  151.0020 H   0  0  0  0  0  0  0  0  0  0  0  0  # atno 10167 bound_to 10162
  157.0513  130.6271  149.5768 H   0  0  0  0  0  0  0  0  0  0  0  0  # atno 10718 bound_to 10713
  154.8746  135.3809  154.4353 H   0  0  0  0  0  0  0  0  0  0  0  0  # atno 10763 bound_to 10752
  153.5043  135.7030  153.5820 H   0  0  0  0  0  0  0  0  0  0  0  0  # atno 10764 bound_to 10752
  153.4138  135.3918  155.2033 H   0  0  0  0  0  0  0  0  0  0  0  0  # atno 10765 bound_to 10752
  140.1538  134.8657  157.2488 H   0  0  0  0  0  0  0  0  0  0  0  0  # atno 11005 bound_to 11000
  146.1963  139.5231  142.9772 LP  0  0  0  0  0  0  0  0  0  0  0  0  # atno 17320 bound_to 7965
  145.6146  141.0333  143.1948 LP  0  0  0  0  0  0  0  0  0  0  0  0  # atno 17321 bound_to 7965
  140.7818  143.4481  151.0453 LP  0  0  0  0  0  0  0  0  0  0  0  0  # atno 17342 bound_to 10162
  139.8161  143.7883  152.3174 LP  0  0  0  0  0  0  0  0  0  0  0  0  # atno 17343 bound_to 10162
  156.0007  130.5085  150.7651 LP  0  0  0  0  0  0  0  0  0  0  0  0  # atno 17370 bound_to 10713
  157.5028  131.0920  151.0294 LP  0  0  0  0  0  0  0  0  0  0  0  0  # atno 17371 bound_to 10713
  140.2572  134.3613  155.7420 LP  0  0  0  0  0  0  0  0  0  0  0  0  # atno 17394 bound_to 11000
  141.2202  133.7349  156.9026 LP  0  0  0  0  0  0  0  0  0  0  0  0  # atno 17395 bound_to 11000

$$$$
