AV-unprocessed.smi:2019|AV-procd|sdf|8171|dock10
  -GOLD-   2272010423D 1   1.00000     0.00000
 Structure written by MMmdl.
 36 37  0  0  0  0  0  0  0  0  1 V2000
  150.8920  141.5892  158.8156 O   0  0  0  0  0  0  0  0  0  0  0  0
  151.5631  142.3213  158.0871 C   0  0  0  0  0  0  0  0  0  0  0  0
  151.1440  142.5825  156.6339 C   0  0  0  0  0  0  0  0  0  0  0  0
  150.5641  141.3997  155.9764 N   0  0  0  0  0  0  0  0  0  0  0  0
  149.3529  141.5809  155.2794 C   0  0  0  0  0  0  0  0  0  0  0  0
  148.7397  140.5684  154.6461 C   0  0  0  0  0  0  0  0  0  0  0  0
  149.3545  139.2628  154.6911 C   0  0  0  0  0  0  0  0  0  0  0  0
  150.5114  139.0778  155.3574 C   0  0  0  0  0  0  0  0  0  0  0  0
  151.1843  140.1813  156.0526 C   0  0  0  0  0  0  0  0  0  0  0  0
  152.2410  140.0209  156.6639 O   0  0  0  0  0  0  0  0  0  0  0  0
  152.6766  142.9478  158.4997 N   0  0  0  0  0  0  0  0  0  0  0  0
  153.2749  142.8299  159.8315 C   0  0  2  0  0  0  0  0  0  0  0  0
  153.3920  141.3233  160.1587 C   0  0  0  0  0  0  0  0  0  0  0  0
  154.4485  141.0007  161.2296 C   0  0  0  0  0  0  0  0  0  0  0  0
  154.1467  141.5618  162.6277 C   0  0  0  0  0  0  0  0  0  0  0  0
  154.0908  143.0981  162.6784 C   0  0  0  0  0  0  0  0  0  0  0  0
  152.8355  143.6188  162.1529 N   0  0  0  0  0  0  0  0  0  0  0  0
  152.3824  143.5134  160.8944 C   0  0  0  0  0  0  0  0  0  0  0  0
  151.2712  143.9513  160.5960 O   0  0  0  0  0  0  0  0  0  0  0  0
  150.4341  143.4108  156.6308 H   0  0  0  0  0  0  0  0  0  0  0  0
  152.0036  142.9411  156.0641 H   0  0  0  0  0  0  0  0  0  0  0  0
  148.9553  142.5851  155.2996 H   0  0  0  0  0  0  0  0  0  0  0  0
  147.8094  140.7255  154.1203 H   0  0  0  0  0  0  0  0  0  0  0  0
  148.8833  138.4304  154.1892 H   0  0  0  0  0  0  0  0  0  0  0  0
  150.9562  138.0938  155.3815 H   0  0  0  0  0  0  0  0  0  0  0  0
  153.1667  143.5263  157.8331 H   0  0  0  0  0  0  0  0  0  0  0  0
  154.2647  143.2900  159.8202 H   0  0  0  0  0  0  0  0  0  0  0  0
  152.4238  140.9086  160.4460 H   0  0  0  0  0  0  0  0  0  0  0  0
  153.6816  140.7848  159.2549 H   0  0  0  0  0  0  0  0  0  0  0  0
  154.5451  139.9171  161.3055 H   0  0  0  0  0  0  0  0  0  0  0  0
  155.4228  141.3616  160.8971 H   0  0  0  0  0  0  0  0  0  0  0  0
  153.2182  141.1377  163.0128 H   0  0  0  0  0  0  0  0  0  0  0  0
  154.9319  141.2232  163.3044 H   0  0  0  0  0  0  0  0  0  0  0  0
  154.1638  143.4249  163.7159 H   0  0  0  0  0  0  0  0  0  0  0  0
  154.9393  143.5426  162.1562 H   0  0  0  0  0  0  0  0  0  0  0  0
  152.2326  144.0812  162.8182 H   0  0  0  0  0  0  0  0  0  0  0  0
  1  2  2  0  0  0  0
  2  3  1  0  0  0  0
  2 11  1  0  0  0  0
  3  4  1  0  0  0  0
  3 20  1  0  0  0  0
  3 21  1  0  0  0  0
  4  9  1  0  0  0  0
  4  5  1  0  0  0  0
  5  6  2  0  0  0  0
  5 22  1  0  0  0  0
  6  7  1  0  0  0  0
  6 23  1  0  0  0  0
  7  8  2  0  0  0  0
  7 24  1  0  0  0  0
  8  9  1  0  0  0  0
  8 25  1  0  0  0  0
  9 10  2  0  0  0  0
 11 12  1  0  0  0  0
 11 26  1  0  0  0  0
 12 18  1  0  0  0  0
 12 13  1  0  0  0  0
 12 27  1  0  0  0  0
 13 14  1  0  0  0  0
 13 28  1  0  0  0  0
 13 29  1  0  0  0  0
 14 15  1  0  0  0  0
 14 30  1  0  0  0  0
 14 31  1  0  0  0  0
 15 16  1  0  0  0  0
 15 32  1  0  0  0  0
 15 33  1  0  0  0  0
 16 17  1  0  0  0  0
 16 34  1  0  0  0  0
 16 35  1  0  0  0  0
 17 18  1  0  0  0  0
 17 36  1  0  0  0  0
 18 19  2  0  0  0  0
M  END
> <s_m_source_file>
AV-unprocessed.smi

> <i_m_source_file_index>
2019

> <i_lp_mmshare_version>
43012

> <i_f3d_flags>
0

> <s_epik_input>
Tz1jMVtjSF1bY0hdW2NIXVtjSF1uMVtDSDJdQyg9TylbTkhdW0NAQEhdMltDSDJdW0NIMl1bQ0gyXVtDSDJdW05IXUMyPU8=

> <s_epik_cmdline>
J2VwaWtfcHl0aG9uJywgJy1waCcsICc3LjAnLCAnLXRuJywgJzgnLCAnLW1hJywgJzIwMCcsICctbWV0YWxfYmluZGluZycsICctaW1hZScsICc8aW5maWxlLm1hZT4nLCAnLW9tYWUnLCAnPG91dGZpbGUubWFlPic=

> <r_lp_tautomer_probability>
1

> <r_epik_Ionization_Penalty>
3.70786e-07

> <r_epik_Ionization_Penalty_Charging>
3.17464e-07

> <r_epik_Ionization_Penalty_Neutral>
5.33217e-08

> <r_epik_State_Penalty>
-0

> <r_epik_Charging_Adjusted_Penalty>
3.17464e-07

> <i_epik_Tot_Q>
0

> <i_epik_Tot_abs_Q>
0

> <r_epik_Metal_State_Penalty>
-0

> <b_epik_Metal_Only>
0

> <s_lp_Force_Field>
OPLS_2005

> <r_lp_Energy>
20.44

> <b_lp_Chiralities_Consistent>
1

> <s_lp_Variant>
AV-unprocessed.smi:2019-1

> <Gold.Version>
5.8.1

> <Gold.Id.Protein>
6NUR|6NUR_protein|mol2

> <Gold.PLP.Fitness>
47.4004

> <Gold.PLP.PLP>
-42.5236

> <Gold.PLP.part.hbond>
-2.9095

> <Gold.PLP.part.metal>
0.0000

> <Gold.PLP.part.buried>
-3.7770

> <Gold.PLP.part.nonpolar>
-35.1511

> <Gold.PLP.part.repulsive>
0.2813

> <Gold.PLP.ligand.clash>
0.0000

> <Gold.PLP.ligand.torsion>
0.5503

> <Gold.PLP.Chemscore.Hbond>
0.9921

> <Gold.PLP.Chemscore.CHOScore>
1.0000

> <Gold.PLP.Chemscore.Metal>
0.0000

> <Gold.Chemscore.Hbonds>
donor molecule, donor type, donor heavy atom, donor atom, acceptor molecule, acceptor atom, score
      P1  H  7997  8010       L1    10  0.70
      L1  C     5    22       P1  8028  1.00

> <Gold.PLP.Chemscore.Internal.Correction>
0.0010

> <Gold.Rescore>
     Score         DG    S(hbond)    S(metal)    S(lipo)     H(rot)  DE(clash)    DE(int)     intcor
     10.79     -14.99       0.99        0.00      87.82       1.59       0.25       3.94       ----

> <Gold.Chemscore.Fitness>
10.7927

> <Gold.Chemscore.DG>
-14.9856

> <Gold.Chemscore.ZeroCoef>
-5.4800

> <Gold.Chemscore.Hbond>
0.9915

> <Gold.Chemscore.Metal>
0.0000

> <Gold.Chemscore.Lipo>
87.8160

> <Gold.Chemscore.Internal_Hbond>
0.0000

> <Gold.Chemscore.DEClash>
0.2529

> <Gold.Chemscore.DEInternal>
3.9400

> <Gold.Chemscore.Rot>
1.5939

> <Gold.Chemscore.Internal.Correction>
   9.000000E+99

> <Gold.Chemscore.Hbonds>
donor molecule, donor type, donor heavy atom, donor atom, acceptor molecule, acceptor atom, score
      P1  H  7997  8010       L1    10  0.66

> <Gold.Chemscore.Hbond.Weighted>
-3.3115

> <Gold.Chemscore.Metal.Weighted>
-0.0000

> <Gold.Chemscore.Lipo.Weighted>
-10.2745

> <Gold.Chemscore.Internal_Hbond.Weighted>
0.0000

> <Gold.Chemscore.DEClash.Weighted>
0.2529

> <Gold.Chemscore.DEInternal.Weighted>
3.9400

> <Gold.Chemscore.Rot.Weighted>
4.0804

> <Gold.Chemscore.Internal.Correction.Weighted>
   9.000000E+99

> <Gold.Protein.RotatedTorsions>
[ 6907 6896 6895 6894 ] final -164.97 input  -60.11 | X-H torsion
[ 7974 7965 7964 7962 ] final -176.34 input  175.53 | X-H torsion
[ 8008 7997 7996 7995 ] final   85.38 input   59.86 | X-H torsion
[ 10167 10162 10161 10158 ] final   69.53 input  -65.29 | X-H torsion
[ 10718 10713 10712 10709 ] final   66.09 input   66.30 | X-H torsion
[ 10763 10752 10751 10750 ] final  -46.44 input  -60.55 | X-H torsion
[ 11005 11000 10999 10996 ] final  -87.75 input  -57.11 | X-H torsion

> <Gold.Protein.ActiveResidues>
 VAL166  LYS551  ARG553  GLY616  TRP617  ASP618  TYR619  PRO620  LYS621  CYS622 
 ASP623  PHE694  ASN695  SER759  ASP760  ASP761  ALA762  ILE779  LEU786  VAL792 
 PHE793  MET794  SER795  GLU796  ALA797  LYS798  CYS799  TRP800  GLU811  SER814 

> <Gold.Protein.RotatedAtoms>
  151.4202  133.3700  159.2754 H   0  0  0  0  0  0  0  0  0  0  0  0  # atno 6907 bound_to 6896
  150.9299  134.8716  159.7555 H   0  0  0  0  0  0  0  0  0  0  0  0  # atno 6908 bound_to 6896
  152.5023  134.4146  159.9512 H   0  0  0  0  0  0  0  0  0  0  0  0  # atno 6909 bound_to 6896
  144.7127  140.1185  143.6406 H   0  0  0  0  0  0  0  0  0  0  0  0  # atno 7974 bound_to 7965
  155.9493  140.3402  155.6394 H   0  0  0  0  0  0  0  0  0  0  0  0  # atno 8008 bound_to 7997
  155.6940  140.0752  157.2455 H   0  0  0  0  0  0  0  0  0  0  0  0  # atno 8009 bound_to 7997
  154.4118  140.1652  156.2105 H   0  0  0  0  0  0  0  0  0  0  0  0  # atno 8010 bound_to 7997
  140.0668  144.5187  150.7255 H   0  0  0  0  0  0  0  0  0  0  0  0  # atno 10167 bound_to 10162
  157.6147  130.9249  150.0062 H   0  0  0  0  0  0  0  0  0  0  0  0  # atno 10718 bound_to 10713
  154.0450  135.6639  153.4794 H   0  0  0  0  0  0  0  0  0  0  0  0  # atno 10763 bound_to 10752
  153.0486  135.5098  154.7806 H   0  0  0  0  0  0  0  0  0  0  0  0  # atno 10764 bound_to 10752
  154.6794  135.3042  154.9600 H   0  0  0  0  0  0  0  0  0  0  0  0  # atno 10765 bound_to 10752
  141.1612  133.7529  156.9352 H   0  0  0  0  0  0  0  0  0  0  0  0  # atno 11005 bound_to 11000
  145.9392  139.2657  143.1279 LP  0  0  0  0  0  0  0  0  0  0  0  0  # atno 17320 bound_to 7965
  145.9441  140.8957  143.0292 LP  0  0  0  0  0  0  0  0  0  0  0  0  # atno 17321 bound_to 7965
  140.7145  143.2533  151.4477 LP  0  0  0  0  0  0  0  0  0  0  0  0  # atno 17342 bound_to 10162
  139.5860  144.1603  152.2029 LP  0  0  0  0  0  0  0  0  0  0  0  0  # atno 17343 bound_to 10162
  156.1264  130.3644  149.9803 LP  0  0  0  0  0  0  0  0  0  0  0  0  # atno 17370 bound_to 10713
  156.7873  130.9243  151.3646 LP  0  0  0  0  0  0  0  0  0  0  0  0  # atno 17371 bound_to 10713
  140.1359  134.9325  157.2401 LP  0  0  0  0  0  0  0  0  0  0  0  0  # atno 17394 bound_to 11000
  140.2896  134.3256  155.7319 LP  0  0  0  0  0  0  0  0  0  0  0  0  # atno 17395 bound_to 11000

$$$$
