AV-unprocessed.smi:824|AV-procd|sdf|3849|dock3
  -GOLD-   22720 1293D 1   1.00000     0.00000
 Structure written by MMmdl.
 52 53  0  0  0  0  0  0  0  0  1 V2000
  148.7851  141.2203  154.3271 C   0  0  0  0  0  0  0  0  0  0  0  0
  149.9482  141.0809  155.2937 C   0  0  0  0  0  0  0  0  0  0  0  0
  150.0717  142.1198  156.1981 N   0  0  0  0  0  0  0  0  0  0  0  0
  151.1069  142.0929  157.1242 C   0  0  0  0  0  0  0  0  0  0  0  0
  151.1318  143.1854  157.9881 N   0  0  0  0  0  0  0  0  0  0  0  0
  149.9156  143.5478  158.7148 C   0  0  0  0  0  0  0  0  0  0  0  0
  150.2344  144.4403  159.9263 C   0  0  0  0  0  0  0  0  0  0  0  0
  150.9555  145.5882  159.4983 O   0  0  0  0  0  0  0  0  0  0  0  0
  152.1925  145.2307  158.8955 C   0  0  0  0  0  0  0  0  0  0  0  0
  151.9302  144.3638  157.6528 C   0  0  0  0  0  0  0  0  0  0  0  0
  151.9767  141.1266  157.1906 N   0  0  0  0  0  0  0  0  0  0  0  0
  151.9085  140.0481  156.2960 C   0  0  0  0  0  0  0  0  0  0  0  0
  152.7359  139.1394  156.3501 O   0  0  0  0  0  0  0  0  0  0  0  0
  150.8222  140.0464  155.2940 C   0  0  0  0  0  0  0  0  0  0  0  0
  150.7292  138.8757  154.3191 C   0  0  0  0  0  0  0  0  0  0  0  0
  150.7771  137.5165  155.0451 C   0  0  0  0  0  0  0  0  0  0  0  0
  149.4717  137.1550  155.7784 C   0  0  0  0  0  0  0  0  0  0  0  0
  148.5712  137.9944  155.8412 O   0  0  0  0  0  0  0  0  0  0  0  0
  149.3534  135.9361  156.3605 N   0  0  0  0  0  0  0  0  0  0  0  0
  148.1724  135.6281  157.1743 C   0  0  0  0  0  0  0  0  0  0  0  0
  150.3758  134.8786  156.2999 C   0  0  0  0  0  0  0  0  0  0  0  0
  149.8865  133.5954  155.5851 C   0  0  0  0  0  0  0  0  0  0  0  0
  150.8954  132.4380  155.6784 C   0  0  0  0  0  0  0  0  0  0  0  0
  149.5459  133.8931  154.1175 C   0  0  0  0  0  0  0  0  0  0  0  0
  149.3947  142.8677  156.1557 H   0  0  0  0  0  0  0  0  0  0  0  0
  149.1367  141.1677  153.2965 H   0  0  0  0  0  0  0  0  0  0  0  0
  148.2667  142.1712  154.4556 H   0  0  0  0  0  0  0  0  0  0  0  0
  148.0615  140.4204  154.4862 H   0  0  0  0  0  0  0  0  0  0  0  0
  149.3839  142.6584  159.0544 H   0  0  0  0  0  0  0  0  0  0  0  0
  149.2447  144.0738  158.0342 H   0  0  0  0  0  0  0  0  0  0  0  0
  149.3111  144.7616  160.4087 H   0  0  0  0  0  0  0  0  0  0  0  0
  150.8094  143.8912  160.6735 H   0  0  0  0  0  0  0  0  0  0  0  0
  152.7255  146.1389  158.6139 H   0  0  0  0  0  0  0  0  0  0  0  0
  152.8213  144.7013  159.6131 H   0  0  0  0  0  0  0  0  0  0  0  0
  151.4045  144.9474  156.8955 H   0  0  0  0  0  0  0  0  0  0  0  0
  152.8831  144.0598  157.2167 H   0  0  0  0  0  0  0  0  0  0  0  0
  151.5417  138.9347  153.5950 H   0  0  0  0  0  0  0  0  0  0  0  0
  149.8142  138.9650  153.7312 H   0  0  0  0  0  0  0  0  0  0  0  0
  151.0170  136.7461  154.3147 H   0  0  0  0  0  0  0  0  0  0  0  0
  151.5874  137.5239  155.7749 H   0  0  0  0  0  0  0  0  0  0  0  0
  147.2542  135.8168  156.6160 H   0  0  0  0  0  0  0  0  0  0  0  0
  148.1583  136.2468  158.0725 H   0  0  0  0  0  0  0  0  0  0  0  0
  148.1422  134.5852  157.4909 H   0  0  0  0  0  0  0  0  0  0  0  0
  151.2747  135.2560  155.8116 H   0  0  0  0  0  0  0  0  0  0  0  0
  150.7085  134.6265  157.3079 H   0  0  0  0  0  0  0  0  0  0  0  0
  148.9679  133.2545  156.0612 H   0  0  0  0  0  0  0  0  0  0  0  0
  151.8595  132.7164  155.2518 H   0  0  0  0  0  0  0  0  0  0  0  0
  150.5359  131.5602  155.1406 H   0  0  0  0  0  0  0  0  0  0  0  0
  151.0612  132.1335  156.7118 H   0  0  0  0  0  0  0  0  0  0  0  0
  150.4247  134.2312  153.5673 H   0  0  0  0  0  0  0  0  0  0  0  0
  148.7849  134.6700  154.0401 H   0  0  0  0  0  0  0  0  0  0  0  0
  149.1595  133.0061  153.6148 H   0  0  0  0  0  0  0  0  0  0  0  0
  1 26  1  0  0  0  0
  1 27  1  0  0  0  0
  1 28  1  0  0  0  0
  1  2  1  0  0  0  0
  2 14  2  0  0  0  0
  2  3  1  0  0  0  0
  3 25  1  0  0  0  0
  3  4  1  0  0  0  0
  4  5  1  0  0  0  0
  4 11  2  0  0  0  0
  5 10  1  0  0  0  0
  5  6  1  0  0  0  0
  6  7  1  0  0  0  0
  6 29  1  0  0  0  0
  6 30  1  0  0  0  0
  7  8  1  0  0  0  0
  7 31  1  0  0  0  0
  7 32  1  0  0  0  0
  8  9  1  0  0  0  0
  9 10  1  0  0  0  0
  9 33  1  0  0  0  0
  9 34  1  0  0  0  0
 10 35  1  0  0  0  0
 10 36  1  0  0  0  0
 11 12  1  0  0  0  0
 12 13  2  0  0  0  0
 12 14  1  0  0  0  0
 14 15  1  0  0  0  0
 15 16  1  0  0  0  0
 15 37  1  0  0  0  0
 15 38  1  0  0  0  0
 16 17  1  0  0  0  0
 16 39  1  0  0  0  0
 16 40  1  0  0  0  0
 17 18  2  0  0  0  0
 17 19  1  0  0  0  0
 19 20  1  0  0  0  0
 19 21  1  0  0  0  0
 20 41  1  0  0  0  0
 20 42  1  0  0  0  0
 20 43  1  0  0  0  0
 21 22  1  0  0  0  0
 21 44  1  0  0  0  0
 21 45  1  0  0  0  0
 22 23  1  0  0  0  0
 22 24  1  0  0  0  0
 22 46  1  0  0  0  0
 23 47  1  0  0  0  0
 23 48  1  0  0  0  0
 23 49  1  0  0  0  0
 24 50  1  0  0  0  0
 24 51  1  0  0  0  0
 24 52  1  0  0  0  0
M  END
> <s_m_source_file>
AV-unprocessed.smi

> <i_m_source_file_index>
824

> <i_lp_mmshare_version>
43012

> <i_f3d_flags>
0

> <s_epik_input>
W0NIMl0xW0NIMl1PW0NIMl1bQ0gyXU4xYyhuYzJbQ0gzXSlbbkhdYyg9TyljMltDSDJdW0NIMl1DKD1PKU4oW0NIM10pW0NIMl1bQ0hdKFtDSDNdKVtDSDNd

> <s_epik_cmdline>
J2VwaWtfcHl0aG9uJywgJy1waCcsICc3LjAnLCAnLXRuJywgJzgnLCAnLW1hJywgJzIwMCcsICctbWV0YWxfYmluZGluZycsICctaW1hZScsICc8aW5maWxlLm1hZT4nLCAnLW9tYWUnLCAnPG91dGZpbGUubWFlPic=

> <r_lp_tautomer_probability>
0.108306

> <r_epik_Ionization_Penalty>
0.0729191

> <r_epik_Ionization_Penalty_Charging>
0.0597558

> <r_epik_Ionization_Penalty_Neutral>
0.0131634

> <r_epik_State_Penalty>
1.71329

> <r_epik_Charging_Adjusted_Penalty>
1.77304

> <i_epik_Tot_Q>
0

> <i_epik_Tot_abs_Q>
0

> <r_epik_Metal_State_Penalty>
2.71696

> <b_epik_Metal_Only>
0

> <s_lp_Force_Field>
OPLS_2005

> <r_lp_Energy>
37.7489

> <b_lp_Chiralities_Consistent>
1

> <s_lp_Variant>
AV-unprocessed.smi:824-2

> <Gold.Version>
5.8.1

> <Gold.Id.Protein>
6NUR|6NUR_protein|mol2

> <Gold.PLP.Fitness>
49.0641

> <Gold.PLP.PLP>
-45.5597

> <Gold.PLP.part.hbond>
-3.2119

> <Gold.PLP.part.metal>
0.0000

> <Gold.PLP.part.buried>
-3.3496

> <Gold.PLP.part.nonpolar>
-38.3092

> <Gold.PLP.part.repulsive>
0.3217

> <Gold.PLP.ligand.clash>
0.0000

> <Gold.PLP.ligand.torsion>
1.4277

> <Gold.PLP.Chemscore.Hbond>
2.0000

> <Gold.PLP.Chemscore.CHOScore>
0.0000

> <Gold.PLP.Chemscore.Metal>
0.0000

> <Gold.Chemscore.Hbonds>
donor molecule, donor type, donor heavy atom, donor atom, acceptor molecule, acceptor atom, score
      L1  H     3    25       P1  8028  1.00
      P1  H  7997  8008       L1    13  1.00

> <Gold.PLP.Chemscore.Internal.Correction>
0.3598

> <Gold.Rescore>
     Score         DG    S(hbond)    S(metal)    S(lipo)     H(rot)  DE(clash)    DE(int)     intcor
     14.22     -17.40       1.51        0.00      96.13       1.71       0.51       2.67       ----

> <Gold.Chemscore.Fitness>
14.2192

> <Gold.Chemscore.DG>
-17.4030

> <Gold.Chemscore.ZeroCoef>
-5.4800

> <Gold.Chemscore.Hbond>
1.5124

> <Gold.Chemscore.Metal>
0.0000

> <Gold.Chemscore.Lipo>
96.1313

> <Gold.Chemscore.Internal_Hbond>
0.0000

> <Gold.Chemscore.DEClash>
0.5133

> <Gold.Chemscore.DEInternal>
2.6704

> <Gold.Chemscore.Rot>
1.7093

> <Gold.Chemscore.Internal.Correction>
   9.000000E+99

> <Gold.Chemscore.Hbonds>
donor molecule, donor type, donor heavy atom, donor atom, acceptor molecule, acceptor atom, score
      L1  H     3    25       P1  8028  0.93
      P1  H  7997  8008       L1    13  0.30

> <Gold.Chemscore.Hbond.Weighted>
-5.0515

> <Gold.Chemscore.Metal.Weighted>
-0.0000

> <Gold.Chemscore.Lipo.Weighted>
-11.2474

> <Gold.Chemscore.Internal_Hbond.Weighted>
0.0000

> <Gold.Chemscore.DEClash.Weighted>
0.5133

> <Gold.Chemscore.DEInternal.Weighted>
2.6704

> <Gold.Chemscore.Rot.Weighted>
4.3759

> <Gold.Chemscore.Internal.Correction.Weighted>
   9.000000E+99

> <Gold.Protein.RotatedTorsions>
[ 6907 6896 6895 6894 ] final -173.43 input  -60.11 | X-H torsion
[ 7974 7965 7964 7962 ] final -103.95 input  175.53 | X-H torsion
[ 8008 7997 7996 7995 ] final  -44.79 input   59.86 | X-H torsion
[ 10167 10162 10161 10158 ] final   53.41 input  -65.29 | X-H torsion
[ 10718 10713 10712 10709 ] final -132.98 input   66.30 | X-H torsion
[ 10763 10752 10751 10750 ] final  164.88 input  -60.55 | X-H torsion
[ 11005 11000 10999 10996 ] final  -51.69 input  -57.11 | X-H torsion

> <Gold.Protein.ActiveResidues>
 VAL166  LYS551  ARG553  GLY616  TRP617  ASP618  TYR619  PRO620  LYS621  CYS622 
 ASP623  PHE694  ASN695  SER759  ASP760  ASP761  ALA762  ILE779  LEU786  VAL792 
 PHE793  MET794  SER795  GLU796  ALA797  LYS798  CYS799  TRP800  GLU811  SER814 

> <Gold.Protein.RotatedAtoms>
  151.5560  133.3410  159.2961 H   0  0  0  0  0  0  0  0  0  0  0  0  # atno 6907 bound_to 6896
  150.8451  134.7759  159.6975 H   0  0  0  0  0  0  0  0  0  0  0  0  # atno 6908 bound_to 6896
  152.4510  134.5401  159.9888 H   0  0  0  0  0  0  0  0  0  0  0  0  # atno 6909 bound_to 6896
  145.2494  140.9233  143.3104 H   0  0  0  0  0  0  0  0  0  0  0  0  # atno 7974 bound_to 7965
  154.3998  140.1413  156.3741 H   0  0  0  0  0  0  0  0  0  0  0  0  # atno 8008 bound_to 7997
  155.8065  140.3474  155.5412 H   0  0  0  0  0  0  0  0  0  0  0  0  # atno 8009 bound_to 7997
  155.8430  140.0929  157.1713 H   0  0  0  0  0  0  0  0  0  0  0  0  # atno 8010 bound_to 7997
  140.2410  144.3583  150.6380 H   0  0  0  0  0  0  0  0  0  0  0  0  # atno 10167 bound_to 10162
  156.2402  130.7091  151.0949 H   0  0  0  0  0  0  0  0  0  0  0  0  # atno 10718 bound_to 10713
  154.3155  135.2756  155.2545 H   0  0  0  0  0  0  0  0  0  0  0  0  # atno 10763 bound_to 10752
  154.4921  135.5831  153.6470 H   0  0  0  0  0  0  0  0  0  0  0  0  # atno 10764 bound_to 10752
  152.9883  135.6137  154.3336 H   0  0  0  0  0  0  0  0  0  0  0  0  # atno 10765 bound_to 10752
  141.0885  133.6637  156.3915 H   0  0  0  0  0  0  0  0  0  0  0  0  # atno 11005 bound_to 11000
  144.9517  139.4076  143.6399 LP  0  0  0  0  0  0  0  0  0  0  0  0  # atno 17320 bound_to 7965
  146.3307  139.8527  142.8870 LP  0  0  0  0  0  0  0  0  0  0  0  0  # atno 17321 bound_to 7965
  140.6113  143.2170  151.6880 LP  0  0  0  0  0  0  0  0  0  0  0  0  # atno 17342 bound_to 10162
  139.5077  144.3636  152.0538 LP  0  0  0  0  0  0  0  0  0  0  0  0  # atno 17343 bound_to 10162
  157.7172  131.0703  150.6281 LP  0  0  0  0  0  0  0  0  0  0  0  0  # atno 17370 bound_to 10713
  156.6354  130.4443  149.5771 LP  0  0  0  0  0  0  0  0  0  0  0  0  # atno 17371 bound_to 10713
  140.5308  134.6214  157.5349 LP  0  0  0  0  0  0  0  0  0  0  0  0  # atno 17394 bound_to 11000
  139.9706  134.7299  156.0049 LP  0  0  0  0  0  0  0  0  0  0  0  0  # atno 17395 bound_to 11000

$$$$
