AV-unprocessed.smi:1682|AV-procd|sdf|6744|dock5
  -GOLD-   22720 7493D 1   1.00000     0.00000
 Structure written by MMmdl.
 38 39  0  0  0  0  0  0  0  0  1 V2000
  152.2384  137.2055  159.5482 O   0  0  0  0  0  0  0  0  0  0  0  0
  151.6433  137.9496  158.7678 C   0  0  0  0  0  0  0  0  0  0  0  0
  150.3928  137.7177  158.3401 N   0  0  0  0  0  0  0  0  0  0  0  0
  149.5748  136.5751  158.7293 C   0  0  0  0  0  0  0  0  0  0  0  0
  148.2133  137.0182  159.2910 C   0  0  0  0  0  0  0  0  0  0  0  0
  147.9010  136.3624  160.6226 C   0  0  0  0  0  0  0  0  0  0  0  0
  147.7560  134.9620  160.7196 C   0  0  0  0  0  0  0  0  0  0  0  0
  147.4720  134.4025  161.9807 C   0  0  0  0  0  0  0  0  0  0  0  0
  147.3462  135.2606  163.0902 C   0  0  0  0  0  0  0  0  0  0  0  0
  147.5098  136.6457  162.8884 C   0  0  0  0  0  0  0  0  0  0  0  0
  147.7814  137.1924  161.6837 N   0  0  0  0  0  0  0  0  0  0  0  0
  152.3302  139.2136  158.2277 C   0  0  1  0  0  0  0  0  0  0  0  0
  151.3901  140.0194  157.3093 C   0  0  0  0  0  0  0  0  0  0  0  0
  151.1214  141.2969  158.0863 C   0  0  0  0  0  0  0  0  0  0  0  0
  150.3091  142.1428  157.7150 O   0  0  0  0  0  0  0  0  0  0  0  0
  151.8626  141.3489  159.1980 N   0  0  0  0  0  0  0  0  0  0  0  0
  151.8400  142.4068  160.2072 C   0  0  0  0  0  0  0  0  0  0  0  0
  152.1070  143.7994  159.6079 C   0  0  0  0  0  0  0  0  0  0  0  0
  151.0720  144.2203  158.8814 F   0  0  0  0  0  0  0  0  0  0  0  0
  152.3064  144.6663  160.5998 F   0  0  0  0  0  0  0  0  0  0  0  0
  153.1979  143.7731  158.8423 F   0  0  0  0  0  0  0  0  0  0  0  0
  152.7296  140.1921  159.3539 C   0  0  0  0  0  0  0  0  0  0  0  0
  149.9781  138.3790  157.6995 H   0  0  0  0  0  0  0  0  0  0  0  0
  149.4375  135.9053  157.8785 H   0  0  0  0  0  0  0  0  0  0  0  0
  150.1231  136.0101  159.4836 H   0  0  0  0  0  0  0  0  0  0  0  0
  148.1950  138.1016  159.4177 H   0  0  0  0  0  0  0  0  0  0  0  0
  147.4179  136.7800  158.5836 H   0  0  0  0  0  0  0  0  0  0  0  0
  147.8611  134.3295  159.8502 H   0  0  0  0  0  0  0  0  0  0  0  0
  147.3535  133.3351  162.0943 H   0  0  0  0  0  0  0  0  0  0  0  0
  147.1301  134.8674  164.0725 H   0  0  0  0  0  0  0  0  0  0  0  0
  147.4208  137.3329  163.7167 H   0  0  0  0  0  0  0  0  0  0  0  0
  153.2224  138.9221  157.6703 H   0  0  0  0  0  0  0  0  0  0  0  0
  151.8779  140.2644  156.3653 H   0  0  0  0  0  0  0  0  0  0  0  0
  150.4533  139.5080  157.0811 H   0  0  0  0  0  0  0  0  0  0  0  0
  150.8768  142.3999  160.7202 H   0  0  0  0  0  0  0  0  0  0  0  0
  152.5885  142.1879  160.9697 H   0  0  0  0  0  0  0  0  0  0  0  0
  152.6201  139.7617  160.3510 H   0  0  0  0  0  0  0  0  0  0  0  0
  153.7695  140.5023  159.2443 H   0  0  0  0  0  0  0  0  0  0  0  0
  1  2  2  0  0  0  0
  2  3  1  0  0  0  0
  2 12  1  0  0  0  0
  3  4  1  0  0  0  0
  3 23  1  0  0  0  0
  4  5  1  0  0  0  0
  4 24  1  0  0  0  0
  4 25  1  0  0  0  0
  5  6  1  0  0  0  0
  5 26  1  0  0  0  0
  5 27  1  0  0  0  0
  6 11  1  0  0  0  0
  6  7  2  0  0  0  0
  7  8  1  0  0  0  0
  7 28  1  0  0  0  0
  8  9  2  0  0  0  0
  8 29  1  0  0  0  0
  9 10  1  0  0  0  0
  9 30  1  0  0  0  0
 10 11  2  0  0  0  0
 10 31  1  0  0  0  0
 12 22  1  0  0  0  0
 12 13  1  0  0  0  0
 12 32  1  0  0  0  0
 13 14  1  0  0  0  0
 13 33  1  0  0  0  0
 13 34  1  0  0  0  0
 14 15  2  0  0  0  0
 14 16  1  0  0  0  0
 16 17  1  0  0  0  0
 16 22  1  0  0  0  0
 17 18  1  0  0  0  0
 17 35  1  0  0  0  0
 17 36  1  0  0  0  0
 18 19  1  0  0  0  0
 18 20  1  0  0  0  0
 18 21  1  0  0  0  0
 22 37  1  0  0  0  0
 22 38  1  0  0  0  0
M  END
> <s_m_source_file>
AV-unprocessed.smi

> <i_m_source_file_index>
1682

> <i_lp_mmshare_version>
43012

> <i_f3d_flags>
0

> <s_epik_input>
RkMoRikoRilbQ0gyXU4oW0NIMl0xKUMoPU8pW0NIMl1bQ0BIXTFDKD1PKVtOSF1bQ0gyXVtDSDJdYzJbY0hdW2NIXVtjSF1bY0hdbjI=

> <s_epik_cmdline>
J2VwaWtfcHl0aG9uJywgJy1waCcsICc3LjAnLCAnLXRuJywgJzgnLCAnLW1hJywgJzIwMCcsICctbWV0YWxfYmluZGluZycsICctaW1hZScsICc8aW5maWxlLm1hZT4nLCAnLW9tYWUnLCAnPG91dGZpbGUubWFlPic=

> <r_epik_Ionization_Penalty>
0.0252359

> <r_epik_Ionization_Penalty_Charging>
0

> <r_epik_Ionization_Penalty_Neutral>
0.0252359

> <r_epik_State_Penalty>
0.020532

> <r_epik_Charging_Adjusted_Penalty>
0.020532

> <i_epik_Tot_Q>
0

> <i_epik_Tot_abs_Q>
0

> <r_epik_Metal_State_Penalty>
0.0196899

> <b_epik_Metal_Only>
0

> <s_lp_Force_Field>
OPLS_2005

> <r_lp_Energy>
9.99714

> <b_lp_Chiralities_Consistent>
1

> <s_lp_Variant>
AV-unprocessed.smi:1682-2

> <Gold.Version>
5.8.1

> <Gold.Id.Protein>
6NUR|6NUR_protein|mol2

> <Gold.PLP.Fitness>
52.4047

> <Gold.PLP.PLP>
-47.5073

> <Gold.PLP.part.hbond>
-2.5942

> <Gold.PLP.part.metal>
0.0000

> <Gold.PLP.part.buried>
-5.5002

> <Gold.PLP.part.nonpolar>
-40.4126

> <Gold.PLP.part.repulsive>
0.2187

> <Gold.PLP.ligand.clash>
1.3731

> <Gold.PLP.ligand.torsion>
0.4935

> <Gold.PLP.Chemscore.Hbond>
2.3533

> <Gold.PLP.Chemscore.CHOScore>
0.0000

> <Gold.PLP.Chemscore.Metal>
0.0000

> <Gold.Chemscore.Hbonds>
donor molecule, donor type, donor heavy atom, donor atom, acceptor molecule, acceptor atom, score
      P1  H  6896  6908       L1     1  0.60
      P1  H  6931  6943       L1    11  1.00
      P1  H  6934  6947       L1    11  0.64

> <Gold.PLP.Chemscore.Internal.Correction>
0.1977

> <Gold.Rescore>
     Score         DG    S(hbond)    S(metal)    S(lipo)     H(rot)  DE(clash)    DE(int)     intcor
     13.05     -16.36       1.87        0.00      85.23       2.09       0.04       3.27       ----

> <Gold.Chemscore.Fitness>
13.0487

> <Gold.Chemscore.DG>
-16.3615

> <Gold.Chemscore.ZeroCoef>
-5.4800

> <Gold.Chemscore.Hbond>
1.8730

> <Gold.Chemscore.Metal>
0.0000

> <Gold.Chemscore.Lipo>
85.2305

> <Gold.Chemscore.Internal_Hbond>
0.0000

> <Gold.Chemscore.DEClash>
0.0446

> <Gold.Chemscore.DEInternal>
3.2682

> <Gold.Chemscore.Rot>
2.0884

> <Gold.Chemscore.Internal.Correction>
   9.000000E+99

> <Gold.Chemscore.Hbonds>
donor molecule, donor type, donor heavy atom, donor atom, acceptor molecule, acceptor atom, score
      P1  H  6896  6908       L1     1  0.59
      P1  H  6931  6943       L1    11  0.54
      P1  H  6934  6947       L1    11  0.36

> <Gold.Chemscore.Hbond.Weighted>
-6.2559

> <Gold.Chemscore.Metal.Weighted>
-0.0000

> <Gold.Chemscore.Lipo.Weighted>
-9.9720

> <Gold.Chemscore.Internal_Hbond.Weighted>
0.0000

> <Gold.Chemscore.DEClash.Weighted>
0.0446

> <Gold.Chemscore.DEInternal.Weighted>
3.2682

> <Gold.Chemscore.Rot.Weighted>
5.3464

> <Gold.Chemscore.Internal.Correction.Weighted>
   9.000000E+99

> <Gold.Protein.RotatedTorsions>
[ 6907 6896 6895 6894 ] final -122.51 input  -60.11 | X-H torsion
[ 7974 7965 7964 7962 ] final -109.19 input  175.53 | X-H torsion
[ 8008 7997 7996 7995 ] final  -49.12 input   59.86 | X-H torsion
[ 10167 10162 10161 10158 ] final -160.95 input  -65.29 | X-H torsion
[ 10718 10713 10712 10709 ] final -170.82 input   66.30 | X-H torsion
[ 10763 10752 10751 10750 ] final  -15.63 input  -60.55 | X-H torsion
[ 11005 11000 10999 10996 ] final  -70.87 input  -57.11 | X-H torsion

> <Gold.Protein.ActiveResidues>
 VAL166  LYS551  ARG553  GLY616  TRP617  ASP618  TYR619  PRO620  LYS621  CYS622 
 ASP623  PHE694  ASN695  SER759  ASP760  ASP761  ALA762  ILE779  LEU786  VAL792 
 PHE793  MET794  SER795  GLU796  ALA797  LYS798  CYS799  TRP800  GLU811  SER814 

> <Gold.Protein.RotatedAtoms>
  150.8583  133.7682  159.3000 H   0  0  0  0  0  0  0  0  0  0  0  0  # atno 6907 bound_to 6896
  151.5332  135.1067  159.9917 H   0  0  0  0  0  0  0  0  0  0  0  0  # atno 6908 bound_to 6896
  152.4607  133.7772  159.6887 H   0  0  0  0  0  0  0  0  0  0  0  0  # atno 6909 bound_to 6896
  145.1836  140.8982  143.3465 H   0  0  0  0  0  0  0  0  0  0  0  0  # atno 7974 bound_to 7965
  154.4039  140.1304  156.4451 H   0  0  0  0  0  0  0  0  0  0  0  0  # atno 8008 bound_to 7997
  155.7421  140.3489  155.5089 H   0  0  0  0  0  0  0  0  0  0  0  0  # atno 8009 bound_to 7997
  155.9029  140.1022  157.1327 H   0  0  0  0  0  0  0  0  0  0  0  0  # atno 8010 bound_to 7997
  139.6501  144.0099  152.2156 H   0  0  0  0  0  0  0  0  0  0  0  0  # atno 10167 bound_to 10162
  156.7318  130.9309  151.3105 H   0  0  0  0  0  0  0  0  0  0  0  0  # atno 10718 bound_to 10713
  153.5463  135.7012  153.5612 H   0  0  0  0  0  0  0  0  0  0  0  0  # atno 10763 bound_to 10752
  153.3556  135.3983  155.1679 H   0  0  0  0  0  0  0  0  0  0  0  0  # atno 10764 bound_to 10752
  154.8667  135.3776  154.4971 H   0  0  0  0  0  0  0  0  0  0  0  0  # atno 10765 bound_to 10752
  141.1582  133.6802  156.6819 H   0  0  0  0  0  0  0  0  0  0  0  0  # atno 11005 bound_to 11000
  145.0111  139.3509  143.6119 LP  0  0  0  0  0  0  0  0  0  0  0  0  # atno 17320 bound_to 7965
  146.3449  139.9374  142.8745 LP  0  0  0  0  0  0  0  0  0  0  0  0  # atno 17321 bound_to 7965
  139.9811  144.6427  150.7900 LP  0  0  0  0  0  0  0  0  0  0  0  0  # atno 17342 bound_to 10162
  140.7534  143.3007  151.3088 LP  0  0  0  0  0  0  0  0  0  0  0  0  # atno 17343 bound_to 10162
  157.6855  130.9182  150.0377 LP  0  0  0  0  0  0  0  0  0  0  0  0  # atno 17370 bound_to 10713
  156.1524  130.3642  149.9419 LP  0  0  0  0  0  0  0  0  0  0  0  0  # atno 17371 bound_to 10713
  140.3096  134.8097  157.4165 LP  0  0  0  0  0  0  0  0  0  0  0  0  # atno 17394 bound_to 11000
  140.1190  134.5244  155.8199 LP  0  0  0  0  0  0  0  0  0  0  0  0  # atno 17395 bound_to 11000

$$$$
