AV-unprocessed.smi:153|AV-procd|sdf|1261|dock5
  -GOLD-   2262018513D 1   1.00000     0.00000
 Structure written by MMmdl.
 59 62  0  0  0  0  0  0  0  0  1 V2000
  153.3583  141.7315  159.9666 C   0  0  0  0  0  0  0  0  0  0  0  0
  152.2958  142.8127  159.7145 C   0  0  1  0  0  0  0  0  0  0  0  0
  152.9625  143.9406  159.1520 O   0  0  0  0  0  0  0  0  0  0  0  0
  152.0801  144.6037  158.2645 C   0  0  0  0  0  0  0  0  0  0  0  0
  151.3738  143.4446  157.5788 C   0  0  0  0  0  0  0  0  0  0  0  0
  151.1558  142.4543  158.7192 C   0  0  2  0  0  0  0  0  0  0  0  0
  149.9233  142.7771  159.3422 O   0  0  0  0  0  0  0  0  0  0  0  0
  151.0812  140.9746  158.2584 C   0  0  0  0  0  0  0  0  0  0  0  0
  150.2120  140.7702  157.1090 N   0  0  0  0  0  0  0  0  0  0  0  0
  150.4940  141.0806  155.7996 C   0  0  0  0  0  0  0  0  0  0  0  0
  149.5501  140.7926  154.9473 N   0  0  0  0  0  0  0  0  0  0  0  0
  148.5302  140.2465  155.7215 C   0  0  0  0  0  0  0  0  0  0  0  0
  147.2285  139.7201  155.4466 C   0  0  0  0  0  0  0  0  0  0  0  0
  146.6719  139.6213  154.2020 N   0  0  0  0  0  0  0  0  0  0  0  0
  146.6693  140.7917  153.3324 C   0  0  0  0  0  0  0  0  0  0  0  0
  146.5411  138.3105  153.5607 C   0  0  0  0  0  0  0  0  0  0  0  0
  145.0696  137.8540  153.4369 C   0  0  2  0  0  0  0  0  0  0  0  0
  144.2804  138.6647  154.2842 O   0  0  0  0  0  0  0  0  0  0  0  0
  144.8897  136.3890  153.8890 C   0  0  0  0  0  0  0  0  0  0  0  0
  145.5502  135.3850  153.0528 N   0  0  0  0  0  0  0  0  0  0  0  0
  144.8493  135.2264  151.7826 C   0  0  0  0  0  0  0  0  0  0  0  0
  145.5134  134.1692  150.8834 C   0  0  0  0  0  0  0  0  0  0  0  0
  145.5767  132.9277  151.5769 O   0  0  0  0  0  0  0  0  0  0  0  0
  146.2935  133.0226  152.8030 C   0  0  0  0  0  0  0  0  0  0  0  0
  145.6350  134.0789  153.7075 C   0  0  0  0  0  0  0  0  0  0  0  0
  146.5080  139.2915  156.5197 N   0  0  0  0  0  0  0  0  0  0  0  0
  147.0083  139.3501  157.7556 C   0  0  0  0  0  0  0  0  0  0  0  0
  148.1983  139.7999  158.1495 N   0  0  0  0  0  0  0  0  0  0  0  0
  148.9327  140.2420  157.0901 C   0  0  0  0  0  0  0  0  0  0  0  0
  152.9203  140.8360  160.4074 H   0  0  0  0  0  0  0  0  0  0  0  0
  154.1185  142.0955  160.6580 H   0  0  0  0  0  0  0  0  0  0  0  0
  153.8662  141.4469  159.0450 H   0  0  0  0  0  0  0  0  0  0  0  0
  151.8801  143.1178  160.6768 H   0  0  0  0  0  0  0  0  0  0  0  0
  151.3769  145.2169  158.8301 H   0  0  0  0  0  0  0  0  0  0  0  0
  152.6174  145.2445  157.5654 H   0  0  0  0  0  0  0  0  0  0  0  0
  150.4576  143.7401  157.0655 H   0  0  0  0  0  0  0  0  0  0  0  0
  152.0487  143.0186  156.8358 H   0  0  0  0  0  0  0  0  0  0  0  0
  149.5609  141.9878  159.7142 H   0  0  0  0  0  0  0  0  0  0  0  0
  152.0722  140.6045  157.9948 H   0  0  0  0  0  0  0  0  0  0  0  0
  150.7217  140.3420  159.0708 H   0  0  0  0  0  0  0  0  0  0  0  0
  151.4307  141.5244  155.4937 H   0  0  0  0  0  0  0  0  0  0  0  0
  145.9157  141.5087  153.6579 H   0  0  0  0  0  0  0  0  0  0  0  0
  146.4363  140.5156  152.3037 H   0  0  0  0  0  0  0  0  0  0  0  0
  147.6449  141.2789  153.3291 H   0  0  0  0  0  0  0  0  0  0  0  0
  147.0149  138.3530  152.5793 H   0  0  0  0  0  0  0  0  0  0  0  0
  147.1269  137.5743  154.1129 H   0  0  0  0  0  0  0  0  0  0  0  0
  144.7280  137.9893  152.4118 H   0  0  0  0  0  0  0  0  0  0  0  0
  143.9623  139.4006  153.7842 H   0  0  0  0  0  0  0  0  0  0  0  0
  145.2606  136.2803  154.9094 H   0  0  0  0  0  0  0  0  0  0  0  0
  143.8209  136.1766  153.9461 H   0  0  0  0  0  0  0  0  0  0  0  0
  143.8117  134.9422  151.9655 H   0  0  0  0  0  0  0  0  0  0  0  0
  144.8224  136.1800  151.2540 H   0  0  0  0  0  0  0  0  0  0  0  0
  144.9397  134.0364  149.9661 H   0  0  0  0  0  0  0  0  0  0  0  0
  146.5167  134.4835  150.5922 H   0  0  0  0  0  0  0  0  0  0  0  0
  146.2913  132.0492  153.2936 H   0  0  0  0  0  0  0  0  0  0  0  0
  147.3351  133.2794  152.6047 H   0  0  0  0  0  0  0  0  0  0  0  0
  146.2085  134.1456  154.6303 H   0  0  0  0  0  0  0  0  0  0  0  0
  144.6363  133.7392  153.9866 H   0  0  0  0  0  0  0  0  0  0  0  0
  146.3628  138.9826  158.5398 H   0  0  0  0  0  0  0  0  0  0  0  0
  1  2  1  0  0  0  0
  1 30  1  0  0  0  0
  1 31  1  0  0  0  0
  1 32  1  0  0  0  0
  2  6  1  0  0  0  0
  2  3  1  0  0  0  0
  2 33  1  0  0  0  0
  3  4  1  0  0  0  0
  4  5  1  0  0  0  0
  4 34  1  0  0  0  0
  4 35  1  0  0  0  0
  5  6  1  0  0  0  0
  5 36  1  0  0  0  0
  5 37  1  0  0  0  0
  6  7  1  0  0  0  0
  6  8  1  0  0  0  0
  7 38  1  0  0  0  0
  8  9  1  0  0  0  0
  8 39  1  0  0  0  0
  8 40  1  0  0  0  0
  9 29  1  0  0  0  0
  9 10  1  0  0  0  0
 10 11  2  0  0  0  0
 10 41  1  0  0  0  0
 11 12  1  0  0  0  0
 12 29  2  0  0  0  0
 12 13  1  0  0  0  0
 13 14  1  0  0  0  0
 13 26  2  0  0  0  0
 14 15  1  0  0  0  0
 14 16  1  0  0  0  0
 15 42  1  0  0  0  0
 15 43  1  0  0  0  0
 15 44  1  0  0  0  0
 16 17  1  0  0  0  0
 16 45  1  0  0  0  0
 16 46  1  0  0  0  0
 17 18  1  0  0  0  0
 17 19  1  0  0  0  0
 17 47  1  0  0  0  0
 18 48  1  0  0  0  0
 19 20  1  0  0  0  0
 19 49  1  0  0  0  0
 19 50  1  0  0  0  0
 20 25  1  0  0  0  0
 20 21  1  0  0  0  0
 21 22  1  0  0  0  0
 21 51  1  0  0  0  0
 21 52  1  0  0  0  0
 22 23  1  0  0  0  0
 22 53  1  0  0  0  0
 22 54  1  0  0  0  0
 23 24  1  0  0  0  0
 24 25  1  0  0  0  0
 24 55  1  0  0  0  0
 24 56  1  0  0  0  0
 25 57  1  0  0  0  0
 25 58  1  0  0  0  0
 26 27  1  0  0  0  0
 27 28  2  0  0  0  0
 27 59  1  0  0  0  0
 28 29  1  0  0  0  0
M  END
> <s_m_source_file>
AV-unprocessed.smi

> <i_m_source_file_index>
153

> <i_lp_mmshare_version>
43012

> <i_f3d_flags>
0

> <s_epik_input>
W0NIMl0xW0NIMl1PW0NAQEhdKFtDSDNdKVtDQEBdMShbT0hdKVtDSDJdbihbY0hdbjIpYyhjMjMpbltjSF1uYzNOKFtDSDNdKVtDSDJdW0NASF0oW09IXSlbQ0gyXU40W0NIMl1bQ0gyXU9bQ0gyXVtDSDJdNA==

> <s_epik_cmdline>
J2VwaWtfcHl0aG9uJywgJy1waCcsICc3LjAnLCAnLXRuJywgJzgnLCAnLW1hJywgJzIwMCcsICctbWV0YWxfYmluZGluZycsICctaW1hZScsICc8aW5maWxlLm1hZT4nLCAnLW9tYWUnLCAnPG91dGZpbGUubWFlPic=

> <r_lp_tautomer_probability>
1

> <r_epik_Ionization_Penalty>
0.424123

> <r_epik_Ionization_Penalty_Charging>
0

> <r_epik_Ionization_Penalty_Neutral>
0.424123

> <r_epik_State_Penalty>
0.421495

> <r_epik_Charging_Adjusted_Penalty>
0.421495

> <i_epik_Tot_Q>
0

> <i_epik_Tot_abs_Q>
0

> <r_epik_Metal_State_Penalty>
0.421223

> <b_epik_Metal_Only>
0

> <s_lp_Force_Field>
OPLS_2005

> <r_lp_Energy>
56.2601

> <b_lp_Chiralities_Consistent>
1

> <s_lp_Variant>
AV-unprocessed.smi:153-12

> <Gold.Version>
5.8.1

> <Gold.Id.Protein>
6NUR|6NUR_protein|mol2

> <Gold.PLP.Fitness>
42.2822

> <Gold.PLP.PLP>
-42.9893

> <Gold.PLP.part.hbond>
-3.8365

> <Gold.PLP.part.metal>
0.0000

> <Gold.PLP.part.buried>
-4.9521

> <Gold.PLP.part.nonpolar>
-33.8760

> <Gold.PLP.part.repulsive>
0.3407

> <Gold.PLP.ligand.clash>
0.0000

> <Gold.PLP.ligand.torsion>
2.4556

> <Gold.PLP.Chemscore.Hbond>
1.1739

> <Gold.PLP.Chemscore.CHOScore>
0.0000

> <Gold.PLP.Chemscore.Metal>
0.0000

> <Gold.Chemscore.Hbonds>
donor molecule, donor type, donor heavy atom, donor atom, acceptor molecule, acceptor atom, score
      L1  H    18    48       P1 10175  1.00

> <Gold.PLP.Chemscore.Internal.Correction>
0.6823

> <Gold.Rescore>
     Score         DG    S(hbond)    S(metal)    S(lipo)     H(rot)  DE(clash)    DE(int)     intcor
      9.46     -11.95       1.00        0.00     103.69       3.52       0.03       2.46       ----

> <Gold.Chemscore.Fitness>
9.4637

> <Gold.Chemscore.DG>
-11.9514

> <Gold.Chemscore.ZeroCoef>
-5.4800

> <Gold.Chemscore.Hbond>
1.0009

> <Gold.Chemscore.Metal>
0.0000

> <Gold.Chemscore.Lipo>
103.6936

> <Gold.Chemscore.Internal_Hbond>
0.0000

> <Gold.Chemscore.DEClash>
0.0292

> <Gold.Chemscore.DEInternal>
2.4585

> <Gold.Chemscore.Rot>
3.5170

> <Gold.Chemscore.Internal.Correction>
   9.000000E+99

> <Gold.Chemscore.Hbonds>
donor molecule, donor type, donor heavy atom, donor atom, acceptor molecule, acceptor atom, score
      L1  H    18    48       P1 10175  1.00

> <Gold.Chemscore.Hbond.Weighted>
-3.3429

> <Gold.Chemscore.Metal.Weighted>
-0.0000

> <Gold.Chemscore.Lipo.Weighted>
-12.1321

> <Gold.Chemscore.Internal_Hbond.Weighted>
0.0000

> <Gold.Chemscore.DEClash.Weighted>
0.0292

> <Gold.Chemscore.DEInternal.Weighted>
2.4585

> <Gold.Chemscore.Rot.Weighted>
9.0036

> <Gold.Chemscore.Internal.Correction.Weighted>
   9.000000E+99

> <Gold.Protein.RotatedTorsions>
[ 6907 6896 6895 6894 ] final  161.45 input  -60.11 | X-H torsion
[ 7974 7965 7964 7962 ] final -110.08 input  175.53 | X-H torsion
[ 8008 7997 7996 7995 ] final   66.92 input   59.86 | X-H torsion
[ 10167 10162 10161 10158 ] final  -24.85 input  -65.29 | X-H torsion
[ 10718 10713 10712 10709 ] final   66.53 input   66.30 | X-H torsion
[ 10763 10752 10751 10750 ] final  104.12 input  -60.55 | X-H torsion
[ 11005 11000 10999 10996 ] final  139.90 input  -57.11 | X-H torsion

> <Gold.Protein.ActiveResidues>
 VAL166  LYS551  ARG553  GLY616  TRP617  ASP618  TYR619  PRO620  LYS621  CYS622 
 ASP623  PHE694  ASN695  SER759  ASP760  ASP761  ALA762  ILE779  LEU786  VAL792 
 PHE793  MET794  SER795  GLU796  ALA797  LYS798  CYS799  TRP800  GLU811  SER814 

> <Gold.Protein.RotatedAtoms>
  151.9554  133.3679  159.4015 H   0  0  0  0  0  0  0  0  0  0  0  0  # atno 6907 bound_to 6896
  150.6973  134.4296  159.5251 H   0  0  0  0  0  0  0  0  0  0  0  0  # atno 6908 bound_to 6896
  152.1976  134.8616  160.0562 H   0  0  0  0  0  0  0  0  0  0  0  0  # atno 6909 bound_to 6896
  145.1727  140.8933  143.3526 H   0  0  0  0  0  0  0  0  0  0  0  0  # atno 7974 bound_to 7965
  155.6848  140.3496  155.4870 H   0  0  0  0  0  0  0  0  0  0  0  0  # atno 8008 bound_to 7997
  155.9575  140.1131  157.0946 H   0  0  0  0  0  0  0  0  0  0  0  0  # atno 8009 bound_to 7997
  154.4135  140.1182  156.5121 H   0  0  0  0  0  0  0  0  0  0  0  0  # atno 8010 bound_to 7997
  140.7287  143.4317  151.0792 H   0  0  0  0  0  0  0  0  0  0  0  0  # atno 10167 bound_to 10162
  157.6175  130.9272  150.0121 H   0  0  0  0  0  0  0  0  0  0  0  0  # atno 10718 bound_to 10713
  153.3617  135.3954  155.1723 H   0  0  0  0  0  0  0  0  0  0  0  0  # atno 10763 bound_to 10752
  154.8680  135.3681  154.5091 H   0  0  0  0  0  0  0  0  0  0  0  0  # atno 10764 bound_to 10752
  153.5551  135.7082  153.5633 H   0  0  0  0  0  0  0  0  0  0  0  0  # atno 10765 bound_to 10752
  140.0288  134.9362  157.0621 H   0  0  0  0  0  0  0  0  0  0  0  0  # atno 11005 bound_to 11000
  145.0217  139.3419  143.6069 LP  0  0  0  0  0  0  0  0  0  0  0  0  # atno 17320 bound_to 7965
  146.3466  139.9519  142.8728 LP  0  0  0  0  0  0  0  0  0  0  0  0  # atno 17321 bound_to 7965
  139.7974  143.8132  152.3159 LP  0  0  0  0  0  0  0  0  0  0  0  0  # atno 17342 bound_to 10162
  139.8137  144.7325  150.9664 LP  0  0  0  0  0  0  0  0  0  0  0  0  # atno 17343 bound_to 10162
  156.1303  130.3643  149.9742 LP  0  0  0  0  0  0  0  0  0  0  0  0  # atno 17370 bound_to 10713
  156.7804  130.9219  151.3646 LP  0  0  0  0  0  0  0  0  0  0  0  0  # atno 17371 bound_to 10713
  140.4261  134.1830  155.7166 LP  0  0  0  0  0  0  0  0  0  0  0  0  # atno 17394 bound_to 11000
  141.1819  133.8396  157.1229 LP  0  0  0  0  0  0  0  0  0  0  0  0  # atno 17395 bound_to 11000

$$$$
