AV-unprocessed.smi:2475|AV-procd|sdf|9755|dock5
  -GOLD-   2272013393D 1   1.00000     0.00000
 Structure written by MMmdl.
 37 38  0  0  0  0  0  0  0  0  1 V2000
  151.5847  138.2099  154.6943 C   0  0  0  0  0  0  0  0  0  0  0  0
  150.7582  139.4659  154.8719 C   0  0  0  0  0  0  0  0  0  0  0  0
  151.1795  140.5145  155.7162 C   0  0  0  0  0  0  0  0  0  0  0  0
  150.3361  141.6440  155.8115 C   0  0  0  0  0  0  0  0  0  0  0  0
  150.7854  142.6818  156.6684 N   0  0  0  0  0  0  0  0  0  0  0  0
  151.6334  142.5946  157.7113 C   0  0  0  0  0  0  0  0  0  0  0  0
  152.1935  141.5564  158.0653 O   0  0  0  0  0  0  0  0  0  0  0  0
  151.9240  143.9035  158.4615 C   0  0  2  0  0  0  0  0  0  0  0  0
  152.8313  143.7483  159.6984 C   0  0  0  0  0  0  0  0  0  0  0  0
  152.0319  144.3751  160.8290 C   0  0  0  0  0  0  0  0  0  0  0  0
  151.0287  145.2522  160.0935 C   0  0  0  0  0  0  0  0  0  0  0  0
  150.7107  144.4647  158.9598 O   0  0  0  0  0  0  0  0  0  0  0  0
  149.1798  141.6857  155.1048 N   0  0  0  0  0  0  0  0  0  0  0  0
  148.8698  140.6372  154.3351 C   0  0  0  0  0  0  0  0  0  0  0  0
  147.5690  140.7191  153.5468 C   0  0  0  0  0  0  0  0  0  0  0  0
  146.7750  141.9908  153.8820 C   0  0  0  0  0  0  0  0  0  0  0  0
  146.7322  139.4371  153.6794 C   0  0  0  0  0  0  0  0  0  0  0  0
  149.6007  139.5298  154.1813 N   0  0  0  0  0  0  0  0  0  0  0  0
  152.5031  138.2562  155.2800 H   0  0  0  0  0  0  0  0  0  0  0  0
  151.8552  138.0792  153.6463 H   0  0  0  0  0  0  0  0  0  0  0  0
  151.0187  137.3352  155.0157 H   0  0  0  0  0  0  0  0  0  0  0  0
  152.1076  140.4539  156.2661 H   0  0  0  0  0  0  0  0  0  0  0  0
  150.4155  143.6010  156.4742 H   0  0  0  0  0  0  0  0  0  0  0  0
  152.3709  144.6155  157.7661 H   0  0  0  0  0  0  0  0  0  0  0  0
  153.0875  142.7144  159.9344 H   0  0  0  0  0  0  0  0  0  0  0  0
  153.7652  144.2894  159.5432 H   0  0  0  0  0  0  0  0  0  0  0  0
  151.5040  143.5983  161.3835 H   0  0  0  0  0  0  0  0  0  0  0  0
  152.6504  144.9340  161.5316 H   0  0  0  0  0  0  0  0  0  0  0  0
  150.1449  145.4765  160.6912 H   0  0  0  0  0  0  0  0  0  0  0  0
  151.4839  146.1920  159.7765 H   0  0  0  0  0  0  0  0  0  0  0  0
  147.8376  140.7972  152.4918 H   0  0  0  0  0  0  0  0  0  0  0  0
  147.3745  142.8839  153.7040 H   0  0  0  0  0  0  0  0  0  0  0  0
  146.4625  142.0014  154.9267 H   0  0  0  0  0  0  0  0  0  0  0  0
  145.8781  142.0668  153.2667 H   0  0  0  0  0  0  0  0  0  0  0  0
  147.3039  138.5625  153.3678 H   0  0  0  0  0  0  0  0  0  0  0  0
  145.8379  139.4864  153.0579 H   0  0  0  0  0  0  0  0  0  0  0  0
  146.4106  139.2757  154.7090 H   0  0  0  0  0  0  0  0  0  0  0  0
  1  2  1  0  0  0  0
  1 19  1  0  0  0  0
  1 20  1  0  0  0  0
  1 21  1  0  0  0  0
  2 18  1  0  0  0  0
  2  3  2  0  0  0  0
  3  4  1  0  0  0  0
  3 22  1  0  0  0  0
  4  5  1  0  0  0  0
  4 13  2  0  0  0  0
  5  6  1  0  0  0  0
  5 23  1  0  0  0  0
  6  7  2  0  0  0  0
  6  8  1  0  0  0  0
  8 12  1  0  0  0  0
  8  9  1  0  0  0  0
  8 24  1  0  0  0  0
  9 10  1  0  0  0  0
  9 25  1  0  0  0  0
  9 26  1  0  0  0  0
 10 11  1  0  0  0  0
 10 27  1  0  0  0  0
 10 28  1  0  0  0  0
 11 12  1  0  0  0  0
 11 29  1  0  0  0  0
 11 30  1  0  0  0  0
 13 14  1  0  0  0  0
 14 15  1  0  0  0  0
 14 18  2  0  0  0  0
 15 16  1  0  0  0  0
 15 17  1  0  0  0  0
 15 31  1  0  0  0  0
 16 32  1  0  0  0  0
 16 33  1  0  0  0  0
 16 34  1  0  0  0  0
 17 35  1  0  0  0  0
 17 36  1  0  0  0  0
 17 37  1  0  0  0  0
M  END
> <s_m_source_file>
AV-unprocessed.smi

> <i_m_source_file_index>
2475

> <i_lp_mmshare_version>
43012

> <i_f3d_flags>
0

> <s_epik_input>
W0NIM11bQ0hdKFtDSDNdKWMobjEpbmMoW2NIXWMxW0NIM10pW05IXUMoPU8pW0NAQEhdMltDSDJdW0NIMl1bQ0gyXU8y

> <s_epik_cmdline>
J2VwaWtfcHl0aG9uJywgJy1waCcsICc3LjAnLCAnLXRuJywgJzgnLCAnLW1hJywgJzIwMCcsICctbWV0YWxfYmluZGluZycsICctaW1hZScsICc8aW5maWxlLm1hZT4nLCAnLW9tYWUnLCAnPG91dGZpbGUubWFlPic=

> <r_lp_tautomer_probability>
1

> <r_epik_Ionization_Penalty>
1.42804e-05

> <r_epik_Ionization_Penalty_Charging>
0

> <r_epik_Ionization_Penalty_Neutral>
1.42804e-05

> <r_epik_State_Penalty>
-0

> <r_epik_Charging_Adjusted_Penalty>
0

> <i_epik_Tot_Q>
0

> <i_epik_Tot_abs_Q>
0

> <r_epik_Metal_State_Penalty>
-0

> <b_epik_Metal_Only>
0

> <s_lp_Force_Field>
OPLS_2005

> <r_lp_Energy>
10.8571

> <b_lp_Chiralities_Consistent>
1

> <s_lp_Variant>
AV-unprocessed.smi:2475-1

> <Gold.Version>
5.8.1

> <Gold.Id.Protein>
6NUR|6NUR_protein|mol2

> <Gold.PLP.Fitness>
43.9996

> <Gold.PLP.PLP>
-41.6101

> <Gold.PLP.part.hbond>
-1.0000

> <Gold.PLP.part.metal>
0.0000

> <Gold.PLP.part.buried>
-4.9713

> <Gold.PLP.part.nonpolar>
-36.0764

> <Gold.PLP.part.repulsive>
1.2042

> <Gold.PLP.ligand.clash>
0.0000

> <Gold.PLP.ligand.torsion>
0.3064

> <Gold.PLP.Chemscore.Hbond>
0.9760

> <Gold.PLP.Chemscore.CHOScore>
0.0000

> <Gold.PLP.Chemscore.Metal>
0.0000

> <Gold.Chemscore.Hbonds>
donor molecule, donor type, donor heavy atom, donor atom, acceptor molecule, acceptor atom, score
      L1  H     5    23       P1  8028  0.90

> <Gold.PLP.Chemscore.Internal.Correction>
0.0743

> <Gold.Rescore>
     Score         DG    S(hbond)    S(metal)    S(lipo)     H(rot)  DE(clash)    DE(int)     intcor
     14.29     -16.34       0.96        0.00      91.39       1.18       0.41       1.64       ----

> <Gold.Chemscore.Fitness>
14.2945

> <Gold.Chemscore.DG>
-16.3435

> <Gold.Chemscore.ZeroCoef>
-5.4800

> <Gold.Chemscore.Hbond>
0.9589

> <Gold.Chemscore.Metal>
0.0000

> <Gold.Chemscore.Lipo>
91.3861

> <Gold.Chemscore.Internal_Hbond>
0.0000

> <Gold.Chemscore.DEClash>
0.4134

> <Gold.Chemscore.DEInternal>
1.6356

> <Gold.Chemscore.Rot>
1.1842

> <Gold.Chemscore.Internal.Correction>
   9.000000E+99

> <Gold.Chemscore.Hbonds>
donor molecule, donor type, donor heavy atom, donor atom, acceptor molecule, acceptor atom, score
      L1  H     5    23       P1  8028  0.83

> <Gold.Chemscore.Hbond.Weighted>
-3.2028

> <Gold.Chemscore.Metal.Weighted>
-0.0000

> <Gold.Chemscore.Lipo.Weighted>
-10.6922

> <Gold.Chemscore.Internal_Hbond.Weighted>
0.0000

> <Gold.Chemscore.DEClash.Weighted>
0.4134

> <Gold.Chemscore.DEInternal.Weighted>
1.6356

> <Gold.Chemscore.Rot.Weighted>
3.0315

> <Gold.Chemscore.Internal.Correction.Weighted>
   9.000000E+99

> <Gold.Protein.RotatedTorsions>
[ 6907 6896 6895 6894 ] final -157.74 input  -60.11 | X-H torsion
[ 7974 7965 7964 7962 ] final -108.03 input  175.53 | X-H torsion
[ 8008 7997 7996 7995 ] final   96.26 input   59.86 | X-H torsion
[ 10167 10162 10161 10158 ] final  116.93 input  -65.29 | X-H torsion
[ 10718 10713 10712 10709 ] final  154.48 input   66.30 | X-H torsion
[ 10763 10752 10751 10750 ] final -160.73 input  -60.55 | X-H torsion
[ 11005 11000 10999 10996 ] final  121.41 input  -57.11 | X-H torsion

> <Gold.Protein.ActiveResidues>
 VAL166  LYS551  ARG553  GLY616  TRP617  ASP618  TYR619  PRO620  LYS621  CYS622 
 ASP623  PHE694  ASN695  SER759  ASP760  ASP761  ALA762  ILE779  LEU786  VAL792 
 PHE793  MET794  SER795  GLU796  ALA797  LYS798  CYS799  TRP800  GLU811  SER814 

> <Gold.Protein.RotatedAtoms>
  151.3075  133.4095  159.2644 H   0  0  0  0  0  0  0  0  0  0  0  0  # atno 6907 bound_to 6896
  151.0142  134.9421  159.8034 H   0  0  0  0  0  0  0  0  0  0  0  0  # atno 6908 bound_to 6896
  152.5308  134.3039  159.9141 H   0  0  0  0  0  0  0  0  0  0  0  0  # atno 6909 bound_to 6896
  145.1979  140.9043  143.3386 H   0  0  0  0  0  0  0  0  0  0  0  0  # atno 7974 bound_to 7965
  156.0777  140.3275  155.7654 H   0  0  0  0  0  0  0  0  0  0  0  0  # atno 8008 bound_to 7997
  155.5203  140.0584  157.2925 H   0  0  0  0  0  0  0  0  0  0  0  0  # atno 8009 bound_to 7997
  154.4565  140.1945  156.0383 H   0  0  0  0  0  0  0  0  0  0  0  0  # atno 8010 bound_to 7997
  139.6213  144.7101  151.2627 H   0  0  0  0  0  0  0  0  0  0  0  0  # atno 10167 bound_to 10162
  157.2310  131.0739  151.1853 H   0  0  0  0  0  0  0  0  0  0  0  0  # atno 10718 bound_to 10713
  154.7365  135.3058  154.8802 H   0  0  0  0  0  0  0  0  0  0  0  0  # atno 10763 bound_to 10752
  153.9629  135.6751  153.4749 H   0  0  0  0  0  0  0  0  0  0  0  0  # atno 10764 bound_to 10752
  153.0967  135.4932  154.8715 H   0  0  0  0  0  0  0  0  0  0  0  0  # atno 10765 bound_to 10752
  139.9225  134.9638  156.7953 H   0  0  0  0  0  0  0  0  0  0  0  0  # atno 11005 bound_to 11000
  144.9976  139.3629  143.6183 LP  0  0  0  0  0  0  0  0  0  0  0  0  # atno 17320 bound_to 7965
  146.3423  139.9186  142.8770 LP  0  0  0  0  0  0  0  0  0  0  0  0  # atno 17321 bound_to 7965
  140.7384  143.6649  150.8131 LP  0  0  0  0  0  0  0  0  0  0  0  0  # atno 17342 bound_to 10162
  140.0261  143.5492  152.2780 LP  0  0  0  0  0  0  0  0  0  0  0  0  # atno 17343 bound_to 10162
  157.3478  130.7066  149.6421 LP  0  0  0  0  0  0  0  0  0  0  0  0  # atno 17370 bound_to 10713
  155.9675  130.4261  150.4684 LP  0  0  0  0  0  0  0  0  0  0  0  0  # atno 17371 bound_to 10713
  140.6433  133.9798  155.7718 LP  0  0  0  0  0  0  0  0  0  0  0  0  # atno 17394 bound_to 11000
  141.0756  134.0139  157.3462 LP  0  0  0  0  0  0  0  0  0  0  0  0  # atno 17395 bound_to 11000

$$$$
