#       Name:                AV-unprocessed.smi:833
#       Creating user name   scv26
#       Creation time:       Fri Mar 27 01:33:49 2020


#       File generated by GOLD software.
#

@<TRIPOS>MOLECULE
AV-unprocessed.smi:833
    45    46     1
SMALL
NO_CHARGES


@<TRIPOS>ATOM
      1 ****        -3.0136   4.6055  -1.3132 C.3            1 S1                 0.0000
      2 ****        -2.3031   3.4556  -0.5866 C.3            1 S1                 0.0000
      3 ****        -2.9026   3.3467   0.6880 O.3            1 S1                 0.0000
      4 ****        -0.7936   3.7230  -0.4155 C.3            1 S1                 0.0000
      5 ****        -0.0223   2.4858  -0.3533 N.am           1 S1                 0.0000
      6 ****         0.1473   1.7377   0.7453 C.2            1 S1                 0.0000
      7 ****        -0.3378   2.0155   1.8418 O.2            1 S1                 0.0000
      8 ****         0.8888   0.6483   0.4845 N.am           1 S1                 0.0000
      9 ****         1.2158  -0.4134   1.3743 C.ar           1 S1                 0.0000
     10 ****         1.4922  -0.1597   2.7425 C.ar           1 S1                 0.0000
     11 ****         1.8807  -1.2148   3.5890 C.ar           1 S1                 0.0000
     12 ****         2.0044  -2.5071   3.0513 C.ar           1 S1                 0.0000
     13 ****         1.7474  -2.7141   1.7432 N.pl3          1 S1                 1.0000
     14 ****         1.3547  -1.7435   0.8807 C.ar           1 S1                 0.0000
     15 ****         1.1096  -2.1152  -0.4614 N.3            1 S1                 0.0000
     16 ****         1.4397  -3.4569  -0.9288 C.3            1 S1                 0.0000
     17 ****         0.7167  -3.6020  -2.2651 C.3            1 S1                 0.0000
     18 ****        -0.5612  -2.8009  -2.0353 C.3            1 S1                 0.0000
     19 ****        -0.1136  -1.6606  -1.1152 C.3            1 S1                 0.0000
     20 ****        -2.6197   4.7348  -2.3215 H              1 S1                 0.0000
     21 ****        -2.8872   5.5502  -0.7832 H              1 S1                 0.0000
     22 ****        -4.0836   4.4137  -1.4024 H              1 S1                 0.0000
     23 ****        -2.4688   2.5307  -1.1409 H              1 S1                 0.0000
     24 ****        -2.4432   2.6833   1.1807 H              1 S1                 0.0000
     25 ****        -0.4206   4.2611  -1.2876 H              1 S1                 0.0000
     26 ****        -0.5897   4.3660   0.4430 H              1 S1                 0.0000
     27 ****         0.4113   2.1804  -1.2123 H              1 S1                 0.0000
     28 ****         1.1435   0.5037  -0.4816 H              1 S1                 0.0000
     29 ****         1.4337   0.8372   3.1527 H              1 S1                 0.0000
     30 ****         2.0931  -1.0316   4.6322 H              1 S1                 0.0000
     31 ****         2.3034  -3.3751   3.6211 H              1 S1                 0.0000
     32 ****         2.5167  -3.5888  -1.0353 H              1 S1                 0.0000
     33 ****         1.0676  -4.2068  -0.2295 H              1 S1                 0.0000
     34 ****         1.3053  -3.1444  -3.0614 H              1 S1                 0.0000
     35 ****         0.5279  -4.6412  -2.5360 H              1 S1                 0.0000
     36 ****        -1.0147  -2.4455  -2.9610 H              1 S1                 0.0000
     37 ****        -1.2945  -3.4226  -1.5197 H              1 S1                 0.0000
     38 ****        -0.8937  -1.4004  -0.3985 H              1 S1                 0.0000
     39 ****         0.1151  -0.7735  -1.7063 H              1 S1                 0.0000
     40 ****         1.8477  -3.6630   1.3827 H              1 S1                 0.0000
     41 ****        -3.8632   3.0875   0.5877 LP             1 S1                 0.0000
     42 ****        -2.8420   4.2235   1.1651 LP             1 S1                 0.0000
     43 ****        -0.8940   2.8397   1.9481 LP             1 S1                 0.0000
     44 ****        -0.1757   1.4171   2.6263 LP             1 S1                 0.0000
     45 ****         1.8568  -1.5263  -0.7695 LP             1 S1                 0.0000
@<TRIPOS>BOND
    1    1    2 1     
    2    1   20 1     
    3    1   21 1     
    4    1   22 1     
    5    2    3 1     
    6    2    4 1     
    7    2   23 1     
    8    3   24 1     
    9    4    5 1     
   10    4   25 1     
   11    4   26 1     
   12    5    6 am    
   13    5   27 1     
   14    6    7 2     
   15    6    8 am    
   16    8    9 1     
   17    8   28 1     
   18    9   14 ar    
   19    9   10 ar    
   20   10   11 ar    
   21   10   29 1     
   22   11   12 ar    
   23   11   30 1     
   24   12   13 ar    
   25   12   31 1     
   26   13   14 ar    
   27   13   40 1     
   28   14   15 1     
   29   15   19 1     
   30   15   16 1     
   31   16   17 1     
   32   16   32 1     
   33   16   33 1     
   34   17   18 1     
   35   17   34 1     
   36   17   35 1     
   37   18   19 1     
   38   18   36 1     
   39   18   37 1     
   40   19   38 1     
   41   19   39 1     
   42    3   41 1     
   43    3   42 1     
   44    7   43 1     
   45    7   44 1     
   46   15   45 1     
@<TRIPOS>SUBSTRUCTURE
      1 S1             1
@<TRIPOS>SET
LONE_PAIRS      STATIC     ATOMS    <user>   **** ""
5 41 42 43 44 45
DONOR_HYDROGENS      STATIC     ATOMS    <user>   **** ""
4 24 27 28 40
ATOM$BLUE        STATIC     ATOMS    COLORGROUP SYSTEM
5 41 42 43 44 45
ATOM$RED        STATIC     ATOMS    COLORGROUP SYSTEM
4 24 27 28 40
