AV-unprocessed.smi:275|AV-procd|sdf|2063|dock3
  -GOLD-   2262021313D 1   1.00000     0.00000
 Structure written by MMmdl.
 65 69  0  0  0  0  0  0  0  0  1 V2000
  146.8207  128.8481  154.0772 C   0  0  0  0  0  0  0  0  0  0  0  0
  146.2811  129.6331  152.8726 C   0  0  0  0  0  0  0  0  0  0  0  0
  146.8648  129.0497  151.5663 C   0  0  0  0  0  0  0  0  0  0  0  0
  146.4478  131.1620  153.0778 C   0  0  1  0  0  0  0  0  0  0  0  0
  147.8488  131.5178  153.3141 N   0  0  0  0  0  0  0  0  0  0  0  0
  148.1322  132.3524  154.4451 C   0  0  0  0  0  0  0  0  0  0  0  0
  149.2619  133.1116  154.4273 N   0  0  0  0  0  0  0  0  0  0  0  0
  149.5933  133.9014  155.4515 C   0  0  0  0  0  0  0  0  0  0  0  0
  148.9519  134.0797  156.6045 N   0  0  0  0  0  0  0  0  0  0  0  0
  147.8323  133.3066  156.6606 C   0  0  0  0  0  0  0  0  0  0  0  0
  147.3592  132.4237  155.6452 C   0  0  0  0  0  0  0  0  0  0  0  0
  146.1949  131.8028  156.0851 N   0  0  0  0  0  0  0  0  0  0  0  0
  145.9836  132.2986  157.2724 C   0  0  0  0  0  0  0  0  0  0  0  0
  146.9169  133.2147  157.6943 N   0  0  0  0  0  0  0  0  0  0  0  0
  146.9258  133.9154  158.9669 C   0  0  0  0  0  0  0  0  0  0  0  0
  148.0569  133.4462  159.9167 C   0  0  2  0  0  0  0  0  0  0  0  0
  147.7123  132.0789  160.5610 C   0  0  0  0  0  0  0  0  0  0  0  0
  148.7459  131.6230  161.4082 O   0  0  0  0  0  0  0  0  0  0  0  0
  148.3527  134.5440  160.9752 C   0  0  2  0  0  0  0  0  0  0  0  0
  147.2674  134.7076  162.0366 C   0  0  0  0  0  0  0  0  0  0  0  0
  147.3202  136.1876  162.4270 C   0  0  0  0  0  0  0  0  0  0  0  0
  148.3298  136.7671  161.6131 O   0  0  0  0  0  0  0  0  0  0  0  0
  148.4609  135.9751  160.4457 C   0  0  0  0  0  0  0  0  0  0  0  0
  147.9776  132.1418  151.9985 C   0  0  0  0  0  0  0  0  0  0  0  0
  146.4459  132.1929  151.9167 C   0  0  0  0  0  0  0  0  0  0  0  0
  145.8409  133.5730  152.2563 C   0  0  0  0  0  0  0  0  0  0  0  0
  144.3054  133.5605  152.3373 C   0  0  0  0  0  0  0  0  0  0  0  0
  143.6893  133.0818  151.0183 C   0  0  0  0  0  0  0  0  0  0  0  0
  144.2821  131.7333  150.5943 C   0  0  0  0  0  0  0  0  0  0  0  0
  145.8208  131.7812  150.5676 C   0  0  0  0  0  0  0  0  0  0  0  0
  147.9001  128.9669  154.1749 H   0  0  0  0  0  0  0  0  0  0  0  0
  146.6123  127.7825  153.9788 H   0  0  0  0  0  0  0  0  0  0  0  0
  146.3605  129.1855  155.0062 H   0  0  0  0  0  0  0  0  0  0  0  0
  145.2129  129.4224  152.8470 H   0  0  0  0  0  0  0  0  0  0  0  0
  147.9513  129.1361  151.5373 H   0  0  0  0  0  0  0  0  0  0  0  0
  146.4715  129.5321  150.6747 H   0  0  0  0  0  0  0  0  0  0  0  0
  146.6263  127.9893  151.4807 H   0  0  0  0  0  0  0  0  0  0  0  0
  145.7770  131.5286  153.8527 H   0  0  0  0  0  0  0  0  0  0  0  0
  150.5039  134.4692  155.3290 H   0  0  0  0  0  0  0  0  0  0  0  0
  145.1356  132.0090  157.8758 H   0  0  0  0  0  0  0  0  0  0  0  0
  147.0198  134.9780  158.7440 H   0  0  0  0  0  0  0  0  0  0  0  0
  145.9546  133.7890  159.4467 H   0  0  0  0  0  0  0  0  0  0  0  0
  148.9527  133.3112  159.3077 H   0  0  0  0  0  0  0  0  0  0  0  0
  146.7771  132.1365  161.1185 H   0  0  0  0  0  0  0  0  0  0  0  0
  147.5797  131.3029  159.8091 H   0  0  0  0  0  0  0  0  0  0  0  0
  149.3873  132.3114  161.4964 H   0  0  0  0  0  0  0  0  0  0  0  0
  149.2896  134.3074  161.4819 H   0  0  0  0  0  0  0  0  0  0  0  0
  146.2828  134.4727  161.6302 H   0  0  0  0  0  0  0  0  0  0  0  0
  147.4376  134.0537  162.8925 H   0  0  0  0  0  0  0  0  0  0  0  0
  146.3641  136.6736  162.2277 H   0  0  0  0  0  0  0  0  0  0  0  0
  147.5593  136.3278  163.4814 H   0  0  0  0  0  0  0  0  0  0  0  0
  149.4115  136.1743  159.9503 H   0  0  0  0  0  0  0  0  0  0  0  0
  147.6504  136.2070  159.7526 H   0  0  0  0  0  0  0  0  0  0  0  0
  148.4520  133.1220  151.9544 H   0  0  0  0  0  0  0  0  0  0  0  0
  148.4262  131.4625  151.2739 H   0  0  0  0  0  0  0  0  0  0  0  0
  146.2318  133.9419  153.2046 H   0  0  0  0  0  0  0  0  0  0  0  0
  146.1530  134.3079  151.5129 H   0  0  0  0  0  0  0  0  0  0  0  0
  143.9831  132.9102  153.1513 H   0  0  0  0  0  0  0  0  0  0  0  0
  143.9376  134.5586  152.5767 H   0  0  0  0  0  0  0  0  0  0  0  0
  142.6060  133.0037  151.1140 H   0  0  0  0  0  0  0  0  0  0  0  0
  143.8792  133.8220  150.2401 H   0  0  0  0  0  0  0  0  0  0  0  0
  143.9439  130.9588  151.2821 H   0  0  0  0  0  0  0  0  0  0  0  0
  143.9020  131.4566  149.6105 H   0  0  0  0  0  0  0  0  0  0  0  0
  146.1360  132.4792  149.7909 H   0  0  0  0  0  0  0  0  0  0  0  0
  146.1916  130.8130  150.2396 H   0  0  0  0  0  0  0  0  0  0  0  0
  1  2  1  0  0  0  0
  1 31  1  0  0  0  0
  1 32  1  0  0  0  0
  1 33  1  0  0  0  0
  2  3  1  0  0  0  0
  2  4  1  0  0  0  0
  2 34  1  0  0  0  0
  3 35  1  0  0  0  0
  3 36  1  0  0  0  0
  3 37  1  0  0  0  0
  4 25  1  0  0  0  0
  4  5  1  0  0  0  0
  4 38  1  0  0  0  0
  5  6  1  0  0  0  0
  5 24  1  0  0  0  0
  6 11  1  0  0  0  0
  6  7  2  0  0  0  0
  7  8  1  0  0  0  0
  8  9  2  0  0  0  0
  8 39  1  0  0  0  0
  9 10  1  0  0  0  0
 10 14  1  0  0  0  0
 10 11  2  0  0  0  0
 11 12  1  0  0  0  0
 12 13  2  0  0  0  0
 13 14  1  0  0  0  0
 13 40  1  0  0  0  0
 14 15  1  0  0  0  0
 15 16  1  0  0  0  0
 15 41  1  0  0  0  0
 15 42  1  0  0  0  0
 16 17  1  0  0  0  0
 16 19  1  0  0  0  0
 16 43  1  0  0  0  0
 17 18  1  0  0  0  0
 17 44  1  0  0  0  0
 17 45  1  0  0  0  0
 18 46  1  0  0  0  0
 19 23  1  0  0  0  0
 19 20  1  0  0  0  0
 19 47  1  0  0  0  0
 20 21  1  0  0  0  0
 20 48  1  0  0  0  0
 20 49  1  0  0  0  0
 21 22  1  0  0  0  0
 21 50  1  0  0  0  0
 21 51  1  0  0  0  0
 22 23  1  0  0  0  0
 23 52  1  0  0  0  0
 23 53  1  0  0  0  0
 24 25  1  0  0  0  0
 24 54  1  0  0  0  0
 24 55  1  0  0  0  0
 25 30  1  0  0  0  0
 25 26  1  0  0  0  0
 26 27  1  0  0  0  0
 26 56  1  0  0  0  0
 26 57  1  0  0  0  0
 27 28  1  0  0  0  0
 27 58  1  0  0  0  0
 27 59  1  0  0  0  0
 28 29  1  0  0  0  0
 28 60  1  0  0  0  0
 28 61  1  0  0  0  0
 29 30  1  0  0  0  0
 29 62  1  0  0  0  0
 29 63  1  0  0  0  0
 30 64  1  0  0  0  0
 30 65  1  0  0  0  0
M  END
> <s_m_source_file>
AV-unprocessed.smi

> <i_m_source_file_index>
275

> <i_lp_mmshare_version>
43012

> <i_f3d_flags>
0

> <s_epik_input>
W0NIMl0xW0NIMl1bQ0gyXVtDSDJdW0NIMl1DMTJbQ0BIXShbQ0hdKFtDSDNdKVtDSDNdKU4oW0NIMl0yKWMobltjSF1uMyljKGMzNCluW2NIXW40W0NIMl1bQ0BIXShbQ0gyXVtPSF0pW0NAQEhdNVtDSDJdW0NIMl1PW0NIMl01

> <s_epik_cmdline>
J2VwaWtfcHl0aG9uJywgJy1waCcsICc3LjAnLCAnLXRuJywgJzgnLCAnLW1hJywgJzIwMCcsICctbWV0YWxfYmluZGluZycsICctaW1hZScsICc8aW5maWxlLm1hZT4nLCAnLW9tYWUnLCAnPG91dGZpbGUubWFlPic=

> <r_lp_tautomer_probability>
1

> <r_epik_Ionization_Penalty>
0.00375122

> <r_epik_Ionization_Penalty_Charging>
0

> <r_epik_Ionization_Penalty_Neutral>
0.00375122

> <r_epik_State_Penalty>
0.00260593

> <r_epik_Charging_Adjusted_Penalty>
0.00260593

> <i_epik_Tot_Q>
0

> <i_epik_Tot_abs_Q>
0

> <r_epik_Metal_State_Penalty>
-0

> <b_epik_Metal_Only>
0

> <s_lp_Force_Field>
OPLS_2005

> <r_lp_Energy>
70.0888

> <b_lp_Chiralities_Consistent>
1

> <s_lp_Variant>
AV-unprocessed.smi:275-2

> <Gold.Version>
5.8.1

> <Gold.Id.Protein>
6NUR|6NUR_protein|mol2

> <Gold.PLP.Fitness>
40.5627

> <Gold.PLP.PLP>
-39.4528

> <Gold.PLP.part.hbond>
-1.0315

> <Gold.PLP.part.metal>
0.0000

> <Gold.PLP.part.buried>
-1.2745

> <Gold.PLP.part.nonpolar>
-36.8244

> <Gold.PLP.part.repulsive>
0.2916

> <Gold.PLP.ligand.clash>
0.0000

> <Gold.PLP.ligand.torsion>
1.2155

> <Gold.PLP.Chemscore.Hbond>
1.0000

> <Gold.PLP.Chemscore.CHOScore>
0.0000

> <Gold.PLP.Chemscore.Metal>
0.0000

> <Gold.Chemscore.Hbonds>
donor molecule, donor type, donor heavy atom, donor atom, acceptor molecule, acceptor atom, score
      P1  H  6931  6943       L1    22  1.00

> <Gold.PLP.Chemscore.Internal.Correction>
0.5409

> <Gold.Rescore>
     Score         DG    S(hbond)    S(metal)    S(lipo)     H(rot)  DE(clash)    DE(int)     intcor
     14.70     -17.62       1.39        0.00     119.69       2.54       1.79       1.13       ----

> <Gold.Chemscore.Fitness>
14.6991

> <Gold.Chemscore.DG>
-17.6184

> <Gold.Chemscore.ZeroCoef>
-5.4800

> <Gold.Chemscore.Hbond>
1.3865

> <Gold.Chemscore.Metal>
0.0000

> <Gold.Chemscore.Lipo>
119.6916

> <Gold.Chemscore.Internal_Hbond>
0.0000

> <Gold.Chemscore.DEClash>
1.7925

> <Gold.Chemscore.DEInternal>
1.1268

> <Gold.Chemscore.Rot>
2.5377

> <Gold.Chemscore.Internal.Correction>
   9.000000E+99

> <Gold.Chemscore.Hbonds>
donor molecule, donor type, donor heavy atom, donor atom, acceptor molecule, acceptor atom, score
      P1  H  6931  6943       L1    22  0.99

> <Gold.Chemscore.Hbond.Weighted>
-4.6310

> <Gold.Chemscore.Metal.Weighted>
-0.0000

> <Gold.Chemscore.Lipo.Weighted>
-14.0039

> <Gold.Chemscore.Internal_Hbond.Weighted>
0.0000

> <Gold.Chemscore.DEClash.Weighted>
1.7925

> <Gold.Chemscore.DEInternal.Weighted>
1.1268

> <Gold.Chemscore.Rot.Weighted>
6.4966

> <Gold.Chemscore.Internal.Correction.Weighted>
   9.000000E+99

> <Gold.Protein.RotatedTorsions>
[ 6907 6896 6895 6894 ] final -179.32 input  -60.11 | X-H torsion
[ 7974 7965 7964 7962 ] final   29.99 input  175.53 | X-H torsion
[ 8008 7997 7996 7995 ] final -129.03 input   59.86 | X-H torsion
[ 10167 10162 10161 10158 ] final  131.57 input  -65.29 | X-H torsion
[ 10718 10713 10712 10709 ] final   26.38 input   66.30 | X-H torsion
[ 10763 10752 10751 10750 ] final  -19.80 input  -60.55 | X-H torsion
[ 11005 11000 10999 10996 ] final  -91.47 input  -57.11 | X-H torsion

> <Gold.Protein.ActiveResidues>
 VAL166  LYS551  ARG553  GLY616  TRP617  ASP618  TYR619  PRO620  LYS621  CYS622 
 ASP623  PHE694  ASN695  SER759  ASP760  ASP761  ALA762  ILE779  LEU786  VAL792 
 PHE793  MET794  SER795  GLU796  ALA797  LYS798  CYS799  TRP800  GLU811  SER814 

> <Gold.Protein.RotatedAtoms>
  151.6515  133.3321  159.3152 H   0  0  0  0  0  0  0  0  0  0  0  0  # atno 6907 bound_to 6896
  150.7958  134.7020  159.6565 H   0  0  0  0  0  0  0  0  0  0  0  0  # atno 6908 bound_to 6896
  152.4044  134.6235  160.0108 H   0  0  0  0  0  0  0  0  0  0  0  0  # atno 6909 bound_to 6896
  146.1639  139.6848  142.9015 H   0  0  0  0  0  0  0  0  0  0  0  0  # atno 7974 bound_to 7965
  155.2725  140.0440  157.3008 H   0  0  0  0  0  0  0  0  0  0  0  0  # atno 8008 bound_to 7997
  154.5645  140.2356  155.8253 H   0  0  0  0  0  0  0  0  0  0  0  0  # atno 8009 bound_to 7997
  156.2074  140.3008  155.9664 H   0  0  0  0  0  0  0  0  0  0  0  0  # atno 8010 bound_to 7997
  139.5378  144.6700  151.4727 H   0  0  0  0  0  0  0  0  0  0  0  0  # atno 10167 bound_to 10162
  157.2060  130.6912  149.6208 H   0  0  0  0  0  0  0  0  0  0  0  0  # atno 10718 bound_to 10713
  153.6105  135.6996  153.5349 H   0  0  0  0  0  0  0  0  0  0  0  0  # atno 10763 bound_to 10752
  153.3021  135.4126  155.1261 H   0  0  0  0  0  0  0  0  0  0  0  0  # atno 10764 bound_to 10752
  154.8564  135.3651  154.5643 H   0  0  0  0  0  0  0  0  0  0  0  0  # atno 10765 bound_to 10752
  141.1544  133.7758  156.9884 H   0  0  0  0  0  0  0  0  0  0  0  0  # atno 11005 bound_to 11000
  145.4519  141.0428  143.2800 LP  0  0  0  0  0  0  0  0  0  0  0  0  # atno 17320 bound_to 7965
  144.8064  139.6043  143.7049 LP  0  0  0  0  0  0  0  0  0  0  0  0  # atno 17321 bound_to 7965
  140.6593  143.8532  150.6870 LP  0  0  0  0  0  0  0  0  0  0  0  0  # atno 17342 bound_to 10162
  140.1922  143.4027  152.1855 LP  0  0  0  0  0  0  0  0  0  0  0  0  # atno 17343 bound_to 10162
  155.9695  130.4567  150.5934 LP  0  0  0  0  0  0  0  0  0  0  0  0  # atno 17370 bound_to 10713
  157.3720  131.0767  151.1550 LP  0  0  0  0  0  0  0  0  0  0  0  0  # atno 17371 bound_to 10713
  140.1019  134.9530  157.1936 LP  0  0  0  0  0  0  0  0  0  0  0  0  # atno 17394 bound_to 11000
  140.3307  134.2813  155.7228 LP  0  0  0  0  0  0  0  0  0  0  0  0  # atno 17395 bound_to 11000

$$$$
