AV-unprocessed.smi:1915|AV-procd|sdf|7761|dock1
  -GOLD-   22720 9503D 1   1.00000     0.00000
 Structure written by MMmdl.
 44 45  0  0  0  0  0  0  0  0  1 V2000
  152.7058  143.2426  160.7710 C   0  0  0  0  0  0  0  0  0  0  0  0
  152.5361  142.8593  159.2908 C   0  0  0  0  0  0  0  0  0  0  0  0
  152.1936  144.1008  158.4538 C   0  0  0  0  0  0  0  0  0  0  0  0
  151.4882  141.7470  159.0618 C   0  0  0  0  0  0  0  0  0  0  0  0
  151.3525  141.3658  157.6558 N   0  0  0  0  0  0  0  0  0  0  0  0
  150.4533  142.0986  156.7785 C   0  0  0  0  0  0  0  0  0  0  0  0
  150.3765  141.2762  155.4740 C   0  0  2  0  0  0  0  0  0  0  0  0
  149.0020  140.6217  155.2677 C   0  0  0  0  0  0  0  0  0  0  0  0
  148.5374  139.8679  156.1235 O   0  0  0  0  0  0  0  0  0  0  0  0
  148.3723  140.9045  154.1177 N   0  0  0  0  0  0  0  0  0  0  0  0
  147.1021  140.3243  153.6923 C   0  0  0  0  0  0  0  0  0  0  0  0
  147.1161  139.8742  152.2170 C   0  0  0  0  0  0  0  0  0  0  0  0
  146.4485  138.5287  151.9869 C   0  0  0  0  0  0  0  0  0  0  0  0
  145.8671  137.8192  153.0600 C   0  0  0  0  0  0  0  0  0  0  0  0
  145.2789  136.5674  152.7973 C   0  0  0  0  0  0  0  0  0  0  0  0
  145.2928  136.0759  151.4780 C   0  0  0  0  0  0  0  0  0  0  0  0
  145.8959  136.8622  150.4760 C   0  0  0  0  0  0  0  0  0  0  0  0
  146.4645  138.0633  150.7177 N   0  0  0  0  0  0  0  0  0  0  0  0
  151.4858  140.2141  155.6025 C   0  0  0  0  0  0  0  0  0  0  0  0
  151.9351  140.3250  157.0492 C   0  0  0  0  0  0  0  0  0  0  0  0
  152.7251  139.5340  157.5621 O   0  0  0  0  0  0  0  0  0  0  0  0
  151.7584  143.5591  161.2085 H   0  0  0  0  0  0  0  0  0  0  0  0
  153.4150  144.0626  160.8854 H   0  0  0  0  0  0  0  0  0  0  0  0
  153.0861  142.4096  161.3616 H   0  0  0  0  0  0  0  0  0  0  0  0
  153.4987  142.4889  158.9361 H   0  0  0  0  0  0  0  0  0  0  0  0
  151.2378  144.5304  158.7554 H   0  0  0  0  0  0  0  0  0  0  0  0
  152.1287  143.8560  157.3931 H   0  0  0  0  0  0  0  0  0  0  0  0
  152.9553  144.8731  158.5645 H   0  0  0  0  0  0  0  0  0  0  0  0
  151.7378  140.8693  159.6608 H   0  0  0  0  0  0  0  0  0  0  0  0
  150.5147  142.0821  159.4220 H   0  0  0  0  0  0  0  0  0  0  0  0
  149.4799  142.2384  157.2520 H   0  0  0  0  0  0  0  0  0  0  0  0
  150.8682  143.0888  156.5861 H   0  0  0  0  0  0  0  0  0  0  0  0
  150.5903  141.9270  154.6243 H   0  0  0  0  0  0  0  0  0  0  0  0
  148.8243  141.5347  153.4709 H   0  0  0  0  0  0  0  0  0  0  0  0
  146.8295  139.4915  154.3422 H   0  0  0  0  0  0  0  0  0  0  0  0
  146.3349  141.0865  153.8302 H   0  0  0  0  0  0  0  0  0  0  0  0
  146.6194  140.6236  151.5995 H   0  0  0  0  0  0  0  0  0  0  0  0
  148.1447  139.8275  151.8575 H   0  0  0  0  0  0  0  0  0  0  0  0
  145.8777  138.2204  154.0627 H   0  0  0  0  0  0  0  0  0  0  0  0
  144.8277  135.9939  153.5935 H   0  0  0  0  0  0  0  0  0  0  0  0
  144.8516  135.1195  151.2392 H   0  0  0  0  0  0  0  0  0  0  0  0
  145.9244  136.5164  149.4534 H   0  0  0  0  0  0  0  0  0  0  0  0
  151.1511  139.1988  155.3831 H   0  0  0  0  0  0  0  0  0  0  0  0
  152.3247  140.4407  154.9440 H   0  0  0  0  0  0  0  0  0  0  0  0
  1  2  1  0  0  0  0
  1 22  1  0  0  0  0
  1 23  1  0  0  0  0
  1 24  1  0  0  0  0
  2  3  1  0  0  0  0
  2  4  1  0  0  0  0
  2 25  1  0  0  0  0
  3 26  1  0  0  0  0
  3 27  1  0  0  0  0
  3 28  1  0  0  0  0
  4  5  1  0  0  0  0
  4 29  1  0  0  0  0
  4 30  1  0  0  0  0
  5 20  1  0  0  0  0
  5  6  1  0  0  0  0
  6  7  1  0  0  0  0
  6 31  1  0  0  0  0
  6 32  1  0  0  0  0
  7  8  1  0  0  0  0
  7 19  1  0  0  0  0
  7 33  1  0  0  0  0
  8  9  2  0  0  0  0
  8 10  1  0  0  0  0
 10 11  1  0  0  0  0
 10 34  1  0  0  0  0
 11 12  1  0  0  0  0
 11 35  1  0  0  0  0
 11 36  1  0  0  0  0
 12 13  1  0  0  0  0
 12 37  1  0  0  0  0
 12 38  1  0  0  0  0
 13 18  1  0  0  0  0
 13 14  2  0  0  0  0
 14 15  1  0  0  0  0
 14 39  1  0  0  0  0
 15 16  2  0  0  0  0
 15 40  1  0  0  0  0
 16 17  1  0  0  0  0
 16 41  1  0  0  0  0
 17 18  2  0  0  0  0
 17 42  1  0  0  0  0
 19 20  1  0  0  0  0
 19 43  1  0  0  0  0
 19 44  1  0  0  0  0
 20 21  2  0  0  0  0
M  END
> <s_m_source_file>
AV-unprocessed.smi

> <i_m_source_file_index>
1915

> <i_lp_mmshare_version>
43012

> <i_f3d_flags>
0

> <s_epik_input>
W0NIM11bQ0hdKFtDSDNdKVtDSDJdTjFbQ0gyXVtDQEhdKFtDSDJdQzE9TylDKD1PKVtOSF1bQ0gyXVtDSDJdYzJbY0hdW2NIXVtjSF1bY0hdbjI=

> <s_epik_cmdline>
J2VwaWtfcHl0aG9uJywgJy1waCcsICc3LjAnLCAnLXRuJywgJzgnLCAnLW1hJywgJzIwMCcsICctbWV0YWxfYmluZGluZycsICctaW1hZScsICc8aW5maWxlLm1hZT4nLCAnLW9tYWUnLCAnPG91dGZpbGUubWFlPic=

> <r_epik_Ionization_Penalty>
0.0252359

> <r_epik_Ionization_Penalty_Charging>
0

> <r_epik_Ionization_Penalty_Neutral>
0.0252359

> <r_epik_State_Penalty>
0.020532

> <r_epik_Charging_Adjusted_Penalty>
0.020532

> <i_epik_Tot_Q>
0

> <i_epik_Tot_abs_Q>
0

> <r_epik_Metal_State_Penalty>
0.0196901

> <b_epik_Metal_Only>
0

> <s_lp_Force_Field>
OPLS_2005

> <r_lp_Energy>
14.5856

> <b_lp_Chiralities_Consistent>
1

> <s_lp_Variant>
AV-unprocessed.smi:1915-2

> <Gold.Version>
5.8.1

> <Gold.Id.Protein>
6NUR|6NUR_protein|mol2

> <Gold.PLP.Fitness>
48.0145

> <Gold.PLP.PLP>
-40.2423

> <Gold.PLP.part.hbond>
-2.0000

> <Gold.PLP.part.metal>
0.0000

> <Gold.PLP.part.buried>
1.4875

> <Gold.PLP.part.nonpolar>
-42.7928

> <Gold.PLP.part.repulsive>
2.3395

> <Gold.PLP.ligand.clash>
0.0000

> <Gold.PLP.ligand.torsion>
0.7552

> <Gold.PLP.Chemscore.Hbond>
2.0000

> <Gold.PLP.Chemscore.CHOScore>
1.0000

> <Gold.PLP.Chemscore.Metal>
0.0000

> <Gold.Chemscore.Hbonds>
donor molecule, donor type, donor heavy atom, donor atom, acceptor molecule, acceptor atom, score
      P1  H  7954  7966       L1    18  1.00
      P1  H  7997  8008       L1    21  1.00
      L1  C    17    42       P1  7921  1.00

> <Gold.PLP.Chemscore.Internal.Correction>
0.2825

> <Gold.Rescore>
     Score         DG    S(hbond)    S(metal)    S(lipo)     H(rot)  DE(clash)    DE(int)     intcor
     16.06     -20.50       1.84        0.00     114.09       1.75       3.66       0.79       ----

> <Gold.Chemscore.Fitness>
16.0556

> <Gold.Chemscore.DG>
-20.4997

> <Gold.Chemscore.ZeroCoef>
-5.4800

> <Gold.Chemscore.Hbond>
1.8383

> <Gold.Chemscore.Metal>
0.0000

> <Gold.Chemscore.Lipo>
114.0895

> <Gold.Chemscore.Internal_Hbond>
0.0000

> <Gold.Chemscore.DEClash>
3.6556

> <Gold.Chemscore.DEInternal>
0.7885

> <Gold.Chemscore.Rot>
1.7456

> <Gold.Chemscore.Internal.Correction>
   9.000000E+99

> <Gold.Chemscore.Hbonds>
donor molecule, donor type, donor heavy atom, donor atom, acceptor molecule, acceptor atom, score
      P1  H  7954  7966       L1    18  0.32
      P1  H  7997  8008       L1    21  0.49

> <Gold.Chemscore.Hbond.Weighted>
-6.1400

> <Gold.Chemscore.Metal.Weighted>
-0.0000

> <Gold.Chemscore.Lipo.Weighted>
-13.3485

> <Gold.Chemscore.Internal_Hbond.Weighted>
0.0000

> <Gold.Chemscore.DEClash.Weighted>
3.6556

> <Gold.Chemscore.DEInternal.Weighted>
0.7885

> <Gold.Chemscore.Rot.Weighted>
4.4688

> <Gold.Chemscore.Internal.Correction.Weighted>
   9.000000E+99

> <Gold.Protein.RotatedTorsions>
[ 6907 6896 6895 6894 ] final   12.48 input  -60.11 | X-H torsion
[ 7974 7965 7964 7962 ] final  171.89 input  175.53 | X-H torsion
[ 8008 7997 7996 7995 ] final  -74.18 input   59.86 | X-H torsion
[ 10167 10162 10161 10158 ] final   39.89 input  -65.29 | X-H torsion
[ 10718 10713 10712 10709 ] final   31.59 input   66.30 | X-H torsion
[ 10763 10752 10751 10750 ] final   95.98 input  -60.55 | X-H torsion
[ 11005 11000 10999 10996 ] final -156.62 input  -57.11 | X-H torsion

> <Gold.Protein.ActiveResidues>
 VAL166  LYS551  ARG553  GLY616  TRP617  ASP618  TYR619  PRO620  LYS621  CYS622 
 ASP623  PHE694  ASN695  SER759  ASP760  ASP761  ALA762  ILE779  LEU786  VAL792 
 PHE793  MET794  SER795  GLU796  ALA797  LYS798  CYS799  TRP800  GLU811  SER814 

> <Gold.Protein.RotatedAtoms>
  151.7709  135.0786  160.0359 H   0  0  0  0  0  0  0  0  0  0  0  0  # atno 6907 bound_to 6896
  152.3289  133.5931  159.5804 H   0  0  0  0  0  0  0  0  0  0  0  0  # atno 6908 bound_to 6896
  150.7411  133.9814  159.3619 H   0  0  0  0  0  0  0  0  0  0  0  0  # atno 6909 bound_to 6896
  144.7282  139.9417  143.6429 H   0  0  0  0  0  0  0  0  0  0  0  0  # atno 7974 bound_to 7965
  154.5309  140.0766  156.8342 H   0  0  0  0  0  0  0  0  0  0  0  0  # atno 8008 bound_to 7997
  155.3378  140.3405  155.4221 H   0  0  0  0  0  0  0  0  0  0  0  0  # atno 8009 bound_to 7997
  156.1780  140.1642  156.8314 H   0  0  0  0  0  0  0  0  0  0  0  0  # atno 8010 bound_to 7997
  140.3795  144.1998  150.6131 H   0  0  0  0  0  0  0  0  0  0  0  0  # atno 10167 bound_to 10162
  157.2744  130.7224  149.6522 H   0  0  0  0  0  0  0  0  0  0  0  0  # atno 10718 bound_to 10713
  153.2595  135.4235  155.0879 H   0  0  0  0  0  0  0  0  0  0  0  0  # atno 10763 bound_to 10752
  154.8414  135.3445  154.6398 H   0  0  0  0  0  0  0  0  0  0  0  0  # atno 10764 bound_to 10752
  153.6818  135.7038  153.5173 H   0  0  0  0  0  0  0  0  0  0  0  0  # atno 10765 bound_to 10752
  140.6736  134.4221  157.5230 H   0  0  0  0  0  0  0  0  0  0  0  0  # atno 11005 bound_to 11000
  146.0779  139.3767  143.0482 LP  0  0  0  0  0  0  0  0  0  0  0  0  # atno 17320 bound_to 7965
  145.7880  140.9827  143.1064 LP  0  0  0  0  0  0  0  0  0  0  0  0  # atno 17321 bound_to 7965
  140.4952  143.2335  151.8760 LP  0  0  0  0  0  0  0  0  0  0  0  0  # atno 17342 bound_to 10162
  139.4796  144.5122  151.8917 LP  0  0  0  0  0  0  0  0  0  0  0  0  # atno 17343 bound_to 10162
  155.9663  130.4357  150.5105 LP  0  0  0  0  0  0  0  0  0  0  0  0  # atno 17370 bound_to 10713
  157.3036  131.0650  151.2051 LP  0  0  0  0  0  0  0  0  0  0  0  0  # atno 17371 bound_to 10713
  139.8974  134.8638  156.2047 LP  0  0  0  0  0  0  0  0  0  0  0  0  # atno 17394 bound_to 11000
  141.0373  133.6956  156.1535 LP  0  0  0  0  0  0  0  0  0  0  0  0  # atno 17395 bound_to 11000

$$$$
