AV-unprocessed.smi:1436|AV-procd|sdf|5862|dock7
  -GOLD-   22720 5533D 1   1.00000     0.00000
 Structure written by MMmdl.
 44 45  0  0  0  0  0  0  0  0  2 V2000
  146.4636  137.2797  158.4187 C   0  0  0  0  0  0  0  0  0  0  0  0
  146.5984  136.7379  159.8129 C   0  0  0  0  0  0  0  0  0  0  0  0
  146.3097  137.5097  160.8469 N   0  0  0  0  0  0  0  0  0  0  0  0
  146.5195  136.7230  161.9834 O   0  0  0  0  0  0  0  0  0  0  0  0
  146.9257  135.4914  161.5842 C   0  0  0  0  0  0  0  0  0  0  0  0
  147.1836  134.4894  162.6578 C   0  0  0  0  0  0  0  0  0  0  0  0
  146.9976  135.4326  160.2195 C   0  0  0  0  0  0  0  0  0  0  0  0
  147.3814  134.2675  159.3439 C   0  0  0  0  0  0  0  0  0  0  0  0
  148.4296  134.7417  158.3413 C   0  0  0  0  0  0  0  0  0  0  0  0
  149.4352  135.3309  158.7356 O   0  0  0  0  0  0  0  0  0  0  0  0
  148.1461  134.5313  157.0461 N   0  0  0  0  0  0  0  0  0  0  0  0
  148.8850  135.0756  155.9078 C   0  0  1  0  0  0  0  0  0  0  0  0
  149.0397  133.9926  154.8317 C   0  0  0  0  0  0  0  0  0  0  0  0
  148.1742  136.3334  155.3577 C   0  0  0  0  0  0  0  0  0  0  0  0
  149.0957  137.2753  154.6696 N   0  3  0  0  0  0  0  0  0  0  0  0
  148.5996  138.6722  154.6307 C   0  0  0  0  0  0  0  0  0  0  0  0
  149.5740  139.5576  153.8369 C   0  0  0  0  0  0  0  0  0  0  0  0
  150.8634  139.4940  154.4336 O   0  0  0  0  0  0  0  0  0  0  0  0
  151.3941  138.1745  154.4158 C   0  0  0  0  0  0  0  0  0  0  0  0
  150.4746  137.2308  155.2104 C   0  0  0  0  0  0  0  0  0  0  0  0
  145.6774  136.7572  157.8733 H   0  0  0  0  0  0  0  0  0  0  0  0
  147.3922  137.1556  157.8613 H   0  0  0  0  0  0  0  0  0  0  0  0
  146.2168  138.3421  158.4182 H   0  0  0  0  0  0  0  0  0  0  0  0
  146.4619  133.6742  162.6050 H   0  0  0  0  0  0  0  0  0  0  0  0
  147.1075  134.9433  163.6463 H   0  0  0  0  0  0  0  0  0  0  0  0
  148.1830  134.0653  162.5584 H   0  0  0  0  0  0  0  0  0  0  0  0
  147.7915  133.4440  159.9297 H   0  0  0  0  0  0  0  0  0  0  0  0
  146.5202  133.8632  158.8098 H   0  0  0  0  0  0  0  0  0  0  0  0
  147.3039  134.0167  156.8315 H   0  0  0  0  0  0  0  0  0  0  0  0
  149.8920  135.3558  156.2198 H   0  0  0  0  0  0  0  0  0  0  0  0
  149.6061  134.3670  153.9784 H   0  0  0  0  0  0  0  0  0  0  0  0
  148.0708  133.6523  154.4644 H   0  0  0  0  0  0  0  0  0  0  0  0
  149.5713  133.1242  155.2228 H   0  0  0  0  0  0  0  0  0  0  0  0
  147.3575  136.0565  154.6895 H   0  0  0  0  0  0  0  0  0  0  0  0
  147.7151  136.8549  156.1993 H   0  0  0  0  0  0  0  0  0  0  0  0
  147.6146  138.7163  154.1680 H   0  0  0  0  0  0  0  0  0  0  0  0
  148.4916  139.0528  155.6474 H   0  0  0  0  0  0  0  0  0  0  0  0
  149.6243  139.2439  152.7929 H   0  0  0  0  0  0  0  0  0  0  0  0
  149.2321  140.5925  153.8428 H   0  0  0  0  0  0  0  0  0  0  0  0
  151.5080  137.8319  153.3875 H   0  0  0  0  0  0  0  0  0  0  0  0
  152.3906  138.1882  154.8575 H   0  0  0  0  0  0  0  0  0  0  0  0
  150.4640  137.5162  156.2636 H   0  0  0  0  0  0  0  0  0  0  0  0
  150.8627  136.2130  155.1555 H   0  0  0  0  0  0  0  0  0  0  0  0
  149.1592  136.9618  153.7113 H   0  0  0  0  0  0  0  0  0  0  0  0
  1  2  1  0  0  0  0
  1 21  1  0  0  0  0
  1 22  1  0  0  0  0
  1 23  1  0  0  0  0
  2  7  1  0  0  0  0
  2  3  2  0  0  0  0
  3  4  1  0  0  0  0
  4  5  1  0  0  0  0
  5  6  1  0  0  0  0
  5  7  2  0  0  0  0
  6 24  1  0  0  0  0
  6 25  1  0  0  0  0
  6 26  1  0  0  0  0
  7  8  1  0  0  0  0
  8  9  1  0  0  0  0
  8 27  1  0  0  0  0
  8 28  1  0  0  0  0
  9 10  2  0  0  0  0
  9 11  1  0  0  0  0
 11 12  1  0  0  0  0
 11 29  1  0  0  0  0
 12 13  1  0  0  0  0
 12 14  1  0  0  0  0
 12 30  1  0  0  0  0
 13 31  1  0  0  0  0
 13 32  1  0  0  0  0
 13 33  1  0  0  0  0
 14 15  1  0  0  0  0
 14 34  1  0  0  0  0
 14 35  1  0  0  0  0
 15 20  1  0  0  0  0
 15 16  1  0  0  0  0
 15 44  1  0  0  0  0
 16 17  1  0  0  0  0
 16 36  1  0  0  0  0
 16 37  1  0  0  0  0
 17 18  1  0  0  0  0
 17 38  1  0  0  0  0
 17 39  1  0  0  0  0
 18 19  1  0  0  0  0
 19 20  1  0  0  0  0
 19 40  1  0  0  0  0
 19 41  1  0  0  0  0
 20 42  1  0  0  0  0
 20 43  1  0  0  0  0
M  CHG  1  15   1
M  END
> <s_m_source_file>
AV-unprocessed.smi

> <i_m_source_file_index>
1436

> <i_lp_mmshare_version>
43012

> <i_f3d_flags>
0

> <s_epik_input>
W0NIM11jMW5vYyhbQ0gzXSljMVtDSDJdQyg9TylbTkhdW0NASF0oW0NIM10pW0NIMl1OMltDSDJdW0NIMl1PW0NIMl1bQ0gyXTI=

> <s_epik_cmdline>
J2VwaWtfcHl0aG9uJywgJy1waCcsICc3LjAnLCAnLXRuJywgJzgnLCAnLW1hJywgJzIwMCcsICctbWV0YWxfYmluZGluZycsICctaW1hZScsICc8aW5maWxlLm1hZT4nLCAnLW9tYWUnLCAnPG91dGZpbGUubWFlPic=

> <r_epik_Ionization_Penalty>
0.663207

> <r_epik_Ionization_Penalty_Charging>
0.663207

> <r_epik_Ionization_Penalty_Neutral>
1.07515e-07

> <r_epik_State_Penalty>
0.682743

> <r_epik_Charging_Adjusted_Penalty>
1.34595

> <i_epik_Tot_Q>
1

> <i_epik_Tot_abs_Q>
1

> <r_epik_Metal_State_Penalty>
0.682743

> <b_epik_Metal_Only>
0

> <s_lp_Force_Field>
OPLS_2005

> <r_lp_Energy>
13.3676

> <b_lp_Chiralities_Consistent>
1

> <s_lp_Variant>
AV-unprocessed.smi:1436-4

> <Gold.Version>
5.8.1

> <Gold.Id.Protein>
6NUR|6NUR_protein|mol2

> <Gold.PLP.Fitness>
38.4228

> <Gold.PLP.PLP>
-25.4119

> <Gold.PLP.part.hbond>
-3.9874

> <Gold.PLP.part.metal>
0.0000

> <Gold.PLP.part.buried>
-1.6382

> <Gold.PLP.part.nonpolar>
-20.3196

> <Gold.PLP.part.repulsive>
0.1640

> <Gold.PLP.ligand.clash>
0.0000

> <Gold.PLP.ligand.torsion>
1.0137

> <Gold.PLP.Chemscore.Hbond>
5.0000

> <Gold.PLP.Chemscore.CHOScore>
0.0000

> <Gold.PLP.Chemscore.Metal>
0.0000

> <Gold.Chemscore.Hbonds>
donor molecule, donor type, donor heavy atom, donor atom, acceptor molecule, acceptor atom, score
      L1  H    15    44       P1  7948  2.00
      P1  H  6896  6908       L1    10  1.00
      P1  H  6934  6947       L1     3  1.00
      P1  H  7989  7998       L1    18  0.90

> <Gold.PLP.Chemscore.Internal.Correction>
0.0382

> <Gold.Rescore>
     Score         DG    S(hbond)    S(metal)    S(lipo)     H(rot)  DE(clash)    DE(int)     intcor
     18.56     -21.00       3.74        0.00      65.00       1.79       1.63       0.81       ----

> <Gold.Chemscore.Fitness>
18.5642

> <Gold.Chemscore.DG>
-20.9968

> <Gold.Chemscore.ZeroCoef>
-5.4800

> <Gold.Chemscore.Hbond>
3.7435

> <Gold.Chemscore.Metal>
0.0000

> <Gold.Chemscore.Lipo>
65.0013

> <Gold.Chemscore.Internal_Hbond>
0.0000

> <Gold.Chemscore.DEClash>
1.6262

> <Gold.Chemscore.DEInternal>
0.8064

> <Gold.Chemscore.Rot>
1.7936

> <Gold.Chemscore.Internal.Correction>
   9.000000E+99

> <Gold.Chemscore.Hbonds>
donor molecule, donor type, donor heavy atom, donor atom, acceptor molecule, acceptor atom, score
      L1  H    15    44       P1  7948  0.97
      P1  H  6896  6908       L1    10  0.99
      P1  H  6934  6947       L1     3  0.76
      P1  H  7989  7998       L1    18  0.18

> <Gold.Chemscore.Hbond.Weighted>
-12.5032

> <Gold.Chemscore.Metal.Weighted>
-0.0000

> <Gold.Chemscore.Lipo.Weighted>
-7.6052

> <Gold.Chemscore.Internal_Hbond.Weighted>
0.0000

> <Gold.Chemscore.DEClash.Weighted>
1.6262

> <Gold.Chemscore.DEInternal.Weighted>
0.8064

> <Gold.Chemscore.Rot.Weighted>
4.5916

> <Gold.Chemscore.Internal.Correction.Weighted>
   9.000000E+99

> <Gold.Protein.RotatedTorsions>
[ 6907 6896 6895 6894 ] final  171.75 input  -60.11 | X-H torsion
[ 7974 7965 7964 7962 ] final  -34.44 input  175.53 | X-H torsion
[ 8008 7997 7996 7995 ] final   66.35 input   59.86 | X-H torsion
[ 10167 10162 10161 10158 ] final  132.74 input  -65.29 | X-H torsion
[ 10718 10713 10712 10709 ] final   52.05 input   66.30 | X-H torsion
[ 10763 10752 10751 10750 ] final  -27.45 input  -60.55 | X-H torsion
[ 11005 11000 10999 10996 ] final -108.07 input  -57.11 | X-H torsion

> <Gold.Protein.ActiveResidues>
 VAL166  LYS551  ARG553  GLY616  TRP617  ASP618  TYR619  PRO620  LYS621  CYS622 
 ASP623  PHE694  ASN695  SER759  ASP760  ASP761  ALA762  ILE779  LEU786  VAL792 
 PHE793  MET794  SER795  GLU796  ALA797  LYS798  CYS799  TRP800  GLU811  SER814 

> <Gold.Protein.RotatedAtoms>
  151.7952  133.3363  159.3510 H   0  0  0  0  0  0  0  0  0  0  0  0  # atno 6907 bound_to 6896
  150.7378  134.5805  159.5946 H   0  0  0  0  0  0  0  0  0  0  0  0  # atno 6908 bound_to 6896
  152.3182  134.7414  160.0371 H   0  0  0  0  0  0  0  0  0  0  0  0  # atno 6909 bound_to 6896
  146.0829  140.6038  142.8900 H   0  0  0  0  0  0  0  0  0  0  0  0  # atno 7974 bound_to 7965
  155.6760  140.3497  155.4837 H   0  0  0  0  0  0  0  0  0  0  0  0  # atno 8008 bound_to 7997
  155.9647  140.1144  157.0887 H   0  0  0  0  0  0  0  0  0  0  0  0  # atno 8009 bound_to 7997
  154.4151  140.1168  156.5212 H   0  0  0  0  0  0  0  0  0  0  0  0  # atno 8010 bound_to 7997
  139.5326  144.6648  151.4896 H   0  0  0  0  0  0  0  0  0  0  0  0  # atno 10167 bound_to 10162
  157.5039  130.8456  149.8350 H   0  0  0  0  0  0  0  0  0  0  0  0  # atno 10718 bound_to 10713
  153.7322  135.6938  153.4986 H   0  0  0  0  0  0  0  0  0  0  0  0  # atno 10763 bound_to 10752
  153.2128  135.4397  155.0398 H   0  0  0  0  0  0  0  0  0  0  0  0  # atno 10764 bound_to 10752
  154.8249  135.3441  154.6852 H   0  0  0  0  0  0  0  0  0  0  0  0  # atno 10765 bound_to 10752
  141.0921  133.9037  157.2051 H   0  0  0  0  0  0  0  0  0  0  0  0  # atno 11005 bound_to 11000
  144.7306  140.4659  143.6941 LP  0  0  0  0  0  0  0  0  0  0  0  0  # atno 17320 bound_to 7965
  145.6183  139.1521  143.3037 LP  0  0  0  0  0  0  0  0  0  0  0  0  # atno 17321 bound_to 7965
  140.6514  143.8688  150.6790 LP  0  0  0  0  0  0  0  0  0  0  0  0  # atno 17342 bound_to 10162
  140.2054  143.3926  152.1759 LP  0  0  0  0  0  0  0  0  0  0  0  0  # atno 17343 bound_to 10162
  156.0246  130.3784  150.1861 LP  0  0  0  0  0  0  0  0  0  0  0  0  # atno 17370 bound_to 10713
  157.0051  130.9934  151.3381 LP  0  0  0  0  0  0  0  0  0  0  0  0  # atno 17371 bound_to 10713
  139.9749  135.0117  156.9606 LP  0  0  0  0  0  0  0  0  0  0  0  0  # atno 17394 bound_to 11000
  140.5228  134.0891  155.7296 LP  0  0  0  0  0  0  0  0  0  0  0  0  # atno 17395 bound_to 11000

$$$$
