AV-unprocessed.smi:357|AV-procd|sdf|2416|dock5
  -GOLD-   2262022353D 1   1.00000     0.00000
 Structure written by MMmdl.
 37 38  0  0  0  0  0  0  0  0  1 V2000
  150.0438  138.1251  157.9705 O   0  0  0  0  0  0  0  0  0  0  0  0
  149.8398  138.5384  156.8282 C   0  0  0  0  0  0  0  0  0  0  0  0
  148.5798  138.3241  156.1017 C   0  0  0  0  0  0  0  0  0  0  0  0
  147.3273  137.4514  156.9208 Cl  0  0  0  0  0  0  0  0  0  0  0  0
  148.3840  138.7793  154.8348 C   0  0  0  0  0  0  0  0  0  0  0  0
  147.1819  138.5506  154.1755 N   0  0  0  0  0  0  0  0  0  0  0  0
  146.7855  138.9528  152.8338 C   0  0  0  0  0  0  0  0  0  0  0  0
  146.1772  137.7884  152.0385 C   0  0  0  0  0  0  0  0  0  0  0  0
  146.5129  137.9008  150.6720 O   0  0  0  0  0  0  0  0  0  0  0  0
  149.4950  139.4960  154.2265 C   0  0  0  0  0  0  0  0  0  0  0  0
  150.6097  139.7049  154.8373 N   0  0  0  0  0  0  0  0  0  0  0  0
  150.7799  139.2348  156.1235 N   0  0  0  0  0  0  0  0  0  0  0  0
  152.1013  139.5172  156.6935 C   0  0  0  0  0  0  0  0  0  0  0  0
  151.9969  140.4463  157.9122 C   0  0  0  0  0  0  0  0  0  0  0  0
  153.1747  140.3072  158.6948 O   0  0  0  0  0  0  0  0  0  0  0  0
  153.2234  140.9448  159.9158 C   0  0  0  0  0  0  0  0  0  0  0  0
  152.4300  142.1011  160.0658 C   0  0  0  0  0  0  0  0  0  0  0  0
  152.4196  142.8164  161.2788 C   0  0  0  0  0  0  0  0  0  0  0  0
  153.2077  142.3800  162.3597 C   0  0  0  0  0  0  0  0  0  0  0  0
  153.1975  143.2542  163.8469 Cl  0  0  0  0  0  0  0  0  0  0  0  0
  154.0049  141.2282  162.2241 C   0  0  0  0  0  0  0  0  0  0  0  0
  154.0144  140.5126  161.0110 C   0  0  0  0  0  0  0  0  0  0  0  0
  146.4707  138.0547  154.6942 H   0  0  0  0  0  0  0  0  0  0  0  0
  146.0205  139.7188  152.9623 H   0  0  0  0  0  0  0  0  0  0  0  0
  147.5997  139.4340  152.2918 H   0  0  0  0  0  0  0  0  0  0  0  0
  146.4908  136.8209  152.4326 H   0  0  0  0  0  0  0  0  0  0  0  0
  145.0900  137.8256  152.1097 H   0  0  0  0  0  0  0  0  0  0  0  0
  145.8627  138.4382  150.2460 H   0  0  0  0  0  0  0  0  0  0  0  0
  149.3392  139.8529  153.2094 H   0  0  0  0  0  0  0  0  0  0  0  0
  152.5860  138.5850  156.9893 H   0  0  0  0  0  0  0  0  0  0  0  0
  152.7577  139.9579  155.9411 H   0  0  0  0  0  0  0  0  0  0  0  0
  151.8863  141.4818  157.5859 H   0  0  0  0  0  0  0  0  0  0  0  0
  151.1184  140.1782  158.5015 H   0  0  0  0  0  0  0  0  0  0  0  0
  151.8216  142.4435  159.2415 H   0  0  0  0  0  0  0  0  0  0  0  0
  151.8060  143.6998  161.3774 H   0  0  0  0  0  0  0  0  0  0  0  0
  154.6118  140.8908  163.0514 H   0  0  0  0  0  0  0  0  0  0  0  0
  154.6390  139.6348  160.9465 H   0  0  0  0  0  0  0  0  0  0  0  0
  1  2  2  0  0  0  0
  2 12  1  0  0  0  0
  2  3  1  0  0  0  0
  3  4  1  0  0  0  0
  3  5  2  0  0  0  0
  5  6  1  0  0  0  0
  5 10  1  0  0  0  0
  6  7  1  0  0  0  0
  6 23  1  0  0  0  0
  7  8  1  0  0  0  0
  7 24  1  0  0  0  0
  7 25  1  0  0  0  0
  8  9  1  0  0  0  0
  8 26  1  0  0  0  0
  8 27  1  0  0  0  0
  9 28  1  0  0  0  0
 10 11  2  0  0  0  0
 10 29  1  0  0  0  0
 11 12  1  0  0  0  0
 12 13  1  0  0  0  0
 13 14  1  0  0  0  0
 13 30  1  0  0  0  0
 13 31  1  0  0  0  0
 14 15  1  0  0  0  0
 14 32  1  0  0  0  0
 14 33  1  0  0  0  0
 15 16  1  0  0  0  0
 16 22  1  0  0  0  0
 16 17  2  0  0  0  0
 17 18  1  0  0  0  0
 17 34  1  0  0  0  0
 18 19  2  0  0  0  0
 18 35  1  0  0  0  0
 19 20  1  0  0  0  0
 19 21  1  0  0  0  0
 21 22  2  0  0  0  0
 21 36  1  0  0  0  0
 22 37  1  0  0  0  0
M  END
> <s_m_source_file>
AV-unprocessed.smi

> <i_m_source_file_index>
357

> <i_lp_mmshare_version>
43012

> <i_f3d_flags>
0

> <s_epik_input>
W09IXVtDSDJdW0NIMl1bTkhdYyhjKENsKWMxPU8pW2NIXW5uMVtDSDJdW0NIMl1PYzJbY0hdW2NIXWMoQ2wpW2NIXVtjSF0y

> <s_epik_cmdline>
J2VwaWtfcHl0aG9uJywgJy1waCcsICc3LjAnLCAnLXRuJywgJzgnLCAnLW1hJywgJzIwMCcsICctbWV0YWxfYmluZGluZycsICctaW1hZScsICc8aW5maWxlLm1hZT4nLCAnLW9tYWUnLCAnPG91dGZpbGUubWFlPic=

> <r_lp_tautomer_probability>
1

> <r_epik_Ionization_Penalty>
2.22594e-05

> <r_epik_Ionization_Penalty_Charging>
1.05597e-09

> <r_epik_Ionization_Penalty_Neutral>
2.22583e-05

> <r_epik_State_Penalty>
-0

> <r_epik_Charging_Adjusted_Penalty>
1.05597e-09

> <i_epik_Tot_Q>
0

> <i_epik_Tot_abs_Q>
0

> <r_epik_Metal_State_Penalty>
-0

> <b_epik_Metal_Only>
0

> <s_lp_Force_Field>
OPLS_2005

> <r_lp_Energy>
32.065

> <b_lp_Chiralities_Consistent>
1

> <s_lp_Variant>
AV-unprocessed.smi:357-1

> <Gold.Version>
5.8.1

> <Gold.Id.Protein>
6NUR|6NUR_protein|mol2

> <Gold.PLP.Fitness>
55.1230

> <Gold.PLP.PLP>
-42.2404

> <Gold.PLP.part.hbond>
-4.7207

> <Gold.PLP.part.metal>
0.0000

> <Gold.PLP.part.buried>
-1.3724

> <Gold.PLP.part.nonpolar>
-35.4292

> <Gold.PLP.part.repulsive>
0.0696

> <Gold.PLP.ligand.clash>
0.0000

> <Gold.PLP.ligand.torsion>
0.7831

> <Gold.PLP.Chemscore.Hbond>
3.7864

> <Gold.PLP.Chemscore.CHOScore>
1.0000

> <Gold.PLP.Chemscore.Metal>
0.0000

> <Gold.Chemscore.Hbonds>
donor molecule, donor type, donor heavy atom, donor atom, acceptor molecule, acceptor atom, score
      L1  H     9    28       P1 10171  0.91
      P1  H  7954  7966       L1     9  1.00
      P1  H  7989  7998       L1    11  0.96
      P1  H  7997  8010       L1    15  0.52
      L1  C    10    29       P1  7957  1.00

> <Gold.PLP.Chemscore.Internal.Correction>
0.0895

> <Gold.Rescore>
     Score         DG    S(hbond)    S(metal)    S(lipo)     H(rot)  DE(clash)    DE(int)     intcor
     19.87     -22.41       3.30        0.00     109.41       2.70       1.21       1.33       ----

> <Gold.Chemscore.Fitness>
19.8659

> <Gold.Chemscore.DG>
-22.4050

> <Gold.Chemscore.ZeroCoef>
-5.4800

> <Gold.Chemscore.Hbond>
3.3041

> <Gold.Chemscore.Metal>
0.0000

> <Gold.Chemscore.Lipo>
109.4122

> <Gold.Chemscore.Internal_Hbond>
0.0000

> <Gold.Chemscore.DEClash>
1.2127

> <Gold.Chemscore.DEInternal>
1.3264

> <Gold.Chemscore.Rot>
2.6999

> <Gold.Chemscore.Internal.Correction>
   9.000000E+99

> <Gold.Chemscore.Hbonds>
donor molecule, donor type, donor heavy atom, donor atom, acceptor molecule, acceptor atom, score
      L1  H     9    28       P1 10171  0.83
      P1  H  7954  7966       L1     9  0.89
      P1  H  7989  7998       L1    11  0.32
      P1  H  7997  8010       L1    15  0.11

> <Gold.Chemscore.Hbond.Weighted>
-11.0357

> <Gold.Chemscore.Metal.Weighted>
-0.0000

> <Gold.Chemscore.Lipo.Weighted>
-12.8012

> <Gold.Chemscore.Internal_Hbond.Weighted>
0.0000

> <Gold.Chemscore.DEClash.Weighted>
1.2127

> <Gold.Chemscore.DEInternal.Weighted>
1.3264

> <Gold.Chemscore.Rot.Weighted>
6.9118

> <Gold.Chemscore.Internal.Correction.Weighted>
   9.000000E+99

> <Gold.Protein.RotatedTorsions>
[ 6907 6896 6895 6894 ] final -172.88 input  -60.11 | X-H torsion
[ 7974 7965 7964 7962 ] final -150.67 input  175.53 | X-H torsion
[ 8008 7997 7996 7995 ] final   30.60 input   59.86 | X-H torsion
[ 10167 10162 10161 10158 ] final -116.54 input  -65.29 | X-H torsion
[ 10718 10713 10712 10709 ] final  -24.21 input   66.30 | X-H torsion
[ 10763 10752 10751 10750 ] final  -47.23 input  -60.55 | X-H torsion
[ 11005 11000 10999 10996 ] final  -41.48 input  -57.11 | X-H torsion

> <Gold.Protein.ActiveResidues>
 VAL166  LYS551  ARG553  GLY616  TRP617  ASP618  TYR619  PRO620  LYS621  CYS622 
 ASP623  PHE694  ASN695  SER759  ASP760  ASP761  ALA762  ILE779  LEU786  VAL792 
 PHE793  MET794  SER795  GLU796  ALA797  LYS798  CYS799  TRP800  GLU811  SER814 

> <Gold.Protein.RotatedAtoms>
  151.5472  133.3423  159.2945 H   0  0  0  0  0  0  0  0  0  0  0  0  # atno 6907 bound_to 6896
  150.8500  134.7825  159.7012 H   0  0  0  0  0  0  0  0  0  0  0  0  # atno 6908 bound_to 6896
  152.4549  134.5322  159.9866 H   0  0  0  0  0  0  0  0  0  0  0  0  # atno 6909 bound_to 6896
  144.7894  140.4900  143.5783 H   0  0  0  0  0  0  0  0  0  0  0  0  # atno 7974 bound_to 7965
  155.0930  140.3222  155.4568 H   0  0  0  0  0  0  0  0  0  0  0  0  # atno 8008 bound_to 7997
  156.2737  140.2074  156.6004 H   0  0  0  0  0  0  0  0  0  0  0  0  # atno 8009 bound_to 7997
  154.6888  140.0518  157.0329 H   0  0  0  0  0  0  0  0  0  0  0  0  # atno 8010 bound_to 7997
  140.0781  143.4814  152.1942 H   0  0  0  0  0  0  0  0  0  0  0  0  # atno 10167 bound_to 10162
  156.4808  130.4544  149.6813 H   0  0  0  0  0  0  0  0  0  0  0  0  # atno 10718 bound_to 10713
  154.0579  135.6622  153.4808 H   0  0  0  0  0  0  0  0  0  0  0  0  # atno 10763 bound_to 10752
  153.0438  135.5128  154.7687 H   0  0  0  0  0  0  0  0  0  0  0  0  # atno 10764 bound_to 10752
  154.6714  135.3030  154.9703 H   0  0  0  0  0  0  0  0  0  0  0  0  # atno 10765 bound_to 10752
  141.0249  133.6846  156.2463 H   0  0  0  0  0  0  0  0  0  0  0  0  # atno 11005 bound_to 11000
  145.5835  139.1490  143.3222 LP  0  0  0  0  0  0  0  0  0  0  0  0  # atno 17320 bound_to 7965
  146.2139  140.5964  142.9047 LP  0  0  0  0  0  0  0  0  0  0  0  0  # atno 17321 bound_to 7965
  139.5796  144.7504  151.3675 LP  0  0  0  0  0  0  0  0  0  0  0  0  # atno 17342 bound_to 10162
  140.7092  143.7435  150.7536 LP  0  0  0  0  0  0  0  0  0  0  0  0  # atno 17343 bound_to 10162
  156.3524  130.7439  151.2400 LP  0  0  0  0  0  0  0  0  0  0  0  0  # atno 17370 bound_to 10713
  157.7483  131.0373  150.4451 LP  0  0  0  0  0  0  0  0  0  0  0  0  # atno 17371 bound_to 10713
  140.6509  134.5068  157.5577 LP  0  0  0  0  0  0  0  0  0  0  0  0  # atno 17394 bound_to 11000
  139.9169  134.8227  156.1336 LP  0  0  0  0  0  0  0  0  0  0  0  0  # atno 17395 bound_to 11000

$$$$
