AV-unprocessed.smi:2083|AV-procd|sdf|8492|dock8
  -GOLD-   2272011203D 1   1.00000     0.00000
 Structure written by MMmdl.
 45 46  0  0  0  0  0  0  0  0  2 V2000
  151.8421  139.5474  156.6568 C   0  0  0  0  0  0  0  0  0  0  0  0
  151.5949  138.2412  155.9828 C   0  0  0  0  0  0  0  0  0  0  0  0
  150.5029  137.7079  155.3572 C   0  0  0  0  0  0  0  0  0  0  0  0
  150.9620  136.4269  154.9503 C   0  0  0  0  0  0  0  0  0  0  0  0
  150.1081  135.5343  154.2533 N   0  0  0  0  0  0  0  0  0  0  0  0
  150.0194  134.2020  154.4047 C   0  0  0  0  0  0  0  0  0  0  0  0
  150.6843  133.5299  155.1937 O   0  0  0  0  0  0  0  0  0  0  0  0
  149.1020  133.6751  153.5804 N   0  0  0  0  0  0  0  0  0  0  0  0
  148.7496  132.2592  153.5206 C   0  0  0  0  0  0  0  0  0  0  0  0
  147.2441  131.9889  153.8028 C   0  0  2  0  0  0  0  0  0  0  0  0
  147.0741  130.6448  154.5469 C   0  0  0  0  0  0  0  0  0  0  0  0
  146.3750  132.0071  152.5795 N   0  3  2  0  0  0  0  0  0  0  0  0
  146.3489  130.7499  151.7757 C   0  0  0  0  0  0  0  0  0  0  0  0
  145.3219  130.8267  150.6334 C   0  0  0  0  0  0  0  0  0  0  0  0
  145.5688  132.0442  149.7357 C   0  0  0  0  0  0  0  0  0  0  0  0
  145.6361  133.3349  150.5678 C   0  0  1  0  0  0  0  0  0  0  0  0
  144.2598  133.7935  151.0816 C   0  0  0  0  0  0  0  0  0  0  0  0
  146.6642  133.1825  151.7062 C   0  0  0  0  0  0  0  0  0  0  0  0
  152.2207  136.1998  155.2932 N   0  0  0  0  0  0  0  0  0  0  0  0
  152.6324  137.3614  155.9571 O   0  0  0  0  0  0  0  0  0  0  0  0
  151.0273  140.2458  156.4658 H   0  0  0  0  0  0  0  0  0  0  0  0
  152.7659  140.0004  156.2968 H   0  0  0  0  0  0  0  0  0  0  0  0
  151.9281  139.4143  157.7353 H   0  0  0  0  0  0  0  0  0  0  0  0
  149.5333  138.1626  155.2181 H   0  0  0  0  0  0  0  0  0  0  0  0
  149.4949  135.9575  153.5727 H   0  0  0  0  0  0  0  0  0  0  0  0
  148.6019  134.2973  152.9616 H   0  0  0  0  0  0  0  0  0  0  0  0
  149.0406  131.8970  152.5335 H   0  0  0  0  0  0  0  0  0  0  0  0
  149.3688  131.7314  154.2469 H   0  0  0  0  0  0  0  0  0  0  0  0
  146.8944  132.7888  154.4577 H   0  0  0  0  0  0  0  0  0  0  0  0
  147.6406  130.6235  155.4778 H   0  0  0  0  0  0  0  0  0  0  0  0
  147.4183  129.8115  153.9336 H   0  0  0  0  0  0  0  0  0  0  0  0
  146.0402  130.4425  154.8210 H   0  0  0  0  0  0  0  0  0  0  0  0
  147.3451  130.5468  151.3793 H   0  0  0  0  0  0  0  0  0  0  0  0
  146.0627  129.8983  152.3911 H   0  0  0  0  0  0  0  0  0  0  0  0
  145.3647  129.9151  150.0368 H   0  0  0  0  0  0  0  0  0  0  0  0
  144.3146  130.8692  151.0487 H   0  0  0  0  0  0  0  0  0  0  0  0
  146.5113  131.9091  149.2035 H   0  0  0  0  0  0  0  0  0  0  0  0
  144.7939  132.1177  148.9716 H   0  0  0  0  0  0  0  0  0  0  0  0
  145.9954  134.1256  149.9076 H   0  0  0  0  0  0  0  0  0  0  0  0
  143.8236  133.0773  151.7779 H   0  0  0  0  0  0  0  0  0  0  0  0
  143.5579  133.9249  150.2577 H   0  0  0  0  0  0  0  0  0  0  0  0
  144.3360  134.7496  151.6005 H   0  0  0  0  0  0  0  0  0  0  0  0
  146.6866  134.1068  152.2805 H   0  0  0  0  0  0  0  0  0  0  0  0
  147.6630  133.0670  151.2820 H   0  0  0  0  0  0  0  0  0  0  0  0
  145.4310  132.1249  152.9188 H   0  0  0  0  0  0  0  0  0  0  0  0
  1  2  1  0  0  0  0
  1 21  1  0  0  0  0
  1 22  1  0  0  0  0
  1 23  1  0  0  0  0
  2 20  1  0  0  0  0
  2  3  2  0  0  0  0
  3  4  1  0  0  0  0
  3 24  1  0  0  0  0
  4  5  1  0  0  0  0
  4 19  2  0  0  0  0
  5  6  1  0  0  0  0
  5 25  1  0  0  0  0
  6  7  2  0  0  0  0
  6  8  1  0  0  0  0
  8  9  1  0  0  0  0
  8 26  1  0  0  0  0
  9 10  1  0  0  0  0
  9 27  1  0  0  0  0
  9 28  1  0  0  0  0
 10 11  1  0  0  0  0
 10 12  1  0  0  0  0
 10 29  1  0  0  0  0
 11 30  1  0  0  0  0
 11 31  1  0  0  0  0
 11 32  1  0  0  0  0
 12 18  1  0  0  0  0
 12 13  1  0  0  0  0
 12 45  1  0  0  0  0
 13 14  1  0  0  0  0
 13 33  1  0  0  0  0
 13 34  1  0  0  0  0
 14 15  1  0  0  0  0
 14 35  1  0  0  0  0
 14 36  1  0  0  0  0
 15 16  1  0  0  0  0
 15 37  1  0  0  0  0
 15 38  1  0  0  0  0
 16 17  1  0  0  0  0
 16 18  1  0  0  0  0
 16 39  1  0  0  0  0
 17 40  1  0  0  0  0
 17 41  1  0  0  0  0
 17 42  1  0  0  0  0
 18 43  1  0  0  0  0
 18 44  1  0  0  0  0
 19 20  1  0  0  0  0
M  CHG  1  12   1
M  END
> <s_m_source_file>
AV-unprocessed.smi

> <i_m_source_file_index>
2083

> <i_lp_mmshare_version>
43012

> <i_f3d_flags>
0

> <s_epik_input>
W0NIM11jMVtjSF1jKG5vMSlbTkhdQyg9TylbTkhdW0NIMl1bQ0BIXShbQ0gzXSlOMltDSDJdW0NIMl1bQ0gyXVtDQEBIXShbQ0gzXSlbQ0gyXTI=

> <s_epik_cmdline>
J2VwaWtfcHl0aG9uJywgJy1waCcsICc3LjAnLCAnLXRuJywgJzgnLCAnLW1hJywgJzIwMCcsICctbWV0YWxfYmluZGluZycsICctaW1hZScsICc8aW5maWxlLm1hZT4nLCAnLW9tYWUnLCAnPG91dGZpbGUubWFlPic=

> <r_epik_Ionization_Penalty>
0.00216453

> <r_epik_Ionization_Penalty_Charging>
0.00212879

> <r_epik_Ionization_Penalty_Neutral>
3.57418e-05

> <r_epik_State_Penalty>
0.00146033

> <r_epik_Charging_Adjusted_Penalty>
0.00358912

> <i_epik_Tot_Q>
1

> <i_epik_Tot_abs_Q>
1

> <r_epik_Metal_State_Penalty>
0.0215827

> <b_epik_Metal_Only>
0

> <s_lp_Force_Field>
OPLS_2005

> <r_lp_Energy>
21.6248

> <b_lp_Chiralities_Consistent>
1

> <s_lp_Variant>
AV-unprocessed.smi:2083-3

> <Gold.Version>
5.8.1

> <Gold.Id.Protein>
6NUR|6NUR_protein|mol2

> <Gold.PLP.Fitness>
41.1793

> <Gold.PLP.PLP>
-34.4249

> <Gold.PLP.part.hbond>
-4.0000

> <Gold.PLP.part.metal>
0.0000

> <Gold.PLP.part.buried>
-2.9352

> <Gold.PLP.part.nonpolar>
-27.0179

> <Gold.PLP.part.repulsive>
0.1569

> <Gold.PLP.ligand.clash>
0.0000

> <Gold.PLP.ligand.torsion>
0.9675

> <Gold.PLP.Chemscore.Hbond>
2.8800

> <Gold.PLP.Chemscore.CHOScore>
0.0000

> <Gold.PLP.Chemscore.Metal>
0.0000

> <Gold.Chemscore.Hbonds>
donor molecule, donor type, donor heavy atom, donor atom, acceptor molecule, acceptor atom, score
      L1  H     5    25       P1  7948  0.99
      L1  H     8    26       P1  7948  0.33

> <Gold.PLP.Chemscore.Internal.Correction>
0.0494

> <Gold.Rescore>
     Score         DG    S(hbond)    S(metal)    S(lipo)     H(rot)  DE(clash)    DE(int)     intcor
     17.08     -18.02       2.36        0.00      73.57       1.55       0.05       0.89       ----

> <Gold.Chemscore.Fitness>
17.0843

> <Gold.Chemscore.DG>
-18.0226

> <Gold.Chemscore.ZeroCoef>
-5.4800

> <Gold.Chemscore.Hbond>
2.3642

> <Gold.Chemscore.Metal>
0.0000

> <Gold.Chemscore.Lipo>
73.5689

> <Gold.Chemscore.Internal_Hbond>
0.0000

> <Gold.Chemscore.DEClash>
0.0526

> <Gold.Chemscore.DEInternal>
0.8858

> <Gold.Chemscore.Rot>
1.5474

> <Gold.Chemscore.Internal.Correction>
   9.000000E+99

> <Gold.Chemscore.Hbonds>
donor molecule, donor type, donor heavy atom, donor atom, acceptor molecule, acceptor atom, score
      L1  H     5    25       P1  7948  0.42
      L1  H     8    26       P1  7948  0.04
      P1  H 10752 10765       L1    19  0.06

> <Gold.Chemscore.Hbond.Weighted>
-7.8963

> <Gold.Chemscore.Metal.Weighted>
-0.0000

> <Gold.Chemscore.Lipo.Weighted>
-8.6076

> <Gold.Chemscore.Internal_Hbond.Weighted>
0.0000

> <Gold.Chemscore.DEClash.Weighted>
0.0526

> <Gold.Chemscore.DEInternal.Weighted>
0.8858

> <Gold.Chemscore.Rot.Weighted>
3.9612

> <Gold.Chemscore.Internal.Correction.Weighted>
   9.000000E+99

> <Gold.Protein.RotatedTorsions>
[ 6907 6896 6895 6894 ] final   42.63 input  -60.11 | X-H torsion
[ 7974 7965 7964 7962 ] final  -79.11 input  175.53 | X-H torsion
[ 8008 7997 7996 7995 ] final  -56.33 input   59.86 | X-H torsion
[ 10167 10162 10161 10158 ] final  151.34 input  -65.29 | X-H torsion
[ 10718 10713 10712 10709 ] final   99.75 input   66.30 | X-H torsion
[ 10763 10752 10751 10750 ] final -171.58 input  -60.55 | X-H torsion
[ 11005 11000 10999 10996 ] final  113.95 input  -57.11 | X-H torsion

> <Gold.Protein.ActiveResidues>
 VAL166  LYS551  ARG553  GLY616  TRP617  ASP618  TYR619  PRO620  LYS621  CYS622 
 ASP623  PHE694  ASN695  SER759  ASP760  ASP761  ALA762  ILE779  LEU786  VAL792 
 PHE793  MET794  SER795  GLU796  ALA797  LYS798  CYS799  TRP800  GLU811  SER814 

> <Gold.Protein.RotatedAtoms>
  152.2102  134.8508  160.0497 H   0  0  0  0  0  0  0  0  0  0  0  0  # atno 6907 bound_to 6896
  151.9329  133.3611  159.3945 H   0  0  0  0  0  0  0  0  0  0  0  0  # atno 6908 bound_to 6896
  150.6974  134.4443  159.5351 H   0  0  0  0  0  0  0  0  0  0  0  0  # atno 6909 bound_to 6896
  145.5775  140.9454  143.1362 H   0  0  0  0  0  0  0  0  0  0  0  0  # atno 7974 bound_to 7965
  154.4226  140.1132  156.5620 H   0  0  0  0  0  0  0  0  0  0  0  0  # atno 8008 bound_to 7997
  155.6301  140.3495  155.4661 H   0  0  0  0  0  0  0  0  0  0  0  0  # atno 8009 bound_to 7997
  155.9955  140.1188  157.0587 H   0  0  0  0  0  0  0  0  0  0  0  0  # atno 8010 bound_to 7997
  139.4841  144.5448  151.7502 H   0  0  0  0  0  0  0  0  0  0  0  0  # atno 10167 bound_to 10162
  157.6869  131.0678  150.4996 H   0  0  0  0  0  0  0  0  0  0  0  0  # atno 10718 bound_to 10713
  154.6289  135.2884  155.0240 H   0  0  0  0  0  0  0  0  0  0  0  0  # atno 10763 bound_to 10752
  154.1407  135.6519  153.4945 H   0  0  0  0  0  0  0  0  0  0  0  0  # atno 10764 bound_to 10752
  153.0270  135.5332  154.7108 H   0  0  0  0  0  0  0  0  0  0  0  0  # atno 10765 bound_to 10752
  139.8967  134.9559  156.6818 H   0  0  0  0  0  0  0  0  0  0  0  0  # atno 11005 bound_to 11000
  144.7409  139.7452  143.7311 LP  0  0  0  0  0  0  0  0  0  0  0  0  # atno 17320 bound_to 7965
  146.1740  139.4902  142.9909 LP  0  0  0  0  0  0  0  0  0  0  0  0  # atno 17321 bound_to 7965
  140.4993  144.1192  150.5967 LP  0  0  0  0  0  0  0  0  0  0  0  0  # atno 17342 bound_to 10162
  140.4080  143.2670  151.9867 LP  0  0  0  0  0  0  0  0  0  0  0  0  # atno 17343 bound_to 10162
  156.5318  130.4186  149.6198 LP  0  0  0  0  0  0  0  0  0  0  0  0  # atno 17370 bound_to 10713
  156.3063  130.7204  151.2087 LP  0  0  0  0  0  0  0  0  0  0  0  0  # atno 17371 bound_to 10713
  140.7293  133.9073  155.8200 LP  0  0  0  0  0  0  0  0  0  0  0  0  # atno 17394 bound_to 11000
  141.0166  134.0947  157.4166 LP  0  0  0  0  0  0  0  0  0  0  0  0  # atno 17395 bound_to 11000

$$$$
