AV-unprocessed.smi:2664|AV-procd|sdf|10329|dock6
  -GOLD-   2272014343D 1   1.00000     0.00000
 Structure written by MMmdl.
 44 45  0  0  0  0  0  0  0  0  2 V2000
  145.2600  137.9772  154.1212 O   0  0  0  0  0  0  0  0  0  0  0  0
  146.2147  137.5337  153.4842 C   0  0  0  0  0  0  0  0  0  0  0  0
  147.3899  138.1631  153.3116 N   0  0  0  0  0  0  0  0  0  0  0  0
  147.7779  139.4562  153.7571 C   0  0  0  0  0  0  0  0  0  0  0  0
  146.7970  140.4727  153.7431 C   0  0  0  0  0  0  0  0  0  0  0  0
  147.1294  141.7671  154.1924 C   0  0  0  0  0  0  0  0  0  0  0  0
  148.3770  142.0236  154.6402 N   0  3  0  0  0  0  0  0  0  0  0  0
  149.3441  141.0824  154.6854 C   0  0  0  0  0  0  0  0  0  0  0  0
  149.0705  139.7696  154.2502 C   0  0  0  0  0  0  0  0  0  0  0  0
  146.2170  136.3342  152.8827 N   0  0  0  0  0  0  0  0  0  0  0  0
  145.1046  135.3797  152.8566 C   0  0  1  0  0  0  0  0  0  0  0  0
  143.7782  136.1597  152.6703 C   0  0  0  0  0  0  0  0  0  0  0  0
  142.5050  135.3951  153.0803 C   0  0  0  0  0  0  0  0  0  0  0  0
  142.6922  134.7479  154.3211 O   0  0  0  0  0  0  0  0  0  0  0  0
  145.3512  134.3023  151.7605 C   0  0  0  0  0  0  0  0  0  0  0  0
  144.0733  133.9832  150.9451 C   0  0  0  0  0  0  0  0  0  0  0  0
  144.3149  132.9103  149.8710 C   0  0  0  0  0  0  0  0  0  0  0  0
  144.8800  131.6224  150.4815 C   0  0  0  0  0  0  0  0  0  0  0  0
  146.1620  131.9168  151.2694 C   0  0  0  0  0  0  0  0  0  0  0  0
  145.9216  132.9850  152.3481 C   0  0  0  0  0  0  0  0  0  0  0  0
  148.1088  137.6335  152.8404 H   0  0  0  0  0  0  0  0  0  0  0  0
  145.7980  140.2677  153.3862 H   0  0  0  0  0  0  0  0  0  0  0  0
  146.4391  142.5979  154.2085 H   0  0  0  0  0  0  0  0  0  0  0  0
  150.3006  141.4030  155.0721 H   0  0  0  0  0  0  0  0  0  0  0  0
  149.8532  139.0297  154.3155 H   0  0  0  0  0  0  0  0  0  0  0  0
  147.0537  136.0557  152.3913 H   0  0  0  0  0  0  0  0  0  0  0  0
  145.0464  134.8584  153.8135 H   0  0  0  0  0  0  0  0  0  0  0  0
  143.8275  137.0864  153.2434 H   0  0  0  0  0  0  0  0  0  0  0  0
  143.6569  136.4579  151.6300 H   0  0  0  0  0  0  0  0  0  0  0  0
  141.6385  136.0536  153.1385 H   0  0  0  0  0  0  0  0  0  0  0  0
  142.2726  134.6372  152.3320 H   0  0  0  0  0  0  0  0  0  0  0  0
  142.6074  133.8156  154.1912 H   0  0  0  0  0  0  0  0  0  0  0  0
  146.0945  134.6994  151.0671 H   0  0  0  0  0  0  0  0  0  0  0  0
  143.2809  133.6522  151.6179 H   0  0  0  0  0  0  0  0  0  0  0  0
  143.7003  134.8739  150.4425 H   0  0  0  0  0  0  0  0  0  0  0  0
  143.3834  132.6942  149.3469 H   0  0  0  0  0  0  0  0  0  0  0  0
  145.0082  133.2943  149.1218 H   0  0  0  0  0  0  0  0  0  0  0  0
  144.1377  131.1696  151.1402 H   0  0  0  0  0  0  0  0  0  0  0  0
  145.0839  130.8950  149.6952 H   0  0  0  0  0  0  0  0  0  0  0  0
  146.5324  131.0005  151.7302 H   0  0  0  0  0  0  0  0  0  0  0  0
  146.9417  132.2562  150.5863 H   0  0  0  0  0  0  0  0  0  0  0  0
  146.8664  133.1649  152.8605 H   0  0  0  0  0  0  0  0  0  0  0  0
  145.2356  132.5929  153.1004 H   0  0  0  0  0  0  0  0  0  0  0  0
  148.5971  142.9665  154.9624 H   0  0  0  0  0  0  0  0  0  0  0  0
  1  2  2  0  0  0  0
  2  3  1  0  0  0  0
  2 10  1  0  0  0  0
  3  4  1  0  0  0  0
  3 21  1  0  0  0  0
  4  9  1  0  0  0  0
  4  5  2  0  0  0  0
  5  6  1  0  0  0  0
  5 22  1  0  0  0  0
  6  7  2  0  0  0  0
  6 23  1  0  0  0  0
  7  8  1  0  0  0  0
  7 44  1  0  0  0  0
  8  9  2  0  0  0  0
  8 24  1  0  0  0  0
  9 25  1  0  0  0  0
 10 11  1  0  0  0  0
 10 26  1  0  0  0  0
 11 12  1  0  0  0  0
 11 15  1  0  0  0  0
 11 27  1  0  0  0  0
 12 13  1  0  0  0  0
 12 28  1  0  0  0  0
 12 29  1  0  0  0  0
 13 14  1  0  0  0  0
 13 30  1  0  0  0  0
 13 31  1  0  0  0  0
 14 32  1  0  0  0  0
 15 20  1  0  0  0  0
 15 16  1  0  0  0  0
 15 33  1  0  0  0  0
 16 17  1  0  0  0  0
 16 34  1  0  0  0  0
 16 35  1  0  0  0  0
 17 18  1  0  0  0  0
 17 36  1  0  0  0  0
 17 37  1  0  0  0  0
 18 19  1  0  0  0  0
 18 38  1  0  0  0  0
 18 39  1  0  0  0  0
 19 20  1  0  0  0  0
 19 40  1  0  0  0  0
 19 41  1  0  0  0  0
 20 42  1  0  0  0  0
 20 43  1  0  0  0  0
M  CHG  1   7   1
M  END
> <s_m_source_file>
AV-unprocessed.smi

> <i_m_source_file_index>
2664

> <i_lp_mmshare_version>
43012

> <i_f3d_flags>
0

> <s_epik_input>
W2NIXTFbY0hdbltjSF1bY0hdYzFbTkhdQyg9TylbTkhdW0NASF0oW0NIMl1bQ0gyXVtPSF0pW0NIXTJbQ0gyXVtDSDJdW0NIMl1bQ0gyXVtDSDJdMg==

> <s_epik_cmdline>
J2VwaWtfcHl0aG9uJywgJy1waCcsICc3LjAnLCAnLXRuJywgJzgnLCAnLW1hJywgJzIwMCcsICctbWV0YWxfYmluZGluZycsICctaW1hZScsICc8aW5maWxlLm1hZT4nLCAnLW9tYWUnLCAnPG91dGZpbGUubWFlPic=

> <r_epik_Ionization_Penalty>
1.0085

> <r_epik_Ionization_Penalty_Charging>
1.00848

> <r_epik_Ionization_Penalty_Neutral>
2.14516e-05

> <r_epik_State_Penalty>
1.05769

> <r_epik_Charging_Adjusted_Penalty>
2.06617

> <i_epik_Tot_Q>
1

> <i_epik_Tot_abs_Q>
1

> <r_epik_Metal_State_Penalty>
1.15842

> <b_epik_Metal_Only>
0

> <s_lp_Force_Field>
OPLS_2005

> <r_lp_Energy>
27.8621

> <b_lp_Chiralities_Consistent>
1

> <s_lp_Variant>
AV-unprocessed.smi:2664-4

> <Gold.Version>
5.8.1

> <Gold.Id.Protein>
6NUR|6NUR_protein|mol2

> <Gold.PLP.Fitness>
46.6014

> <Gold.PLP.PLP>
-35.3982

> <Gold.PLP.part.hbond>
-4.0000

> <Gold.PLP.part.metal>
0.0000

> <Gold.PLP.part.buried>
-5.1859

> <Gold.PLP.part.nonpolar>
-26.9491

> <Gold.PLP.part.repulsive>
0.3348

> <Gold.PLP.ligand.clash>
0.0000

> <Gold.PLP.ligand.torsion>
1.9119

> <Gold.PLP.Chemscore.Hbond>
4.9913

> <Gold.PLP.Chemscore.CHOScore>
0.0000

> <Gold.PLP.Chemscore.Metal>
0.0000

> <Gold.Chemscore.Hbonds>
donor molecule, donor type, donor heavy atom, donor atom, acceptor molecule, acceptor atom, score
      L1  H     3    21       P1  7948  1.00
      L1  H     7    44       P1  8028  2.00
      L1  H    10    26       P1  7948  1.00
      L1  H    14    32       P1 10957  0.75

> <Gold.PLP.Chemscore.Internal.Correction>
0.0532

> <Gold.Rescore>
     Score         DG    S(hbond)    S(metal)    S(lipo)     H(rot)  DE(clash)    DE(int)     intcor
     18.13     -23.16       3.87        0.00      90.21       2.27       0.33       4.69       ----

> <Gold.Chemscore.Fitness>
18.1300

> <Gold.Chemscore.DG>
-23.1571

> <Gold.Chemscore.ZeroCoef>
-5.4800

> <Gold.Chemscore.Hbond>
3.8748

> <Gold.Chemscore.Metal>
0.0000

> <Gold.Chemscore.Lipo>
90.2081

> <Gold.Chemscore.Internal_Hbond>
0.0000

> <Gold.Chemscore.DEClash>
0.3331

> <Gold.Chemscore.DEInternal>
4.6940

> <Gold.Chemscore.Rot>
2.2731

> <Gold.Chemscore.Internal.Correction>
   9.000000E+99

> <Gold.Chemscore.Hbonds>
donor molecule, donor type, donor heavy atom, donor atom, acceptor molecule, acceptor atom, score
      L1  H     3    21       P1  7948  1.00
      L1  H     7    44       P1  8028  1.00
      L1  H    10    26       P1  7948  0.96
      L1  H    14    32       P1 10957  0.73

> <Gold.Chemscore.Hbond.Weighted>
-12.9420

> <Gold.Chemscore.Metal.Weighted>
-0.0000

> <Gold.Chemscore.Lipo.Weighted>
-10.5543

> <Gold.Chemscore.Internal_Hbond.Weighted>
0.0000

> <Gold.Chemscore.DEClash.Weighted>
0.3331

> <Gold.Chemscore.DEInternal.Weighted>
4.6940

> <Gold.Chemscore.Rot.Weighted>
5.8192

> <Gold.Chemscore.Internal.Correction.Weighted>
   9.000000E+99

> <Gold.Protein.RotatedTorsions>
[ 6907 6896 6895 6894 ] final   14.87 input  -60.11 | X-H torsion
[ 7974 7965 7964 7962 ] final -159.05 input  175.53 | X-H torsion
[ 8008 7997 7996 7995 ] final   98.01 input   59.86 | X-H torsion
[ 10167 10162 10161 10158 ] final  -77.94 input  -65.29 | X-H torsion
[ 10718 10713 10712 10709 ] final  -22.83 input   66.30 | X-H torsion
[ 10763 10752 10751 10750 ] final   56.26 input  -60.55 | X-H torsion
[ 11005 11000 10999 10996 ] final   52.74 input  -57.11 | X-H torsion

> <Gold.Protein.ActiveResidues>
 VAL166  LYS551  ARG553  GLY616  TRP617  ASP618  TYR619  PRO620  LYS621  CYS622 
 ASP623  PHE694  ASN695  SER759  ASP760  ASP761  ALA762  ILE779  LEU786  VAL792 
 PHE793  MET794  SER795  GLU796  ALA797  LYS798  CYS799  TRP800  GLU811  SER814 

> <Gold.Protein.RotatedAtoms>
  151.8090  135.0686  160.0410 H   0  0  0  0  0  0  0  0  0  0  0  0  # atno 6907 bound_to 6896
  152.3034  133.5674  159.5641 H   0  0  0  0  0  0  0  0  0  0  0  0  # atno 6908 bound_to 6896
  150.7284  134.0174  159.3732 H   0  0  0  0  0  0  0  0  0  0  0  0  # atno 6909 bound_to 6896
  144.7481  140.3740  143.6069 H   0  0  0  0  0  0  0  0  0  0  0  0  # atno 7974 bound_to 7965
  156.0960  140.3250  155.7878 H   0  0  0  0  0  0  0  0  0  0  0  0  # atno 8008 bound_to 7997
  155.4917  140.0562  157.2970 H   0  0  0  0  0  0  0  0  0  0  0  0  # atno 8009 bound_to 7997
  154.4667  140.1992  156.0116 H   0  0  0  0  0  0  0  0  0  0  0  0  # atno 8010 bound_to 7997
  140.4726  143.2423  151.8182 H   0  0  0  0  0  0  0  0  0  0  0  0  # atno 10167 bound_to 10162
  156.4993  130.4584  149.6710 H   0  0  0  0  0  0  0  0  0  0  0  0  # atno 10718 bound_to 10713
  152.9829  135.5682  154.5200 H   0  0  0  0  0  0  0  0  0  0  0  0  # atno 10763 bound_to 10752
  154.4690  135.2784  155.1659 H   0  0  0  0  0  0  0  0  0  0  0  0  # atno 10764 bound_to 10752
  154.3215  135.6268  153.5563 H   0  0  0  0  0  0  0  0  0  0  0  0  # atno 10765 bound_to 10752
  140.0824  134.5320  155.8933 H   0  0  0  0  0  0  0  0  0  0  0  0  # atno 11005 bound_to 11000
  145.7047  139.1670  143.2573 LP  0  0  0  0  0  0  0  0  0  0  0  0  # atno 17320 bound_to 7965
  146.1390  140.7083  142.9376 LP  0  0  0  0  0  0  0  0  0  0  0  0  # atno 17321 bound_to 7965
  139.4820  144.4873  151.9230 LP  0  0  0  0  0  0  0  0  0  0  0  0  # atno 17342 bound_to 10162
  140.3958  144.2556  150.5896 LP  0  0  0  0  0  0  0  0  0  0  0  0  # atno 17343 bound_to 10162
  156.3349  130.7351  151.2287 LP  0  0  0  0  0  0  0  0  0  0  0  0  # atno 17370 bound_to 10713
  157.7465  131.0419  150.4671 LP  0  0  0  0  0  0  0  0  0  0  0  0  # atno 17371 bound_to 10713
  141.2051  133.6644  156.6161 LP  0  0  0  0  0  0  0  0  0  0  0  0  # atno 17394 bound_to 11000
  140.3469  134.7802  157.4438 LP  0  0  0  0  0  0  0  0  0  0  0  0  # atno 17395 bound_to 11000

$$$$
