AV-unprocessed.smi:2397|AV-procd|sdf|9496|dock9
  -GOLD-   2272013123D 1   1.00000     0.00000
 Structure written by MMmdl.
 37 38  0  0  0  0  0  0  0  0  2 V2000
  152.5602  143.6184  159.7992 C   0  0  0  0  0  0  0  0  0  0  0  0
  151.6331  143.9879  158.6313 C   0  0  0  0  0  0  0  0  0  0  0  0
  150.4036  144.7965  159.0727 C   0  0  0  0  0  0  0  0  0  0  0  0
  151.2462  142.7700  157.8047 C   0  0  0  0  0  0  0  0  0  0  0  0
  150.4800  142.9395  156.7156 N   0  3  0  0  0  0  0  0  0  0  0  0
  150.1250  141.8650  155.9709 C   0  0  0  0  0  0  0  0  0  0  0  0
  150.5555  140.5751  156.3306 C   0  0  0  0  0  0  0  0  0  0  0  0
  151.3640  140.4660  157.4825 C   0  0  0  0  0  0  0  0  0  0  0  0
  151.8653  139.2391  157.9633 N   0  0  0  0  0  0  0  0  0  0  0  0
  151.2724  138.9031  159.2569 C   0  0  0  0  0  0  0  0  0  0  0  0
  151.9509  137.6682  159.8648 C   0  0  0  0  0  0  0  0  0  0  0  0
  151.8675  136.5933  158.9405 O   0  0  0  0  0  0  0  0  0  0  0  0
  152.5707  136.8828  157.7388 C   0  0  0  0  0  0  0  0  0  0  0  0
  151.9512  138.1077  157.0243 C   0  0  2  0  0  0  0  0  0  0  0  0
  152.7613  138.3583  155.7356 C   0  0  0  0  0  0  0  0  0  0  0  0
  152.1242  138.2960  154.5614 N   0  0  0  0  0  0  0  0  0  0  0  0
  153.9658  138.5900  155.8054 O   0  0  0  0  0  0  0  0  0  0  0  0
  151.6868  141.5660  158.1956 N   0  0  0  0  0  0  0  0  0  0  0  0
  153.4578  143.1122  159.4427 H   0  0  0  0  0  0  0  0  0  0  0  0
  152.0634  142.9559  160.5088 H   0  0  0  0  0  0  0  0  0  0  0  0
  152.8775  144.5078  160.3443 H   0  0  0  0  0  0  0  0  0  0  0  0
  152.2115  144.6436  157.9780 H   0  0  0  0  0  0  0  0  0  0  0  0
  149.8073  145.1049  158.2136 H   0  0  0  0  0  0  0  0  0  0  0  0
  150.6998  145.6981  159.6093 H   0  0  0  0  0  0  0  0  0  0  0  0
  149.7604  144.2147  159.7337 H   0  0  0  0  0  0  0  0  0  0  0  0
  149.5053  142.0726  155.1109 H   0  0  0  0  0  0  0  0  0  0  0  0
  150.2667  139.7189  155.7395 H   0  0  0  0  0  0  0  0  0  0  0  0
  151.3627  139.7372  159.9545 H   0  0  0  0  0  0  0  0  0  0  0  0
  150.2060  138.7122  159.1262 H   0  0  0  0  0  0  0  0  0  0  0  0
  152.9927  137.8746  160.1164 H   0  0  0  0  0  0  0  0  0  0  0  0
  151.4503  137.3807  160.7896 H   0  0  0  0  0  0  0  0  0  0  0  0
  153.6263  137.0472  157.9648 H   0  0  0  0  0  0  0  0  0  0  0  0
  152.5215  136.0017  157.0976 H   0  0  0  0  0  0  0  0  0  0  0  0
  150.9367  137.8308  156.7341 H   0  0  0  0  0  0  0  0  0  0  0  0
  152.6364  138.4344  153.7020 H   0  0  0  0  0  0  0  0  0  0  0  0
  151.1359  138.0886  154.5377 H   0  0  0  0  0  0  0  0  0  0  0  0
  150.1600  143.8696  156.4436 H   0  0  0  0  0  0  0  0  0  0  0  0
  1  2  1  0  0  0  0
  1 19  1  0  0  0  0
  1 20  1  0  0  0  0
  1 21  1  0  0  0  0
  2  3  1  0  0  0  0
  2  4  1  0  0  0  0
  2 22  1  0  0  0  0
  3 23  1  0  0  0  0
  3 24  1  0  0  0  0
  3 25  1  0  0  0  0
  4 18  1  0  0  0  0
  4  5  2  0  0  0  0
  5  6  1  0  0  0  0
  5 37  1  0  0  0  0
  6  7  2  0  0  0  0
  6 26  1  0  0  0  0
  7  8  1  0  0  0  0
  7 27  1  0  0  0  0
  8  9  1  0  0  0  0
  8 18  2  0  0  0  0
  9 14  1  0  0  0  0
  9 10  1  0  0  0  0
 10 11  1  0  0  0  0
 10 28  1  0  0  0  0
 10 29  1  0  0  0  0
 11 12  1  0  0  0  0
 11 30  1  0  0  0  0
 11 31  1  0  0  0  0
 12 13  1  0  0  0  0
 13 14  1  0  0  0  0
 13 32  1  0  0  0  0
 13 33  1  0  0  0  0
 14 15  1  0  0  0  0
 14 34  1  0  0  0  0
 15 16  1  0  0  0  0
 15 17  2  0  0  0  0
 16 35  1  0  0  0  0
 16 36  1  0  0  0  0
M  CHG  1   5   1
M  END
> <s_m_source_file>
AV-unprocessed.smi

> <i_m_source_file_index>
2397

> <i_lp_mmshare_version>
43012

> <i_f3d_flags>
0

> <s_epik_input>
W0NIM11bQ0hdKFtDSDNdKWMxbltjSF1bY0hdYyhuMSlOMltDSDJdW0NIMl1PW0NIMl1bQ0BIXTJDKD1PKVtOSDJd

> <s_epik_cmdline>
J2VwaWtfcHl0aG9uJywgJy1waCcsICc3LjAnLCAnLXRuJywgJzgnLCAnLW1hJywgJzIwMCcsICctbWV0YWxfYmluZGluZycsICctaW1hZScsICc8aW5maWxlLm1hZT4nLCAnLW9tYWUnLCAnPG91dGZpbGUubWFlPic=

> <r_lp_tautomer_probability>
0.999336

> <r_epik_Ionization_Penalty>
1.74009

> <r_epik_Ionization_Penalty_Charging>
1.74009

> <r_epik_Ionization_Penalty_Neutral>
2.46902e-07

> <r_epik_State_Penalty>
1.8491

> <r_epik_Charging_Adjusted_Penalty>
3.5892

> <i_epik_Tot_Q>
1

> <i_epik_Tot_abs_Q>
1

> <r_epik_Metal_State_Penalty>
1.87997

> <b_epik_Metal_Only>
0

> <s_lp_Force_Field>
OPLS_2005

> <r_lp_Energy>
12.8895

> <b_lp_Chiralities_Consistent>
1

> <s_lp_Variant>
AV-unprocessed.smi:2397-4

> <Gold.Version>
5.8.1

> <Gold.Id.Protein>
6NUR|6NUR_protein|mol2

> <Gold.PLP.Fitness>
41.4118

> <Gold.PLP.PLP>
-31.4285

> <Gold.PLP.part.hbond>
-3.0000

> <Gold.PLP.part.metal>
0.0000

> <Gold.PLP.part.buried>
-5.5215

> <Gold.PLP.part.nonpolar>
-23.1888

> <Gold.PLP.part.repulsive>
0.2291

> <Gold.PLP.ligand.clash>
0.0000

> <Gold.PLP.ligand.torsion>
0.3869

> <Gold.PLP.Chemscore.Hbond>
3.4880

> <Gold.PLP.Chemscore.CHOScore>
0.0000

> <Gold.PLP.Chemscore.Metal>
0.0000

> <Gold.Chemscore.Hbonds>
donor molecule, donor type, donor heavy atom, donor atom, acceptor molecule, acceptor atom, score
      L1  H     5    37       P1  8028  1.79
      P1  H  6896  6907       L1    12  0.69
      P1  H  7997  8008       L1    17  0.54

> <Gold.PLP.Chemscore.Internal.Correction>
0.2932

> <Gold.Rescore>
     Score         DG    S(hbond)    S(metal)    S(lipo)     H(rot)  DE(clash)    DE(int)     intcor
     17.54     -18.01       2.77        0.00      66.72       1.77       0.00       0.47       ----

> <Gold.Chemscore.Fitness>
17.5394

> <Gold.Chemscore.DG>
-18.0075

> <Gold.Chemscore.ZeroCoef>
-5.4800

> <Gold.Chemscore.Hbond>
2.7716

> <Gold.Chemscore.Metal>
0.0000

> <Gold.Chemscore.Lipo>
66.7167

> <Gold.Chemscore.Internal_Hbond>
0.0000

> <Gold.Chemscore.DEClash>
0.0000

> <Gold.Chemscore.DEInternal>
0.4680

> <Gold.Chemscore.Rot>
1.7717

> <Gold.Chemscore.Internal.Correction>
   9.000000E+99

> <Gold.Chemscore.Hbonds>
donor molecule, donor type, donor heavy atom, donor atom, acceptor molecule, acceptor atom, score
      L1  H     5    37       P1  8028  0.88
      P1  H  6896  6907       L1    12  0.30
      P1  H  7997  8008       L1    17  0.51

> <Gold.Chemscore.Hbond.Weighted>
-9.2573

> <Gold.Chemscore.Metal.Weighted>
-0.0000

> <Gold.Chemscore.Lipo.Weighted>
-7.8059

> <Gold.Chemscore.Internal_Hbond.Weighted>
0.0000

> <Gold.Chemscore.DEClash.Weighted>
0.0000

> <Gold.Chemscore.DEInternal.Weighted>
0.4680

> <Gold.Chemscore.Rot.Weighted>
4.5357

> <Gold.Chemscore.Internal.Correction.Weighted>
   9.000000E+99

> <Gold.Protein.RotatedTorsions>
[ 6907 6896 6895 6894 ] final   21.21 input  -60.11 | X-H torsion
[ 7974 7965 7964 7962 ] final  105.42 input  175.53 | X-H torsion
[ 8008 7997 7996 7995 ] final  -22.23 input   59.86 | X-H torsion
[ 10167 10162 10161 10158 ] final  -66.66 input  -65.29 | X-H torsion
[ 10718 10713 10712 10709 ] final   52.90 input   66.30 | X-H torsion
[ 10763 10752 10751 10750 ] final -164.83 input  -60.55 | X-H torsion
[ 11005 11000 10999 10996 ] final  -73.12 input  -57.11 | X-H torsion

> <Gold.Protein.ActiveResidues>
 VAL166  LYS551  ARG553  GLY616  TRP617  ASP618  TYR619  PRO620  LYS621  CYS622 
 ASP623  PHE694  ASN695  SER759  ASP760  ASP761  ALA762  ILE779  LEU786  VAL792 
 PHE793  MET794  SER795  GLU796  ALA797  LYS798  CYS799  TRP800  GLU811  SER814 

> <Gold.Protein.RotatedAtoms>
  151.9082  135.0350  160.0511 H   0  0  0  0  0  0  0  0  0  0  0  0  # atno 6907 bound_to 6896
  152.2301  133.5047  159.5219 H   0  0  0  0  0  0  0  0  0  0  0  0  # atno 6908 bound_to 6896
  150.7023  134.1144  159.4054 H   0  0  0  0  0  0  0  0  0  0  0  0  # atno 6909 bound_to 6896
  145.3198  139.2516  143.3718 H   0  0  0  0  0  0  0  0  0  0  0  0  # atno 7974 bound_to 7965
  154.4657  140.2013  156.0126 H   0  0  0  0  0  0  0  0  0  0  0  0  # atno 8008 bound_to 7997
  156.0921  140.3256  155.7801 H   0  0  0  0  0  0  0  0  0  0  0  0  # atno 8009 bound_to 7997
  155.4938  140.0548  157.2940 H   0  0  0  0  0  0  0  0  0  0  0  0  # atno 8010 bound_to 7997
  140.5640  143.2314  151.6671 H   0  0  0  0  0  0  0  0  0  0  0  0  # atno 10167 bound_to 10162
  157.5118  130.8506  149.8444 H   0  0  0  0  0  0  0  0  0  0  0  0  # atno 10718 bound_to 10713
  154.6991  135.2984  154.9368 H   0  0  0  0  0  0  0  0  0  0  0  0  # atno 10763 bound_to 10752
  154.0306  135.6670  153.4784 H   0  0  0  0  0  0  0  0  0  0  0  0  # atno 10764 bound_to 10752
  153.0667  135.5084  154.8124 H   0  0  0  0  0  0  0  0  0  0  0  0  # atno 10765 bound_to 10752
  141.1618  133.6868  156.7163 H   0  0  0  0  0  0  0  0  0  0  0  0  # atno 11005 bound_to 11000
  146.3086  140.3753  142.8678 LP  0  0  0  0  0  0  0  0  0  0  0  0  # atno 17320 bound_to 7965
  144.8948  140.7569  143.5904 LP  0  0  0  0  0  0  0  0  0  0  0  0  # atno 17321 bound_to 7965
  139.5084  144.3613  152.0560 LP  0  0  0  0  0  0  0  0  0  0  0  0  # atno 17342 bound_to 10162
  140.2742  144.3930  150.6141 LP  0  0  0  0  0  0  0  0  0  0  0  0  # atno 17343 bound_to 10162
  156.0294  130.3769  150.1731 LP  0  0  0  0  0  0  0  0  0  0  0  0  # atno 17370 bound_to 10713
  156.9920  130.9896  151.3412 LP  0  0  0  0  0  0  0  0  0  0  0  0  # atno 17371 bound_to 10713
  140.2850  134.8287  157.3966 LP  0  0  0  0  0  0  0  0  0  0  0  0  # atno 17394 bound_to 11000
  140.1399  134.4986  155.8040 LP  0  0  0  0  0  0  0  0  0  0  0  0  # atno 17395 bound_to 11000

$$$$
