AV-unprocessed.smi:1439|AV-procd|sdf|5872|dock5
  -GOLD-   22720 5543D 1   1.00000     0.00000
 Structure written by MMmdl.
 35 36  0  0  0  0  0  0  0  0  2 V2000
  144.2163  137.9459  153.4455 N   0  0  0  0  0  0  0  0  0  0  0  0
  145.5021  137.5843  153.4999 C   0  0  0  0  0  0  0  0  0  0  0  0
  145.8866  136.6545  154.2063 O   0  0  0  0  0  0  0  0  0  0  0  0
  146.5002  138.3505  152.6228 C   0  0  0  0  0  0  0  0  0  0  0  0
  147.0944  139.5251  153.3491 C   0  0  0  0  0  0  0  0  0  0  0  0
  146.9051  140.8519  153.0586 C   0  0  0  0  0  0  0  0  0  0  0  0
  147.7736  141.8827  154.1590 S   0  0  0  0  0  0  0  0  0  0  0  0
  148.3820  140.4554  154.9987 C   0  0  0  0  0  0  0  0  0  0  0  0
  149.1994  140.4813  156.0627 N   0  5  0  0  0  0  0  0  0  0  0  0
  150.5070  140.7914  155.8923 C   0  0  0  0  0  0  0  0  0  0  0  0
  151.3650  140.1833  155.2497 O   0  0  0  0  0  0  0  0  0  0  0  0
  150.8927  142.0819  156.6273 C   0  0  0  0  0  0  0  0  0  0  0  0
  151.5017  141.8026  158.0130 C   0  0  0  0  0  0  0  0  0  0  0  0
  152.1563  143.0451  158.6341 C   0  0  1  0  0  0  0  0  0  0  0  0
  151.5831  144.3650  158.1236 C   0  0  0  0  0  0  0  0  0  0  0  0
  151.9657  145.3099  159.2398 C   0  0  0  0  0  0  0  0  0  0  0  0
  151.7779  144.4347  160.4773 C   0  0  0  0  0  0  0  0  0  0  0  0
  151.9427  143.0867  160.0424 O   0  0  0  0  0  0  0  0  0  0  0  0
  147.9450  139.3214  154.4400 N   0  0  0  0  0  0  0  0  0  0  0  0
  143.5392  137.4810  154.0324 H   0  0  0  0  0  0  0  0  0  0  0  0
  143.9323  138.7022  152.8396 H   0  0  0  0  0  0  0  0  0  0  0  0
  147.2878  137.6697  152.2975 H   0  0  0  0  0  0  0  0  0  0  0  0
  145.9860  138.6780  151.7188 H   0  0  0  0  0  0  0  0  0  0  0  0
  146.3075  141.2843  152.2704 H   0  0  0  0  0  0  0  0  0  0  0  0
  151.6105  142.6218  156.0089 H   0  0  0  0  0  0  0  0  0  0  0  0
  150.0293  142.7408  156.7398 H   0  0  0  0  0  0  0  0  0  0  0  0
  150.7187  141.4439  158.6828 H   0  0  0  0  0  0  0  0  0  0  0  0
  152.2387  141.0014  157.9434 H   0  0  0  0  0  0  0  0  0  0  0  0
  153.2328  143.0332  158.4554 H   0  0  0  0  0  0  0  0  0  0  0  0
  151.9881  144.6593  157.1550 H   0  0  0  0  0  0  0  0  0  0  0  0
  150.4969  144.3074  158.0390 H   0  0  0  0  0  0  0  0  0  0  0  0
  153.0128  145.5992  159.1400 H   0  0  0  0  0  0  0  0  0  0  0  0
  151.3608  146.2168  159.2624 H   0  0  0  0  0  0  0  0  0  0  0  0
  152.4860  144.6851  161.2678 H   0  0  0  0  0  0  0  0  0  0  0  0
  150.7699  144.5472  160.8778 H   0  0  0  0  0  0  0  0  0  0  0  0
  1  2  1  0  0  0  0
  1 20  1  0  0  0  0
  1 21  1  0  0  0  0
  2  3  2  0  0  0  0
  2  4  1  0  0  0  0
  4  5  1  0  0  0  0
  4 22  1  0  0  0  0
  4 23  1  0  0  0  0
  5 19  1  0  0  0  0
  5  6  2  0  0  0  0
  6  7  1  0  0  0  0
  6 24  1  0  0  0  0
  7  8  1  0  0  0  0
  8  9  1  0  0  0  0
  8 19  2  0  0  0  0
  9 10  1  0  0  0  0
 10 11  2  0  0  0  0
 10 12  1  0  0  0  0
 12 13  1  0  0  0  0
 12 25  1  0  0  0  0
 12 26  1  0  0  0  0
 13 14  1  0  0  0  0
 13 27  1  0  0  0  0
 13 28  1  0  0  0  0
 14 18  1  0  0  0  0
 14 15  1  0  0  0  0
 14 29  1  0  0  0  0
 15 16  1  0  0  0  0
 15 30  1  0  0  0  0
 15 31  1  0  0  0  0
 16 17  1  0  0  0  0
 16 32  1  0  0  0  0
 16 33  1  0  0  0  0
 17 18  1  0  0  0  0
 17 34  1  0  0  0  0
 17 35  1  0  0  0  0
M  CHG  1   9  -1
M  END
> <s_m_source_file>
AV-unprocessed.smi

> <i_m_source_file_index>
1439

> <i_lp_mmshare_version>
43012

> <i_f3d_flags>
0

> <s_epik_input>
W05IMl1DKD1PKVtDSDJdYzFbY0hdc2MobjEpW05IXUMoPU8pW0NIMl1bQ0gyXVtDQEBIXTJbQ0gyXVtDSDJdW0NIMl1PMg==

> <s_epik_cmdline>
J2VwaWtfcHl0aG9uJywgJy1waCcsICc3LjAnLCAnLXRuJywgJzgnLCAnLW1hJywgJzIwMCcsICctbWV0YWxfYmluZGluZycsICctaW1hZScsICc8aW5maWxlLm1hZT4nLCAnLW9tYWUnLCAnPG91dGZpbGUubWFlPic=

> <r_lp_tautomer_probability>
1

> <r_epik_Ionization_Penalty>
4.85214

> <r_epik_Ionization_Penalty_Charging>
4.5239

> <r_epik_Ionization_Penalty_Neutral>
0.32824

> <r_epik_State_Penalty>
4.52362

> <r_epik_Charging_Adjusted_Penalty>
9.04752

> <i_epik_Tot_Q>
-1

> <i_epik_Tot_abs_Q>
1

> <r_epik_Metal_State_Penalty>
0.831335

> <b_epik_Metal_Only>
1

> <s_lp_Force_Field>
OPLS_2005

> <r_lp_Energy>
13.9468

> <b_lp_Chiralities_Consistent>
1

> <s_lp_Variant>
AV-unprocessed.smi:1439-4

> <Gold.Version>
5.8.1

> <Gold.Id.Protein>
6NUR|6NUR_protein|mol2

> <Gold.PLP.Fitness>
40.9581

> <Gold.PLP.PLP>
-39.8369

> <Gold.PLP.part.hbond>
-2.0000

> <Gold.PLP.part.metal>
0.0000

> <Gold.PLP.part.buried>
-6.2765

> <Gold.PLP.part.nonpolar>
-32.6476

> <Gold.PLP.part.repulsive>
0.2814

> <Gold.PLP.ligand.clash>
0.0000

> <Gold.PLP.ligand.torsion>
2.5859

> <Gold.PLP.Chemscore.Hbond>
2.0000

> <Gold.PLP.Chemscore.CHOScore>
0.0368

> <Gold.PLP.Chemscore.Metal>
0.0000

> <Gold.Chemscore.Hbonds>
donor molecule, donor type, donor heavy atom, donor atom, acceptor molecule, acceptor atom, score
      L1  H     1    21       P1 10175  1.00
      P1  H  7989  7998       L1    11  1.00
      L1  C     6    24       P1 10175  0.14

> <Gold.PLP.Chemscore.Internal.Correction>
0.1825

> <Gold.Rescore>
     Score         DG    S(hbond)    S(metal)    S(lipo)     H(rot)  DE(clash)    DE(int)     intcor
     14.14     -16.62       1.89        0.00      96.22       2.51       0.05       2.43       ----

> <Gold.Chemscore.Fitness>
14.1386

> <Gold.Chemscore.DG>
-16.6203

> <Gold.Chemscore.ZeroCoef>
-5.4800

> <Gold.Chemscore.Hbond>
1.8889

> <Gold.Chemscore.Metal>
0.0000

> <Gold.Chemscore.Lipo>
96.2188

> <Gold.Chemscore.Internal_Hbond>
0.0000

> <Gold.Chemscore.DEClash>
0.0549

> <Gold.Chemscore.DEInternal>
2.4267

> <Gold.Chemscore.Rot>
2.5103

> <Gold.Chemscore.Internal.Correction>
   9.000000E+99

> <Gold.Chemscore.Hbonds>
donor molecule, donor type, donor heavy atom, donor atom, acceptor molecule, acceptor atom, score
      L1  H     1    21       P1 10175  0.98
      P1  H  7989  7998       L1    11  0.85

> <Gold.Chemscore.Hbond.Weighted>
-6.3091

> <Gold.Chemscore.Metal.Weighted>
-0.0000

> <Gold.Chemscore.Lipo.Weighted>
-11.2576

> <Gold.Chemscore.Internal_Hbond.Weighted>
0.0000

> <Gold.Chemscore.DEClash.Weighted>
0.0549

> <Gold.Chemscore.DEInternal.Weighted>
2.4267

> <Gold.Chemscore.Rot.Weighted>
6.4264

> <Gold.Chemscore.Internal.Correction.Weighted>
   9.000000E+99

> <Gold.Protein.RotatedTorsions>
[ 6907 6896 6895 6894 ] final   92.04 input  -60.11 | X-H torsion
[ 7974 7965 7964 7962 ] final   80.13 input  175.53 | X-H torsion
[ 8008 7997 7996 7995 ] final  152.12 input   59.86 | X-H torsion
[ 10167 10162 10161 10158 ] final -143.58 input  -65.29 | X-H torsion
[ 10718 10713 10712 10709 ] final  116.79 input   66.30 | X-H torsion
[ 10763 10752 10751 10750 ] final  -93.78 input  -60.55 | X-H torsion
[ 11005 11000 10999 10996 ] final   47.09 input  -57.11 | X-H torsion

> <Gold.Protein.ActiveResidues>
 VAL166  LYS551  ARG553  GLY616  TRP617  ASP618  TYR619  PRO620  LYS621  CYS622 
 ASP623  PHE694  ASN695  SER759  ASP760  ASP761  ALA762  ILE779  LEU786  VAL792 
 PHE793  MET794  SER795  GLU796  ALA797  LYS798  CYS799  TRP800  GLU811  SER814 

> <Gold.Protein.RotatedAtoms>
  152.5452  134.1563  159.8538 H   0  0  0  0  0  0  0  0  0  0  0  0  # atno 6907 bound_to 6896
  151.1585  133.4853  159.2602 H   0  0  0  0  0  0  0  0  0  0  0  0  # atno 6908 bound_to 6896
  151.1397  135.0184  159.8675 H   0  0  0  0  0  0  0  0  0  0  0  0  # atno 6909 bound_to 6896
  145.6552  139.2457  143.1954 H   0  0  0  0  0  0  0  0  0  0  0  0  # atno 7974 bound_to 7965
  156.2643  140.2029  156.6283 H   0  0  0  0  0  0  0  0  0  0  0  0  # atno 8008 bound_to 7997
  154.6703  140.0551  157.0182 H   0  0  0  0  0  0  0  0  0  0  0  0  # atno 8009 bound_to 7997
  155.1147  140.3219  155.4515 H   0  0  0  0  0  0  0  0  0  0  0  0  # atno 8010 bound_to 7997
  139.7979  143.7874  152.2656 H   0  0  0  0  0  0  0  0  0  0  0  0  # atno 10167 bound_to 10162
  157.6138  131.1029  150.7523 H   0  0  0  0  0  0  0  0  0  0  0  0  # atno 10718 bound_to 10713
  154.6992  135.5182  153.8502 H   0  0  0  0  0  0  0  0  0  0  0  0  # atno 10763 bound_to 10752
  153.0691  135.6595  154.0297 H   0  0  0  0  0  0  0  0  0  0  0  0  # atno 10764 bound_to 10752
  154.0159  135.2998  155.3366 H   0  0  0  0  0  0  0  0  0  0  0  0  # atno 10765 bound_to 10752
  140.1310  134.4706  155.8521 H   0  0  0  0  0  0  0  0  0  0  0  0  # atno 11005 bound_to 11000
  146.1171  140.7356  142.9475 LP  0  0  0  0  0  0  0  0  0  0  0  0  # atno 17320 bound_to 7965
  144.7108  140.4032  143.7082 LP  0  0  0  0  0  0  0  0  0  0  0  0  # atno 17321 bound_to 7965
  139.7985  144.7383  150.9857 LP  0  0  0  0  0  0  0  0  0  0  0  0  # atno 17342 bound_to 10162
  140.7820  143.4369  151.0610 LP  0  0  0  0  0  0  0  0  0  0  0  0  # atno 17343 bound_to 10162
  156.7894  130.4885  149.5387 LP  0  0  0  0  0  0  0  0  0  0  0  0  # atno 17370 bound_to 10713
  156.1251  130.6138  151.0252 LP  0  0  0  0  0  0  0  0  0  0  0  0  # atno 17371 bound_to 10713
  141.2170  133.6796  156.7069 LP  0  0  0  0  0  0  0  0  0  0  0  0  # atno 17394 bound_to 11000
  140.2842  134.8292  157.3960 LP  0  0  0  0  0  0  0  0  0  0  0  0  # atno 17395 bound_to 11000

$$$$
