#       Name:                AV-unprocessed.smi:2019
#       Creating user name   scv26
#       Creation time:       Fri Mar 27 10:42:02 2020


#       File generated by GOLD software.
#

@<TRIPOS>MOLECULE
AV-unprocessed.smi:2019
    42    43     1
SMALL
NO_CHARGES


@<TRIPOS>ATOM
      1 ****         0.0512   1.5181   0.4080 O.2            1 S1                 0.0000
      2 ****         0.7653   0.5187   0.4991 C.2            1 S1                 0.0000
      3 ****         2.2839   0.6509   0.6789 C.3            1 S1                 0.0000
      4 ****         2.8258   1.9039   0.1275 N.am           1 S1                 0.0000
      5 ****         3.0618   2.9562   1.0346 C.2            1 S1                 0.0000
      6 ****         3.5532   4.1403   0.6363 C.2            1 S1                 0.0000
      7 ****         3.8427   4.3222  -0.7664 C.2            1 S1                 0.0000
      8 ****         3.6179   3.3233  -1.6430 C.2            1 S1                 0.0000
      9 ****         3.0792   2.0279  -1.2123 C.2            1 S1                 0.0000
     10 ****         2.8705   1.1104  -2.0064 O.2            1 S1                 0.0000
     11 ****         0.2838  -0.7342   0.4674 N.am           1 S1                 0.0000
     12 ****        -1.1224  -1.1004   0.2829 C.3            1 S1                 0.0000
     13 ****        -1.3253  -2.5012   0.9052 C.3            1 S1                 0.0000
     14 ****        -2.7854  -2.8084   1.2806 C.3            1 S1                 0.0000
     15 ****        -3.7561  -2.8934   0.0927 C.3            1 S1                 0.0000
     16 ****        -3.8917  -1.5763  -0.6902 C.3            1 S1                 0.0000
     17 ****        -2.7595  -1.3471  -1.5782 N.am           1 S1                 0.0000
     18 ****        -1.4804  -1.1553  -1.2212 C.2            1 S1                 0.0000
     19 ****        -0.6081  -1.0300  -2.0808 O.2            1 S1                 0.0000
     20 ****         2.5061   0.5717   1.7439 H              1 S1                 0.0000
     21 ****         2.7825  -0.2046   0.2188 H              1 S1                 0.0000
     22 ****         2.8125   2.7422   2.0637 H              1 S1                 0.0000
     23 ****         3.7238   4.9367   1.3456 H              1 S1                 0.0000
     24 ****         4.2400   5.2645  -1.1144 H              1 S1                 0.0000
     25 ****         3.8392   3.4778  -2.6889 H              1 S1                 0.0000
     26 ****         0.9430  -1.4949   0.5451 H              1 S1                 0.0000
     27 ****        -1.7518  -0.3682   0.7922 H              1 S1                 0.0000
     28 ****        -0.9313  -3.2812   0.2508 H              1 S1                 0.0000
     29 ****        -0.7403  -2.5702   1.8237 H              1 S1                 0.0000
     30 ****        -2.8127  -3.7570   1.8178 H              1 S1                 0.0000
     31 ****        -3.1428  -2.0582   1.9874 H              1 S1                 0.0000
     32 ****        -3.4626  -3.7023  -0.5780 H              1 S1                 0.0000
     33 ****        -4.7385  -3.1677   0.4781 H              1 S1                 0.0000
     34 ****        -4.7844  -1.6213  -1.3145 H              1 S1                 0.0000
     35 ****        -4.0299  -0.7284  -0.0178 H              1 S1                 0.0000
     36 ****        -2.9596  -1.3654  -2.5679 H              1 S1                 0.0000
     37 ****         0.4595   2.4300   0.4509 LP             1 S1                 0.0000
     38 ****        -0.9368   1.4177   0.2911 LP             1 S1                 0.0000
     39 ****         2.5041   0.2394  -1.6790 LP             1 S1                 0.0000
     40 ****         3.0674   1.2362  -2.9787 LP             1 S1                 0.0000
     41 ****         0.3444  -0.8909  -1.8100 LP             1 S1                 0.0000
     42 ****        -0.8520  -1.0673  -3.0499 LP             1 S1                 0.0000
@<TRIPOS>BOND
    1    1    2 2     
    2    2    3 1     
    3    2   11 am    
    4    3    4 1     
    5    3   20 1     
    6    3   21 1     
    7    4    9 am    
    8    4    5 1     
    9    5    6 2     
   10    5   22 1     
   11    6    7 1     
   12    6   23 1     
   13    7    8 2     
   14    7   24 1     
   15    8    9 1     
   16    8   25 1     
   17    9   10 2     
   18   11   12 1     
   19   11   26 1     
   20   12   18 1     
   21   12   13 1     
   22   12   27 1     
   23   13   14 1     
   24   13   28 1     
   25   13   29 1     
   26   14   15 1     
   27   14   30 1     
   28   14   31 1     
   29   15   16 1     
   30   15   32 1     
   31   15   33 1     
   32   16   17 1     
   33   16   34 1     
   34   16   35 1     
   35   17   18 am    
   36   17   36 1     
   37   18   19 2     
   38    1   37 1     
   39    1   38 1     
   40   10   39 1     
   41   10   40 1     
   42   19   41 1     
   43   19   42 1     
@<TRIPOS>SUBSTRUCTURE
      1 S1             1
@<TRIPOS>SET
LONE_PAIRS      STATIC     ATOMS    <user>   **** ""
6 37 38 39 40 41 42
DONOR_HYDROGENS      STATIC     ATOMS    <user>   **** ""
2 26 36
ATOM$BLUE        STATIC     ATOMS    COLORGROUP SYSTEM
6 37 38 39 40 41 42
ATOM$RED        STATIC     ATOMS    COLORGROUP SYSTEM
2 26 36
