#       Name:                AV-unprocessed.smi:283
#       Creating user name   scv26
#       Creation time:       Thu Mar 26 21:47:56 2020


#       File generated by GOLD software.
#

@<TRIPOS>MOLECULE
AV-unprocessed.smi:283
    59    62     1
SMALL
NO_CHARGES


@<TRIPOS>ATOM
      1 ****        -5.4411  -0.4103  -0.7338 C.3            1 S1                 0.0000
      2 ****        -3.9288  -0.4240  -0.4741 C.3            1 S1                 0.0000
      3 ****        -3.3302   0.8062  -0.9877 N.pl3          1 S1                 0.0000
      4 ****        -1.9987   1.0250  -0.9106 C.ar           1 S1                 0.0000
      5 ****        -1.6200   2.3252  -0.9272 N.ar           1 S1                 0.0000
      6 ****        -0.3276   2.6495  -0.8347 C.ar           1 S1                 0.0000
      7 ****         0.7283   1.8426  -0.7224 N.ar           1 S1                 0.0000
      8 ****         0.3577   0.5293  -0.7197 C.ar           1 S1                 0.0000
      9 ****        -0.9751   0.0358  -0.8156 C.ar           1 S1                 0.0000
     10 ****        -0.9495  -1.3544  -0.7972 N.2            1 S1                 0.0000
     11 ****         0.3141  -1.6569  -0.6776 C.2            1 S1                 0.0000
     12 ****         1.1712  -0.5821  -0.6256 N.pl3          1 S1                 0.0000
     13 ****         2.6614  -0.6028  -0.4825 C.3            1 S1                 0.0000
     14 ****         3.0047   0.3287   0.4975 O.3            1 S1                 0.0000
     15 ****         4.2103   0.9872   0.1350 C.3            1 S1                 0.0000
     16 ****         5.3883   0.1591   0.6956 C.3            1 S1                 0.0000
     17 ****         6.5776   0.9200   0.7181 O.3            1 S1                 0.0000
     18 ****         4.1034   1.0760  -1.3962 C.3            1 S1                 0.0000
     19 ****         5.3619   1.2086  -2.0289 O.3            1 S1                 0.0000
     20 ****         3.4097  -0.2249  -1.7828 C.3            1 S1                 0.0000
     21 ****         2.5760  -0.0401  -2.9135 O.3            1 S1                 0.0000
     22 ****        -3.6463  -0.7074   1.0045 C.ar           1 S1                 0.0000
     23 ****        -3.5712   0.3624   1.9271 C.ar           1 S1                 0.0000
     24 ****        -3.3107   0.1205   3.2889 C.ar           1 S1                 0.0000
     25 ****        -3.1311  -1.1970   3.7465 C.ar           1 S1                 0.0000
     26 ****        -3.2180  -2.2704   2.8412 C.ar           1 S1                 0.0000
     27 ****        -3.4787  -2.0340   1.4765 C.ar           1 S1                 0.0000
     28 ****        -3.5898  -3.3933   0.4135 Cl             1 S1                 0.0000
     29 ****         2.8930  -1.6133  -0.1432 H              1 S1                 0.0000
     30 ****         4.2151   1.9801   0.5867 H              1 S1                 0.0000
     31 ****         3.4756   1.9293  -1.6577 H              1 S1                 0.0000
     32 ****         4.1369  -1.0120  -1.9879 H              1 S1                 0.0000
     33 ****        -5.8974  -1.3571  -0.4436 H              1 S1                 0.0000
     34 ****        -5.6574  -0.2533  -1.7910 H              1 S1                 0.0000
     35 ****        -5.9343   0.3827  -0.1706 H              1 S1                 0.0000
     36 ****        -3.5159  -1.2320  -1.0755 H              1 S1                 0.0000
     37 ****        -3.9839   1.5607  -1.1379 H              1 S1                 0.0000
     38 ****        -0.1079   3.7068  -0.8501 H              1 S1                 0.0000
     39 ****         0.6559  -2.6802  -0.6255 H              1 S1                 0.0000
     40 ****         5.1735  -0.1339   1.7237 H              1 S1                 0.0000
     41 ****         5.5450  -0.7594   0.1296 H              1 S1                 0.0000
     42 ****         6.8177   1.1260  -0.1727 H              1 S1                 0.0000
     43 ****         5.7236   2.0514  -1.8007 H              1 S1                 0.0000
     44 ****         2.0905  -0.8369  -3.0618 H              1 S1                 0.0000
     45 ****        -3.7110   1.3805   1.5948 H              1 S1                 0.0000
     46 ****        -3.2502   0.9463   3.9822 H              1 S1                 0.0000
     47 ****        -2.9318  -1.3847   4.7912 H              1 S1                 0.0000
     48 ****        -3.0862  -3.2815   3.1973 H              1 S1                 0.0000
     49 ****        -2.3099   3.0445  -1.0090 LP             1 S1                 0.0000
     50 ****         1.6737   2.1604  -0.6493 LP             1 S1                 0.0000
     51 ****        -1.7256  -1.9817  -0.8613 LP             1 S1                 0.0000
     52 ****         3.1327  -0.1406   1.3712 LP             1 S1                 0.0000
     53 ****         2.2717   1.0032   0.5856 LP             1 S1                 0.0000
     54 ****         7.3081   0.3919   1.1510 LP             1 S1                 0.0000
     55 ****         6.4280   1.7651   1.2314 LP             1 S1                 0.0000
     56 ****         5.2494   1.1468  -3.0207 LP             1 S1                 0.0000
     57 ****         5.9748   0.4826  -1.7171 LP             1 S1                 0.0000
     58 ****         3.1364   0.1676  -3.7153 LP             1 S1                 0.0000
     59 ****         1.9421   0.7148  -2.7453 LP             1 S1                 0.0000
@<TRIPOS>BOND
    1    1    2 1     
    2    1   33 1     
    3    1   34 1     
    4    1   35 1     
    5    2    3 1     
    6    2   22 1     
    7    2   36 1     
    8    3    4 1     
    9    3   37 1     
   10    4    9 ar    
   11    4    5 ar    
   12    5    6 ar    
   13    6    7 ar    
   14    6   38 1     
   15    7    8 ar    
   16    8   12 1     
   17    8    9 ar    
   18    9   10 1     
   19   10   11 2     
   20   11   12 1     
   21   11   39 1     
   22   12   13 1     
   23   13   29 1     
   24   13   20 1     
   25   13   14 1     
   26   14   15 1     
   27   15   30 1     
   28   15   16 1     
   29   15   18 1     
   30   16   17 1     
   31   16   40 1     
   32   16   41 1     
   33   17   42 1     
   34   18   31 1     
   35   18   19 1     
   36   18   20 1     
   37   19   43 1     
   38   20   32 1     
   39   20   21 1     
   40   21   44 1     
   41   22   27 ar    
   42   22   23 ar    
   43   23   24 ar    
   44   23   45 1     
   45   24   25 ar    
   46   24   46 1     
   47   25   26 ar    
   48   25   47 1     
   49   26   27 ar    
   50   26   48 1     
   51   27   28 1     
   52    5   49 1     
   53    7   50 1     
   54   10   51 1     
   55   14   52 1     
   56   14   53 1     
   57   17   54 1     
   58   17   55 1     
   59   19   56 1     
   60   19   57 1     
   61   21   58 1     
   62   21   59 1     
@<TRIPOS>SUBSTRUCTURE
      1 S1             1
@<TRIPOS>SET
LONE_PAIRS      STATIC     ATOMS    <user>   **** ""
11 49 50 51 52 53 54 55 56 57 58 59
DONOR_HYDROGENS      STATIC     ATOMS    <user>   **** ""
4 37 42 43 44
ATOM$BLUE        STATIC     ATOMS    COLORGROUP SYSTEM
11 49 50 51 52 53 54 55 56 57 58 59
ATOM$RED        STATIC     ATOMS    COLORGROUP SYSTEM
4 37 42 43 44
