AV-unprocessed.smi:1073|AV-procd|sdf|4690|dock8
  -GOLD-   22720 3213D 1   1.00000     0.00000
 Structure written by MMmdl.
 44 44  0  0  0  0  0  0  0  0  1 V2000
  148.6583  130.5912  156.9068 C   0  0  0  0  0  0  0  0  0  0  0  0
  148.4291  130.3576  158.3242 N   0  0  0  0  0  0  0  0  0  0  0  0
  148.3418  131.3279  159.2452 C   0  0  0  0  0  0  0  0  0  0  0  0
  148.4584  132.5244  158.9747 O   0  0  0  0  0  0  0  0  0  0  0  0
  148.1035  130.8705  160.6946 C   0  0  1  0  0  0  0  0  0  0  0  0
  149.2640  129.9274  161.0929 C   0  0  0  0  0  0  0  0  0  0  0  0
  149.5163  129.7919  162.6126 C   0  0  0  0  0  0  0  0  0  0  0  0
  150.9432  129.2881  162.8777 C   0  0  0  0  0  0  0  0  0  0  0  0
  148.4892  128.8795  163.3033 C   0  0  0  0  0  0  0  0  0  0  0  0
  148.1027  132.0241  161.5946 N   0  0  0  0  0  0  0  0  0  0  0  0
  147.1736  132.9923  161.6131 C   0  0  0  0  0  0  0  0  0  0  0  0
  146.2121  133.0171  160.8433 O   0  0  0  0  0  0  0  0  0  0  0  0
  147.3818  134.1003  162.6553 C   0  0  0  0  0  0  0  0  0  0  0  0
  146.3783  135.1753  162.5766 N   0  0  0  0  0  0  0  0  0  0  0  0
  145.0359  134.8177  162.8111 C   0  0  0  0  0  0  0  0  0  0  0  0
  144.0221  135.7031  162.7610 C   0  0  0  0  0  0  0  0  0  0  0  0
  142.5894  135.3019  163.0762 C   0  0  0  0  0  0  0  0  0  0  0  0
  141.7773  136.3586  163.0382 F   0  0  0  0  0  0  0  0  0  0  0  0
  142.1595  134.4171  162.1776 F   0  0  0  0  0  0  0  0  0  0  0  0
  142.4965  134.7457  164.2847 F   0  0  0  0  0  0  0  0  0  0  0  0
  144.3812  137.0796  162.4821 C   0  0  0  0  0  0  0  0  0  0  0  0
  145.6613  137.4408  162.2672 C   0  0  0  0  0  0  0  0  0  0  0  0
  146.7504  136.4621  162.3042 C   0  0  0  0  0  0  0  0  0  0  0  0
  147.9235  136.7789  162.1050 O   0  0  0  0  0  0  0  0  0  0  0  0
  148.6547  129.6435  156.3687 H   0  0  0  0  0  0  0  0  0  0  0  0
  149.6237  131.0719  156.7444 H   0  0  0  0  0  0  0  0  0  0  0  0
  147.8772  131.2253  156.4856 H   0  0  0  0  0  0  0  0  0  0  0  0
  148.3230  129.3993  158.6245 H   0  0  0  0  0  0  0  0  0  0  0  0
  147.1493  130.3447  160.7566 H   0  0  0  0  0  0  0  0  0  0  0  0
  149.0788  128.9331  160.6824 H   0  0  0  0  0  0  0  0  0  0  0  0
  150.1842  130.2749  160.6188 H   0  0  0  0  0  0  0  0  0  0  0  0
  149.4414  130.7796  163.0684 H   0  0  0  0  0  0  0  0  0  0  0  0
  151.0987  128.2954  162.4540 H   0  0  0  0  0  0  0  0  0  0  0  0
  151.1483  129.2290  163.9471 H   0  0  0  0  0  0  0  0  0  0  0  0
  151.6849  129.9566  162.4395 H   0  0  0  0  0  0  0  0  0  0  0  0
  148.4789  127.8843  162.8576 H   0  0  0  0  0  0  0  0  0  0  0  0
  147.4808  129.2874  163.2385 H   0  0  0  0  0  0  0  0  0  0  0  0
  148.7185  128.7658  164.3633 H   0  0  0  0  0  0  0  0  0  0  0  0
  148.8677  132.0876  162.2505 H   0  0  0  0  0  0  0  0  0  0  0  0
  147.3790  133.6589  163.6537 H   0  0  0  0  0  0  0  0  0  0  0  0
  148.3868  134.5038  162.5259 H   0  0  0  0  0  0  0  0  0  0  0  0
  144.8836  133.7740  163.0448 H   0  0  0  0  0  0  0  0  0  0  0  0
  143.6098  137.8346  162.4427 H   0  0  0  0  0  0  0  0  0  0  0  0
  145.8915  138.4761  162.0622 H   0  0  0  0  0  0  0  0  0  0  0  0
  1  2  1  0  0  0  0
  1 25  1  0  0  0  0
  1 26  1  0  0  0  0
  1 27  1  0  0  0  0
  2  3  1  0  0  0  0
  2 28  1  0  0  0  0
  3  4  2  0  0  0  0
  3  5  1  0  0  0  0
  5  6  1  0  0  0  0
  5 10  1  0  0  0  0
  5 29  1  0  0  0  0
  6  7  1  0  0  0  0
  6 30  1  0  0  0  0
  6 31  1  0  0  0  0
  7  8  1  0  0  0  0
  7  9  1  0  0  0  0
  7 32  1  0  0  0  0
  8 33  1  0  0  0  0
  8 34  1  0  0  0  0
  8 35  1  0  0  0  0
  9 36  1  0  0  0  0
  9 37  1  0  0  0  0
  9 38  1  0  0  0  0
 10 11  1  0  0  0  0
 10 39  1  0  0  0  0
 11 12  2  0  0  0  0
 11 13  1  0  0  0  0
 13 14  1  0  0  0  0
 13 40  1  0  0  0  0
 13 41  1  0  0  0  0
 14 23  1  0  0  0  0
 14 15  1  0  0  0  0
 15 16  2  0  0  0  0
 15 42  1  0  0  0  0
 16 17  1  0  0  0  0
 16 21  1  0  0  0  0
 17 18  1  0  0  0  0
 17 19  1  0  0  0  0
 17 20  1  0  0  0  0
 21 22  2  0  0  0  0
 21 43  1  0  0  0  0
 22 23  1  0  0  0  0
 22 44  1  0  0  0  0
 23 24  2  0  0  0  0
M  END
> <s_m_source_file>
AV-unprocessed.smi

> <i_m_source_file_index>
1073

> <i_lp_mmshare_version>
43012

> <i_f3d_flags>
0

> <s_epik_input>
W0NIM11bTkhdQyg9TylbQ0BIXShbQ0gyXVtDSF0oW0NIM10pW0NIM10pW05IXUMoPU8pW0NIMl1uMVtjSF1jKEMoRikoRilGKVtjSF1bY0hdYzE9Tw==

> <s_epik_cmdline>
J2VwaWtfcHl0aG9uJywgJy1waCcsICc3LjAnLCAnLXRuJywgJzgnLCAnLW1hJywgJzIwMCcsICctbWV0YWxfYmluZGluZycsICctaW1hZScsICc8aW5maWxlLm1hZT4nLCAnLW9tYWUnLCAnPG91dGZpbGUubWFlPic=

> <r_lp_tautomer_probability>
1

> <r_epik_Ionization_Penalty>
7.02352e-08

> <r_epik_Ionization_Penalty_Charging>
1.57869e-08

> <r_epik_Ionization_Penalty_Neutral>
5.44484e-08

> <r_epik_State_Penalty>
-0

> <r_epik_Charging_Adjusted_Penalty>
1.57869e-08

> <i_epik_Tot_Q>
0

> <i_epik_Tot_abs_Q>
0

> <r_epik_Metal_State_Penalty>
-0

> <b_epik_Metal_Only>
0

> <s_lp_Force_Field>
OPLS_2005

> <r_lp_Energy>
17.6469

> <b_lp_Chiralities_Consistent>
1

> <s_lp_Variant>
AV-unprocessed.smi:1073-2

> <Gold.Version>
5.8.1

> <Gold.Id.Protein>
6NUR|6NUR_protein|mol2

> <Gold.PLP.Fitness>
44.5566

> <Gold.PLP.PLP>
-39.4407

> <Gold.PLP.part.hbond>
-2.0000

> <Gold.PLP.part.metal>
0.0000

> <Gold.PLP.part.buried>
-4.8766

> <Gold.PLP.part.nonpolar>
-32.8252

> <Gold.PLP.part.repulsive>
0.0836

> <Gold.PLP.ligand.clash>
0.0000

> <Gold.PLP.ligand.torsion>
0.4871

> <Gold.PLP.Chemscore.Hbond>
1.9920

> <Gold.PLP.Chemscore.CHOScore>
0.0000

> <Gold.PLP.Chemscore.Metal>
0.0000

> <Gold.Chemscore.Hbonds>
donor molecule, donor type, donor heavy atom, donor atom, acceptor molecule, acceptor atom, score
      P1  H  6931  6943       L1    24  1.00

> <Gold.PLP.Chemscore.Internal.Correction>
0.1141

> <Gold.Rescore>
     Score         DG    S(hbond)    S(metal)    S(lipo)     H(rot)  DE(clash)    DE(int)     intcor
      9.92     -12.79       1.89        0.00      63.45       2.51       0.64       2.23       ----

> <Gold.Chemscore.Fitness>
9.9172

> <Gold.Chemscore.DG>
-12.7916

> <Gold.Chemscore.ZeroCoef>
-5.4800

> <Gold.Chemscore.Hbond>
1.8940

> <Gold.Chemscore.Metal>
0.0000

> <Gold.Chemscore.Lipo>
63.4507

> <Gold.Chemscore.Internal_Hbond>
0.0000

> <Gold.Chemscore.DEClash>
0.6441

> <Gold.Chemscore.DEInternal>
2.2303

> <Gold.Chemscore.Rot>
2.5149

> <Gold.Chemscore.Internal.Correction>
   9.000000E+99

> <Gold.Chemscore.Hbonds>
donor molecule, donor type, donor heavy atom, donor atom, acceptor molecule, acceptor atom, score
      P1  H  6931  6943       L1    24  1.00

> <Gold.Chemscore.Hbond.Weighted>
-6.3260

> <Gold.Chemscore.Metal.Weighted>
-0.0000

> <Gold.Chemscore.Lipo.Weighted>
-7.4237

> <Gold.Chemscore.Internal_Hbond.Weighted>
0.0000

> <Gold.Chemscore.DEClash.Weighted>
0.6441

> <Gold.Chemscore.DEInternal.Weighted>
2.2303

> <Gold.Chemscore.Rot.Weighted>
6.4381

> <Gold.Chemscore.Internal.Correction.Weighted>
   9.000000E+99

> <Gold.Protein.RotatedTorsions>
[ 6907 6896 6895 6894 ] final  121.93 input  -60.11 | X-H torsion
[ 7974 7965 7964 7962 ] final  129.18 input  175.53 | X-H torsion
[ 8008 7997 7996 7995 ] final  -47.03 input   59.86 | X-H torsion
[ 10167 10162 10161 10158 ] final -119.83 input  -65.29 | X-H torsion
[ 10718 10713 10712 10709 ] final  -21.48 input   66.30 | X-H torsion
[ 10763 10752 10751 10750 ] final  -45.68 input  -60.55 | X-H torsion
[ 11005 11000 10999 10996 ] final   90.83 input  -57.11 | X-H torsion

> <Gold.Protein.ActiveResidues>
 VAL166  LYS551  ARG553  GLY616  TRP617  ASP618  TYR619  PRO620  LYS621  CYS622 
 ASP623  PHE694  ASN695  SER759  ASP760  ASP761  ALA762  ILE779  LEU786  VAL792 
 PHE793  MET794  SER795  GLU796  ALA797  LYS798  CYS799  TRP800  GLU811  SER814 

> <Gold.Protein.RotatedAtoms>
  152.4283  133.7233  159.6545 H   0  0  0  0  0  0  0  0  0  0  0  0  # atno 6907 bound_to 6896
  150.8161  133.8325  159.3166 H   0  0  0  0  0  0  0  0  0  0  0  0  # atno 6908 bound_to 6896
  151.6021  135.1048  160.0114 H   0  0  0  0  0  0  0  0  0  0  0  0  # atno 6909 bound_to 6896
  145.0315  139.4042  143.5147 H   0  0  0  0  0  0  0  0  0  0  0  0  # atno 7974 bound_to 7965
  154.4013  140.1356  156.4109 H   0  0  0  0  0  0  0  0  0  0  0  0  # atno 8008 bound_to 7997
  155.7735  140.3483  155.5239 H   0  0  0  0  0  0  0  0  0  0  0  0  # atno 8009 bound_to 7997
  155.8744  140.0977  157.1519 H   0  0  0  0  0  0  0  0  0  0  0  0  # atno 8010 bound_to 7997
  140.0424  143.5140  152.2123 H   0  0  0  0  0  0  0  0  0  0  0  0  # atno 10167 bound_to 10162
  156.5175  130.4624  149.6614 H   0  0  0  0  0  0  0  0  0  0  0  0  # atno 10718 bound_to 10713
  154.0325  135.6655  153.4782 H   0  0  0  0  0  0  0  0  0  0  0  0  # atno 10763 bound_to 10752
  153.0534  135.5070  154.7919 H   0  0  0  0  0  0  0  0  0  0  0  0  # atno 10764 bound_to 10752
  154.6869  135.3054  154.9500 H   0  0  0  0  0  0  0  0  0  0  0  0  # atno 10765 bound_to 10752
  139.8849  134.8638  156.3341 H   0  0  0  0  0  0  0  0  0  0  0  0  # atno 11005 bound_to 11000
  146.3499  139.9867  142.8690 LP  0  0  0  0  0  0  0  0  0  0  0  0  # atno 17320 bound_to 7965
  145.1764  140.9746  143.4291 LP  0  0  0  0  0  0  0  0  0  0  0  0  # atno 17321 bound_to 7965
  139.6005  144.7581  151.3183 LP  0  0  0  0  0  0  0  0  0  0  0  0  # atno 17342 bound_to 10162
  140.7254  143.7018  150.7839 LP  0  0  0  0  0  0  0  0  0  0  0  0  # atno 17343 bound_to 10162
  156.3181  130.7265  151.2172 LP  0  0  0  0  0  0  0  0  0  0  0  0  # atno 17370 bound_to 10713
  157.7441  131.0463  150.4887 LP  0  0  0  0  0  0  0  0  0  0  0  0  # atno 17371 bound_to 10713
  140.9703  133.7332  156.0525 LP  0  0  0  0  0  0  0  0  0  0  0  0  # atno 17394 bound_to 11000
  140.7879  134.3650  157.5472 LP  0  0  0  0  0  0  0  0  0  0  0  0  # atno 17395 bound_to 11000

$$$$
