AV-unprocessed.smi:137|AV-procd|sdf|1178|dock6
  -GOLD-   2262018323D 1   1.00000     0.00000
 Structure written by MMmdl.
 51 54  0  0  0  0  0  0  0  0  1 V2000
  151.2608  137.6986  154.4751 C   0  0  0  0  0  0  0  0  0  0  0  0
  152.0730  138.3217  155.6215 C   0  0  1  0  0  0  0  0  0  0  0  0
  152.2253  139.8525  155.4437 C   0  0  0  0  0  0  0  0  0  0  0  0
  151.2536  140.6549  156.1928 N   0  0  0  0  0  0  0  0  0  0  0  0
  150.0131  140.9116  155.6815 C   0  0  0  0  0  0  0  0  0  0  0  0
  149.7545  140.5181  154.4055 N   0  0  0  0  0  0  0  0  0  0  0  0
  148.5641  140.7351  153.8427 C   0  0  0  0  0  0  0  0  0  0  0  0
  147.4940  141.3310  154.3655 N   0  0  0  0  0  0  0  0  0  0  0  0
  147.7338  141.7394  155.6433 C   0  0  0  0  0  0  0  0  0  0  0  0
  148.9475  141.5689  156.3748 C   0  0  0  0  0  0  0  0  0  0  0  0
  148.7848  142.0972  157.6521 N   0  0  0  0  0  0  0  0  0  0  0  0
  147.5615  142.5475  157.6730 C   0  0  0  0  0  0  0  0  0  0  0  0
  146.8675  142.4024  156.4955 N   0  0  0  0  0  0  0  0  0  0  0  0
  145.5035  142.7728  156.2534 C   0  0  0  0  0  0  0  0  0  0  0  0
  144.9334  142.8014  154.8320 C   0  0  0  0  0  0  0  0  0  0  0  0
  144.0905  144.0487  155.1795 C   0  0  0  0  0  0  0  0  0  0  0  0
  144.1478  145.1654  154.1255 C   0  0  0  0  0  0  0  0  0  0  0  0
  143.2805  144.8980  153.0420 O   0  0  0  0  0  0  0  0  0  0  0  0
  142.5994  143.7989  155.4972 C   0  0  0  0  0  0  0  0  0  0  0  0
  141.9297  144.9491  155.9721 O   0  0  0  0  0  0  0  0  0  0  0  0
  145.0461  144.2294  156.3795 C   0  0  0  0  0  0  0  0  0  0  0  0
  151.6539  141.1250  157.5191 C   0  0  0  0  0  0  0  0  0  0  0  0
  151.4117  140.1035  158.6463 C   0  0  0  0  0  0  0  0  0  0  0  0
  152.4545  138.5819  158.4097 S   0  0  2  0  0  0  0  0  0  0  0  0
  153.8351  139.0197  157.9160 O   0  0  0  0  0  0  0  0  0  0  0  0
  151.5129  137.8505  156.9823 C   0  0  0  0  0  0  0  0  0  0  0  0
  150.2167  138.0092  154.5105 H   0  0  0  0  0  0  0  0  0  0  0  0
  151.2799  136.6097  154.5298 H   0  0  0  0  0  0  0  0  0  0  0  0
  151.6629  137.9837  153.5025 H   0  0  0  0  0  0  0  0  0  0  0  0
  153.0783  137.9085  155.5288 H   0  0  0  0  0  0  0  0  0  0  0  0
  153.2194  140.1378  155.7873 H   0  0  0  0  0  0  0  0  0  0  0  0
  152.2352  140.1207  154.3871 H   0  0  0  0  0  0  0  0  0  0  0  0
  148.4548  140.3827  152.8278 H   0  0  0  0  0  0  0  0  0  0  0  0
  147.1338  143.0061  158.5527 H   0  0  0  0  0  0  0  0  0  0  0  0
  144.9038  142.1256  156.8942 H   0  0  0  0  0  0  0  0  0  0  0  0
  145.7028  143.0004  154.0842 H   0  0  0  0  0  0  0  0  0  0  0  0
  144.3556  141.9158  154.5644 H   0  0  0  0  0  0  0  0  0  0  0  0
  143.8537  146.1227  154.5568 H   0  0  0  0  0  0  0  0  0  0  0  0
  145.1605  145.2979  153.7439 H   0  0  0  0  0  0  0  0  0  0  0  0
  143.2962  143.9696  152.8662 H   0  0  0  0  0  0  0  0  0  0  0  0
  142.0634  143.4541  154.6129 H   0  0  0  0  0  0  0  0  0  0  0  0
  142.4915  143.0186  156.2512 H   0  0  0  0  0  0  0  0  0  0  0  0
  142.5409  145.6698  155.9812 H   0  0  0  0  0  0  0  0  0  0  0  0
  144.5542  144.4652  157.3237 H   0  0  0  0  0  0  0  0  0  0  0  0
  145.8498  144.9381  156.1725 H   0  0  0  0  0  0  0  0  0  0  0  0
  152.7132  141.3816  157.4956 H   0  0  0  0  0  0  0  0  0  0  0  0
  151.1548  142.0657  157.7475 H   0  0  0  0  0  0  0  0  0  0  0  0
  151.6861  140.5533  159.6005 H   0  0  0  0  0  0  0  0  0  0  0  0
  150.3633  139.8177  158.7216 H   0  0  0  0  0  0  0  0  0  0  0  0
  150.4510  138.0768  157.0837 H   0  0  0  0  0  0  0  0  0  0  0  0
  151.6058  136.7662  157.0470 H   0  0  0  0  0  0  0  0  0  0  0  0
  1  2  1  0  0  0  0
  1 27  1  0  0  0  0
  1 28  1  0  0  0  0
  1 29  1  0  0  0  0
  2 26  1  0  0  0  0
  2  3  1  0  0  0  0
  2 30  1  0  0  0  0
  3  4  1  0  0  0  0
  3 31  1  0  0  0  0
  3 32  1  0  0  0  0
  4  5  1  0  0  0  0
  4 22  1  0  0  0  0
  5 10  1  0  0  0  0
  5  6  2  0  0  0  0
  6  7  1  0  0  0  0
  7  8  2  0  0  0  0
  7 33  1  0  0  0  0
  8  9  1  0  0  0  0
  9 13  1  0  0  0  0
  9 10  2  0  0  0  0
 10 11  1  0  0  0  0
 11 12  2  0  0  0  0
 12 13  1  0  0  0  0
 12 34  1  0  0  0  0
 13 14  1  0  0  0  0
 14 21  1  0  0  0  0
 14 15  1  0  0  0  0
 14 35  1  0  0  0  0
 15 16  1  0  0  0  0
 15 36  1  0  0  0  0
 15 37  1  0  0  0  0
 16 17  1  0  0  0  0
 16 19  1  0  0  0  0
 16 21  1  0  0  0  0
 17 18  1  0  0  0  0
 17 38  1  0  0  0  0
 17 39  1  0  0  0  0
 18 40  1  0  0  0  0
 19 20  1  0  0  0  0
 19 41  1  0  0  0  0
 19 42  1  0  0  0  0
 20 43  1  0  0  0  0
 21 44  1  0  0  0  0
 21 45  1  0  0  0  0
 22 23  1  0  0  0  0
 22 46  1  0  0  0  0
 22 47  1  0  0  0  0
 23 24  1  0  0  0  0
 23 48  1  0  0  0  0
 23 49  1  0  0  0  0
 24 25  2  0  0  0  0
 24 26  1  0  0  0  0
 26 50  1  0  0  0  0
 26 51  1  0  0  0  0
M  END
> <s_m_source_file>
AV-unprocessed.smi

> <i_m_source_file_index>
137

> <i_lp_mmshare_version>
43012

> <i_f3d_flags>
0

> <s_epik_input>
Tz1bU0BAXShbQ0gyXTEpW0NIMl1bQ0gyXU4oW0NIMl1bQ0BIXTFbQ0gzXSljKG5bY0hdbjIpYyhjMjMpbltjSF1uM1tDSF0oW0NIMl00KVtDSDJdQzQoW0NIMl1bT0hdKVtDSDJdW09IXQ==

> <s_epik_cmdline>
J2VwaWtfcHl0aG9uJywgJy1waCcsICc3LjAnLCAnLXRuJywgJzgnLCAnLW1hJywgJzIwMCcsICctbWV0YWxfYmluZGluZycsICctaW1hZScsICc8aW5maWxlLm1hZT4nLCAnLW9tYWUnLCAnPG91dGZpbGUubWFlPic=

> <r_lp_tautomer_probability>
1

> <r_epik_Ionization_Penalty>
0.000811024

> <r_epik_Ionization_Penalty_Charging>
0

> <r_epik_Ionization_Penalty_Neutral>
0.000811024

> <r_epik_State_Penalty>
0.000429598

> <r_epik_Charging_Adjusted_Penalty>
0.000429598

> <i_epik_Tot_Q>
0

> <i_epik_Tot_abs_Q>
0

> <r_epik_Metal_State_Penalty>
-0

> <b_epik_Metal_Only>
0

> <s_lp_Force_Field>
OPLS_2005

> <r_lp_Energy>
44.8713

> <b_lp_Chiralities_Consistent>
1

> <s_lp_Variant>
AV-unprocessed.smi:137-4

> <Gold.Version>
5.8.1

> <Gold.Id.Protein>
6NUR|6NUR_protein|mol2

> <Gold.PLP.Fitness>
48.5018

> <Gold.PLP.PLP>
-37.8737

> <Gold.PLP.part.hbond>
-4.0000

> <Gold.PLP.part.metal>
0.0000

> <Gold.PLP.part.buried>
-3.2621

> <Gold.PLP.part.nonpolar>
-31.0266

> <Gold.PLP.part.repulsive>
0.3976

> <Gold.PLP.ligand.clash>
0.0000

> <Gold.PLP.ligand.torsion>
0.3761

> <Gold.PLP.Chemscore.Hbond>
2.6497

> <Gold.PLP.Chemscore.CHOScore>
1.0000

> <Gold.PLP.Chemscore.Metal>
0.0000

> <Gold.Chemscore.Hbonds>
donor molecule, donor type, donor heavy atom, donor atom, acceptor molecule, acceptor atom, score
      L1  H    18    40       P1 10174  1.00
      P1  H  7989  7998       L1     6  0.65
      P1  H  7997  8008       L1    25  1.00
      L1  C     7    33       P1  7957  1.00

> <Gold.PLP.Chemscore.Internal.Correction>
0.4312

> <Gold.Rescore>
     Score         DG    S(hbond)    S(metal)    S(lipo)     H(rot)  DE(clash)    DE(int)     intcor
      8.78     -12.62       2.14        0.00      62.82       2.87       1.45       2.39       ----

> <Gold.Chemscore.Fitness>
8.7836

> <Gold.Chemscore.DG>
-12.6203

> <Gold.Chemscore.ZeroCoef>
-5.4800

> <Gold.Chemscore.Hbond>
2.1389

> <Gold.Chemscore.Metal>
0.0000

> <Gold.Chemscore.Lipo>
62.8197

> <Gold.Chemscore.Internal_Hbond>
0.0000

> <Gold.Chemscore.DEClash>
1.4464

> <Gold.Chemscore.DEInternal>
2.3903

> <Gold.Chemscore.Rot>
2.8725

> <Gold.Chemscore.Internal.Correction>
   9.000000E+99

> <Gold.Chemscore.Hbonds>
donor molecule, donor type, donor heavy atom, donor atom, acceptor molecule, acceptor atom, score
      L1  H    18    40       P1 10174  0.96
      P1  H  7989  7998       L1     6  0.19
      P1  H  7997  8008       L1    25  0.95

> <Gold.Chemscore.Hbond.Weighted>
-7.1440

> <Gold.Chemscore.Metal.Weighted>
-0.0000

> <Gold.Chemscore.Lipo.Weighted>
-7.3499

> <Gold.Chemscore.Internal_Hbond.Weighted>
0.0000

> <Gold.Chemscore.DEClash.Weighted>
1.4464

> <Gold.Chemscore.DEInternal.Weighted>
2.3903

> <Gold.Chemscore.Rot.Weighted>
7.3535

> <Gold.Chemscore.Internal.Correction.Weighted>
   9.000000E+99

> <Gold.Protein.RotatedTorsions>
[ 6907 6896 6895 6894 ] final   92.15 input  -60.11 | X-H torsion
[ 7974 7965 7964 7962 ] final -167.03 input  175.53 | X-H torsion
[ 8008 7997 7996 7995 ] final  -75.75 input   59.86 | X-H torsion
[ 10167 10162 10161 10158 ] final  -21.04 input  -65.29 | X-H torsion
[ 10718 10713 10712 10709 ] final   -5.27 input   66.30 | X-H torsion
[ 10763 10752 10751 10750 ] final   95.57 input  -60.55 | X-H torsion
[ 11005 11000 10999 10996 ] final  -60.06 input  -57.11 | X-H torsion

> <Gold.Protein.ActiveResidues>
 VAL166  LYS551  ARG553  GLY616  TRP617  ASP618  TYR619  PRO620  LYS621  CYS622 
 ASP623  PHE694  ASN695  SER759  ASP760  ASP761  ALA762  ILE779  LEU786  VAL792 
 PHE793  MET794  SER795  GLU796  ALA797  LYS798  CYS799  TRP800  GLU811  SER814 

> <Gold.Protein.RotatedAtoms>
  152.5452  134.1547  159.8532 H   0  0  0  0  0  0  0  0  0  0  0  0  # atno 6907 bound_to 6896
  151.1571  133.4862  159.2602 H   0  0  0  0  0  0  0  0  0  0  0  0  # atno 6908 bound_to 6896
  151.1412  135.0191  159.8681 H   0  0  0  0  0  0  0  0  0  0  0  0  # atno 6909 bound_to 6896
  144.7232  140.2579  143.6269 H   0  0  0  0  0  0  0  0  0  0  0  0  # atno 7974 bound_to 7965
  154.5444  140.0738  156.8565 H   0  0  0  0  0  0  0  0  0  0  0  0  # atno 8008 bound_to 7997
  155.3116  140.3390  155.4225 H   0  0  0  0  0  0  0  0  0  0  0  0  # atno 8009 bound_to 7997
  156.1905  140.1684  156.8088 H   0  0  0  0  0  0  0  0  0  0  0  0  # atno 8010 bound_to 7997
  140.7280  143.4665  151.0307 H   0  0  0  0  0  0  0  0  0  0  0  0  # atno 10167 bound_to 10162
  156.7490  130.5233  149.5808 H   0  0  0  0  0  0  0  0  0  0  0  0  # atno 10718 bound_to 10713
  153.2547  135.4249  155.0833 H   0  0  0  0  0  0  0  0  0  0  0  0  # atno 10763 bound_to 10752
  154.8396  135.3434  154.6462 H   0  0  0  0  0  0  0  0  0  0  0  0  # atno 10764 bound_to 10752
  153.6883  135.7035  153.5154 H   0  0  0  0  0  0  0  0  0  0  0  0  # atno 10765 bound_to 10752
  141.1273  133.6620  156.5166 H   0  0  0  0  0  0  0  0  0  0  0  0  # atno 11005 bound_to 11000
  145.8164  139.2025  143.1963 LP  0  0  0  0  0  0  0  0  0  0  0  0  # atno 17320 bound_to 7965
  146.0552  140.8028  142.9762 LP  0  0  0  0  0  0  0  0  0  0  0  0  # atno 17321 bound_to 7965
  139.8353  143.7636  152.3180 LP  0  0  0  0  0  0  0  0  0  0  0  0  # atno 17342 bound_to 10162
  139.7766  144.7459  151.0148 LP  0  0  0  0  0  0  0  0  0  0  0  0  # atno 17343 bound_to 10162
  156.1414  130.6247  151.0472 LP  0  0  0  0  0  0  0  0  0  0  0  0  # atno 17370 bound_to 10713
  157.6785  131.0844  150.7431 LP  0  0  0  0  0  0  0  0  0  0  0  0  # atno 17371 bound_to 10713
  140.4326  134.7088  157.4950 LP  0  0  0  0  0  0  0  0  0  0  0  0  # atno 17394 bound_to 11000
  140.0283  134.6443  155.9141 LP  0  0  0  0  0  0  0  0  0  0  0  0  # atno 17395 bound_to 11000

$$$$
