#       Name:                AV-unprocessed.smi:864
#       Creating user name   scv26
#       Creation time:       Fri Mar 27 01:46:40 2020


#       File generated by GOLD software.
#

@<TRIPOS>MOLECULE
AV-unprocessed.smi:864
    49    51     1
SMALL
NO_CHARGES


@<TRIPOS>ATOM
      1 ****        -2.5279   3.3030   2.2674 C.3            1 S1                 0.0000
      2 ****        -2.2808   1.8150   2.3979 C.ar           1 S1                 0.0000
      3 ****        -2.1456   1.1786   3.6509 C.ar           1 S1                 0.0000
      4 ****        -1.9154  -0.2122   3.6961 C.ar           1 S1                 0.0000
      5 ****        -1.8247  -0.9383   2.4887 C.ar           1 S1                 0.0000
      6 ****        -1.5670  -2.4357   2.5041 C.3            1 S1                 0.0000
      7 ****        -0.0922  -2.8120   2.7623 C.3            1 S1                 0.0000
      8 ****         0.8532  -2.0664   1.9352 N.am           1 S1                 0.0000
      9 ****         0.9707  -2.1780   0.6049 C.2            1 S1                 0.0000
     10 ****         0.2983  -2.9438  -0.0854 O.2            1 S1                 0.0000
     11 ****         1.8823  -1.3288   0.1126 N.am           1 S1                 0.0000
     12 ****         2.1693  -1.1531  -1.3082 C.3            1 S1                 0.0000
     13 ****         3.4689  -0.3701  -1.5354 C.3            1 S1                 0.0000
     14 ****         3.0751   0.7003  -2.5393 C.2            1 S1                 0.0000
     15 ****         3.8862   1.4994  -3.0051 O.2            1 S1                 0.0000
     16 ****         1.7673   0.6532  -2.8203 N.am           1 S1                 0.0000
     17 ****         1.0697   1.6170  -3.6225 C.3            1 S1                 0.0000
     18 ****        -0.4286   1.5255  -3.8446 C.3            1 S1                 0.0000
     19 ****         0.5230   1.1651  -4.9577 C.3            1 S1                 0.0000
     20 ****         1.0684  -0.3353  -2.0117 C.3            1 S1                 0.0000
     21 ****        -1.9715  -0.2486   1.2651 C.ar           1 S1                 0.0000
     22 ****        -2.1889   1.0844   1.2641 N.pl3          1 S1                 1.0000
     23 ****        -2.6003   3.7772   3.2467 H              1 S1                 0.0000
     24 ****        -3.4586   3.4882   1.7304 H              1 S1                 0.0000
     25 ****        -1.7132   3.7766   1.7189 H              1 S1                 0.0000
     26 ****        -2.2163   1.7460   4.5676 H              1 S1                 0.0000
     27 ****        -1.8072  -0.7137   4.6470 H              1 S1                 0.0000
     28 ****        -2.1996  -2.8956   3.2642 H              1 S1                 0.0000
     29 ****        -1.8943  -2.8573   1.5529 H              1 S1                 0.0000
     30 ****         0.1558  -2.5978   3.8021 H              1 S1                 0.0000
     31 ****         0.0566  -3.8841   2.6252 H              1 S1                 0.0000
     32 ****         1.4536  -1.4093   2.4116 H              1 S1                 0.0000
     33 ****         2.3899  -0.7418   0.7584 H              1 S1                 0.0000
     34 ****         2.2630  -2.1297  -1.7877 H              1 S1                 0.0000
     35 ****         3.8320   0.1088  -0.6251 H              1 S1                 0.0000
     36 ****         4.2627  -1.0033  -1.9328 H              1 S1                 0.0000
     37 ****         1.4652   2.6314  -3.5895 H              1 S1                 0.0000
     38 ****        -0.9915   0.7124  -3.3922 H              1 S1                 0.0000
     39 ****        -0.9752   2.4614  -3.9417 H              1 S1                 0.0000
     40 ****         0.6057   1.8569  -5.7935 H              1 S1                 0.0000
     41 ****         0.6159   0.1115  -5.2149 H              1 S1                 0.0000
     42 ****         0.4435  -0.9813  -2.6295 H              1 S1                 0.0000
     43 ****         0.4230   0.1813  -1.2988 H              1 S1                 0.0000
     44 ****        -1.9136  -0.7180   0.2935 H              1 S1                 0.0000
     45 ****        -2.2890   1.5610   0.3675 H              1 S1                 0.0000
     46 ****        -0.3868  -3.5326   0.3436 LP             1 S1                 0.0000
     47 ****         0.4372  -2.9772  -1.0751 LP             1 S1                 0.0000
     48 ****         4.8453   1.4590  -2.7248 LP             1 S1                 0.0000
     49 ****         3.5865   2.1893  -3.6640 LP             1 S1                 0.0000
@<TRIPOS>BOND
    1    1    2 1     
    2    1   23 1     
    3    1   24 1     
    4    1   25 1     
    5    2   22 ar    
    6    2    3 ar    
    7    3    4 ar    
    8    3   26 1     
    9    4    5 ar    
   10    4   27 1     
   11    5    6 1     
   12    5   21 ar    
   13    6    7 1     
   14    6   28 1     
   15    6   29 1     
   16    7    8 1     
   17    7   30 1     
   18    7   31 1     
   19    8    9 am    
   20    8   32 1     
   21    9   10 2     
   22    9   11 am    
   23   11   12 1     
   24   11   33 1     
   25   12   20 1     
   26   12   13 1     
   27   12   34 1     
   28   13   14 1     
   29   13   35 1     
   30   13   36 1     
   31   14   15 2     
   32   14   16 am    
   33   16   17 1     
   34   16   20 1     
   35   17   19 1     
   36   17   18 1     
   37   17   37 1     
   38   18   19 1     
   39   18   38 1     
   40   18   39 1     
   41   19   40 1     
   42   19   41 1     
   43   20   42 1     
   44   20   43 1     
   45   21   22 ar    
   46   21   44 1     
   47   22   45 1     
   48   10   46 1     
   49   10   47 1     
   50   15   48 1     
   51   15   49 1     
@<TRIPOS>SUBSTRUCTURE
      1 S1             1
@<TRIPOS>SET
LONE_PAIRS      STATIC     ATOMS    <user>   **** ""
4 46 47 48 49
DONOR_HYDROGENS      STATIC     ATOMS    <user>   **** ""
3 32 33 45
ATOM$BLUE        STATIC     ATOMS    COLORGROUP SYSTEM
4 46 47 48 49
ATOM$RED        STATIC     ATOMS    COLORGROUP SYSTEM
3 32 33 45
