#       Name:                AV-unprocessed.smi:1243
#       Creating user name   scv26
#       Creation time:       Fri Mar 27 04:31:45 2020


#       File generated by GOLD software.
#

@<TRIPOS>MOLECULE
AV-unprocessed.smi:1243
    57    58     1
SMALL
NO_CHARGES


@<TRIPOS>ATOM
      1 ****        -3.5068   4.3114  -0.7122 C.3            1 S1                 0.0000
      2 ****        -2.9720   3.1982  -0.0046 O.3            1 S1                 0.0000
      3 ****        -3.2235   3.0936   1.3504 C.ar           1 S1                 0.0000
      4 ****        -3.9704   4.0581   1.9443 N.ar           1 S1                 0.0000
      5 ****        -4.2133   3.9591   3.2674 C.ar           1 S1                 0.0000
      6 ****        -3.7236   2.9082   4.0641 C.ar           1 S1                 0.0000
      7 ****        -2.9486   1.9067   3.4506 C.ar           1 S1                 0.0000
      8 ****        -2.6982   1.9875   2.0589 C.ar           1 S1                 0.0000
      9 ****        -1.9217   1.0399   1.3357 N.am           1 S1                 0.0000
     10 ****        -1.6273  -0.2315   1.6557 C.2            1 S1                 0.0000
     11 ****        -1.9679  -0.8046   2.6902 O.2            1 S1                 0.0000
     12 ****        -0.9120  -0.8140   0.6840 N.am           1 S1                 0.0000
     13 ****        -0.4023  -2.1847   0.6961 C.3            1 S1                 0.0000
     14 ****         1.1455  -2.2401   0.5463 C.3            1 S1                 0.0000
     15 ****         1.7304  -1.6496   1.8547 C.3            1 S1                 0.0000
     16 ****         1.5470  -3.7339   0.4974 C.3            1 S1                 0.0000
     17 ****         1.6118  -1.4713  -0.6419 N.3            1 S1                 0.0000
     18 ****         3.0737  -1.3958  -0.7950 C.3            1 S1                 0.0000
     19 ****         3.4795  -0.4699  -1.9563 C.3            1 S1                 0.0000
     20 ****         2.9064  -0.9164  -3.2223 N.3            1 S1                 0.0000
     21 ****         3.2992  -0.0493  -4.3222 C.3            1 S1                 0.0000
     22 ****         1.4551  -0.9814  -3.0821 C.3            1 S1                 0.0000
     23 ****         1.0422  -1.9112  -1.9266 C.3            1 S1                 0.0000
     24 ****        -3.2193   4.2426  -1.7612 H              1 S1                 0.0000
     25 ****        -3.1195   5.2545  -0.3242 H              1 S1                 0.0000
     26 ****        -4.5967   4.3254  -0.6693 H              1 S1                 0.0000
     27 ****        -4.8117   4.7440   3.7058 H              1 S1                 0.0000
     28 ****        -3.9347   2.8726   5.1227 H              1 S1                 0.0000
     29 ****        -2.5555   1.1095   4.0615 H              1 S1                 0.0000
     30 ****        -1.6189   1.3448   0.4221 H              1 S1                 0.0000
     31 ****        -0.6785  -0.2593  -0.1264 H              1 S1                 0.0000
     32 ****        -0.7043  -2.7032   1.6078 H              1 S1                 0.0000
     33 ****        -0.8967  -2.7346  -0.1043 H              1 S1                 0.0000
     34 ****         1.2605  -2.0865   2.7368 H              1 S1                 0.0000
     35 ****         1.5831  -0.5704   1.9104 H              1 S1                 0.0000
     36 ****         2.7986  -1.8417   1.9545 H              1 S1                 0.0000
     37 ****         1.1921  -4.2630   1.3828 H              1 S1                 0.0000
     38 ****         2.6277  -3.8696   0.4643 H              1 S1                 0.0000
     39 ****         1.1215  -4.2463  -0.3651 H              1 S1                 0.0000
     40 ****         3.5393  -1.0100   0.1098 H              1 S1                 0.0000
     41 ****         3.4910  -2.3881  -0.9673 H              1 S1                 0.0000
     42 ****         3.1598   0.5508  -1.7395 H              1 S1                 0.0000
     43 ****         4.5670  -0.4460  -2.0335 H              1 S1                 0.0000
     44 ****         2.8790  -0.4052  -5.2634 H              1 S1                 0.0000
     45 ****         4.3841  -0.0304  -4.4294 H              1 S1                 0.0000
     46 ****         2.9550   0.9733  -4.1613 H              1 S1                 0.0000
     47 ****         1.0497   0.0172  -2.9105 H              1 S1                 0.0000
     48 ****         1.0122  -1.3424  -4.0110 H              1 S1                 0.0000
     49 ****         1.3592  -2.9287  -2.1561 H              1 S1                 0.0000
     50 ****        -0.0453  -1.9203  -1.8869 H              1 S1                 0.0000
     51 ****        -1.9790   3.2256  -0.1190 LP             1 S1                 0.0000
     52 ****        -3.3347   2.3724  -0.4365 LP             1 S1                 0.0000
     53 ****        -4.3324   4.8245   1.4135 LP             1 S1                 0.0000
     54 ****        -2.5100  -0.3186   3.3758 LP             1 S1                 0.0000
     55 ****        -1.7026  -1.7562   2.8452 LP             1 S1                 0.0000
     56 ****         1.2612  -0.5595  -0.4281 LP             1 S1                 0.0000
     57 ****         3.2583  -1.8262  -3.4422 LP             1 S1                 0.0000
@<TRIPOS>BOND
    1    1    2 1     
    2    1   24 1     
    3    1   25 1     
    4    1   26 1     
    5    2    3 1     
    6    3    8 ar    
    7    3    4 ar    
    8    4    5 ar    
    9    5    6 ar    
   10    5   27 1     
   11    6    7 ar    
   12    6   28 1     
   13    7    8 ar    
   14    7   29 1     
   15    8    9 1     
   16    9   10 am    
   17    9   30 1     
   18   10   11 2     
   19   10   12 am    
   20   12   13 1     
   21   12   31 1     
   22   13   14 1     
   23   13   32 1     
   24   13   33 1     
   25   14   15 1     
   26   14   16 1     
   27   14   17 1     
   28   15   34 1     
   29   15   35 1     
   30   15   36 1     
   31   16   37 1     
   32   16   38 1     
   33   16   39 1     
   34   17   23 1     
   35   17   18 1     
   36   18   19 1     
   37   18   40 1     
   38   18   41 1     
   39   19   20 1     
   40   19   42 1     
   41   19   43 1     
   42   20   21 1     
   43   20   22 1     
   44   21   44 1     
   45   21   45 1     
   46   21   46 1     
   47   22   23 1     
   48   22   47 1     
   49   22   48 1     
   50   23   49 1     
   51   23   50 1     
   52    2   51 1     
   53    2   52 1     
   54    4   53 1     
   55   11   54 1     
   56   11   55 1     
   57   17   56 1     
   58   20   57 1     
@<TRIPOS>SUBSTRUCTURE
      1 S1             1
@<TRIPOS>SET
LONE_PAIRS      STATIC     ATOMS    <user>   **** ""
7 51 52 53 54 55 56 57
DONOR_HYDROGENS      STATIC     ATOMS    <user>   **** ""
2 30 31
ATOM$BLUE        STATIC     ATOMS    COLORGROUP SYSTEM
7 51 52 53 54 55 56 57
ATOM$RED        STATIC     ATOMS    COLORGROUP SYSTEM
2 30 31
