AV-unprocessed.smi:148|AV-procd|sdf|1216|dock2
  -GOLD-   2262018403D 1   1.00000     0.00000
 Structure written by MMmdl.
 63 67  0  0  0  0  0  0  0  0  1 V2000
  151.7673  137.1452  153.8129 O   0  0  0  0  0  0  0  0  0  0  0  0
  150.8331  137.0309  154.8659 C   0  0  0  0  0  0  0  0  0  0  0  0
  150.2972  138.4165  155.2985 C   0  0  2  0  0  0  0  0  0  0  0  0
  149.5306  139.1139  154.1449 C   0  0  0  0  0  0  0  0  0  0  0  0
  148.1608  138.6474  154.0260 N   0  0  0  0  0  0  0  0  0  0  0  0
  147.3104  138.8625  152.9647 C   0  0  0  0  0  0  0  0  0  0  0  0
  146.1145  138.3567  153.0979 N   0  0  0  0  0  0  0  0  0  0  0  0
  146.1469  137.7458  154.3448 C   0  0  0  0  0  0  0  0  0  0  0  0
  145.1923  137.0401  155.1216 C   0  0  0  0  0  0  0  0  0  0  0  0
  143.9246  136.8456  154.6912 N   0  0  0  0  0  0  0  0  0  0  0  0
  143.0192  137.7614  155.3856 C   0  0  0  0  0  0  0  0  0  0  0  0
  141.5516  137.4286  155.0917 C   0  0  0  0  0  0  0  0  0  0  0  0
  141.3040  137.4273  153.5809 C   0  0  0  0  0  0  0  0  0  0  0  0
  142.2591  136.4417  152.8951 C   0  0  0  0  0  0  0  0  0  0  0  0
  143.7444  136.7412  153.2305 C   0  0  2  0  0  0  0  0  0  0  0  0
  144.7390  135.7320  152.5713 C   0  0  1  0  0  0  0  0  0  0  0  0
  144.4729  134.2379  152.8426 C   0  0  0  0  0  0  0  0  0  0  0  0
  145.0110  133.4723  151.6226 C   0  0  0  0  0  0  0  0  0  0  0  0
  145.6166  134.5243  150.6881 C   0  0  0  0  0  0  0  0  0  0  0  0
  144.8830  135.8166  151.0447 C   0  0  2  0  0  0  0  0  0  0  0  0
  145.6157  136.9542  150.6388 O   0  0  0  0  0  0  0  0  0  0  0  0
  145.5829  136.5613  156.3329 N   0  0  0  0  0  0  0  0  0  0  0  0
  146.8299  136.7771  156.7631 C   0  0  0  0  0  0  0  0  0  0  0  0
  147.8212  137.4338  156.1558 N   0  0  0  0  0  0  0  0  0  0  0  0
  147.4299  137.9053  154.9368 C   0  0  0  0  0  0  0  0  0  0  0  0
  151.4153  139.3012  155.9160 C   0  0  2  0  0  0  0  0  0  0  0  0
  152.1967  138.6750  157.0724 C   0  0  0  0  0  0  0  0  0  0  0  0
  152.2678  139.7853  158.1224 C   0  0  0  0  0  0  0  0  0  0  0  0
  152.0021  140.9760  157.3978 O   0  0  0  0  0  0  0  0  0  0  0  0
  150.9802  140.6644  156.4666 C   0  0  0  0  0  0  0  0  0  0  0  0
  151.3158  137.0056  152.9944 H   0  0  0  0  0  0  0  0  0  0  0  0
  150.0170  136.3769  154.5579 H   0  0  0  0  0  0  0  0  0  0  0  0
  151.3447  136.5323  155.6884 H   0  0  0  0  0  0  0  0  0  0  0  0
  149.5728  138.2384  156.0951 H   0  0  0  0  0  0  0  0  0  0  0  0
  149.4956  140.1934  154.2854 H   0  0  0  0  0  0  0  0  0  0  0  0
  150.0308  138.9468  153.1913 H   0  0  0  0  0  0  0  0  0  0  0  0
  147.6052  139.4187  152.0866 H   0  0  0  0  0  0  0  0  0  0  0  0
  143.1934  137.7114  156.4616 H   0  0  0  0  0  0  0  0  0  0  0  0
  143.2319  138.7859  155.0764 H   0  0  0  0  0  0  0  0  0  0  0  0
  141.3032  136.4520  155.5094 H   0  0  0  0  0  0  0  0  0  0  0  0
  140.8986  138.1533  155.5788 H   0  0  0  0  0  0  0  0  0  0  0  0
  140.2690  137.1579  153.3687 H   0  0  0  0  0  0  0  0  0  0  0  0
  141.4561  138.4301  153.1798 H   0  0  0  0  0  0  0  0  0  0  0  0
  141.9922  135.4308  153.2010 H   0  0  0  0  0  0  0  0  0  0  0  0
  142.0865  136.4956  151.8214 H   0  0  0  0  0  0  0  0  0  0  0  0
  143.9657  137.7266  152.8176 H   0  0  0  0  0  0  0  0  0  0  0  0
  145.7383  135.9334  152.9606 H   0  0  0  0  0  0  0  0  0  0  0  0
  144.9675  133.9154  153.7588 H   0  0  0  0  0  0  0  0  0  0  0  0
  143.4121  134.0251  152.9658 H   0  0  0  0  0  0  0  0  0  0  0  0
  145.7451  132.7168  151.9044 H   0  0  0  0  0  0  0  0  0  0  0  0
  144.1900  132.9582  151.1212 H   0  0  0  0  0  0  0  0  0  0  0  0
  146.6813  134.6264  150.9046 H   0  0  0  0  0  0  0  0  0  0  0  0
  145.5169  134.2593  149.6352 H   0  0  0  0  0  0  0  0  0  0  0  0
  143.9136  135.8119  150.5488 H   0  0  0  0  0  0  0  0  0  0  0  0
  145.0100  137.6642  150.4908 H   0  0  0  0  0  0  0  0  0  0  0  0
  147.0658  136.3695  157.7351 H   0  0  0  0  0  0  0  0  0  0  0  0
  152.1560  139.5025  155.1412 H   0  0  0  0  0  0  0  0  0  0  0  0
  151.7401  137.7743  157.4811 H   0  0  0  0  0  0  0  0  0  0  0  0
  153.1978  138.4017  156.7373 H   0  0  0  0  0  0  0  0  0  0  0  0
  151.4954  139.6465  158.8804 H   0  0  0  0  0  0  0  0  0  0  0  0
  153.2345  139.8290  158.6243 H   0  0  0  0  0  0  0  0  0  0  0  0
  150.9031  141.4250  155.6893 H   0  0  0  0  0  0  0  0  0  0  0  0
  150.0283  140.6198  156.9952 H   0  0  0  0  0  0  0  0  0  0  0  0
  1  2  1  0  0  0  0
  1 31  1  0  0  0  0
  2  3  1  0  0  0  0
  2 32  1  0  0  0  0
  2 33  1  0  0  0  0
  3  4  1  0  0  0  0
  3 26  1  0  0  0  0
  3 34  1  0  0  0  0
  4  5  1  0  0  0  0
  4 35  1  0  0  0  0
  4 36  1  0  0  0  0
  5 25  1  0  0  0  0
  5  6  1  0  0  0  0
  6  7  2  0  0  0  0
  6 37  1  0  0  0  0
  7  8  1  0  0  0  0
  8 25  2  0  0  0  0
  8  9  1  0  0  0  0
  9 10  1  0  0  0  0
  9 22  2  0  0  0  0
 10 15  1  0  0  0  0
 10 11  1  0  0  0  0
 11 12  1  0  0  0  0
 11 38  1  0  0  0  0
 11 39  1  0  0  0  0
 12 13  1  0  0  0  0
 12 40  1  0  0  0  0
 12 41  1  0  0  0  0
 13 14  1  0  0  0  0
 13 42  1  0  0  0  0
 13 43  1  0  0  0  0
 14 15  1  0  0  0  0
 14 44  1  0  0  0  0
 14 45  1  0  0  0  0
 15 16  1  0  0  0  0
 15 46  1  0  0  0  0
 16 20  1  0  0  0  0
 16 17  1  0  0  0  0
 16 47  1  0  0  0  0
 17 18  1  0  0  0  0
 17 48  1  0  0  0  0
 17 49  1  0  0  0  0
 18 19  1  0  0  0  0
 18 50  1  0  0  0  0
 18 51  1  0  0  0  0
 19 20  1  0  0  0  0
 19 52  1  0  0  0  0
 19 53  1  0  0  0  0
 20 21  1  0  0  0  0
 20 54  1  0  0  0  0
 21 55  1  0  0  0  0
 22 23  1  0  0  0  0
 23 24  2  0  0  0  0
 23 56  1  0  0  0  0
 24 25  1  0  0  0  0
 26 30  1  0  0  0  0
 26 27  1  0  0  0  0
 26 57  1  0  0  0  0
 27 28  1  0  0  0  0
 27 58  1  0  0  0  0
 27 59  1  0  0  0  0
 28 29  1  0  0  0  0
 28 60  1  0  0  0  0
 28 61  1  0  0  0  0
 29 30  1  0  0  0  0
 30 62  1  0  0  0  0
 30 63  1  0  0  0  0
M  END
> <s_m_source_file>
AV-unprocessed.smi

> <i_m_source_file_index>
148

> <i_lp_mmshare_version>
43012

> <i_f3d_flags>
0

> <s_epik_input>
W0NIMl0xT1tDSDJdW0NIMl1bQ0BIXTFbQ0BIXShbQ0gyXVtPSF0pW0NIMl1uKFtjSF1uMiljKGMyMyluW2NIXW5jM040W0NIMl1bQ0gyXVtDSDJdW0NIMl1bQ0BIXTRbQ0BASF01W0NIMl1bQ0gyXVtDSDJdW0NASF01W09IXQ==

> <s_epik_cmdline>
J2VwaWtfcHl0aG9uJywgJy1waCcsICc3LjAnLCAnLXRuJywgJzgnLCAnLW1hJywgJzIwMCcsICctbWV0YWxfYmluZGluZycsICctaW1hZScsICc8aW5maWxlLm1hZT4nLCAnLW9tYWUnLCAnPG91dGZpbGUubWFlPic=

> <r_lp_tautomer_probability>
1

> <r_epik_Ionization_Penalty>
0.00556303

> <r_epik_Ionization_Penalty_Charging>
0

> <r_epik_Ionization_Penalty_Neutral>
0.00556303

> <r_epik_State_Penalty>
0.00401767

> <r_epik_Charging_Adjusted_Penalty>
0.00401767

> <i_epik_Tot_Q>
0

> <i_epik_Tot_abs_Q>
0

> <r_epik_Metal_State_Penalty>
-0

> <b_epik_Metal_Only>
0

> <s_lp_Force_Field>
OPLS_2005

> <r_lp_Energy>
68.7662

> <b_lp_Chiralities_Consistent>
1

> <s_lp_Variant>
AV-unprocessed.smi:148-15

> <Gold.Version>
5.8.1

> <Gold.Id.Protein>
6NUR|6NUR_protein|mol2

> <Gold.PLP.Fitness>
44.3181

> <Gold.PLP.PLP>
-34.2989

> <Gold.PLP.part.hbond>
-3.0000

> <Gold.PLP.part.metal>
0.0000

> <Gold.PLP.part.buried>
-5.0659

> <Gold.PLP.part.nonpolar>
-26.9769

> <Gold.PLP.part.repulsive>
0.2989

> <Gold.PLP.ligand.clash>
0.0000

> <Gold.PLP.ligand.torsion>
1.1864

> <Gold.PLP.Chemscore.Hbond>
2.9760

> <Gold.PLP.Chemscore.CHOScore>
1.0000

> <Gold.PLP.Chemscore.Metal>
0.0000

> <Gold.Chemscore.Hbonds>
donor molecule, donor type, donor heavy atom, donor atom, acceptor molecule, acceptor atom, score
      L1  H     1    31       P1  7949  0.93
      L1  H    21    55       P1 10171  1.00
      P1  H 10752 10763       L1     1  1.00
      L1  C     6    37       P1  7957  1.00

> <Gold.PLP.Chemscore.Internal.Correction>
0.4640

> <Gold.Rescore>
     Score         DG    S(hbond)    S(metal)    S(lipo)     H(rot)  DE(clash)    DE(int)     intcor
     12.83     -16.85       3.22        0.00      77.79       3.32       0.18       3.85       ----

> <Gold.Chemscore.Fitness>
12.8263

> <Gold.Chemscore.DG>
-16.8499

> <Gold.Chemscore.ZeroCoef>
-5.4800

> <Gold.Chemscore.Hbond>
3.2240

> <Gold.Chemscore.Metal>
0.0000

> <Gold.Chemscore.Lipo>
77.7920

> <Gold.Chemscore.Internal_Hbond>
0.0000

> <Gold.Chemscore.DEClash>
0.1786

> <Gold.Chemscore.DEInternal>
3.8450

> <Gold.Chemscore.Rot>
3.3203

> <Gold.Chemscore.Internal.Correction>
   9.000000E+99

> <Gold.Chemscore.Hbonds>
donor molecule, donor type, donor heavy atom, donor atom, acceptor molecule, acceptor atom, score
      L1  H     1    31       P1  7949  0.68
      L1  H    21    55       P1 10171  0.99
      P1  H 10752 10763       L1     1  0.38

> <Gold.Chemscore.Hbond.Weighted>
-10.7682

> <Gold.Chemscore.Metal.Weighted>
-0.0000

> <Gold.Chemscore.Lipo.Weighted>
-9.1017

> <Gold.Chemscore.Internal_Hbond.Weighted>
0.0000

> <Gold.Chemscore.DEClash.Weighted>
0.1786

> <Gold.Chemscore.DEInternal.Weighted>
3.8450

> <Gold.Chemscore.Rot.Weighted>
8.5000

> <Gold.Chemscore.Internal.Correction.Weighted>
   9.000000E+99

> <Gold.Protein.RotatedTorsions>
[ 6907 6896 6895 6894 ] final -114.94 input  -60.11 | X-H torsion
[ 7974 7965 7964 7962 ] final   12.52 input  175.53 | X-H torsion
[ 8008 7997 7996 7995 ] final  -53.83 input   59.86 | X-H torsion
[ 10167 10162 10161 10158 ] final  177.16 input  -65.29 | X-H torsion
[ 10718 10713 10712 10709 ] final  -36.89 input   66.30 | X-H torsion
[ 10763 10752 10751 10750 ] final   17.58 input  -60.55 | X-H torsion
[ 11005 11000 10999 10996 ] final  -48.55 input  -57.11 | X-H torsion

> <Gold.Protein.ActiveResidues>
 VAL166  LYS551  ARG553  GLY616  TRP617  ASP618  TYR619  PRO620  LYS621  CYS622 
 ASP623  PHE694  ASN695  SER759  ASP760  ASP761  ALA762  ILE779  LEU786  VAL792 
 PHE793  MET794  SER795  GLU796  ALA797  LYS798  CYS799  TRP800  GLU811  SER814 

> <Gold.Protein.RotatedAtoms>
  150.7940  133.8729  159.3263 H   0  0  0  0  0  0  0  0  0  0  0  0  # atno 6907 bound_to 6896
  151.6560  135.0994  160.0179 H   0  0  0  0  0  0  0  0  0  0  0  0  # atno 6908 bound_to 6896
  152.4019  133.6791  159.6358 H   0  0  0  0  0  0  0  0  0  0  0  0  # atno 6909 bound_to 6896
  146.2349  139.9324  142.8494 H   0  0  0  0  0  0  0  0  0  0  0  0  # atno 7974 bound_to 7965
  154.4144  140.1190  156.5217 H   0  0  0  0  0  0  0  0  0  0  0  0  # atno 8008 bound_to 7997
  155.6695  140.3496  155.4794 H   0  0  0  0  0  0  0  0  0  0  0  0  # atno 8009 bound_to 7997
  155.9645  140.1129  157.0857 H   0  0  0  0  0  0  0  0  0  0  0  0  # atno 8010 bound_to 7997
  139.5242  144.2831  152.0529 H   0  0  0  0  0  0  0  0  0  0  0  0  # atno 10167 bound_to 10162
  156.3215  130.4266  149.7955 H   0  0  0  0  0  0  0  0  0  0  0  0  # atno 10718 bound_to 10713
  153.1326  135.6743  153.9154 H   0  0  0  0  0  0  0  0  0  0  0  0  # atno 10763 bound_to 10752
  153.8635  135.3078  155.3440 H   0  0  0  0  0  0  0  0  0  0  0  0  # atno 10764 bound_to 10752
  154.7720  135.4934  153.9750 H   0  0  0  0  0  0  0  0  0  0  0  0  # atno 10765 bound_to 10752
  141.0707  133.6680  156.3458 H   0  0  0  0  0  0  0  0  0  0  0  0  # atno 11005 bound_to 11000
  145.2031  140.9863  143.4144 LP  0  0  0  0  0  0  0  0  0  0  0  0  # atno 17320 bound_to 7965
  144.9756  139.3835  143.6287 LP  0  0  0  0  0  0  0  0  0  0  0  0  # atno 17321 bound_to 7965
  140.2285  144.4393  150.6310 LP  0  0  0  0  0  0  0  0  0  0  0  0  # atno 17342 bound_to 10162
  140.6371  143.2197  151.6371 LP  0  0  0  0  0  0  0  0  0  0  0  0  # atno 17343 bound_to 10162
  156.5261  130.8237  151.3221 LP  0  0  0  0  0  0  0  0  0  0  0  0  # atno 17370 bound_to 10713
  157.7413  130.9867  150.2434 LP  0  0  0  0  0  0  0  0  0  0  0  0  # atno 17371 bound_to 10713
  140.5678  134.5870  157.5450 LP  0  0  0  0  0  0  0  0  0  0  0  0  # atno 17394 bound_to 11000
  139.9521  134.7599  156.0425 LP  0  0  0  0  0  0  0  0  0  0  0  0  # atno 17395 bound_to 11000

$$$$
