AV-unprocessed.smi:3118|AV-procd|sdf|11888|dock3
  -GOLD-   2272017273D 1   1.00000     0.00000
 Structure written by MMmdl.
 32 33  0  0  0  0  0  0  0  0  1 V2000
  149.0735  140.7541  156.6745 C   0  0  0  0  0  0  0  0  0  0  0  0
  150.3332  141.5453  156.2913 C   0  0  2  0  0  0  0  0  0  0  0  0
  151.6097  140.7048  156.4838 C   0  0  0  0  0  0  0  0  0  0  0  0
  151.6683  139.5777  155.5711 N   0  0  0  0  0  0  0  0  0  0  0  0
  150.7136  139.2105  154.6324 C   0  0  0  0  0  0  0  0  0  0  0  0
  151.1972  138.0885  153.9981 C   0  0  0  0  0  0  0  0  0  0  0  0
  152.4392  137.7483  154.5292 N   0  0  0  0  0  0  0  0  0  0  0  0
  152.6510  138.6737  155.4557 C   0  0  0  0  0  0  0  0  0  0  0  0
  150.4138  142.7675  157.0887 N   0  0  0  0  0  0  0  0  0  0  0  0
  150.7820  142.8354  158.3768 C   0  0  0  0  0  0  0  0  0  0  0  0
  151.1267  141.8525  159.0342 O   0  0  0  0  0  0  0  0  0  0  0  0
  150.7509  144.2327  159.0092 C   0  0  0  0  0  0  0  0  0  0  0  0
  151.8841  145.1700  158.5553 C   0  0  0  0  0  0  0  0  0  0  0  0
  152.0629  145.5924  160.0165 C   0  0  0  0  0  0  0  0  0  0  0  0
  151.3436  144.3043  160.4275 C   0  0  0  0  0  0  0  0  0  0  0  0
  148.9850  139.8464  156.0772 H   0  0  0  0  0  0  0  0  0  0  0  0
  148.1712  141.3437  156.5089 H   0  0  0  0  0  0  0  0  0  0  0  0
  149.0922  140.4611  157.7248 H   0  0  0  0  0  0  0  0  0  0  0  0
  150.2587  141.8050  155.2335 H   0  0  0  0  0  0  0  0  0  0  0  0
  152.5012  141.3189  156.3473 H   0  0  0  0  0  0  0  0  0  0  0  0
  151.6529  140.3135  157.5010 H   0  0  0  0  0  0  0  0  0  0  0  0
  149.7967  139.7645  154.4950 H   0  0  0  0  0  0  0  0  0  0  0  0
  150.7507  137.5048  153.2068 H   0  0  0  0  0  0  0  0  0  0  0  0
  153.5448  138.6969  156.0617 H   0  0  0  0  0  0  0  0  0  0  0  0
  150.1510  143.6274  156.6290 H   0  0  0  0  0  0  0  0  0  0  0  0
  149.7732  144.7155  158.9516 H   0  0  0  0  0  0  0  0  0  0  0  0
  152.7608  144.6569  158.1560 H   0  0  0  0  0  0  0  0  0  0  0  0
  151.5633  145.9775  157.8967 H   0  0  0  0  0  0  0  0  0  0  0  0
  153.0994  145.6606  160.3479 H   0  0  0  0  0  0  0  0  0  0  0  0
  151.4961  146.4900  160.2682 H   0  0  0  0  0  0  0  0  0  0  0  0
  150.6047  144.4414  161.2176 H   0  0  0  0  0  0  0  0  0  0  0  0
  152.0355  143.4946  160.6669 H   0  0  0  0  0  0  0  0  0  0  0  0
  1  2  1  0  0  0  0
  1 16  1  0  0  0  0
  1 17  1  0  0  0  0
  1 18  1  0  0  0  0
  2  3  1  0  0  0  0
  2  9  1  0  0  0  0
  2 19  1  0  0  0  0
  3  4  1  0  0  0  0
  3 20  1  0  0  0  0
  3 21  1  0  0  0  0
  4  8  1  0  0  0  0
  4  5  1  0  0  0  0
  5  6  2  0  0  0  0
  5 22  1  0  0  0  0
  6  7  1  0  0  0  0
  6 23  1  0  0  0  0
  7  8  2  0  0  0  0
  8 24  1  0  0  0  0
  9 10  1  0  0  0  0
  9 25  1  0  0  0  0
 10 11  2  0  0  0  0
 10 12  1  0  0  0  0
 12 15  1  0  0  0  0
 12 13  1  0  0  0  0
 12 26  1  0  0  0  0
 13 14  1  0  0  0  0
 13 27  1  0  0  0  0
 13 28  1  0  0  0  0
 14 15  1  0  0  0  0
 14 29  1  0  0  0  0
 14 30  1  0  0  0  0
 15 31  1  0  0  0  0
 15 32  1  0  0  0  0
M  END
> <s_m_source_file>
AV-unprocessed.smi

> <i_m_source_file_index>
3118

> <i_lp_mmshare_version>
43012

> <i_f3d_flags>
0

> <s_epik_input>
W0NIMl0xW0NIMl1bQ0gyXVtDSF0xQyg9TylbTkhdW0NASF0oW0NIM10pW0NIMl1uMltjSF1bY0hdbltjSF0y

> <s_epik_cmdline>
J2VwaWtfcHl0aG9uJywgJy1waCcsICc3LjAnLCAnLXRuJywgJzgnLCAnLW1hJywgJzIwMCcsICctbWV0YWxfYmluZGluZycsICctaW1hZScsICc8aW5maWxlLm1hZT4nLCAnLW9tYWUnLCAnPG91dGZpbGUubWFlPic=

> <r_lp_tautomer_probability>
1

> <r_epik_Ionization_Penalty>
0.642614

> <r_epik_Ionization_Penalty_Charging>
0.642614

> <r_epik_Ionization_Penalty_Neutral>
2.50867e-08

> <r_epik_State_Penalty>
0.660429

> <r_epik_Charging_Adjusted_Penalty>
1.30304

> <i_epik_Tot_Q>
0

> <i_epik_Tot_abs_Q>
0

> <r_epik_Metal_State_Penalty>
0.312239

> <b_epik_Metal_Only>
0

> <s_lp_Force_Field>
OPLS_2005

> <r_lp_Energy>
13.2916

> <b_lp_Chiralities_Consistent>
1

> <s_lp_Variant>
AV-unprocessed.smi:3118-3

> <Gold.Version>
5.8.1

> <Gold.Id.Protein>
6NUR|6NUR_protein|mol2

> <Gold.PLP.Fitness>
44.2157

> <Gold.PLP.PLP>
-36.6178

> <Gold.PLP.part.hbond>
-2.3664

> <Gold.PLP.part.metal>
0.0000

> <Gold.PLP.part.buried>
-6.2390

> <Gold.PLP.part.nonpolar>
-28.7462

> <Gold.PLP.part.repulsive>
0.0949

> <Gold.PLP.ligand.clash>
0.0000

> <Gold.PLP.ligand.torsion>
0.4115

> <Gold.PLP.Chemscore.Hbond>
1.5536

> <Gold.PLP.Chemscore.CHOScore>
1.1083

> <Gold.PLP.Chemscore.Metal>
0.0000

> <Gold.Chemscore.Hbonds>
donor molecule, donor type, donor heavy atom, donor atom, acceptor molecule, acceptor atom, score
      L1  H     9    25       P1  8028  1.00
      P1  H 10752 10763       L1     7  0.43
      L1  C     6    23       P1  7948  0.32
      L1  C     6    23       P1  7949  0.76

> <Gold.PLP.Chemscore.Internal.Correction>
0.4351

> <Gold.Rescore>
     Score         DG    S(hbond)    S(metal)    S(lipo)     H(rot)  DE(clash)    DE(int)     intcor
     14.18     -16.14       1.80        0.00      78.99       1.79       0.02       1.94       ----

> <Gold.Chemscore.Fitness>
14.1797

> <Gold.Chemscore.DG>
-16.1425

> <Gold.Chemscore.ZeroCoef>
-5.4800

> <Gold.Chemscore.Hbond>
1.7964

> <Gold.Chemscore.Metal>
0.0000

> <Gold.Chemscore.Lipo>
78.9925

> <Gold.Chemscore.Internal_Hbond>
0.0000

> <Gold.Chemscore.DEClash>
0.0249

> <Gold.Chemscore.DEInternal>
1.9379

> <Gold.Chemscore.Rot>
1.7889

> <Gold.Chemscore.Internal.Correction>
   9.000000E+99

> <Gold.Chemscore.Hbonds>
donor molecule, donor type, donor heavy atom, donor atom, acceptor molecule, acceptor atom, score
      L1  H     9    25       P1  8028  0.96
      P1  H 10752 10763       L1     7  0.38

> <Gold.Chemscore.Hbond.Weighted>
-5.9999

> <Gold.Chemscore.Metal.Weighted>
-0.0000

> <Gold.Chemscore.Lipo.Weighted>
-9.2421

> <Gold.Chemscore.Internal_Hbond.Weighted>
0.0000

> <Gold.Chemscore.DEClash.Weighted>
0.0249

> <Gold.Chemscore.DEInternal.Weighted>
1.9379

> <Gold.Chemscore.Rot.Weighted>
4.5795

> <Gold.Chemscore.Internal.Correction.Weighted>
   9.000000E+99

> <Gold.Protein.RotatedTorsions>
[ 6907 6896 6895 6894 ] final  140.41 input  -60.11 | X-H torsion
[ 7974 7965 7964 7962 ] final -130.55 input  175.53 | X-H torsion
[ 8008 7997 7996 7995 ] final  -53.89 input   59.86 | X-H torsion
[ 10167 10162 10161 10158 ] final   51.53 input  -65.29 | X-H torsion
[ 10718 10713 10712 10709 ] final   25.07 input   66.30 | X-H torsion
[ 10763 10752 10751 10750 ] final   42.73 input  -60.55 | X-H torsion
[ 11005 11000 10999 10996 ] final  146.48 input  -57.11 | X-H torsion

> <Gold.Protein.ActiveResidues>
 VAL166  LYS551  ARG553  GLY616  TRP617  ASP618  TYR619  PRO620  LYS621  CYS622 
 ASP623  PHE694  ASN695  SER759  ASP760  ASP761  ALA762  ILE779  LEU786  VAL792 
 PHE793  MET794  SER795  GLU796  ALA797  LYS798  CYS799  TRP800  GLU811  SER814 

> <Gold.Protein.RotatedAtoms>
  152.2433  133.5154  159.5282 H   0  0  0  0  0  0  0  0  0  0  0  0  # atno 6907 bound_to 6896
  150.7071  134.1059  159.3991 H   0  0  0  0  0  0  0  0  0  0  0  0  # atno 6908 bound_to 6896
  151.8980  135.0390  160.0554 H   0  0  0  0  0  0  0  0  0  0  0  0  # atno 6909 bound_to 6896
  144.9464  140.7296  143.4815 H   0  0  0  0  0  0  0  0  0  0  0  0  # atno 7974 bound_to 7965
  154.4146  140.1189  156.5226 H   0  0  0  0  0  0  0  0  0  0  0  0  # atno 8008 bound_to 7997
  155.6687  140.3496  155.4790 H   0  0  0  0  0  0  0  0  0  0  0  0  # atno 8009 bound_to 7997
  155.9652  140.1130  157.0851 H   0  0  0  0  0  0  0  0  0  0  0  0  # atno 8010 bound_to 7997
  140.2609  144.3374  150.6318 H   0  0  0  0  0  0  0  0  0  0  0  0  # atno 10167 bound_to 10162
  157.1883  130.6834  149.6140 H   0  0  0  0  0  0  0  0  0  0  0  0  # atno 10718 bound_to 10713
  152.9876  135.6123  154.2996 H   0  0  0  0  0  0  0  0  0  0  0  0  # atno 10763 bound_to 10752
  154.2717  135.2779  155.2737 H   0  0  0  0  0  0  0  0  0  0  0  0  # atno 10764 bound_to 10752
  154.5116  135.5839  153.6666 H   0  0  0  0  0  0  0  0  0  0  0  0  # atno 10765 bound_to 10752
  140.0797  134.9104  157.1480 H   0  0  0  0  0  0  0  0  0  0  0  0  # atno 11005 bound_to 11000
  145.2912  139.1883  143.4739 LP  0  0  0  0  0  0  0  0  0  0  0  0  # atno 17320 bound_to 7965
  146.3305  140.2889  142.8614 LP  0  0  0  0  0  0  0  0  0  0  0  0  # atno 17321 bound_to 7965
  140.5967  143.2167  151.7151 LP  0  0  0  0  0  0  0  0  0  0  0  0  # atno 17342 bound_to 10162
  139.5017  144.3857  152.0331 LP  0  0  0  0  0  0  0  0  0  0  0  0  # atno 17343 bound_to 10162
  155.9715  130.4623  150.6141 LP  0  0  0  0  0  0  0  0  0  0  0  0  # atno 17370 bound_to 10713
  157.3885  131.0792  151.1414 LP  0  0  0  0  0  0  0  0  0  0  0  0  # atno 17371 bound_to 10713
  140.3506  134.2602  155.7199 LP  0  0  0  0  0  0  0  0  0  0  0  0  # atno 17394 bound_to 11000
  141.2042  133.7892  157.0299 LP  0  0  0  0  0  0  0  0  0  0  0  0  # atno 17395 bound_to 11000

$$$$
