AV-unprocessed.smi:1504|AV-procd|sdf|6071|dock5
  -GOLD-   22720 6193D 1   1.00000     0.00000
 Structure written by MMmdl.
 39 40  0  0  0  0  0  0  0  0  1 V2000
  145.5893  136.7448  154.8688 O   0  0  0  0  0  0  0  0  0  0  0  0
  146.5350  136.6652  154.0846 C   0  0  0  0  0  0  0  0  0  0  0  0
  146.4008  136.4890  152.7631 N   0  0  0  0  0  0  0  0  0  0  0  0
  145.1276  136.3498  152.0622 C   0  0  0  0  0  0  0  0  0  0  0  0
  145.2645  135.6649  150.6875 C   0  0  0  0  0  0  0  0  0  0  0  0
  145.2500  134.1473  150.7582 C   0  0  0  0  0  0  0  0  0  0  0  0
  144.1340  133.4142  150.3009 C   0  0  0  0  0  0  0  0  0  0  0  0
  144.1729  132.0092  150.3864 C   0  0  0  0  0  0  0  0  0  0  0  0
  145.3199  131.3943  150.9241 C   0  0  0  0  0  0  0  0  0  0  0  0
  146.3813  132.2156  151.3540 C   0  0  0  0  0  0  0  0  0  0  0  0
  146.3547  133.5636  151.2755 N   0  0  0  0  0  0  0  0  0  0  0  0
  147.8229  136.7381  154.4488 N   0  0  0  0  0  0  0  0  0  0  0  0
  148.3062  136.9322  155.8127 C   0  0  0  0  0  0  0  0  0  0  0  0
  149.5234  137.8772  155.8764 C   0  0  2  0  0  0  0  0  0  0  0  0
  149.5913  138.8981  154.7201 C   0  0  0  0  0  0  0  0  0  0  0  0
  150.9706  139.5631  154.7308 C   0  0  0  0  0  0  0  0  0  0  0  0
  152.1360  138.2639  155.2811 S   0  0  0  0  0  0  0  0  0  0  0  0
  152.7954  137.6688  154.1089 O   0  0  0  0  0  0  0  0  0  0  0  0
  152.9221  138.7737  156.4148 O   0  0  0  0  0  0  0  0  0  0  0  0
  150.8531  137.1052  155.8931 C   0  0  0  0  0  0  0  0  0  0  0  0
  147.2375  136.4401  152.2001 H   0  0  0  0  0  0  0  0  0  0  0  0
  144.4689  135.7574  152.6977 H   0  0  0  0  0  0  0  0  0  0  0  0
  144.6522  137.3258  151.9535 H   0  0  0  0  0  0  0  0  0  0  0  0
  144.4568  135.9953  150.0333 H   0  0  0  0  0  0  0  0  0  0  0  0
  146.1878  135.9882  150.2049 H   0  0  0  0  0  0  0  0  0  0  0  0
  143.2691  133.9151  149.8910 H   0  0  0  0  0  0  0  0  0  0  0  0
  143.3381  131.4145  150.0463 H   0  0  0  0  0  0  0  0  0  0  0  0
  145.3845  130.3194  151.0064 H   0  0  0  0  0  0  0  0  0  0  0  0
  147.2756  131.7775  151.7721 H   0  0  0  0  0  0  0  0  0  0  0  0
  148.5243  136.6611  153.7268 H   0  0  0  0  0  0  0  0  0  0  0  0
  147.4859  137.3601  156.3896 H   0  0  0  0  0  0  0  0  0  0  0  0
  148.5383  135.9745  156.2819 H   0  0  0  0  0  0  0  0  0  0  0  0
  149.4699  138.4454  156.8066 H   0  0  0  0  0  0  0  0  0  0  0  0
  149.4598  138.3745  153.7721 H   0  0  0  0  0  0  0  0  0  0  0  0
  148.7990  139.6441  154.7851 H   0  0  0  0  0  0  0  0  0  0  0  0
  151.2675  139.9518  153.7567 H   0  0  0  0  0  0  0  0  0  0  0  0
  151.0026  140.3751  155.4576 H   0  0  0  0  0  0  0  0  0  0  0  0
  151.1196  136.7416  156.8856 H   0  0  0  0  0  0  0  0  0  0  0  0
  150.8237  136.2553  155.2105 H   0  0  0  0  0  0  0  0  0  0  0  0
  1  2  2  0  0  0  0
  2  3  1  0  0  0  0
  2 12  1  0  0  0  0
  3  4  1  0  0  0  0
  3 21  1  0  0  0  0
  4  5  1  0  0  0  0
  4 22  1  0  0  0  0
  4 23  1  0  0  0  0
  5  6  1  0  0  0  0
  5 24  1  0  0  0  0
  5 25  1  0  0  0  0
  6 11  1  0  0  0  0
  6  7  2  0  0  0  0
  7  8  1  0  0  0  0
  7 26  1  0  0  0  0
  8  9  2  0  0  0  0
  8 27  1  0  0  0  0
  9 10  1  0  0  0  0
  9 28  1  0  0  0  0
 10 11  2  0  0  0  0
 10 29  1  0  0  0  0
 12 13  1  0  0  0  0
 12 30  1  0  0  0  0
 13 14  1  0  0  0  0
 13 31  1  0  0  0  0
 13 32  1  0  0  0  0
 14 20  1  0  0  0  0
 14 15  1  0  0  0  0
 14 33  1  0  0  0  0
 15 16  1  0  0  0  0
 15 34  1  0  0  0  0
 15 35  1  0  0  0  0
 16 17  1  0  0  0  0
 16 36  1  0  0  0  0
 16 37  1  0  0  0  0
 17 18  2  0  0  0  0
 17 19  2  0  0  0  0
 17 20  1  0  0  0  0
 20 38  1  0  0  0  0
 20 39  1  0  0  0  0
M  END
> <s_m_source_file>
AV-unprocessed.smi

> <i_m_source_file_index>
1504

> <i_lp_mmshare_version>
43012

> <i_f3d_flags>
0

> <s_epik_input>
Tz1TMSg9TylbQ0gyXVtDSDJdW0NASF0oW0NIMl0xKVtDSDJdW05IXUMoPU8pW05IXVtDSDJdW0NIMl1jMltjSF1bY0hdW2NIXVtjSF1uMg==

> <s_epik_cmdline>
J2VwaWtfcHl0aG9uJywgJy1waCcsICc3LjAnLCAnLXRuJywgJzgnLCAnLW1hJywgJzIwMCcsICctbWV0YWxfYmluZGluZycsICctaW1hZScsICc8aW5maWxlLm1hZT4nLCAnLW9tYWUnLCAnPG91dGZpbGUubWFlPic=

> <r_epik_Ionization_Penalty>
0.0431785

> <r_epik_Ionization_Penalty_Charging>
0

> <r_epik_Ionization_Penalty_Neutral>
0.0431785

> <r_epik_State_Penalty>
0.0364691

> <r_epik_Charging_Adjusted_Penalty>
0.0364691

> <i_epik_Tot_Q>
0

> <i_epik_Tot_abs_Q>
0

> <r_epik_Metal_State_Penalty>
0.0339827

> <b_epik_Metal_Only>
0

> <s_lp_Force_Field>
OPLS_2005

> <r_lp_Energy>
2.61241

> <b_lp_Chiralities_Consistent>
1

> <s_lp_Variant>
AV-unprocessed.smi:1504-1

> <Gold.Version>
5.8.1

> <Gold.Id.Protein>
6NUR|6NUR_protein|mol2

> <Gold.PLP.Fitness>
42.8101

> <Gold.PLP.PLP>
-31.5890

> <Gold.PLP.part.hbond>
-3.9650

> <Gold.PLP.part.metal>
0.0000

> <Gold.PLP.part.buried>
-2.5740

> <Gold.PLP.part.nonpolar>
-25.9930

> <Gold.PLP.part.repulsive>
0.3279

> <Gold.PLP.ligand.clash>
0.0000

> <Gold.PLP.ligand.torsion>
1.0238

> <Gold.PLP.Chemscore.Hbond>
3.5440

> <Gold.PLP.Chemscore.CHOScore>
0.8724

> <Gold.PLP.Chemscore.Metal>
0.0000

> <Gold.Chemscore.Hbonds>
donor molecule, donor type, donor heavy atom, donor atom, acceptor molecule, acceptor atom, score
      L1  H     3    21       P1  7948  1.00
      L1  H    12    30       P1  7948  0.98
      P1  H  7997  8010       L1    19  1.00
      P1  H 10752 10765       L1    18  0.51
      L1  C    10    29       P1 10747  0.79

> <Gold.PLP.Chemscore.Internal.Correction>
0.0194

> <Gold.Rescore>
     Score         DG    S(hbond)    S(metal)    S(lipo)     H(rot)  DE(clash)    DE(int)     intcor
     19.65     -20.87       3.39        0.00      76.64       1.91       0.35       0.87       ----

> <Gold.Chemscore.Fitness>
19.6476

> <Gold.Chemscore.DG>
-20.8706

> <Gold.Chemscore.ZeroCoef>
-5.4800

> <Gold.Chemscore.Hbond>
3.3875

> <Gold.Chemscore.Metal>
0.0000

> <Gold.Chemscore.Lipo>
76.6408

> <Gold.Chemscore.Internal_Hbond>
0.0000

> <Gold.Chemscore.DEClash>
0.3511

> <Gold.Chemscore.DEInternal>
0.8719

> <Gold.Chemscore.Rot>
1.9105

> <Gold.Chemscore.Internal.Correction>
   9.000000E+99

> <Gold.Chemscore.Hbonds>
donor molecule, donor type, donor heavy atom, donor atom, acceptor molecule, acceptor atom, score
      L1  H     3    21       P1  7948  0.99
      L1  H    12    30       P1  7948  0.92
      P1  H  7997  8010       L1    19  0.97
      P1  H 10752 10765       L1    18  0.51

> <Gold.Chemscore.Hbond.Weighted>
-11.3144

> <Gold.Chemscore.Metal.Weighted>
-0.0000

> <Gold.Chemscore.Lipo.Weighted>
-8.9670

> <Gold.Chemscore.Internal_Hbond.Weighted>
0.0000

> <Gold.Chemscore.DEClash.Weighted>
0.3511

> <Gold.Chemscore.DEInternal.Weighted>
0.8719

> <Gold.Chemscore.Rot.Weighted>
4.8908

> <Gold.Chemscore.Internal.Correction.Weighted>
   9.000000E+99

> <Gold.Protein.RotatedTorsions>
[ 6907 6896 6895 6894 ] final   -6.21 input  -60.11 | X-H torsion
[ 7974 7965 7964 7962 ] final -102.67 input  175.53 | X-H torsion
[ 8008 7997 7996 7995 ] final   60.16 input   59.86 | X-H torsion
[ 10167 10162 10161 10158 ] final  -71.77 input  -65.29 | X-H torsion
[ 10718 10713 10712 10709 ] final  -70.50 input   66.30 | X-H torsion
[ 10763 10752 10751 10750 ] final  133.70 input  -60.55 | X-H torsion
[ 11005 11000 10999 10996 ] final -113.28 input  -57.11 | X-H torsion

> <Gold.Protein.ActiveResidues>
 VAL166  LYS551  ARG553  GLY616  TRP617  ASP618  TYR619  PRO620  LYS621  CYS622 
 ASP623  PHE694  ASN695  SER759  ASP760  ASP761  ALA762  ILE779  LEU786  VAL792 
 PHE793  MET794  SER795  GLU796  ALA797  LYS798  CYS799  TRP800  GLU811  SER814 

> <Gold.Protein.RotatedAtoms>
  151.4692  135.1044  159.9746 H   0  0  0  0  0  0  0  0  0  0  0  0  # atno 6907 bound_to 6896
  152.4823  133.8281  159.7099 H   0  0  0  0  0  0  0  0  0  0  0  0  # atno 6908 bound_to 6896
  150.8904  133.7190  159.2933 H   0  0  0  0  0  0  0  0  0  0  0  0  # atno 6909 bound_to 6896
  145.2658  140.9283  143.3014 H   0  0  0  0  0  0  0  0  0  0  0  0  # atno 7974 bound_to 7965
  155.5778  140.3491  155.4532 H   0  0  0  0  0  0  0  0  0  0  0  0  # atno 8008 bound_to 7997
  156.0396  140.1293  157.0196 H   0  0  0  0  0  0  0  0  0  0  0  0  # atno 8009 bound_to 7997
  154.4386  140.1027  156.6203 H   0  0  0  0  0  0  0  0  0  0  0  0  # atno 8010 bound_to 7997
  140.5246  143.2328  151.7369 H   0  0  0  0  0  0  0  0  0  0  0  0  # atno 10167 bound_to 10162
  156.0405  130.4332  150.2304 H   0  0  0  0  0  0  0  0  0  0  0  0  # atno 10718 bound_to 10713
  153.8115  135.3128  155.3401 H   0  0  0  0  0  0  0  0  0  0  0  0  # atno 10763 bound_to 10752
  154.8049  135.4704  154.0371 H   0  0  0  0  0  0  0  0  0  0  0  0  # atno 10764 bound_to 10752
  153.1751  135.6884  153.8643 H   0  0  0  0  0  0  0  0  0  0  0  0  # atno 10765 bound_to 10752
  141.0624  133.9514  157.2642 H   0  0  0  0  0  0  0  0  0  0  0  0  # atno 11005 bound_to 11000
  144.9378  139.4223  143.6463 LP  0  0  0  0  0  0  0  0  0  0  0  0  # atno 17320 bound_to 7965
  146.3261  139.8323  142.8906 LP  0  0  0  0  0  0  0  0  0  0  0  0  # atno 17321 bound_to 7965
  139.4934  144.4204  151.9984 LP  0  0  0  0  0  0  0  0  0  0  0  0  # atno 17342 bound_to 10162
  140.3302  144.3325  150.5989 LP  0  0  0  0  0  0  0  0  0  0  0  0  # atno 17343 bound_to 10162
  157.0399  131.0032  151.3286 LP  0  0  0  0  0  0  0  0  0  0  0  0  # atno 17370 bound_to 10713
  157.5216  130.8002  149.7816 LP  0  0  0  0  0  0  0  0  0  0  0  0  # atno 17371 bound_to 10713
  139.9445  135.0186  156.8809 LP  0  0  0  0  0  0  0  0  0  0  0  0  # atno 17394 bound_to 11000
  140.5842  134.0323  155.7475 LP  0  0  0  0  0  0  0  0  0  0  0  0  # atno 17395 bound_to 11000

$$$$
