AV-unprocessed.smi:1601|AV-procd|sdf|6435|dock7
  -GOLD-   22720 7 83D 1   1.00000     0.00000
 Structure written by MMmdl.
 42 43  0  0  0  0  0  0  0  0  2 V2000
  149.8654  140.2977  154.5203 C   0  0  0  0  0  0  0  0  0  0  0  0
  149.7503  141.3481  155.6525 C   0  0  2  0  0  0  0  0  0  0  0  0
  150.3119  140.7812  156.9871 C   0  0  0  0  0  0  0  0  0  0  0  0
  151.2607  141.6773  157.6441 N   0  0  0  0  0  0  0  0  0  0  0  0
  152.2865  141.2946  158.4229 C   0  0  0  0  0  0  0  0  0  0  0  0
  152.5607  140.1137  158.6394 O   0  0  0  0  0  0  0  0  0  0  0  0
  153.1302  142.4242  159.0368 C   0  0  2  0  0  0  0  0  0  0  0  0
  154.0908  141.9280  160.1368 C   0  0  0  0  0  0  0  0  0  0  0  0
  152.2721  143.5048  159.5088 N   0  0  0  0  0  0  0  0  0  0  0  0
  152.3341  144.1732  160.7150 C   0  0  0  0  0  0  0  0  0  0  0  0
  151.3549  145.1247  160.7086 C   0  0  0  0  0  0  0  0  0  0  0  0
  150.7406  144.9688  159.4350 C   0  0  0  0  0  0  0  0  0  0  0  0
  151.2940  144.0049  158.7178 N   0  0  0  0  0  0  0  0  0  0  0  0
  148.3395  141.8456  155.7945 N   0  3  0  0  0  0  0  0  0  0  0  0
  147.6095  141.9959  154.5034 C   0  0  0  0  0  0  0  0  0  0  0  0
  146.1766  142.5128  154.7184 C   0  0  0  0  0  0  0  0  0  0  0  0
  145.4769  141.6420  155.5921 O   0  0  0  0  0  0  0  0  0  0  0  0
  146.0907  141.5980  156.8697 C   0  0  0  0  0  0  0  0  0  0  0  0
  147.5170  141.0380  156.7397 C   0  0  0  0  0  0  0  0  0  0  0  0
  150.8758  139.9013  154.4289 H   0  0  0  0  0  0  0  0  0  0  0  0
  149.6422  140.7130  153.5393 H   0  0  0  0  0  0  0  0  0  0  0  0
  149.1966  139.4543  154.6941 H   0  0  0  0  0  0  0  0  0  0  0  0
  150.3707  142.2022  155.3759 H   0  0  0  0  0  0  0  0  0  0  0  0
  149.5144  140.6507  157.7170 H   0  0  0  0  0  0  0  0  0  0  0  0
  150.7470  139.7934  156.8251 H   0  0  0  0  0  0  0  0  0  0  0  0
  151.1117  142.6682  157.5178 H   0  0  0  0  0  0  0  0  0  0  0  0
  153.7479  142.8316  158.2346 H   0  0  0  0  0  0  0  0  0  0  0  0
  154.7627  141.1583  159.7553 H   0  0  0  0  0  0  0  0  0  0  0  0
  153.5563  141.5072  160.9895 H   0  0  0  0  0  0  0  0  0  0  0  0
  154.7095  142.7457  160.5075 H   0  0  0  0  0  0  0  0  0  0  0  0
  153.0622  143.9187  161.4710 H   0  0  0  0  0  0  0  0  0  0  0  0
  151.1160  145.8271  161.4932 H   0  0  0  0  0  0  0  0  0  0  0  0
  149.9175  145.5253  159.0117 H   0  0  0  0  0  0  0  0  0  0  0  0
  148.1072  142.7124  153.8523 H   0  0  0  0  0  0  0  0  0  0  0  0
  147.5875  141.0380  153.9814 H   0  0  0  0  0  0  0  0  0  0  0  0
  146.1839  143.5272  155.1210 H   0  0  0  0  0  0  0  0  0  0  0  0
  145.6477  142.5543  153.7662 H   0  0  0  0  0  0  0  0  0  0  0  0
  146.1000  142.5919  157.3207 H   0  0  0  0  0  0  0  0  0  0  0  0
  145.4961  140.9595  157.5233 H   0  0  0  0  0  0  0  0  0  0  0  0
  147.4801  140.0021  156.3989 H   0  0  0  0  0  0  0  0  0  0  0  0
  147.9503  141.0342  157.7376 H   0  0  0  0  0  0  0  0  0  0  0  0
  148.4038  142.7728  156.1904 H   0  0  0  0  0  0  0  0  0  0  0  0
  1  2  1  0  0  0  0
  1 20  1  0  0  0  0
  1 21  1  0  0  0  0
  1 22  1  0  0  0  0
  2  3  1  0  0  0  0
  2 14  1  0  0  0  0
  2 23  1  0  0  0  0
  3  4  1  0  0  0  0
  3 24  1  0  0  0  0
  3 25  1  0  0  0  0
  4  5  1  0  0  0  0
  4 26  1  0  0  0  0
  5  6  2  0  0  0  0
  5  7  1  0  0  0  0
  7  8  1  0  0  0  0
  7  9  1  0  0  0  0
  7 27  1  0  0  0  0
  8 28  1  0  0  0  0
  8 29  1  0  0  0  0
  8 30  1  0  0  0  0
  9 13  1  0  0  0  0
  9 10  1  0  0  0  0
 10 11  2  0  0  0  0
 10 31  1  0  0  0  0
 11 12  1  0  0  0  0
 11 32  1  0  0  0  0
 12 13  2  0  0  0  0
 12 33  1  0  0  0  0
 14 19  1  0  0  0  0
 14 15  1  0  0  0  0
 14 42  1  0  0  0  0
 15 16  1  0  0  0  0
 15 34  1  0  0  0  0
 15 35  1  0  0  0  0
 16 17  1  0  0  0  0
 16 36  1  0  0  0  0
 16 37  1  0  0  0  0
 17 18  1  0  0  0  0
 18 19  1  0  0  0  0
 18 38  1  0  0  0  0
 18 39  1  0  0  0  0
 19 40  1  0  0  0  0
 19 41  1  0  0  0  0
M  CHG  1  14   1
M  END
> <s_m_source_file>
AV-unprocessed.smi

> <i_m_source_file_index>
1601

> <i_lp_mmshare_version>
43012

> <i_f3d_flags>
0

> <s_epik_input>
W0NIMl0xW0NIMl1PW0NIMl1bQ0gyXU4xW0NASF0oW0NIM10pW0NIMl1bTkhdQyg9TylbQ0BIXShbQ0gzXSluMltjSF1bY0hdW2NIXW4y

> <s_epik_cmdline>
J2VwaWtfcHl0aG9uJywgJy1waCcsICc3LjAnLCAnLXRuJywgJzgnLCAnLW1hJywgJzIwMCcsICctbWV0YWxfYmluZGluZycsICctaW1hZScsICc8aW5maWxlLm1hZT4nLCAnLW9tYWUnLCAnPG91dGZpbGUubWFlPic=

> <r_lp_tautomer_probability>
1

> <r_epik_Ionization_Penalty>
0.732551

> <r_epik_Ionization_Penalty_Charging>
0.732531

> <r_epik_Ionization_Penalty_Neutral>
2.04647e-05

> <r_epik_State_Penalty>
0.757939

> <r_epik_Charging_Adjusted_Penalty>
1.49047

> <i_epik_Tot_Q>
1

> <i_epik_Tot_abs_Q>
1

> <r_epik_Metal_State_Penalty>
0.757952

> <b_epik_Metal_Only>
0

> <s_lp_Force_Field>
OPLS_2005

> <r_lp_Energy>
26.1921

> <b_lp_Chiralities_Consistent>
1

> <s_lp_Variant>
AV-unprocessed.smi:1601-5

> <Gold.Version>
5.8.1

> <Gold.Id.Protein>
6NUR|6NUR_protein|mol2

> <Gold.PLP.Fitness>
47.9859

> <Gold.PLP.PLP>
-42.7205

> <Gold.PLP.part.hbond>
-1.0000

> <Gold.PLP.part.metal>
0.0000

> <Gold.PLP.part.buried>
-6.2059

> <Gold.PLP.part.nonpolar>
-35.2172

> <Gold.PLP.part.repulsive>
0.4442

> <Gold.PLP.ligand.clash>
0.0000

> <Gold.PLP.ligand.torsion>
1.9423

> <Gold.PLP.Chemscore.Hbond>
2.0000

> <Gold.PLP.Chemscore.CHOScore>
1.0000

> <Gold.PLP.Chemscore.Metal>
0.0000

> <Gold.Chemscore.Hbonds>
donor molecule, donor type, donor heavy atom, donor atom, acceptor molecule, acceptor atom, score
      L1  H    14    42       P1  8028  1.49
      L1  C    12    33       P1  8029  0.61

> <Gold.PLP.Chemscore.Internal.Correction>
0.1499

> <Gold.Rescore>
     Score         DG    S(hbond)    S(metal)    S(lipo)     H(rot)  DE(clash)    DE(int)     intcor
     11.52     -14.53       0.96        0.00      90.65       1.86       0.06       2.96       ----

> <Gold.Chemscore.Fitness>
11.5158

> <Gold.Chemscore.DG>
-14.5276

> <Gold.Chemscore.ZeroCoef>
-5.4800

> <Gold.Chemscore.Hbond>
0.9613

> <Gold.Chemscore.Metal>
0.0000

> <Gold.Chemscore.Lipo>
90.6544

> <Gold.Chemscore.Internal_Hbond>
0.0000

> <Gold.Chemscore.DEClash>
0.0559

> <Gold.Chemscore.DEInternal>
2.9559

> <Gold.Chemscore.Rot>
1.8631

> <Gold.Chemscore.Internal.Correction>
   9.000000E+99

> <Gold.Chemscore.Hbonds>
donor molecule, donor type, donor heavy atom, donor atom, acceptor molecule, acceptor atom, score
      L1  H    14    42       P1  8028  0.67

> <Gold.Chemscore.Hbond.Weighted>
-3.2107

> <Gold.Chemscore.Metal.Weighted>
-0.0000

> <Gold.Chemscore.Lipo.Weighted>
-10.6066

> <Gold.Chemscore.Internal_Hbond.Weighted>
0.0000

> <Gold.Chemscore.DEClash.Weighted>
0.0559

> <Gold.Chemscore.DEInternal.Weighted>
2.9559

> <Gold.Chemscore.Rot.Weighted>
4.7697

> <Gold.Chemscore.Internal.Correction.Weighted>
   9.000000E+99

> <Gold.Protein.RotatedTorsions>
[ 6907 6896 6895 6894 ] final -142.84 input  -60.11 | X-H torsion
[ 7974 7965 7964 7962 ] final   94.82 input  175.53 | X-H torsion
[ 8008 7997 7996 7995 ] final  -39.49 input   59.86 | X-H torsion
[ 10167 10162 10161 10158 ] final   89.22 input  -65.29 | X-H torsion
[ 10718 10713 10712 10709 ] final  -83.75 input   66.30 | X-H torsion
[ 10763 10752 10751 10750 ] final -152.15 input  -60.55 | X-H torsion
[ 11005 11000 10999 10996 ] final  160.11 input  -57.11 | X-H torsion

> <Gold.Protein.ActiveResidues>
 VAL166  LYS551  ARG553  GLY616  TRP617  ASP618  TYR619  PRO620  LYS621  CYS622 
 ASP623  PHE694  ASN695  SER759  ASP760  ASP761  ALA762  ILE779  LEU786  VAL792 
 PHE793  MET794  SER795  GLU796  ALA797  LYS798  CYS799  TRP800  GLU811  SER814 

> <Gold.Protein.RotatedAtoms>
  151.0925  133.5305  159.2613 H   0  0  0  0  0  0  0  0  0  0  0  0  # atno 6907 bound_to 6896
  151.2167  135.0502  159.8943 H   0  0  0  0  0  0  0  0  0  0  0  0  # atno 6908 bound_to 6896
  152.5435  134.0733  159.8257 H   0  0  0  0  0  0  0  0  0  0  0  0  # atno 6909 bound_to 6896
  145.4604  139.2287  143.2990 H   0  0  0  0  0  0  0  0  0  0  0  0  # atno 7974 bound_to 7965
  154.4022  140.1550  156.2872 H   0  0  0  0  0  0  0  0  0  0  0  0  # atno 8008 bound_to 7997
  155.8817  140.3443  155.5871 H   0  0  0  0  0  0  0  0  0  0  0  0  # atno 8009 bound_to 7997
  155.7659  140.0824  157.2123 H   0  0  0  0  0  0  0  0  0  0  0  0  # atno 8010 bound_to 7997
  139.8594  144.6552  150.9076 H   0  0  0  0  0  0  0  0  0  0  0  0  # atno 10167 bound_to 10162
  156.0014  130.4675  150.4305 H   0  0  0  0  0  0  0  0  0  0  0  0  # atno 10718 bound_to 10713
  154.8012  135.3243  154.7544 H   0  0  0  0  0  0  0  0  0  0  0  0  # atno 10763 bound_to 10752
  153.8211  135.6887  153.4831 H   0  0  0  0  0  0  0  0  0  0  0  0  # atno 10764 bound_to 10752
  153.1731  135.4615  154.9872 H   0  0  0  0  0  0  0  0  0  0  0  0  # atno 10765 bound_to 10752
  140.2027  134.8326  157.3035 H   0  0  0  0  0  0  0  0  0  0  0  0  # atno 11005 bound_to 11000
  146.2454  140.5372  142.8916 LP  0  0  0  0  0  0  0  0  0  0  0  0  # atno 17320 bound_to 7965
  144.8006  140.6206  143.6480 LP  0  0  0  0  0  0  0  0  0  0  0  0  # atno 17321 bound_to 7965
  140.7777  143.3757  151.1567 LP  0  0  0  0  0  0  0  0  0  0  0  0  # atno 17342 bound_to 10162
  139.7388  143.8957  152.3043 LP  0  0  0  0  0  0  0  0  0  0  0  0  # atno 17343 bound_to 10162
  157.2354  131.0513  151.2468 LP  0  0  0  0  0  0  0  0  0  0  0  0  # atno 17370 bound_to 10713
  157.3671  130.7162  149.6540 LP  0  0  0  0  0  0  0  0  0  0  0  0  # atno 17371 bound_to 10713
  140.2036  134.4224  155.7649 LP  0  0  0  0  0  0  0  0  0  0  0  0  # atno 17394 bound_to 11000
  141.2227  133.7084  156.8224 LP  0  0  0  0  0  0  0  0  0  0  0  0  # atno 17395 bound_to 11000

$$$$
