AV-unprocessed.smi:703|AV-procd|sdf|3440|dock2
  -GOLD-   22720 0423D 1   1.00000     0.00000
 Structure written by MMmdl.
 37 38  0  0  0  0  0  0  0  0  3 V2000
  145.6075  136.0956  150.6737 C   0  0  0  0  0  0  0  0  0  0  0  0
  145.5722  136.2555  152.1994 C   0  0  0  0  0  0  0  0  0  0  0  0
  146.6393  137.1583  152.6911 N   0  3  1  0  0  0  0  0  0  0  0  0
  146.5143  138.5646  152.2373 C   0  0  0  0  0  0  0  0  0  0  0  0
  146.7387  139.4448  153.4785 C   0  0  2  0  0  0  0  0  0  0  0  0
  147.3501  140.8315  153.1876 C   0  0  0  0  0  0  0  0  0  0  0  0
  147.4773  138.5301  154.4742 C   0  0  2  0  0  0  0  0  0  0  0  0
  148.9088  138.4830  154.1858 N   0  5  0  0  0  0  0  0  0  0  0  0
  149.9775  138.8748  155.3418 S   0  0  0  0  0  0  0  0  0  0  0  0
  151.1613  139.5667  154.8064 O   0  0  0  0  0  0  0  0  0  0  0  0
  149.3352  139.4708  156.5243 O   0  0  0  0  0  0  0  0  0  0  0  0
  150.5537  137.2017  155.8592 C   0  0  0  0  0  0  0  0  0  0  0  0
  150.2170  136.9685  157.3052 C   0  0  0  0  0  0  0  0  0  0  0  0
  148.9405  136.9951  157.9327 C   0  0  0  0  0  0  0  0  0  0  0  0
  149.2207  136.7159  159.2389 C   0  0  0  0  0  0  0  0  0  0  0  0
  150.5551  136.5409  159.4116 O   0  0  0  0  0  0  0  0  0  0  0  0
  151.1833  136.7077  158.1722 N   0  0  0  0  0  0  0  0  0  0  0  0
  146.8239  137.1781  154.1605 C   0  0  0  0  0  0  0  0  0  0  0  0
  144.7761  135.4791  150.3315 H   0  0  0  0  0  0  0  0  0  0  0  0
  146.5283  135.6162  150.3405 H   0  0  0  0  0  0  0  0  0  0  0  0
  145.5312  137.0619  150.1741 H   0  0  0  0  0  0  0  0  0  0  0  0
  144.6051  136.6720  152.4843 H   0  0  0  0  0  0  0  0  0  0  0  0
  145.6525  135.2830  152.6875 H   0  0  0  0  0  0  0  0  0  0  0  0
  147.2692  138.7480  151.4702 H   0  0  0  0  0  0  0  0  0  0  0  0
  145.5399  138.7708  151.7915 H   0  0  0  0  0  0  0  0  0  0  0  0
  145.7539  139.6273  153.9123 H   0  0  0  0  0  0  0  0  0  0  0  0
  148.3213  140.7623  152.6950 H   0  0  0  0  0  0  0  0  0  0  0  0
  147.4774  141.4182  154.0990 H   0  0  0  0  0  0  0  0  0  0  0  0
  146.6973  141.4027  152.5269 H   0  0  0  0  0  0  0  0  0  0  0  0
  147.2739  138.8372  155.5002 H   0  0  0  0  0  0  0  0  0  0  0  0
  150.0769  136.4613  155.2166 H   0  0  0  0  0  0  0  0  0  0  0  0
  151.6290  137.1426  155.6938 H   0  0  0  0  0  0  0  0  0  0  0  0
  147.9729  137.1811  157.4906 H   0  0  0  0  0  0  0  0  0  0  0  0
  148.6099  136.6133  160.1234 H   0  0  0  0  0  0  0  0  0  0  0  0
  145.8488  137.1327  154.6485 H   0  0  0  0  0  0  0  0  0  0  0  0
  147.3967  136.3187  154.5074 H   0  0  0  0  0  0  0  0  0  0  0  0
  147.5140  136.8289  152.3081 H   0  0  0  0  0  0  0  0  0  0  0  0
  1  2  1  0  0  0  0
  1 19  1  0  0  0  0
  1 20  1  0  0  0  0
  1 21  1  0  0  0  0
  2  3  1  0  0  0  0
  2 22  1  0  0  0  0
  2 23  1  0  0  0  0
  3 18  1  0  0  0  0
  3  4  1  0  0  0  0
  3 37  1  0  0  0  0
  4  5  1  0  0  0  0
  4 24  1  0  0  0  0
  4 25  1  0  0  0  0
  5  6  1  0  0  0  0
  5  7  1  0  0  0  0
  5 26  1  0  0  0  0
  6 27  1  0  0  0  0
  6 28  1  0  0  0  0
  6 29  1  0  0  0  0
  7  8  1  0  0  0  0
  7 18  1  0  0  0  0
  7 30  1  0  0  0  0
  8  9  1  0  0  0  0
  9 10  2  0  0  0  0
  9 11  2  0  0  0  0
  9 12  1  0  0  0  0
 12 13  1  0  0  0  0
 12 31  1  0  0  0  0
 12 32  1  0  0  0  0
 13 17  2  0  0  0  0
 13 14  1  0  0  0  0
 14 15  2  0  0  0  0
 14 33  1  0  0  0  0
 15 16  1  0  0  0  0
 15 34  1  0  0  0  0
 16 17  1  0  0  0  0
 18 35  1  0  0  0  0
 18 36  1  0  0  0  0
M  CHG  1   3   1
M  CHG  1   8  -1
M  END
> <s_m_source_file>
AV-unprocessed.smi

> <i_m_source_file_index>
703

> <i_lp_mmshare_version>
43012

> <i_f3d_flags>
0

> <s_epik_input>
W0NIM11bQ0gyXU4xW0NIMl1bQ0BASF0oW0NIM10pW0NASF0oW0NIMl0xKVtOSF1TKD1PKSg9TylbQ0gyXWMyW2NIXVtjSF1vbjI=

> <s_epik_cmdline>
J2VwaWtfcHl0aG9uJywgJy1waCcsICc3LjAnLCAnLXRuJywgJzgnLCAnLW1hJywgJzIwMCcsICctbWV0YWxfYmluZGluZycsICctaW1hZScsICc8aW5maWxlLm1hZT4nLCAnLW9tYWUnLCAnPG91dGZpbGUubWFlPic=

> <r_epik_Ionization_Penalty>
3.62494

> <r_epik_Ionization_Penalty_Charging>
3.62494

> <r_epik_Ionization_Penalty_Neutral>
2.0321e-10

> <r_epik_State_Penalty>
3.62558

> <r_epik_Charging_Adjusted_Penalty>
7.25052

> <i_epik_Tot_Q>
0

> <i_epik_Tot_abs_Q>
2

> <r_epik_Metal_State_Penalty>
0.530836

> <b_epik_Metal_Only>
1

> <s_lp_Force_Field>
OPLS_2005

> <r_lp_Energy>
16.9152

> <b_lp_Chiralities_Consistent>
1

> <s_lp_Variant>
AV-unprocessed.smi:703-15

> <Gold.Version>
5.8.1

> <Gold.Id.Protein>
6NUR|6NUR_protein|mol2

> <Gold.PLP.Fitness>
34.7386

> <Gold.PLP.PLP>
-22.7918

> <Gold.PLP.part.hbond>
-3.1838

> <Gold.PLP.part.metal>
0.0000

> <Gold.PLP.part.buried>
-4.4935

> <Gold.PLP.part.nonpolar>
-15.9600

> <Gold.PLP.part.repulsive>
0.3121

> <Gold.PLP.ligand.clash>
0.0000

> <Gold.PLP.ligand.torsion>
0.5599

> <Gold.PLP.Chemscore.Hbond>
4.0000

> <Gold.PLP.Chemscore.CHOScore>
0.0000

> <Gold.PLP.Chemscore.Metal>
0.0000

> <Gold.Chemscore.Hbonds>
donor molecule, donor type, donor heavy atom, donor atom, acceptor molecule, acceptor atom, score
      L1  H     3    37       P1  7948  2.00
      P1  H  6896  6909       L1    16  1.00
      P1  H  7989  7998       L1    10  1.00

> <Gold.PLP.Chemscore.Internal.Correction>
1.0666

> <Gold.Rescore>
     Score         DG    S(hbond)    S(metal)    S(lipo)     H(rot)  DE(clash)    DE(int)     intcor
     15.13     -17.06       2.86        0.00      53.03       1.63       0.08       1.85       ----

> <Gold.Chemscore.Fitness>
15.1301

> <Gold.Chemscore.DG>
-17.0597

> <Gold.Chemscore.ZeroCoef>
-5.4800

> <Gold.Chemscore.Hbond>
2.8615

> <Gold.Chemscore.Metal>
0.0000

> <Gold.Chemscore.Lipo>
53.0328

> <Gold.Chemscore.Internal_Hbond>
0.0000

> <Gold.Chemscore.DEClash>
0.0833

> <Gold.Chemscore.DEInternal>
1.8463

> <Gold.Chemscore.Rot>
1.6338

> <Gold.Chemscore.Internal.Correction>
   9.000000E+99

> <Gold.Chemscore.Hbonds>
donor molecule, donor type, donor heavy atom, donor atom, acceptor molecule, acceptor atom, score
      L1  H     3    37       P1  7948  0.99
      P1  H  6896  6909       L1    16  0.26
      P1  H  7989  7998       L1    10  1.00

> <Gold.Chemscore.Hbond.Weighted>
-9.5573

> <Gold.Chemscore.Metal.Weighted>
-0.0000

> <Gold.Chemscore.Lipo.Weighted>
-6.2048

> <Gold.Chemscore.Internal_Hbond.Weighted>
0.0000

> <Gold.Chemscore.DEClash.Weighted>
0.0833

> <Gold.Chemscore.DEInternal.Weighted>
1.8463

> <Gold.Chemscore.Rot.Weighted>
4.1825

> <Gold.Chemscore.Internal.Correction.Weighted>
   9.000000E+99

> <Gold.Protein.RotatedTorsions>
[ 6907 6896 6895 6894 ] final   82.46 input  -60.11 | X-H torsion
[ 7974 7965 7964 7962 ] final -107.90 input  175.53 | X-H torsion
[ 8008 7997 7996 7995 ] final  110.25 input   59.86 | X-H torsion
[ 10167 10162 10161 10158 ] final   26.76 input  -65.29 | X-H torsion
[ 10718 10713 10712 10709 ] final   10.26 input   66.30 | X-H torsion
[ 10763 10752 10751 10750 ] final  171.50 input  -60.55 | X-H torsion
[ 11005 11000 10999 10996 ] final -150.63 input  -57.11 | X-H torsion

> <Gold.Protein.ActiveResidues>
 VAL166  LYS551  ARG553  GLY616  TRP617  ASP618  TYR619  PRO620  LYS621  CYS622 
 ASP623  PHE694  ASN695  SER759  ASP760  ASP761  ALA762  ILE779  LEU786  VAL792 
 PHE793  MET794  SER795  GLU796  ALA797  LYS798  CYS799  TRP800  GLU811  SER814 

> <Gold.Protein.RotatedAtoms>
  152.5299  134.3046  159.9090 H   0  0  0  0  0  0  0  0  0  0  0  0  # atno 6907 bound_to 6896
  151.2997  133.4121  159.2646 H   0  0  0  0  0  0  0  0  0  0  0  0  # atno 6908 bound_to 6896
  151.0130  134.9427  159.8074 H   0  0  0  0  0  0  0  0  0  0  0  0  # atno 6909 bound_to 6896
  145.1996  140.9050  143.3377 H   0  0  0  0  0  0  0  0  0  0  0  0  # atno 7974 bound_to 7965
  156.2039  140.3042  155.9585 H   0  0  0  0  0  0  0  0  0  0  0  0  # atno 8008 bound_to 7997
  155.2888  140.0441  157.3038 H   0  0  0  0  0  0  0  0  0  0  0  0  # atno 8009 bound_to 7997
  154.5607  140.2319  155.8348 H   0  0  0  0  0  0  0  0  0  0  0  0  # atno 8010 bound_to 7997
  140.4996  144.0337  150.6327 H   0  0  0  0  0  0  0  0  0  0  0  0  # atno 10167 bound_to 10162
  156.9783  130.5996  149.5674 H   0  0  0  0  0  0  0  0  0  0  0  0  # atno 10718 bound_to 10713
  154.4128  135.2756  155.2025 H   0  0  0  0  0  0  0  0  0  0  0  0  # atno 10763 bound_to 10752
  154.4004  135.6046  153.5897 H   0  0  0  0  0  0  0  0  0  0  0  0  # atno 10764 bound_to 10752
  152.9831  135.5925  154.4413 H   0  0  0  0  0  0  0  0  0  0  0  0  # atno 10765 bound_to 10752
  140.7381  134.3545  157.5153 H   0  0  0  0  0  0  0  0  0  0  0  0  # atno 11005 bound_to 11000
  144.9961  139.3643  143.6191 LP  0  0  0  0  0  0  0  0  0  0  0  0  # atno 17320 bound_to 7965
  146.3420  139.9164  142.8773 LP  0  0  0  0  0  0  0  0  0  0  0  0  # atno 17321 bound_to 7965
  140.3629  143.2898  152.0364 LP  0  0  0  0  0  0  0  0  0  0  0  0  # atno 17342 bound_to 10162
  139.4869  144.6289  151.7109 LP  0  0  0  0  0  0  0  0  0  0  0  0  # atno 17343 bound_to 10162
  156.0255  130.5348  150.8393 LP  0  0  0  0  0  0  0  0  0  0  0  0  # atno 17370 bound_to 10713
  157.5544  131.0944  150.9649 LP  0  0  0  0  0  0  0  0  0  0  0  0  # atno 17371 bound_to 10713
  139.8812  134.9063  156.2919 LP  0  0  0  0  0  0  0  0  0  0  0  0  # atno 17394 bound_to 11000
  140.9861  133.7237  156.0744 LP  0  0  0  0  0  0  0  0  0  0  0  0  # atno 17395 bound_to 11000

$$$$
