#       Name:                AV-unprocessed.smi:2402
#       Creating user name   scv26
#       Creation time:       Fri Mar 27 13:13:38 2020


#       File generated by GOLD software.
#

@<TRIPOS>MOLECULE
AV-unprocessed.smi:2402
    43    44     1
SMALL
NO_CHARGES


@<TRIPOS>ATOM
      1 ****        -4.9121   3.4026  -0.1376 C.3            1 S1                 0.0000
      2 ****        -4.1967   2.0716  -0.2360 C.ar           1 S1                 0.0000
      3 ****        -4.9152   0.8609  -0.2102 C.ar           1 S1                 0.0000
      4 ****        -4.1908  -0.3435  -0.3038 C.ar           1 S1                 0.0000
      5 ****        -4.8976  -1.6824  -0.2809 C.3            1 S1                 0.0000
      6 ****        -2.8460  -0.3875  -0.4135 N.ar           1 S1                 0.0000
      7 ****        -2.1430   0.7720  -0.4367 C.ar           1 S1                 0.0000
      8 ****        -0.7275   0.8328  -0.5378 N.am           1 S1                 0.0000
      9 ****         0.1444  -0.1892  -0.5997 C.2            1 S1                 0.0000
     10 ****        -0.1564  -1.3832  -0.6239 O.2            1 S1                 0.0000
     11 ****         1.4103   0.2520  -0.6276 N.am           1 S1                 0.0000
     12 ****         2.5892  -0.6066  -0.6614 C.3            1 S1                 0.0000
     13 ****         3.8279   0.2032  -0.9371 C.2            1 S1                 0.0000
     14 ****         4.7434   0.0882   0.0228 C.2            1 S1                 0.0000
     15 ****         4.2932  -0.8055   1.1492 C.3            1 S1                 0.0000
     16 ****         5.2820  -1.9456   1.4586 C.3            1 S1                 0.0000
     17 ****         5.5168  -2.7595   0.3267 O.3            1 S1                 0.0000
     18 ****         2.8839  -1.2771   0.7075 C.3            1 S1                 0.0000
     19 ****        -2.7926   2.0240  -0.3518 C.ar           1 S1                 0.0000
     20 ****         2.4856  -1.3574  -1.4468 H              1 S1                 0.0000
     21 ****         4.1958  -0.1799   2.0372 H              1 S1                 0.0000
     22 ****        -5.9944   3.2712  -0.1245 H              1 S1                 0.0000
     23 ****        -4.6559   4.0340  -0.9887 H              1 S1                 0.0000
     24 ****        -4.6199   3.9207   0.7760 H              1 S1                 0.0000
     25 ****        -5.9918   0.8549  -0.1197 H              1 S1                 0.0000
     26 ****        -5.9809  -1.5584  -0.2833 H              1 S1                 0.0000
     27 ****        -4.6199  -2.2403   0.6136 H              1 S1                 0.0000
     28 ****        -4.6215  -2.2732  -1.1546 H              1 S1                 0.0000
     29 ****        -0.3319   1.7610  -0.5360 H              1 S1                 0.0000
     30 ****         1.5717   1.2482  -0.6076 H              1 S1                 0.0000
     31 ****         3.9405   0.7940  -1.8342 H              1 S1                 0.0000
     32 ****         5.7052   0.5794   0.0272 H              1 S1                 0.0000
     33 ****         6.2347  -1.5369   1.7970 H              1 S1                 0.0000
     34 ****         4.8980  -2.5680   2.2673 H              1 S1                 0.0000
     35 ****         6.1123  -3.4512   0.5718 H              1 S1                 0.0000
     36 ****         2.1444  -1.0039   1.4618 H              1 S1                 0.0000
     37 ****         2.8359  -2.3621   0.6086 H              1 S1                 0.0000
     38 ****        -2.2214   2.9412  -0.3713 H              1 S1                 0.0000
     39 ****        -2.3730  -1.2663  -0.4770 LP             1 S1                 0.0000
     40 ****        -1.1177  -1.6573  -0.5969 LP             1 S1                 0.0000
     41 ****         0.5607  -2.0786  -0.6706 LP             1 S1                 0.0000
     42 ****         5.9207  -2.2107  -0.4052 LP             1 S1                 0.0000
     43 ****         4.6540  -3.1539   0.0103 LP             1 S1                 0.0000
@<TRIPOS>BOND
    1    1    2 1     
    2    1   22 1     
    3    1   23 1     
    4    1   24 1     
    5    2   19 ar    
    6    2    3 ar    
    7    3    4 ar    
    8    3   25 1     
    9    4    5 1     
   10    4    6 ar    
   11    5   26 1     
   12    5   27 1     
   13    5   28 1     
   14    6    7 ar    
   15    7    8 1     
   16    7   19 ar    
   17    8    9 am    
   18    8   29 1     
   19    9   10 2     
   20    9   11 am    
   21   11   12 1     
   22   11   30 1     
   23   12   20 1     
   24   12   18 1     
   25   12   13 1     
   26   13   14 2     
   27   13   31 1     
   28   14   15 1     
   29   14   32 1     
   30   15   21 1     
   31   15   16 1     
   32   15   18 1     
   33   16   17 1     
   34   16   33 1     
   35   16   34 1     
   36   17   35 1     
   37   18   36 1     
   38   18   37 1     
   39   19   38 1     
   40    6   39 1     
   41   10   40 1     
   42   10   41 1     
   43   17   42 1     
   44   17   43 1     
@<TRIPOS>SUBSTRUCTURE
      1 S1             1
@<TRIPOS>SET
LONE_PAIRS      STATIC     ATOMS    <user>   **** ""
5 39 40 41 42 43
DONOR_HYDROGENS      STATIC     ATOMS    <user>   **** ""
3 29 30 35
ATOM$BLUE        STATIC     ATOMS    COLORGROUP SYSTEM
5 39 40 41 42 43
ATOM$RED        STATIC     ATOMS    COLORGROUP SYSTEM
3 29 30 35
