#       Name:                AV-unprocessed.smi:1701
#       Creating user name   scv26
#       Creation time:       Fri Mar 27 07:59:56 2020


#       File generated by GOLD software.
#

@<TRIPOS>MOLECULE
AV-unprocessed.smi:1701
    57    59     1
SMALL
NO_CHARGES


@<TRIPOS>ATOM
      1 ****        -6.0202  -0.0970   2.1010 C.3            1 S1                 0.0000
      2 ****        -6.0793  -0.6524   0.6698 C.3            1 S1                 0.0000
      3 ****        -5.3819   0.1847  -0.3067 N.pl3          1 S1                 0.0000
      4 ****        -6.1316   1.2074  -1.0403 C.3            1 S1                 0.0000
      5 ****        -6.1461   2.5715  -0.3347 C.3            1 S1                 0.0000
      6 ****        -3.9685   0.1460  -0.3964 C.ar           1 S1                 0.0000
      7 ****        -3.1590  -0.7445   0.3530 C.ar           1 S1                 0.0000
      8 ****        -1.7567  -0.7134   0.2103 C.ar           1 S1                 0.0000
      9 ****        -1.1611   0.1963  -0.6869 C.ar           1 S1                 0.0000
     10 ****         0.2571   0.2062  -0.7783 N.am           1 S1                 0.0000
     11 ****         1.0362   0.7453  -1.7371 C.2            1 S1                 0.0000
     12 ****         0.6176   1.2595  -2.7713 O.2            1 S1                 0.0000
     13 ****         2.3556   0.6522  -1.4933 N.am           1 S1                 0.0000
     14 ****         3.4626   1.1310  -2.3227 C.3            1 S1                 0.0000
     15 ****         3.7034   0.2983  -3.5936 C.3            1 S1                 0.0000
     16 ****         5.2350   0.2119  -3.7461 C.3            1 S1                 0.0000
     17 ****         5.8176   1.0439  -2.6687 N.4            1 S1                 1.0000
     18 ****         6.1875   2.4035  -3.1493 C.3            1 S1                 0.0000
     19 ****         6.5678   3.3401  -1.9958 C.3            1 S1                 0.0000
     20 ****         5.4109   3.4472  -0.9994 C.3            1 S1                 0.0000
     21 ****         5.0641   2.0527  -0.4667 C.3            1 S1                 0.0000
     22 ****         4.8027   1.0215  -1.5875 C.3            1 S1                 0.0000
     23 ****        -2.0074   1.0681  -1.4111 C.ar           1 S1                 0.0000
     24 ****        -3.3454   1.0052  -1.2404 N.pl3          1 S1                 1.0000
     25 ****        -6.5267  -0.7707   2.7921 H              1 S1                 0.0000
     26 ****        -6.5104   0.8722   2.1779 H              1 S1                 0.0000
     27 ****        -4.9941   0.0193   2.4495 H              1 S1                 0.0000
     28 ****        -5.6881  -1.6691   0.6378 H              1 S1                 0.0000
     29 ****        -7.1245  -0.7415   0.3719 H              1 S1                 0.0000
     30 ****        -5.7342   1.3120  -2.0502 H              1 S1                 0.0000
     31 ****        -7.1587   0.8657  -1.1710 H              1 S1                 0.0000
     32 ****        -6.6775   3.3073  -0.9382 H              1 S1                 0.0000
     33 ****        -5.1371   2.9496  -0.1690 H              1 S1                 0.0000
     34 ****        -6.6488   2.5214   0.6297 H              1 S1                 0.0000
     35 ****        -3.5855  -1.4534   1.0458 H              1 S1                 0.0000
     36 ****        -1.1451  -1.3898   0.7893 H              1 S1                 0.0000
     37 ****         0.7422  -0.2682  -0.0311 H              1 S1                 0.0000
     38 ****         2.6188   0.1684  -0.6464 H              1 S1                 0.0000
     39 ****         3.2915   2.1728  -2.5985 H              1 S1                 0.0000
     40 ****         3.2841  -0.7047  -3.5008 H              1 S1                 0.0000
     41 ****         3.2384   0.7675  -4.4614 H              1 S1                 0.0000
     42 ****         5.5589  -0.8186  -3.5958 H              1 S1                 0.0000
     43 ****         5.5732   0.5142  -4.7383 H              1 S1                 0.0000
     44 ****         7.0221   2.3182  -3.8461 H              1 S1                 0.0000
     45 ****         5.3583   2.8387  -3.7092 H              1 S1                 0.0000
     46 ****         7.4625   2.9701  -1.4932 H              1 S1                 0.0000
     47 ****         6.8155   4.3280  -2.3854 H              1 S1                 0.0000
     48 ****         5.6850   4.1051  -0.1742 H              1 S1                 0.0000
     49 ****         4.5412   3.8964  -1.4800 H              1 S1                 0.0000
     50 ****         5.8967   1.7006   0.1435 H              1 S1                 0.0000
     51 ****         4.2056   2.1089   0.2034 H              1 S1                 0.0000
     52 ****         4.8545   0.0283  -1.1363 H              1 S1                 0.0000
     53 ****        -1.6766   1.8233  -2.1080 H              1 S1                 0.0000
     54 ****         6.6628   0.6074  -2.3288 H              1 S1                 0.0000
     55 ****        -3.9239   1.6507  -1.7781 H              1 S1                 0.0000
     56 ****        -0.3659   1.2984  -2.9478 LP             1 S1                 0.0000
     57 ****         1.2604   1.6390  -3.4367 LP             1 S1                 0.0000
@<TRIPOS>BOND
    1    1    2 1     
    2    1   25 1     
    3    1   26 1     
    4    1   27 1     
    5    2    3 1     
    6    2   28 1     
    7    2   29 1     
    8    3    4 1     
    9    3    6 1     
   10    4    5 1     
   11    4   30 1     
   12    4   31 1     
   13    5   32 1     
   14    5   33 1     
   15    5   34 1     
   16    6   24 ar    
   17    6    7 ar    
   18    7    8 ar    
   19    7   35 1     
   20    8    9 ar    
   21    8   36 1     
   22    9   10 1     
   23    9   23 ar    
   24   10   11 am    
   25   10   37 1     
   26   11   12 2     
   27   11   13 am    
   28   13   14 1     
   29   13   38 1     
   30   14   22 1     
   31   14   15 1     
   32   14   39 1     
   33   15   16 1     
   34   15   40 1     
   35   15   41 1     
   36   16   17 1     
   37   16   42 1     
   38   16   43 1     
   39   17   22 1     
   40   17   18 1     
   41   17   54 1     
   42   18   19 1     
   43   18   44 1     
   44   18   45 1     
   45   19   20 1     
   46   19   46 1     
   47   19   47 1     
   48   20   21 1     
   49   20   48 1     
   50   20   49 1     
   51   21   22 1     
   52   21   50 1     
   53   21   51 1     
   54   22   52 1     
   55   23   24 ar    
   56   23   53 1     
   57   24   55 1     
   58   12   56 1     
   59   12   57 1     
@<TRIPOS>SUBSTRUCTURE
      1 S1             1
@<TRIPOS>SET
LONE_PAIRS      STATIC     ATOMS    <user>   **** ""
2 56 57
DONOR_HYDROGENS      STATIC     ATOMS    <user>   **** ""
4 37 38 54 55
ATOM$BLUE        STATIC     ATOMS    COLORGROUP SYSTEM
2 56 57
ATOM$RED        STATIC     ATOMS    COLORGROUP SYSTEM
4 37 38 54 55
