AV-unprocessed.smi:1831|AV-procd|sdf|7456|dock8
  -GOLD-   22720 9143D 1   1.00000     0.00000
 Structure written by MMmdl.
 41 42  0  0  0  0  0  0  0  0  2 V2000
  151.7016  141.0107  157.2662 C   0  0  0  0  0  0  0  0  0  0  0  0
  151.1815  139.9598  156.3458 C   0  0  0  0  0  0  0  0  0  0  0  0
  150.8854  140.2009  155.0622 N   0  0  0  0  0  0  0  0  0  0  0  0
  150.4173  139.0701  154.4061 N   0  0  0  0  0  0  0  0  0  0  0  0
  150.3723  138.0071  155.2142 C   0  0  0  0  0  0  0  0  0  0  0  0
  149.9137  136.7788  154.6757 N   0  0  0  0  0  0  0  0  0  0  0  0
  150.2682  135.5351  155.0373 C   0  0  0  0  0  0  0  0  0  0  0  0
  151.0680  135.2529  155.9293 O   0  0  0  0  0  0  0  0  0  0  0  0
  149.6322  134.6148  154.2974 N   0  0  0  0  0  0  0  0  0  0  0  0
  149.8059  133.1695  154.4105 C   0  0  0  0  0  0  0  0  0  0  0  0
  148.4939  132.4028  154.1530 C   0  0  2  0  0  0  0  0  0  0  0  0
  148.6209  130.8808  154.1190 C   0  0  0  0  0  0  0  0  0  0  0  0
  147.3889  130.4620  153.3259 C   0  0  0  0  0  0  0  0  0  0  0  0
  147.2434  131.4891  152.2708 N   0  3  1  0  0  0  0  0  0  0  0  0
  145.8790  131.6275  151.6871 C   0  0  0  0  0  0  0  0  0  0  0  0
  145.2503  130.2563  151.3732 C   0  0  0  0  0  0  0  0  0  0  0  0
  145.9078  132.4819  150.4053 C   0  0  0  0  0  0  0  0  0  0  0  0
  147.8366  132.7424  152.8048 C   0  0  0  0  0  0  0  0  0  0  0  0
  150.9042  138.3036  156.8694 S   0  0  0  0  0  0  0  0  0  0  0  0
  152.0706  141.8677  156.7017 H   0  0  0  0  0  0  0  0  0  0  0  0
  152.5195  140.6110  157.8657 H   0  0  0  0  0  0  0  0  0  0  0  0
  150.9078  141.3458  157.9340 H   0  0  0  0  0  0  0  0  0  0  0  0
  149.2440  136.8593  153.9247 H   0  0  0  0  0  0  0  0  0  0  0  0
  148.9924  134.9396  153.5869 H   0  0  0  0  0  0  0  0  0  0  0  0
  150.5510  132.8705  153.6726 H   0  0  0  0  0  0  0  0  0  0  0  0
  150.2216  132.9046  155.3844 H   0  0  0  0  0  0  0  0  0  0  0  0
  147.7814  132.6563  154.9401 H   0  0  0  0  0  0  0  0  0  0  0  0
  149.5240  130.5842  153.5832 H   0  0  0  0  0  0  0  0  0  0  0  0
  148.6539  130.4335  155.1131 H   0  0  0  0  0  0  0  0  0  0  0  0
  147.4904  129.4599  152.9079 H   0  0  0  0  0  0  0  0  0  0  0  0
  146.5136  130.4738  153.9778 H   0  0  0  0  0  0  0  0  0  0  0  0
  145.2455  132.1285  152.4208 H   0  0  0  0  0  0  0  0  0  0  0  0
  144.2730  130.3742  150.9039 H   0  0  0  0  0  0  0  0  0  0  0  0
  145.0958  129.6601  152.2726 H   0  0  0  0  0  0  0  0  0  0  0  0
  145.8757  129.6798  150.6908 H   0  0  0  0  0  0  0  0  0  0  0  0
  144.9113  132.5668  149.9708 H   0  0  0  0  0  0  0  0  0  0  0  0
  146.5593  132.0402  149.6503 H   0  0  0  0  0  0  0  0  0  0  0  0
  146.2574  133.4969  150.5925 H   0  0  0  0  0  0  0  0  0  0  0  0
  147.0915  133.5262  152.9466 H   0  0  0  0  0  0  0  0  0  0  0  0
  148.5663  133.1095  152.0821 H   0  0  0  0  0  0  0  0  0  0  0  0
  147.8527  131.1958  151.5205 H   0  0  0  0  0  0  0  0  0  0  0  0
  1  2  1  0  0  0  0
  1 20  1  0  0  0  0
  1 21  1  0  0  0  0
  1 22  1  0  0  0  0
  2 19  1  0  0  0  0
  2  3  2  0  0  0  0
  3  4  1  0  0  0  0
  4  5  2  0  0  0  0
  5  6  1  0  0  0  0
  5 19  1  0  0  0  0
  6  7  1  0  0  0  0
  6 23  1  0  0  0  0
  7  8  2  0  0  0  0
  7  9  1  0  0  0  0
  9 10  1  0  0  0  0
  9 24  1  0  0  0  0
 10 11  1  0  0  0  0
 10 25  1  0  0  0  0
 10 26  1  0  0  0  0
 11 18  1  0  0  0  0
 11 12  1  0  0  0  0
 11 27  1  0  0  0  0
 12 13  1  0  0  0  0
 12 28  1  0  0  0  0
 12 29  1  0  0  0  0
 13 14  1  0  0  0  0
 13 30  1  0  0  0  0
 13 31  1  0  0  0  0
 14 15  1  0  0  0  0
 14 18  1  0  0  0  0
 14 41  1  0  0  0  0
 15 16  1  0  0  0  0
 15 17  1  0  0  0  0
 15 32  1  0  0  0  0
 16 33  1  0  0  0  0
 16 34  1  0  0  0  0
 16 35  1  0  0  0  0
 17 36  1  0  0  0  0
 17 37  1  0  0  0  0
 17 38  1  0  0  0  0
 18 39  1  0  0  0  0
 18 40  1  0  0  0  0
M  CHG  1  14   1
M  END
> <s_m_source_file>
AV-unprocessed.smi

> <i_m_source_file_index>
1831

> <i_lp_mmshare_version>
43012

> <i_f3d_flags>
0

> <s_epik_input>
W0NIM11jMW5uYyhzMSlbTkhdQyg9TylbTkhdW0NIMl1bQ0BASF0yW0NIMl1bQ0gyXU4oW0NIMl0yKVtDSF0oW0NIM10pW0NIM10=

> <s_epik_cmdline>
J2VwaWtfcHl0aG9uJywgJy1waCcsICc3LjAnLCAnLXRuJywgJzgnLCAnLW1hJywgJzIwMCcsICctbWV0YWxfYmluZGluZycsICctaW1hZScsICc8aW5maWxlLm1hZT4nLCAnLW9tYWUnLCAnPG91dGZpbGUubWFlPic=

> <r_lp_tautomer_probability>
1

> <r_epik_Ionization_Penalty>
0.00080807

> <r_epik_Ionization_Penalty_Charging>
0.000218981

> <r_epik_Ionization_Penalty_Neutral>
0.00058909

> <r_epik_State_Penalty>
-0

> <r_epik_Charging_Adjusted_Penalty>
0.000218981

> <i_epik_Tot_Q>
1

> <i_epik_Tot_abs_Q>
1

> <r_epik_Metal_State_Penalty>
0.236062

> <b_epik_Metal_Only>
0

> <s_lp_Force_Field>
OPLS_2005

> <r_lp_Energy>
28.9112

> <b_lp_Chiralities_Consistent>
1

> <s_lp_Variant>
AV-unprocessed.smi:1831-1

> <Gold.Version>
5.8.1

> <Gold.Id.Protein>
6NUR|6NUR_protein|mol2

> <Gold.PLP.Fitness>
43.7662

> <Gold.PLP.PLP>
-31.4075

> <Gold.PLP.part.hbond>
-5.8727

> <Gold.PLP.part.metal>
0.0000

> <Gold.PLP.part.buried>
-4.4718

> <Gold.PLP.part.nonpolar>
-21.1519

> <Gold.PLP.part.repulsive>
0.4158

> <Gold.PLP.ligand.clash>
0.0000

> <Gold.PLP.ligand.torsion>
0.5079

> <Gold.PLP.Chemscore.Hbond>
4.4498

> <Gold.PLP.Chemscore.CHOScore>
0.0000

> <Gold.PLP.Chemscore.Metal>
0.0000

> <Gold.Chemscore.Hbonds>
donor molecule, donor type, donor heavy atom, donor atom, acceptor molecule, acceptor atom, score
      L1  H     6    23       P1  7948  0.54
      L1  H     9    24       P1  7948  0.61
      L1  H    14    41       P1 10747  1.00
      P1  H  7989  7998       L1     3  0.60
      P1  H 10752 10763       L1     8  0.50

> <Gold.PLP.Chemscore.Internal.Correction>
0.0250

> <Gold.Rescore>
     Score         DG    S(hbond)    S(metal)    S(lipo)     H(rot)  DE(clash)    DE(int)     intcor
     17.61     -18.58       2.56        0.00      72.55       1.54       0.51       0.46       ----

> <Gold.Chemscore.Fitness>
17.6086

> <Gold.Chemscore.DG>
-18.5798

> <Gold.Chemscore.ZeroCoef>
-5.4800

> <Gold.Chemscore.Hbond>
2.5608

> <Gold.Chemscore.Metal>
0.0000

> <Gold.Chemscore.Lipo>
72.5460

> <Gold.Chemscore.Internal_Hbond>
0.0000

> <Gold.Chemscore.DEClash>
0.5072

> <Gold.Chemscore.DEInternal>
0.4640

> <Gold.Chemscore.Rot>
1.5396

> <Gold.Chemscore.Internal.Correction>
   9.000000E+99

> <Gold.Chemscore.Hbonds>
donor molecule, donor type, donor heavy atom, donor atom, acceptor molecule, acceptor atom, score
      L1  H     6    23       P1  7948  0.53
      L1  H     9    24       P1  7948  0.21
      L1  H    14    41       P1 10747  1.00
      P1  H  7989  7998       L1     3  0.04
      P1  H 10752 10763       L1     8  0.17

> <Gold.Chemscore.Hbond.Weighted>
-8.5532

> <Gold.Chemscore.Metal.Weighted>
-0.0000

> <Gold.Chemscore.Lipo.Weighted>
-8.4879

> <Gold.Chemscore.Internal_Hbond.Weighted>
0.0000

> <Gold.Chemscore.DEClash.Weighted>
0.5072

> <Gold.Chemscore.DEInternal.Weighted>
0.4640

> <Gold.Chemscore.Rot.Weighted>
3.9413

> <Gold.Chemscore.Internal.Correction.Weighted>
   9.000000E+99

> <Gold.Protein.RotatedTorsions>
[ 6907 6896 6895 6894 ] final -107.53 input  -60.11 | X-H torsion
[ 7974 7965 7964 7962 ] final   41.99 input  175.53 | X-H torsion
[ 8008 7997 7996 7995 ] final  -51.08 input   59.86 | X-H torsion
[ 10167 10162 10161 10158 ] final   23.54 input  -65.29 | X-H torsion
[ 10718 10713 10712 10709 ] final  179.68 input   66.30 | X-H torsion
[ 10763 10752 10751 10750 ] final   77.67 input  -60.55 | X-H torsion
[ 11005 11000 10999 10996 ] final  127.85 input  -57.11 | X-H torsion

> <Gold.Protein.ActiveResidues>
 VAL166  LYS551  ARG553  GLY616  TRP617  ASP618  TYR619  PRO620  LYS621  CYS622 
 ASP623  PHE694  ASN695  SER759  ASP760  ASP761  ALA762  ILE779  LEU786  VAL792 
 PHE793  MET794  SER795  GLU796  ALA797  LYS798  CYS799  TRP800  GLU811  SER814 

> <Gold.Protein.RotatedAtoms>
  150.7449  133.9812  159.3576 H   0  0  0  0  0  0  0  0  0  0  0  0  # atno 6907 bound_to 6896
  151.7753  135.0773  160.0375 H   0  0  0  0  0  0  0  0  0  0  0  0  # atno 6908 bound_to 6896
  152.3311  133.5922  159.5846 H   0  0  0  0  0  0  0  0  0  0  0  0  # atno 6909 bound_to 6896
  146.0778  139.5352  142.9556 H   0  0  0  0  0  0  0  0  0  0  0  0  # atno 7974 bound_to 7965
  154.4075  140.1256  156.4771 H   0  0  0  0  0  0  0  0  0  0  0  0  # atno 8008 bound_to 7997
  155.7122  140.3493  155.4959 H   0  0  0  0  0  0  0  0  0  0  0  0  # atno 8009 bound_to 7997
  155.9290  140.1066  157.1137 H   0  0  0  0  0  0  0  0  0  0  0  0  # atno 8010 bound_to 7997
  140.5260  143.9922  150.6441 H   0  0  0  0  0  0  0  0  0  0  0  0  # atno 10167 bound_to 10162
  156.8721  130.9787  151.3072 H   0  0  0  0  0  0  0  0  0  0  0  0  # atno 10718 bound_to 10713
  153.0816  135.4906  154.8513 H   0  0  0  0  0  0  0  0  0  0  0  0  # atno 10763 bound_to 10752
  154.7157  135.3029  154.9129 H   0  0  0  0  0  0  0  0  0  0  0  0  # atno 10764 bound_to 10752
  153.9809  135.6790  153.4803 H   0  0  0  0  0  0  0  0  0  0  0  0  # atno 10765 bound_to 10752
  139.9529  134.9618  156.8916 H   0  0  0  0  0  0  0  0  0  0  0  0  # atno 11005 bound_to 11000
  145.6274  141.0311  143.1882 LP  0  0  0  0  0  0  0  0  0  0  0  0  # atno 17320 bound_to 7965
  144.7273  139.7835  143.7360 LP  0  0  0  0  0  0  0  0  0  0  0  0  # atno 17321 bound_to 7965
  140.3284  143.3093  152.0713 LP  0  0  0  0  0  0  0  0  0  0  0  0  # atno 17342 bound_to 10162
  139.4938  144.6526  151.6642 LP  0  0  0  0  0  0  0  0  0  0  0  0  # atno 17343 bound_to 10162
  157.6189  130.8640  149.9076 LP  0  0  0  0  0  0  0  0  0  0  0  0  # atno 17370 bound_to 10713
  156.0721  130.3684  150.0754 LP  0  0  0  0  0  0  0  0  0  0  0  0  # atno 17371 bound_to 10713
  140.5676  134.0474  155.7419 LP  0  0  0  0  0  0  0  0  0  0  0  0  # atno 17394 bound_to 11000
  141.1196  133.9484  157.2756 LP  0  0  0  0  0  0  0  0  0  0  0  0  # atno 17395 bound_to 11000

$$$$
