#       Name:                AV-unprocessed.smi:2693
#       Creating user name   scv26
#       Creation time:       Fri Mar 27 14:43:35 2020


#       File generated by GOLD software.
#

@<TRIPOS>MOLECULE
AV-unprocessed.smi:2693
    51    53     1
SMALL
NO_CHARGES


@<TRIPOS>ATOM
      1 ****        -6.7883   1.8855  -0.0760 C.3            1 S1                 0.0000
      2 ****        -6.0616   0.6973  -0.5143 N.pl3          1 S1                 0.0000
      3 ****        -6.8306  -0.3733  -1.1424 C.3            1 S1                 0.0000
      4 ****        -4.6809   0.5834  -0.3277 C.ar           1 S1                 0.0000
      5 ****        -4.0911  -0.5413  -0.7539 N.ar           1 S1                 0.0000
      6 ****        -2.7582  -0.6610  -0.5745 C.ar           1 S1                 0.0000
      7 ****        -1.9977   0.3596   0.0451 C.ar           1 S1                 0.0000
      8 ****        -0.5938   0.3274   0.2610 N.am           1 S1                 0.0000
      9 ****         0.2478  -0.7162   0.1725 C.2            1 S1                 0.0000
     10 ****        -0.0722  -1.8720  -0.1018 O.2            1 S1                 0.0000
     11 ****         1.5065  -0.3398   0.4313 N.am           1 S1                 0.0000
     12 ****         2.6694  -1.2291   0.4192 C.3            1 S1                 0.0000
     13 ****         3.5371  -1.0870  -0.8535 C.3            1 S1                 0.0000
     14 ****         3.0920  -0.3215  -2.0764 C.3            1 S1                 0.0000
     15 ****         3.7463   1.0488  -1.8774 C.3            1 S1                 0.0000
     16 ****         4.0242   1.1220  -0.4805 O.3            1 S1                 0.0000
     17 ****         4.4482  -0.1704  -0.0529 C.3            1 S1                 0.0000
     18 ****         3.8477  -0.6874   1.2710 C.3            1 S1                 0.0000
     19 ****         3.5567   0.3673   2.3475 C.3            1 S1                 0.0000
     20 ****         4.6828  -1.7766   1.9511 C.3            1 S1                 0.0000
     21 ****        -2.7191   1.5022   0.4449 C.ar           1 S1                 0.0000
     22 ****        -4.0516   1.6087   0.2611 N.ar           1 S1                 0.0000
     23 ****        -6.4026   2.7737  -0.5772 H              1 S1                 0.0000
     24 ****        -6.6792   2.0225   1.0002 H              1 S1                 0.0000
     25 ****        -7.8535   1.8168  -0.2959 H              1 S1                 0.0000
     26 ****        -6.4614  -0.5668  -2.1501 H              1 S1                 0.0000
     27 ****        -7.8892  -0.1249  -1.2189 H              1 S1                 0.0000
     28 ****        -6.7457  -1.2930  -0.5626 H              1 S1                 0.0000
     29 ****        -2.3234  -1.5737  -0.9493 H              1 S1                 0.0000
     30 ****        -0.1817   1.2034   0.5479 H              1 S1                 0.0000
     31 ****         1.6814   0.6311   0.6460 H              1 S1                 0.0000
     32 ****         2.4309  -2.2687   0.6519 H              1 S1                 0.0000
     33 ****         4.0370  -2.0287  -1.0856 H              1 S1                 0.0000
     34 ****         3.4340  -0.7880  -3.0006 H              1 S1                 0.0000
     35 ****         2.0077  -0.2375  -2.1400 H              1 S1                 0.0000
     36 ****         4.6862   1.1070  -2.4283 H              1 S1                 0.0000
     37 ****         3.1084   1.8709  -2.2022 H              1 S1                 0.0000
     38 ****         5.5127  -0.3545  -0.2056 H              1 S1                 0.0000
     39 ****         4.4748   0.7285   2.8119 H              1 S1                 0.0000
     40 ****         2.9249  -0.0365   3.1392 H              1 S1                 0.0000
     41 ****         3.0474   1.2419   1.9425 H              1 S1                 0.0000
     42 ****         5.6213  -1.3792   2.3391 H              1 S1                 0.0000
     43 ****         4.9379  -2.5800   1.2593 H              1 S1                 0.0000
     44 ****         4.1461  -2.2294   2.7854 H              1 S1                 0.0000
     45 ****        -2.2260   2.3388   0.9179 H              1 S1                 0.0000
     46 ****        -4.6207  -1.2685  -1.1906 LP             1 S1                 0.0000
     47 ****        -1.0301  -2.0965  -0.2811 LP             1 S1                 0.0000
     48 ****         0.6255  -2.5870  -0.1454 LP             1 S1                 0.0000
     49 ****         3.1995   1.3914   0.0169 LP             1 S1                 0.0000
     50 ****         4.7484   1.7907  -0.3121 LP             1 S1                 0.0000
     51 ****        -4.5514   2.4239   0.5540 LP             1 S1                 0.0000
@<TRIPOS>BOND
    1    1    2 1     
    2    1   23 1     
    3    1   24 1     
    4    1   25 1     
    5    2    3 1     
    6    2    4 1     
    7    3   26 1     
    8    3   27 1     
    9    3   28 1     
   10    4   22 ar    
   11    4    5 ar    
   12    5    6 ar    
   13    6    7 ar    
   14    6   29 1     
   15    7    8 1     
   16    7   21 ar    
   17    8    9 am    
   18    8   30 1     
   19    9   10 2     
   20    9   11 am    
   21   11   12 1     
   22   11   31 1     
   23   12   18 1     
   24   12   13 1     
   25   12   32 1     
   26   13   17 1     
   27   13   14 1     
   28   13   33 1     
   29   14   15 1     
   30   14   34 1     
   31   14   35 1     
   32   15   16 1     
   33   15   36 1     
   34   15   37 1     
   35   16   17 1     
   36   17   18 1     
   37   17   38 1     
   38   18   19 1     
   39   18   20 1     
   40   19   39 1     
   41   19   40 1     
   42   19   41 1     
   43   20   42 1     
   44   20   43 1     
   45   20   44 1     
   46   21   22 ar    
   47   21   45 1     
   48    5   46 1     
   49   10   47 1     
   50   10   48 1     
   51   16   49 1     
   52   16   50 1     
   53   22   51 1     
@<TRIPOS>SUBSTRUCTURE
      1 S1             1
@<TRIPOS>SET
LONE_PAIRS      STATIC     ATOMS    <user>   **** ""
6 46 47 48 49 50 51
DONOR_HYDROGENS      STATIC     ATOMS    <user>   **** ""
2 30 31
ATOM$BLUE        STATIC     ATOMS    COLORGROUP SYSTEM
6 46 47 48 49 50 51
ATOM$RED        STATIC     ATOMS    COLORGROUP SYSTEM
2 30 31
