AV-unprocessed.smi:3222|AV-procd|sdf|12305|dock9
  -GOLD-   2272018153D 1   1.00000     0.00000
 Structure written by MMmdl.
 41 42  0  0  0  0  0  0  0  0  2 V2000
  148.8293  139.8008  157.5549 C   0  0  0  0  0  0  0  0  0  0  0  0
  149.5703  140.7191  156.5656 C   0  0  2  0  0  0  0  0  0  0  0  0
  149.5601  142.0994  157.1012 N   0  3  0  0  0  0  0  0  0  0  0  0
  150.8866  142.6339  157.4698 C   0  0  0  0  0  0  0  0  0  0  0  0
  151.8516  141.4980  157.8431 C   0  0  0  0  0  0  0  0  0  0  0  0
  152.5609  141.7812  159.0878 N   0  0  0  0  0  0  0  0  0  0  0  0
  152.2146  142.9394  159.8944 C   0  0  0  0  0  0  0  0  0  0  0  0
  153.2769  142.9874  161.0023 C   0  0  0  0  0  0  0  0  0  0  0  0
  153.9964  141.6352  160.9518 C   0  0  0  0  0  0  0  0  0  0  0  0
  153.5191  141.0300  159.6428 C   0  0  0  0  0  0  0  0  0  0  0  0
  153.9751  139.9840  159.1837 O   0  0  0  0  0  0  0  0  0  0  0  0
  148.9666  140.6839  155.1348 C   0  0  1  0  0  0  0  0  0  0  0  0
  148.9867  139.2778  154.5052 C   0  0  0  0  0  0  0  0  0  0  0  0
  147.6135  141.2242  155.0977 N   0  0  0  0  0  0  0  0  0  0  0  0
  147.1546  142.3335  154.4172 C   0  0  0  0  0  0  0  0  0  0  0  0
  145.8190  142.4485  154.6769 C   0  0  0  0  0  0  0  0  0  0  0  0
  145.5450  141.3477  155.5355 C   0  0  0  0  0  0  0  0  0  0  0  0
  146.6194  140.6168  155.7849 N   0  0  0  0  0  0  0  0  0  0  0  0
  148.8949  138.7522  157.2644 H   0  0  0  0  0  0  0  0  0  0  0  0
  147.7727  140.0618  157.6235 H   0  0  0  0  0  0  0  0  0  0  0  0
  149.2564  139.8797  158.5551 H   0  0  0  0  0  0  0  0  0  0  0  0
  150.6018  140.3649  156.5172 H   0  0  0  0  0  0  0  0  0  0  0  0
  149.1398  142.7076  156.4131 H   0  0  0  0  0  0  0  0  0  0  0  0
  151.2792  143.2062  156.6284 H   0  0  0  0  0  0  0  0  0  0  0  0
  150.7841  143.3238  158.3082 H   0  0  0  0  0  0  0  0  0  0  0  0
  151.3012  140.5618  157.9471 H   0  0  0  0  0  0  0  0  0  0  0  0
  152.5784  141.3408  157.0443 H   0  0  0  0  0  0  0  0  0  0  0  0
  152.2120  143.8525  159.2977 H   0  0  0  0  0  0  0  0  0  0  0  0
  151.2177  142.8015  160.3152 H   0  0  0  0  0  0  0  0  0  0  0  0
  153.9866  143.7926  160.8079 H   0  0  0  0  0  0  0  0  0  0  0  0
  152.8305  143.1738  161.9797 H   0  0  0  0  0  0  0  0  0  0  0  0
  155.0812  141.7450  160.9670 H   0  0  0  0  0  0  0  0  0  0  0  0
  153.6968  140.9927  161.7803 H   0  0  0  0  0  0  0  0  0  0  0  0
  149.5745  141.3321  154.5014 H   0  0  0  0  0  0  0  0  0  0  0  0
  150.0047  138.9122  154.3726 H   0  0  0  0  0  0  0  0  0  0  0  0
  148.5190  139.2850  153.5201 H   0  0  0  0  0  0  0  0  0  0  0  0
  148.4504  138.5551  155.1212 H   0  0  0  0  0  0  0  0  0  0  0  0
  147.8085  142.9433  153.8112 H   0  0  0  0  0  0  0  0  0  0  0  0
  145.1404  143.2034  154.3084 H   0  0  0  0  0  0  0  0  0  0  0  0
  144.6043  141.0599  155.9813 H   0  0  0  0  0  0  0  0  0  0  0  0
  148.9843  142.1088  157.9309 H   0  0  0  0  0  0  0  0  0  0  0  0
  1  2  1  0  0  0  0
  1 19  1  0  0  0  0
  1 20  1  0  0  0  0
  1 21  1  0  0  0  0
  2  3  1  0  0  0  0
  2 12  1  0  0  0  0
  2 22  1  0  0  0  0
  3  4  1  0  0  0  0
  3 23  1  0  0  0  0
  3 41  1  0  0  0  0
  4  5  1  0  0  0  0
  4 24  1  0  0  0  0
  4 25  1  0  0  0  0
  5  6  1  0  0  0  0
  5 26  1  0  0  0  0
  5 27  1  0  0  0  0
  6 10  1  0  0  0  0
  6  7  1  0  0  0  0
  7  8  1  0  0  0  0
  7 28  1  0  0  0  0
  7 29  1  0  0  0  0
  8  9  1  0  0  0  0
  8 30  1  0  0  0  0
  8 31  1  0  0  0  0
  9 10  1  0  0  0  0
  9 32  1  0  0  0  0
  9 33  1  0  0  0  0
 10 11  2  0  0  0  0
 12 13  1  0  0  0  0
 12 14  1  0  0  0  0
 12 34  1  0  0  0  0
 13 35  1  0  0  0  0
 13 36  1  0  0  0  0
 13 37  1  0  0  0  0
 14 18  1  0  0  0  0
 14 15  1  0  0  0  0
 15 16  2  0  0  0  0
 15 38  1  0  0  0  0
 16 17  1  0  0  0  0
 16 39  1  0  0  0  0
 17 18  2  0  0  0  0
 17 40  1  0  0  0  0
M  CHG  1   3   1
M  END
> <s_m_source_file>
AV-unprocessed.smi

> <i_m_source_file_index>
3222

> <i_lp_mmshare_version>
43012

> <i_f3d_flags>
0

> <s_epik_input>
bjFbY0hdW2NIXVtjSF1uMVtDQEBIXShbQ0gzXSlbQ0BIXShbQ0gzXSlbTkhdW0NIMl1bQ0gyXU4yW0NIMl1bQ0gyXVtDSDJdQzI9Tw==

> <s_epik_cmdline>
J2VwaWtfcHl0aG9uJywgJy1waCcsICc3LjAnLCAnLXRuJywgJzgnLCAnLW1hJywgJzIwMCcsICctbWV0YWxfYmluZGluZycsICctaW1hZScsICc8aW5maWxlLm1hZT4nLCAnLW9tYWUnLCAnPG91dGZpbGUubWFlPic=

> <r_lp_tautomer_probability>
1

> <r_epik_Ionization_Penalty>
0.0064019

> <r_epik_Ionization_Penalty_Charging>
0.00639164

> <r_epik_Ionization_Penalty_Neutral>
1.02567e-05

> <r_epik_State_Penalty>
0.00472531

> <r_epik_Charging_Adjusted_Penalty>
0.011117

> <i_epik_Tot_Q>
1

> <i_epik_Tot_abs_Q>
1

> <r_epik_Metal_State_Penalty>
-0

> <b_epik_Metal_Only>
0

> <s_lp_Force_Field>
OPLS_2005

> <r_lp_Energy>
25.0095

> <b_lp_Chiralities_Consistent>
1

> <s_lp_Variant>
AV-unprocessed.smi:3222-3

> <Gold.Version>
5.8.1

> <Gold.Id.Protein>
6NUR|6NUR_protein|mol2

> <Gold.PLP.Fitness>
43.2882

> <Gold.PLP.PLP>
-36.5112

> <Gold.PLP.part.hbond>
-2.0000

> <Gold.PLP.part.metal>
0.0000

> <Gold.PLP.part.buried>
-0.0295

> <Gold.PLP.part.nonpolar>
-33.8307

> <Gold.PLP.part.repulsive>
0.0757

> <Gold.PLP.ligand.clash>
0.7910

> <Gold.PLP.ligand.torsion>
1.3586

> <Gold.PLP.Chemscore.Hbond>
2.9440

> <Gold.PLP.Chemscore.CHOScore>
0.4537

> <Gold.PLP.Chemscore.Metal>
0.0000

> <Gold.Chemscore.Hbonds>
donor molecule, donor type, donor heavy atom, donor atom, acceptor molecule, acceptor atom, score
      L1  H     3    23       P1  8028  1.28
      P1  H  7997  8009       L1    11  0.76
      L1  C    15    38       P1  8028  0.23

> <Gold.PLP.Chemscore.Internal.Correction>
0.0920

> <Gold.Rescore>
     Score         DG    S(hbond)    S(metal)    S(lipo)     H(rot)  DE(clash)    DE(int)     intcor
     13.02     -16.80       1.93        0.00      85.15       1.99       1.33       2.45       ----

> <Gold.Chemscore.Fitness>
13.0152

> <Gold.Chemscore.DG>
-16.8008

> <Gold.Chemscore.ZeroCoef>
-5.4800

> <Gold.Chemscore.Hbond>
1.9338

> <Gold.Chemscore.Metal>
0.0000

> <Gold.Chemscore.Lipo>
85.1470

> <Gold.Chemscore.Internal_Hbond>
0.0000

> <Gold.Chemscore.DEClash>
1.3311

> <Gold.Chemscore.DEInternal>
2.4545

> <Gold.Chemscore.Rot>
1.9922

> <Gold.Chemscore.Internal.Correction>
   9.000000E+99

> <Gold.Chemscore.Hbonds>
donor molecule, donor type, donor heavy atom, donor atom, acceptor molecule, acceptor atom, score
      L1  H     3    23       P1  8028  0.62
      P1  H  7997  8009       L1    11  0.69

> <Gold.Chemscore.Hbond.Weighted>
-6.4587

> <Gold.Chemscore.Metal.Weighted>
-0.0000

> <Gold.Chemscore.Lipo.Weighted>
-9.9622

> <Gold.Chemscore.Internal_Hbond.Weighted>
0.0000

> <Gold.Chemscore.DEClash.Weighted>
1.3311

> <Gold.Chemscore.DEInternal.Weighted>
2.4545

> <Gold.Chemscore.Rot.Weighted>
5.1002

> <Gold.Chemscore.Internal.Correction.Weighted>
   9.000000E+99

> <Gold.Protein.RotatedTorsions>
[ 6907 6896 6895 6894 ] final  -93.15 input  -60.11 | X-H torsion
[ 7974 7965 7964 7962 ] final  113.25 input  175.53 | X-H torsion
[ 8008 7997 7996 7995 ] final  133.57 input   59.86 | X-H torsion
[ 10167 10162 10161 10158 ] final  -42.96 input  -65.29 | X-H torsion
[ 10718 10713 10712 10709 ] final  -45.46 input   66.30 | X-H torsion
[ 10763 10752 10751 10750 ] final  -75.01 input  -60.55 | X-H torsion
[ 11005 11000 10999 10996 ] final  167.20 input  -57.11 | X-H torsion

> <Gold.Protein.ActiveResidues>
 VAL166  LYS551  ARG553  GLY616  TRP617  ASP618  TYR619  PRO620  LYS621  CYS622 
 ASP623  PHE694  ASN695  SER759  ASP760  ASP761  ALA762  ILE779  LEU786  VAL792 
 PHE793  MET794  SER795  GLU796  ALA797  LYS798  CYS799  TRP800  GLU811  SER814 

> <Gold.Protein.RotatedAtoms>
  150.6918  134.2011  159.4322 H   0  0  0  0  0  0  0  0  0  0  0  0  # atno 6907 bound_to 6896
  151.9977  134.9942  160.0573 H   0  0  0  0  0  0  0  0  0  0  0  0  # atno 6908 bound_to 6896
  152.1608  133.4545  159.4897 H   0  0  0  0  0  0  0  0  0  0  0  0  # atno 6909 bound_to 6896
  145.2193  139.2869  143.4227 H   0  0  0  0  0  0  0  0  0  0  0  0  # atno 7974 bound_to 7965
  156.2993  140.2518  156.3276 H   0  0  0  0  0  0  0  0  0  0  0  0  # atno 8008 bound_to 7997
  154.9176  140.0401  157.1999 H   0  0  0  0  0  0  0  0  0  0  0  0  # atno 8009 bound_to 7997
  154.8343  140.2880  155.5705 H   0  0  0  0  0  0  0  0  0  0  0  0  # atno 8010 bound_to 7997
  140.6951  143.3009  151.3283 H   0  0  0  0  0  0  0  0  0  0  0  0  # atno 10167 bound_to 10162
  156.2281  130.4170  149.8909 H   0  0  0  0  0  0  0  0  0  0  0  0  # atno 10718 bound_to 10713
  154.4808  135.5845  153.6388 H   0  0  0  0  0  0  0  0  0  0  0  0  # atno 10763 bound_to 10752
  152.9847  135.6089  154.3249 H   0  0  0  0  0  0  0  0  0  0  0  0  # atno 10764 bound_to 10752
  154.3140  135.2844  155.2531 H   0  0  0  0  0  0  0  0  0  0  0  0  # atno 10765 bound_to 10752
  140.2744  134.7801  157.3703 H   0  0  0  0  0  0  0  0  0  0  0  0  # atno 11005 bound_to 11000
  146.3379  140.2494  142.8598 LP  0  0  0  0  0  0  0  0  0  0  0  0  # atno 17320 bound_to 7965
  144.9781  140.8433  143.5414 LP  0  0  0  0  0  0  0  0  0  0  0  0  # atno 17321 bound_to 7965
  139.6396  144.0564  152.2544 LP  0  0  0  0  0  0  0  0  0  0  0  0  # atno 17342 bound_to 10162
  140.0065  144.6255  150.7684 LP  0  0  0  0  0  0  0  0  0  0  0  0  # atno 17343 bound_to 10162
  156.6532  130.8752  151.3535 LP  0  0  0  0  0  0  0  0  0  0  0  0  # atno 17370 bound_to 10713
  157.7120  130.9452  150.1122 LP  0  0  0  0  0  0  0  0  0  0  0  0  # atno 17371 bound_to 10713
  140.1343  134.5054  155.8081 LP  0  0  0  0  0  0  0  0  0  0  0  0  # atno 17394 bound_to 11000
  141.2172  133.6801  156.7095 LP  0  0  0  0  0  0  0  0  0  0  0  0  # atno 17395 bound_to 11000

$$$$
