AV-unprocessed.smi:317|AV-procd|sdf|2329|dock8
  -GOLD-   2262022233D 1   1.00000     0.00000
 Structure written by MMmdl.
 40 41  0  0  0  0  0  0  0  0  2 V2000
  150.6201  134.9984  154.8874 C   0  0  0  0  0  0  0  0  0  0  0  0
  149.6894  133.8086  154.5909 C   0  0  1  0  0  0  0  0  0  0  0  0
  149.0073  133.2353  155.8473 C   0  0  0  0  0  0  0  0  0  0  0  0
  149.9252  133.0714  156.9097 O   0  0  0  0  0  0  0  0  0  0  0  0
  148.6812  134.1535  153.5915 N   0  0  0  0  0  0  0  0  0  0  0  0
  147.7458  133.3240  153.1082 C   0  0  0  0  0  0  0  0  0  0  0  0
  147.6263  132.1506  153.4598 O   0  0  0  0  0  0  0  0  0  0  0  0
  146.9843  133.9380  152.1871 N   0  0  0  0  0  0  0  0  0  0  0  0
  145.9210  133.3920  151.4123 C   0  0  0  0  0  0  0  0  0  0  0  0
  145.9611  132.0564  150.9346 C   0  0  0  0  0  0  0  0  0  0  0  0
  144.9022  131.5566  150.1534 C   0  0  0  0  0  0  0  0  0  0  0  0
  143.8145  132.3979  149.8639 C   0  0  0  0  0  0  0  0  0  0  0  0
  143.7957  133.6563  150.3490 N   0  3  0  0  0  0  0  0  0  0  0  0
  144.7774  134.1904  151.1182 C   0  0  0  0  0  0  0  0  0  0  0  0
  144.6143  135.5204  151.5681 N   0  0  0  0  0  0  0  0  0  0  0  0
  144.0764  135.7890  152.8966 C   0  0  0  0  0  0  0  0  0  0  0  0
  144.3761  137.2631  153.1524 C   0  0  0  0  0  0  0  0  0  0  0  0
  145.7236  137.4481  152.4609 C   0  0  0  0  0  0  0  0  0  0  0  0
  145.6509  136.5001  151.2585 C   0  0  0  0  0  0  0  0  0  0  0  0
  151.3663  134.7325  155.6365 H   0  0  0  0  0  0  0  0  0  0  0  0
  150.0662  135.8605  155.2601 H   0  0  0  0  0  0  0  0  0  0  0  0
  151.1556  135.3137  153.9914 H   0  0  0  0  0  0  0  0  0  0  0  0
  150.3023  133.0046  154.1791 H   0  0  0  0  0  0  0  0  0  0  0  0
  148.1878  133.8771  156.1724 H   0  0  0  0  0  0  0  0  0  0  0  0
  148.5742  132.2602  155.6219 H   0  0  0  0  0  0  0  0  0  0  0  0
  149.9656  133.8791  157.3991 H   0  0  0  0  0  0  0  0  0  0  0  0
  148.7093  135.0990  153.2387 H   0  0  0  0  0  0  0  0  0  0  0  0
  147.2655  134.8750  151.9387 H   0  0  0  0  0  0  0  0  0  0  0  0
  146.7878  131.4000  151.1601 H   0  0  0  0  0  0  0  0  0  0  0  0
  144.9261  130.5427  149.7813 H   0  0  0  0  0  0  0  0  0  0  0  0
  142.9606  132.1029  149.2714 H   0  0  0  0  0  0  0  0  0  0  0  0
  143.0075  135.5789  152.9445 H   0  0  0  0  0  0  0  0  0  0  0  0
  144.5821  135.1777  153.6452 H   0  0  0  0  0  0  0  0  0  0  0  0
  143.6215  137.8874  152.6716 H   0  0  0  0  0  0  0  0  0  0  0  0
  144.4005  137.5148  154.2131 H   0  0  0  0  0  0  0  0  0  0  0  0
  145.9165  138.4822  152.1738 H   0  0  0  0  0  0  0  0  0  0  0  0
  146.5239  137.1311  153.1313 H   0  0  0  0  0  0  0  0  0  0  0  0
  146.6164  136.0296  151.0664 H   0  0  0  0  0  0  0  0  0  0  0  0
  145.3580  137.0541  150.3661 H   0  0  0  0  0  0  0  0  0  0  0  0
  142.9875  134.2391  150.1302 H   0  0  0  0  0  0  0  0  0  0  0  0
  1  2  1  0  0  0  0
  1 20  1  0  0  0  0
  1 21  1  0  0  0  0
  1 22  1  0  0  0  0
  2  3  1  0  0  0  0
  2  5  1  0  0  0  0
  2 23  1  0  0  0  0
  3  4  1  0  0  0  0
  3 24  1  0  0  0  0
  3 25  1  0  0  0  0
  4 26  1  0  0  0  0
  5  6  1  0  0  0  0
  5 27  1  0  0  0  0
  6  7  2  0  0  0  0
  6  8  1  0  0  0  0
  8  9  1  0  0  0  0
  8 28  1  0  0  0  0
  9 14  1  0  0  0  0
  9 10  2  0  0  0  0
 10 11  1  0  0  0  0
 10 29  1  0  0  0  0
 11 12  2  0  0  0  0
 11 30  1  0  0  0  0
 12 13  1  0  0  0  0
 12 31  1  0  0  0  0
 13 14  2  0  0  0  0
 13 40  1  0  0  0  0
 14 15  1  0  0  0  0
 15 19  1  0  0  0  0
 15 16  1  0  0  0  0
 16 17  1  0  0  0  0
 16 32  1  0  0  0  0
 16 33  1  0  0  0  0
 17 18  1  0  0  0  0
 17 34  1  0  0  0  0
 17 35  1  0  0  0  0
 18 19  1  0  0  0  0
 18 36  1  0  0  0  0
 18 37  1  0  0  0  0
 19 38  1  0  0  0  0
 19 39  1  0  0  0  0
M  CHG  1  13   1
M  END
> <s_m_source_file>
AV-unprocessed.smi

> <i_m_source_file_index>
317

> <i_lp_mmshare_version>
43012

> <i_f3d_flags>
0

> <s_epik_input>
W09IXVtDSDJdW0NAQEhdKFtDSDNdKVtOSF1DKD1PKVtOSF1jMVtjSF1bY0hdW2NIXW5jMU4yW0NIMl1bQ0gyXVtDSDJdW0NIMl0y

> <s_epik_cmdline>
J2VwaWtfcHl0aG9uJywgJy1waCcsICc3LjAnLCAnLXRuJywgJzgnLCAnLW1hJywgJzIwMCcsICctbWV0YWxfYmluZGluZycsICctaW1hZScsICc8aW5maWxlLm1hZT4nLCAnLW9tYWUnLCAnPG91dGZpbGUubWFlPic=

> <r_lp_tautomer_probability>
0.999994

> <r_epik_Ionization_Penalty>
1.11558

> <r_epik_Ionization_Penalty_Charging>
1.11556

> <r_epik_Ionization_Penalty_Neutral>
2.02999e-05

> <r_epik_State_Penalty>
1.17393

> <r_epik_Charging_Adjusted_Penalty>
2.28949

> <i_epik_Tot_Q>
1

> <i_epik_Tot_abs_Q>
1

> <r_epik_Metal_State_Penalty>
1.25924

> <b_epik_Metal_Only>
0

> <s_lp_Force_Field>
OPLS_2005

> <r_lp_Energy>
42.0309

> <b_lp_Chiralities_Consistent>
1

> <s_lp_Variant>
AV-unprocessed.smi:317-4

> <Gold.Version>
5.8.1

> <Gold.Id.Protein>
6NUR|6NUR_protein|mol2

> <Gold.PLP.Fitness>
39.5349

> <Gold.PLP.PLP>
-29.9218

> <Gold.PLP.part.hbond>
-3.0000

> <Gold.PLP.part.metal>
0.0000

> <Gold.PLP.part.buried>
-2.8746

> <Gold.PLP.part.nonpolar>
-25.8666

> <Gold.PLP.part.repulsive>
0.3038

> <Gold.PLP.ligand.clash>
0.0000

> <Gold.PLP.ligand.torsion>
0.7083

> <Gold.PLP.Chemscore.Hbond>
3.5444

> <Gold.PLP.Chemscore.CHOScore>
0.0000

> <Gold.PLP.Chemscore.Metal>
0.0000

> <Gold.Chemscore.Hbonds>
donor molecule, donor type, donor heavy atom, donor atom, acceptor molecule, acceptor atom, score
      L1  H     5    27       P1  7948  0.96
      L1  H     8    28       P1  7948  0.66
      L1  H    13    40       P1 10186  1.82

> <Gold.PLP.Chemscore.Internal.Correction>
0.3966

> <Gold.Rescore>
     Score         DG    S(hbond)    S(metal)    S(lipo)     H(rot)  DE(clash)    DE(int)     intcor
     13.51     -15.64       2.18        0.00      70.74       2.11       0.57       1.56       ----

> <Gold.Chemscore.Fitness>
13.5099

> <Gold.Chemscore.DG>
-15.6430

> <Gold.Chemscore.ZeroCoef>
-5.4800

> <Gold.Chemscore.Hbond>
2.1822

> <Gold.Chemscore.Metal>
0.0000

> <Gold.Chemscore.Lipo>
70.7355

> <Gold.Chemscore.Internal_Hbond>
0.0000

> <Gold.Chemscore.DEClash>
0.5696

> <Gold.Chemscore.DEInternal>
1.5635

> <Gold.Chemscore.Rot>
2.1099

> <Gold.Chemscore.Internal.Correction>
   9.000000E+99

> <Gold.Chemscore.Hbonds>
donor molecule, donor type, donor heavy atom, donor atom, acceptor molecule, acceptor atom, score
      L1  H     5    27       P1  7948  0.60
      L1  H     8    28       P1  7948  0.59
      L1  H    13    40       P1 10186  0.78

> <Gold.Chemscore.Hbond.Weighted>
-7.2884

> <Gold.Chemscore.Metal.Weighted>
-0.0000

> <Gold.Chemscore.Lipo.Weighted>
-8.2761

> <Gold.Chemscore.Internal_Hbond.Weighted>
0.0000

> <Gold.Chemscore.DEClash.Weighted>
0.5696

> <Gold.Chemscore.DEInternal.Weighted>
1.5635

> <Gold.Chemscore.Rot.Weighted>
5.4015

> <Gold.Chemscore.Internal.Correction.Weighted>
   9.000000E+99

> <Gold.Protein.RotatedTorsions>
[ 6907 6896 6895 6894 ] final   -9.77 input  -60.11 | X-H torsion
[ 7974 7965 7964 7962 ] final   36.96 input  175.53 | X-H torsion
[ 8008 7997 7996 7995 ] final  173.35 input   59.86 | X-H torsion
[ 10167 10162 10161 10158 ] final  -30.35 input  -65.29 | X-H torsion
[ 10718 10713 10712 10709 ] final   99.59 input   66.30 | X-H torsion
[ 10763 10752 10751 10750 ] final  -65.22 input  -60.55 | X-H torsion
[ 11005 11000 10999 10996 ] final   30.00 input  -57.11 | X-H torsion

> <Gold.Protein.ActiveResidues>
 VAL166  LYS551  ARG553  GLY616  TRP617  ASP618  TYR619  PRO620  LYS621  CYS622 
 ASP623  PHE694  ASN695  SER759  ASP760  ASP761  ALA762  ILE779  LEU786  VAL792 
 PHE793  MET794  SER795  GLU796  ALA797  LYS798  CYS799  TRP800  GLU811  SER814 

> <Gold.Protein.RotatedAtoms>
  151.4125  135.0987  159.9589 H   0  0  0  0  0  0  0  0  0  0  0  0  # atno 6907 bound_to 6896
  152.5015  133.8784  159.7344 H   0  0  0  0  0  0  0  0  0  0  0  0  # atno 6908 bound_to 6896
  150.9282  133.6742  159.2845 H   0  0  0  0  0  0  0  0  0  0  0  0  # atno 6909 bound_to 6896
  146.1173  139.5953  142.9313 H   0  0  0  0  0  0  0  0  0  0  0  0  # atno 7974 bound_to 7965
  156.1084  140.1462  156.9373 H   0  0  0  0  0  0  0  0  0  0  0  0  # atno 8008 bound_to 7997
  154.4749  140.0897  156.7282 H   0  0  0  0  0  0  0  0  0  0  0  0  # atno 8009 bound_to 7997
  155.4640  140.3439  155.4319 H   0  0  0  0  0  0  0  0  0  0  0  0  # atno 8010 bound_to 7997
  140.7250  143.3856  151.1522 H   0  0  0  0  0  0  0  0  0  0  0  0  # atno 10167 bound_to 10162
  157.6873  131.0674  150.4971 H   0  0  0  0  0  0  0  0  0  0  0  0  # atno 10718 bound_to 10713
  154.3418  135.6155  153.5600 H   0  0  0  0  0  0  0  0  0  0  0  0  # atno 10763 bound_to 10752
  152.9803  135.5771  154.4844 H   0  0  0  0  0  0  0  0  0  0  0  0  # atno 10764 bound_to 10752
  154.4549  135.2854  155.1732 H   0  0  0  0  0  0  0  0  0  0  0  0  # atno 10765 bound_to 10752
  140.2990  134.2778  155.7758 H   0  0  0  0  0  0  0  0  0  0  0  0  # atno 11005 bound_to 11000
  145.5540  141.0411  143.2263 LP  0  0  0  0  0  0  0  0  0  0  0  0  # atno 17320 bound_to 7965
  144.7564  139.7063  143.7252 LP  0  0  0  0  0  0  0  0  0  0  0  0  # atno 17321 bound_to 7965
  139.7452  143.8863  152.3061 LP  0  0  0  0  0  0  0  0  0  0  0  0  # atno 17342 bound_to 10162
  139.8698  144.7074  150.9001 LP  0  0  0  0  0  0  0  0  0  0  0  0  # atno 17343 bound_to 10162
  156.5295  130.4181  149.6209 LP  0  0  0  0  0  0  0  0  0  0  0  0  # atno 17370 bound_to 10713
  156.3082  130.7214  151.2101 LP  0  0  0  0  0  0  0  0  0  0  0  0  # atno 17371 bound_to 10713
  141.2132  133.7634  156.9738 LP  0  0  0  0  0  0  0  0  0  0  0  0  # atno 17394 bound_to 11000
  140.1126  134.9467  157.2088 LP  0  0  0  0  0  0  0  0  0  0  0  0  # atno 17395 bound_to 11000

$$$$
