AV-unprocessed.smi:1248|AV-procd|sdf|5251|dock1
  -GOLD-   22720 4363D 1   1.00000     0.00000
 Structure written by MMmdl.
 44 46  0  0  0  0  0  0  0  0  2 V2000
  138.5470  140.0693  153.7708 C   0  0  0  0  0  0  0  0  0  0  0  0
  139.4335  139.4494  154.8572 C   0  0  0  0  0  0  0  0  0  0  0  0
  140.3437  138.4630  154.3088 N   0  0  0  0  0  0  0  0  0  0  0  0
  141.3252  138.6434  153.3543 C   0  0  0  0  0  0  0  0  0  0  0  0
  141.9032  137.4220  153.1801 C   0  0  0  0  0  0  0  0  0  0  0  0
  142.9632  137.1494  152.2796 N   0  0  0  0  0  0  0  0  0  0  0  0
  143.6390  135.9970  152.1462 C   0  0  0  0  0  0  0  0  0  0  0  0
  143.4501  134.9827  152.8176 O   0  0  0  0  0  0  0  0  0  0  0  0
  144.5599  136.0805  151.1751 N   0  0  0  0  0  0  0  0  0  0  0  0
  145.4589  135.0015  150.7751 C   0  0  2  0  0  0  0  0  0  0  0  0
  144.6397  133.7865  150.3071 C   0  0  0  0  0  0  0  0  0  0  0  0
  145.5525  132.5921  149.9679 C   0  0  0  0  0  0  0  0  0  0  0  0
  146.4428  132.2288  151.1003 N   0  3  2  0  0  0  0  0  0  0  0  0
  145.7379  131.5282  152.1996 C   0  0  0  0  0  0  0  0  0  0  0  0
  146.6333  130.6275  153.0182 C   0  0  0  0  0  0  0  0  0  0  0  0
  145.6701  130.0299  152.0168 C   0  0  0  0  0  0  0  0  0  0  0  0
  147.2552  133.3828  151.5630 C   0  0  0  0  0  0  0  0  0  0  0  0
  146.3807  134.5929  151.9403 C   0  0  0  0  0  0  0  0  0  0  0  0
  141.2230  136.5403  154.0671 C   0  0  0  0  0  0  0  0  0  0  0  0
  140.2827  137.1809  154.7453 N   0  0  0  0  0  0  0  0  0  0  0  0
  137.8698  140.8087  154.1982 H   0  0  0  0  0  0  0  0  0  0  0  0
  137.9411  139.3091  153.2773 H   0  0  0  0  0  0  0  0  0  0  0  0
  139.1465  140.5684  153.0087 H   0  0  0  0  0  0  0  0  0  0  0  0
  140.0143  140.2236  155.3606 H   0  0  0  0  0  0  0  0  0  0  0  0
  138.8173  138.9701  155.6188 H   0  0  0  0  0  0  0  0  0  0  0  0
  141.5196  139.6013  152.8950 H   0  0  0  0  0  0  0  0  0  0  0  0
  143.2248  137.9069  151.6658 H   0  0  0  0  0  0  0  0  0  0  0  0
  144.6459  136.9548  150.6776 H   0  0  0  0  0  0  0  0  0  0  0  0
  146.0725  135.3424  149.9388 H   0  0  0  0  0  0  0  0  0  0  0  0
  143.9256  133.4972  151.0792 H   0  0  0  0  0  0  0  0  0  0  0  0
  144.0475  134.0527  149.4308 H   0  0  0  0  0  0  0  0  0  0  0  0
  144.9558  131.7285  149.6724 H   0  0  0  0  0  0  0  0  0  0  0  0
  146.1752  132.8433  149.1082 H   0  0  0  0  0  0  0  0  0  0  0  0
  144.9172  132.0607  152.6763 H   0  0  0  0  0  0  0  0  0  0  0  0
  147.6939  130.5948  152.7757 H   0  0  0  0  0  0  0  0  0  0  0  0
  146.3937  130.5075  154.0729 H   0  0  0  0  0  0  0  0  0  0  0  0
  144.7971  129.5146  152.4122 H   0  0  0  0  0  0  0  0  0  0  0  0
  146.0926  129.6001  151.1103 H   0  0  0  0  0  0  0  0  0  0  0  0
  147.8784  133.0859  152.4073 H   0  0  0  0  0  0  0  0  0  0  0  0
  147.9394  133.6648  150.7618 H   0  0  0  0  0  0  0  0  0  0  0  0
  147.0234  135.4278  152.2221 H   0  0  0  0  0  0  0  0  0  0  0  0
  145.7847  134.3579  152.8230 H   0  0  0  0  0  0  0  0  0  0  0  0
  141.3672  135.4851  154.2441 H   0  0  0  0  0  0  0  0  0  0  0  0
  147.0992  131.5541  150.7341 H   0  0  0  0  0  0  0  0  0  0  0  0
  1  2  1  0  0  0  0
  1 21  1  0  0  0  0
  1 22  1  0  0  0  0
  1 23  1  0  0  0  0
  2  3  1  0  0  0  0
  2 24  1  0  0  0  0
  2 25  1  0  0  0  0
  3 20  1  0  0  0  0
  3  4  1  0  0  0  0
  4  5  2  0  0  0  0
  4 26  1  0  0  0  0
  5  6  1  0  0  0  0
  5 19  1  0  0  0  0
  6  7  1  0  0  0  0
  6 27  1  0  0  0  0
  7  8  2  0  0  0  0
  7  9  1  0  0  0  0
  9 10  1  0  0  0  0
  9 28  1  0  0  0  0
 10 18  1  0  0  0  0
 10 11  1  0  0  0  0
 10 29  1  0  0  0  0
 11 12  1  0  0  0  0
 11 30  1  0  0  0  0
 11 31  1  0  0  0  0
 12 13  1  0  0  0  0
 12 32  1  0  0  0  0
 12 33  1  0  0  0  0
 13 14  1  0  0  0  0
 13 17  1  0  0  0  0
 13 44  1  0  0  0  0
 14 16  1  0  0  0  0
 14 15  1  0  0  0  0
 14 34  1  0  0  0  0
 15 16  1  0  0  0  0
 15 35  1  0  0  0  0
 15 36  1  0  0  0  0
 16 37  1  0  0  0  0
 16 38  1  0  0  0  0
 17 18  1  0  0  0  0
 17 39  1  0  0  0  0
 17 40  1  0  0  0  0
 18 41  1  0  0  0  0
 18 42  1  0  0  0  0
 19 20  2  0  0  0  0
 19 43  1  0  0  0  0
M  CHG  1  13   1
M  END
> <s_m_source_file>
AV-unprocessed.smi

> <i_m_source_file_index>
1248

> <i_lp_mmshare_version>
43012

> <i_f3d_flags>
0

> <s_epik_input>
W0NIM11bQ0gyXW4xW2NIXWMoW2NIXW4xKVtOSF1DKD1PKVtOSF1bQ0hdMltDSDJdW0NIMl1OKFtDSDJdW0NIMl0yKVtDSF0zW0NIMl1bQ0gyXTM=

> <s_epik_cmdline>
J2VwaWtfcHl0aG9uJywgJy1waCcsICc3LjAnLCAnLXRuJywgJzgnLCAnLW1hJywgJzIwMCcsICctbWV0YWxfYmluZGluZycsICctaW1hZScsICc8aW5maWxlLm1hZT4nLCAnLW9tYWUnLCAnPG91dGZpbGUubWFlPic=

> <r_lp_tautomer_probability>
1

> <r_epik_Ionization_Penalty>
0.115699

> <r_epik_Ionization_Penalty_Charging>
0.115549

> <r_epik_Ionization_Penalty_Neutral>
0.00014958

> <r_epik_State_Penalty>
0.105184

> <r_epik_Charging_Adjusted_Penalty>
0.220733

> <i_epik_Tot_Q>
1

> <i_epik_Tot_abs_Q>
1

> <r_epik_Metal_State_Penalty>
0.105189

> <b_epik_Metal_Only>
0

> <s_lp_Force_Field>
OPLS_2005

> <r_lp_Energy>
31.7182

> <b_lp_Chiralities_Consistent>
1

> <s_lp_Variant>
AV-unprocessed.smi:1248-2

> <Gold.Version>
5.8.1

> <Gold.Id.Protein>
6NUR|6NUR_protein|mol2

> <Gold.PLP.Fitness>
47.4263

> <Gold.PLP.PLP>
-32.9170

> <Gold.PLP.part.hbond>
-3.0000

> <Gold.PLP.part.metal>
0.0000

> <Gold.PLP.part.buried>
-0.6569

> <Gold.PLP.part.nonpolar>
-27.4754

> <Gold.PLP.part.repulsive>
0.3185

> <Gold.PLP.ligand.clash>
0.0000

> <Gold.PLP.ligand.torsion>
0.6460

> <Gold.PLP.Chemscore.Hbond>
2.9013

> <Gold.PLP.Chemscore.CHOScore>
1.9412

> <Gold.PLP.Chemscore.Metal>
0.0000

> <Gold.Chemscore.Hbonds>
donor molecule, donor type, donor heavy atom, donor atom, acceptor molecule, acceptor atom, score
      L1  H     6    27       P1 10171  0.94
      L1  H     9    28       P1 10171  1.00
      L1  H    13    44       P1 10747  0.94
      L1  C     4    26       P1 10160  0.95
      L1  C     4    26       P1 10175  0.92

> <Gold.PLP.Chemscore.Internal.Correction>
1.2738

> <Gold.Rescore>
     Score         DG    S(hbond)    S(metal)    S(lipo)     H(rot)  DE(clash)    DE(int)     intcor
     16.41     -19.57       2.40        0.00      81.32       1.34       0.33       2.83       ----

> <Gold.Chemscore.Fitness>
16.4109

> <Gold.Chemscore.DG>
-19.5682

> <Gold.Chemscore.ZeroCoef>
-5.4800

> <Gold.Chemscore.Hbond>
2.3994

> <Gold.Chemscore.Metal>
0.0000

> <Gold.Chemscore.Lipo>
81.3180

> <Gold.Chemscore.Internal_Hbond>
0.0000

> <Gold.Chemscore.DEClash>
0.3268

> <Gold.Chemscore.DEInternal>
2.8305

> <Gold.Chemscore.Rot>
1.3438

> <Gold.Chemscore.Internal.Correction>
   9.000000E+99

> <Gold.Chemscore.Hbonds>
donor molecule, donor type, donor heavy atom, donor atom, acceptor molecule, acceptor atom, score
      L1  H     6    27       P1 10171  0.60
      L1  H     9    28       P1 10171  0.92
      L1  H    13    44       P1 10747  0.88

> <Gold.Chemscore.Hbond.Weighted>
-8.0141

> <Gold.Chemscore.Metal.Weighted>
-0.0000

> <Gold.Chemscore.Lipo.Weighted>
-9.5142

> <Gold.Chemscore.Internal_Hbond.Weighted>
0.0000

> <Gold.Chemscore.DEClash.Weighted>
0.3268

> <Gold.Chemscore.DEInternal.Weighted>
2.8305

> <Gold.Chemscore.Rot.Weighted>
3.4401

> <Gold.Chemscore.Internal.Correction.Weighted>
   9.000000E+99

> <Gold.Protein.RotatedTorsions>
[ 6907 6896 6895 6894 ] final  -10.17 input  -60.11 | X-H torsion
[ 7974 7965 7964 7962 ] final   12.19 input  175.53 | X-H torsion
[ 8008 7997 7996 7995 ] final  138.46 input   59.86 | X-H torsion
[ 10167 10162 10161 10158 ] final  146.13 input  -65.29 | X-H torsion
[ 10718 10713 10712 10709 ] final   30.28 input   66.30 | X-H torsion
[ 10763 10752 10751 10750 ] final -145.82 input  -60.55 | X-H torsion
[ 11005 11000 10999 10996 ] final   75.70 input  -57.11 | X-H torsion

> <Gold.Protein.ActiveResidues>
 VAL166  LYS551  ARG553  GLY616  TRP617  ASP618  TYR619  PRO620  LYS621  CYS622 
 ASP623  PHE694  ASN695  SER759  ASP760  ASP761  ALA762  ILE779  LEU786  VAL792 
 PHE793  MET794  SER795  GLU796  ALA797  LYS798  CYS799  TRP800  GLU811  SER814 

> <Gold.Protein.RotatedAtoms>
  151.4061  135.0978  159.9570 H   0  0  0  0  0  0  0  0  0  0  0  0  # atno 6907 bound_to 6896
  152.5035  133.8842  159.7372 H   0  0  0  0  0  0  0  0  0  0  0  0  # atno 6908 bound_to 6896
  150.9326  133.6692  159.2836 H   0  0  0  0  0  0  0  0  0  0  0  0  # atno 6909 bound_to 6896
  146.2356  139.9373  142.8488 H   0  0  0  0  0  0  0  0  0  0  0  0  # atno 7974 bound_to 7965
  156.2997  140.2393  156.4076 H   0  0  0  0  0  0  0  0  0  0  0  0  # atno 8008 bound_to 7997
  154.8470  140.0426  157.1599 H   0  0  0  0  0  0  0  0  0  0  0  0  # atno 8009 bound_to 7997
  154.9040  140.2981  155.5306 H   0  0  0  0  0  0  0  0  0  0  0  0  # atno 8010 bound_to 7997
  139.4913  144.5852  151.6793 H   0  0  0  0  0  0  0  0  0  0  0  0  # atno 10167 bound_to 10162
  157.2575  130.7145  149.6437 H   0  0  0  0  0  0  0  0  0  0  0  0  # atno 10718 bound_to 10713
  154.8365  135.3403  154.6564 H   0  0  0  0  0  0  0  0  0  0  0  0  # atno 10763 bound_to 10752
  153.7179  135.6960  153.5025 H   0  0  0  0  0  0  0  0  0  0  0  0  # atno 10764 bound_to 10752
  153.2403  135.4387  155.0644 H   0  0  0  0  0  0  0  0  0  0  0  0  # atno 10765 bound_to 10752
  139.9332  134.7539  156.1303 H   0  0  0  0  0  0  0  0  0  0  0  0  # atno 11005 bound_to 11000
  145.1986  140.9844  143.4169 LP  0  0  0  0  0  0  0  0  0  0  0  0  # atno 17320 bound_to 7965
  144.9793  139.3799  143.6270 LP  0  0  0  0  0  0  0  0  0  0  0  0  # atno 17321 bound_to 7965
  140.5466  144.0493  150.6110 LP  0  0  0  0  0  0  0  0  0  0  0  0  # atno 17342 bound_to 10162
  140.3533  143.2950  152.0464 LP  0  0  0  0  0  0  0  0  0  0  0  0  # atno 17343 bound_to 10162
  155.9664  130.4408  150.5314 LP  0  0  0  0  0  0  0  0  0  0  0  0  # atno 17370 bound_to 10713
  157.3211  131.0682  151.1931 LP  0  0  0  0  0  0  0  0  0  0  0  0  # atno 17371 bound_to 10713
  141.0932  133.6706  156.2586 LP  0  0  0  0  0  0  0  0  0  0  0  0  # atno 17394 bound_to 11000
  140.6146  134.5423  157.5539 LP  0  0  0  0  0  0  0  0  0  0  0  0  # atno 17395 bound_to 11000

$$$$
