#       Name:                AV-unprocessed.smi:2786
#       Creating user name   scv26
#       Creation time:       Fri Mar 27 15:18:27 2020


#       File generated by GOLD software.
#

@<TRIPOS>MOLECULE
AV-unprocessed.smi:2786
    29    30     1
SMALL
NO_CHARGES


@<TRIPOS>ATOM
      1 ****        -1.2691   2.1971   1.4651 C.3            1 S1                 0.0000
      2 ****        -0.1045   2.2623   0.6034 N.pl3          1 S1                 0.0000
      3 ****         0.6959   3.3792   0.4027 C.2            1 S1                 0.0000
      4 ****         1.6846   3.0035  -0.4739 C.2            1 S1                 0.0000
      5 ****         1.5094   1.6684  -0.8206 N.2            1 S1                 0.0000
      6 ****         0.4229   1.2817  -0.1558 C.2            1 S1                 0.0000
      7 ****        -0.1450  -0.1073  -0.2126 C.3            1 S1                 0.0000
      8 ****         0.6644  -1.0821   0.6713 C.3            1 S1                 0.0000
      9 ****         0.0630  -2.4314   0.6349 N.4            1 S1                 1.0000
     10 ****        -0.0672  -2.9209  -0.7523 C.3            1 S1                 0.0000
     11 ****        -0.8636  -1.9071  -1.5941 C.3            1 S1                 0.0000
     12 ****        -0.1798  -0.6176  -1.5836 N.3            1 S1                 0.0000
     13 ****        -1.3825   3.1318   2.0153 H              1 S1                 0.0000
     14 ****        -1.1572   1.3808   2.1792 H              1 S1                 0.0000
     15 ****        -2.1635   2.0316   0.8641 H              1 S1                 0.0000
     16 ****         0.5025   4.3244   0.8886 H              1 S1                 0.0000
     17 ****         2.5010   3.5843  -0.8771 H              1 S1                 0.0000
     18 ****        -1.1736  -0.0671   0.1473 H              1 S1                 0.0000
     19 ****         1.7021  -1.1375   0.3379 H              1 S1                 0.0000
     20 ****         0.6796  -0.7351   1.7049 H              1 S1                 0.0000
     21 ****         0.6344  -3.0714   1.1676 H              1 S1                 0.0000
     22 ****         0.9248  -3.0805  -1.1780 H              1 S1                 0.0000
     23 ****        -0.5715  -3.8873  -0.7436 H              1 S1                 0.0000
     24 ****        -0.9384  -2.2560  -2.6243 H              1 S1                 0.0000
     25 ****        -1.8823  -1.7967  -1.2191 H              1 S1                 0.0000
     26 ****         0.7707  -0.7620  -1.8950 H              1 S1                 0.0000
     27 ****        -0.8573  -2.3858   1.0481 H              1 S1                 0.0000
     28 ****         2.0757   1.1190  -1.4349 LP             1 S1                 0.0000
     29 ****        -0.6544   0.0310  -2.1786 LP             1 S1                 0.0000
@<TRIPOS>BOND
    1    1    2 1     
    2    1   13 1     
    3    1   14 1     
    4    1   15 1     
    5    2    6 1     
    6    2    3 1     
    7    3    4 2     
    8    3   16 1     
    9    4    5 1     
   10    4   17 1     
   11    5    6 2     
   12    6    7 1     
   13    7   12 1     
   14    7    8 1     
   15    7   18 1     
   16    8    9 1     
   17    8   19 1     
   18    8   20 1     
   19    9   10 1     
   20    9   21 1     
   21    9   27 1     
   22   10   11 1     
   23   10   22 1     
   24   10   23 1     
   25   11   12 1     
   26   11   24 1     
   27   11   25 1     
   28   12   26 1     
   29    5   28 1     
   30   12   29 1     
@<TRIPOS>SUBSTRUCTURE
      1 S1             1
@<TRIPOS>SET
LONE_PAIRS      STATIC     ATOMS    <user>   **** ""
2 28 29
DONOR_HYDROGENS      STATIC     ATOMS    <user>   **** ""
3 21 27 26
ATOM$BLUE        STATIC     ATOMS    COLORGROUP SYSTEM
2 28 29
ATOM$RED        STATIC     ATOMS    COLORGROUP SYSTEM
3 21 27 26
