AV-unprocessed.smi:895|AV-procd|sdf|4075|dock9
  -GOLD-   22720 1563D 1   1.00000     0.00000
 Structure written by MMmdl.
 44 45  0  0  0  0  0  0  0  0  1 V2000
  151.7013  134.5773  156.6288 C   0  0  0  0  0  0  0  0  0  0  0  0
  150.6145  134.8450  155.5700 C   0  0  0  0  0  0  0  0  0  0  0  0
  149.3645  135.4491  156.2317 C   0  0  0  0  0  0  0  0  0  0  0  0
  151.1003  135.8264  154.6751 O   0  0  0  0  0  0  0  0  0  0  0  0
  150.2231  133.5965  154.7426 C   0  0  0  0  0  0  0  0  0  0  0  0
  149.2438  133.8803  153.6949 N   0  0  0  0  0  0  0  0  0  0  0  0
  148.2518  133.0642  153.3129 C   0  0  0  0  0  0  0  0  0  0  0  0
  148.0463  131.9504  153.7956 O   0  0  0  0  0  0  0  0  0  0  0  0
  147.5068  133.6106  152.3425 N   0  0  0  0  0  0  0  0  0  0  0  0
  146.3346  132.9903  151.7273 C   0  0  2  0  0  0  0  0  0  0  0  0
  146.5852  132.7740  150.2214 C   0  0  0  0  0  0  0  0  0  0  0  0
  145.3715  132.1213  149.5422 C   0  0  0  0  0  0  0  0  0  0  0  0
  144.0936  132.9456  149.7585 C   0  0  0  0  0  0  0  0  0  0  0  0
  143.8258  133.1876  151.2557 C   0  0  0  0  0  0  0  0  0  0  0  0
  145.0308  133.7884  152.0174 C   0  0  2  0  0  0  0  0  0  0  0  0
  145.1616  135.2339  151.8219 N   0  0  0  0  0  0  0  0  0  0  0  0
  145.6352  135.8852  150.7000 C   0  0  0  0  0  0  0  0  0  0  0  0
  145.5711  137.2274  150.9405 C   0  0  0  0  0  0  0  0  0  0  0  0
  145.0359  137.3072  152.2552 C   0  0  0  0  0  0  0  0  0  0  0  0
  144.7912  136.1173  152.7767 N   0  0  0  0  0  0  0  0  0  0  0  0
  151.3889  133.7947  157.3209 H   0  0  0  0  0  0  0  0  0  0  0  0
  151.9094  135.4718  157.2166 H   0  0  0  0  0  0  0  0  0  0  0  0
  152.6436  134.2644  156.1782 H   0  0  0  0  0  0  0  0  0  0  0  0
  148.9234  134.7542  156.9471 H   0  0  0  0  0  0  0  0  0  0  0  0
  148.5991  135.6898  155.4927 H   0  0  0  0  0  0  0  0  0  0  0  0
  149.6016  136.3676  156.7703 H   0  0  0  0  0  0  0  0  0  0  0  0
  150.3873  136.1043  154.1208 H   0  0  0  0  0  0  0  0  0  0  0  0
  151.1184  133.1545  154.3017 H   0  0  0  0  0  0  0  0  0  0  0  0
  149.8088  132.8269  155.3951 H   0  0  0  0  0  0  0  0  0  0  0  0
  149.3222  134.7758  153.2355 H   0  0  0  0  0  0  0  0  0  0  0  0
  147.7540  134.5331  152.0151 H   0  0  0  0  0  0  0  0  0  0  0  0
  146.2164  131.9978  152.1673 H   0  0  0  0  0  0  0  0  0  0  0  0
  146.8195  133.7173  149.7285 H   0  0  0  0  0  0  0  0  0  0  0  0
  147.4603  132.1383  150.0818 H   0  0  0  0  0  0  0  0  0  0  0  0
  145.5618  132.0049  148.4749 H   0  0  0  0  0  0  0  0  0  0  0  0
  145.2283  131.1164  149.9412 H   0  0  0  0  0  0  0  0  0  0  0  0
  144.1715  133.8927  149.2260 H   0  0  0  0  0  0  0  0  0  0  0  0
  143.2437  132.4251  149.3161 H   0  0  0  0  0  0  0  0  0  0  0  0
  142.9470  133.8212  151.3812 H   0  0  0  0  0  0  0  0  0  0  0  0
  143.5711  132.2316  151.7147 H   0  0  0  0  0  0  0  0  0  0  0  0
  144.8103  133.6591  153.0782 H   0  0  0  0  0  0  0  0  0  0  0  0
  145.9737  135.3437  149.8285 H   0  0  0  0  0  0  0  0  0  0  0  0
  145.8608  138.0292  150.2777 H   0  0  0  0  0  0  0  0  0  0  0  0
  144.8178  138.1876  152.8416 H   0  0  0  0  0  0  0  0  0  0  0  0
  1  2  1  0  0  0  0
  1 21  1  0  0  0  0
  1 22  1  0  0  0  0
  1 23  1  0  0  0  0
  2  3  1  0  0  0  0
  2  4  1  0  0  0  0
  2  5  1  0  0  0  0
  3 24  1  0  0  0  0
  3 25  1  0  0  0  0
  3 26  1  0  0  0  0
  4 27  1  0  0  0  0
  5  6  1  0  0  0  0
  5 28  1  0  0  0  0
  5 29  1  0  0  0  0
  6  7  1  0  0  0  0
  6 30  1  0  0  0  0
  7  8  2  0  0  0  0
  7  9  1  0  0  0  0
  9 10  1  0  0  0  0
  9 31  1  0  0  0  0
 10 15  1  0  0  0  0
 10 11  1  0  0  0  0
 10 32  1  0  0  0  0
 11 12  1  0  0  0  0
 11 33  1  0  0  0  0
 11 34  1  0  0  0  0
 12 13  1  0  0  0  0
 12 35  1  0  0  0  0
 12 36  1  0  0  0  0
 13 14  1  0  0  0  0
 13 37  1  0  0  0  0
 13 38  1  0  0  0  0
 14 15  1  0  0  0  0
 14 39  1  0  0  0  0
 14 40  1  0  0  0  0
 15 16  1  0  0  0  0
 15 41  1  0  0  0  0
 16 20  1  0  0  0  0
 16 17  1  0  0  0  0
 17 18  2  0  0  0  0
 17 42  1  0  0  0  0
 18 19  1  0  0  0  0
 18 43  1  0  0  0  0
 19 20  2  0  0  0  0
 19 44  1  0  0  0  0
M  END
> <s_m_source_file>
AV-unprocessed.smi

> <i_m_source_file_index>
895

> <i_lp_mmshare_version>
43012

> <i_f3d_flags>
0

> <s_epik_input>
W0NIM11DKFtDSDNdKShbT0hdKVtDSDJdW05IXUMoPU8pW05IXVtDQEBIXTFbQ0gyXVtDSDJdW0NIMl1bQ0gyXVtDQEhdMW4yW2NIXVtjSF1bY0hdbjI=

> <s_epik_cmdline>
J2VwaWtfcHl0aG9uJywgJy1waCcsICc3LjAnLCAnLXRuJywgJzgnLCAnLW1hJywgJzIwMCcsICctbWV0YWxfYmluZGluZycsICctaW1hZScsICc8aW5maWxlLm1hZT4nLCAnLW9tYWUnLCAnPG91dGZpbGUubWFlPic=

> <r_lp_tautomer_probability>
1

> <r_epik_Ionization_Penalty>
0.000440451

> <r_epik_Ionization_Penalty_Charging>
0

> <r_epik_Ionization_Penalty_Neutral>
0.000440451

> <r_epik_State_Penalty>
-0

> <r_epik_Charging_Adjusted_Penalty>
0

> <i_epik_Tot_Q>
0

> <i_epik_Tot_abs_Q>
0

> <r_epik_Metal_State_Penalty>
-0

> <b_epik_Metal_Only>
0

> <s_lp_Force_Field>
OPLS_2005

> <r_lp_Energy>
14.0773

> <b_lp_Chiralities_Consistent>
1

> <s_lp_Variant>
AV-unprocessed.smi:895-3

> <Gold.Version>
5.8.1

> <Gold.Id.Protein>
6NUR|6NUR_protein|mol2

> <Gold.PLP.Fitness>
44.2323

> <Gold.PLP.PLP>
-31.2434

> <Gold.PLP.part.hbond>
-3.1622

> <Gold.PLP.part.metal>
0.0000

> <Gold.PLP.part.buried>
3.0415

> <Gold.PLP.part.nonpolar>
-31.7541

> <Gold.PLP.part.repulsive>
0.2081

> <Gold.PLP.ligand.clash>
0.0000

> <Gold.PLP.ligand.torsion>
0.4526

> <Gold.PLP.Chemscore.Hbond>
2.6000

> <Gold.PLP.Chemscore.CHOScore>
1.9986

> <Gold.PLP.Chemscore.Metal>
0.0000

> <Gold.Chemscore.Hbonds>
donor molecule, donor type, donor heavy atom, donor atom, acceptor molecule, acceptor atom, score
      L1  H     6    30       P1  7948  0.45
      L1  H     9    31       P1  7948  0.99
      P1  H 10752 10763       L1     4  1.00
      L1  C    17    42       P1  7921  1.00
      L1  C    19    44       P1 10175  0.92

> <Gold.PLP.Chemscore.Internal.Correction>
0.0981

> <Gold.Rescore>
     Score         DG    S(hbond)    S(metal)    S(lipo)     H(rot)  DE(clash)    DE(int)     intcor
     12.71     -14.65       1.47        0.00      84.31       2.19       1.72       0.22       ----

> <Gold.Chemscore.Fitness>
12.7130

> <Gold.Chemscore.DG>
-14.6534

> <Gold.Chemscore.ZeroCoef>
-5.4800

> <Gold.Chemscore.Hbond>
1.4731

> <Gold.Chemscore.Metal>
0.0000

> <Gold.Chemscore.Lipo>
84.3128

> <Gold.Chemscore.Internal_Hbond>
0.0000

> <Gold.Chemscore.DEClash>
1.7170

> <Gold.Chemscore.DEInternal>
0.2233

> <Gold.Chemscore.Rot>
2.1919

> <Gold.Chemscore.Internal.Correction>
   9.000000E+99

> <Gold.Chemscore.Hbonds>
donor molecule, donor type, donor heavy atom, donor atom, acceptor molecule, acceptor atom, score
      L1  H     6    30       P1  7948  0.02
      L1  H     9    31       P1  7948  0.36
      P1  H 10752 10763       L1     4  0.81

> <Gold.Chemscore.Hbond.Weighted>
-4.9201

> <Gold.Chemscore.Metal.Weighted>
-0.0000

> <Gold.Chemscore.Lipo.Weighted>
-9.8646

> <Gold.Chemscore.Internal_Hbond.Weighted>
0.0000

> <Gold.Chemscore.DEClash.Weighted>
1.7170

> <Gold.Chemscore.DEInternal.Weighted>
0.2233

> <Gold.Chemscore.Rot.Weighted>
5.6113

> <Gold.Chemscore.Internal.Correction.Weighted>
   9.000000E+99

> <Gold.Protein.RotatedTorsions>
[ 6907 6896 6895 6894 ] final   -2.41 input  -60.11 | X-H torsion
[ 7974 7965 7964 7962 ] final  174.90 input  175.53 | X-H torsion
[ 8008 7997 7996 7995 ] final  146.51 input   59.86 | X-H torsion
[ 10167 10162 10161 10158 ] final  -34.40 input  -65.29 | X-H torsion
[ 10718 10713 10712 10709 ] final -152.95 input   66.30 | X-H torsion
[ 10763 10752 10751 10750 ] final   42.75 input  -60.55 | X-H torsion
[ 11005 11000 10999 10996 ] final  108.82 input  -57.11 | X-H torsion

> <Gold.Protein.ActiveResidues>
 VAL166  LYS551  ARG553  GLY616  TRP617  ASP618  TYR619  PRO620  LYS621  CYS622 
 ASP623  PHE694  ASN695  SER759  ASP760  ASP761  ALA762  ILE779  LEU786  VAL792 
 PHE793  MET794  SER795  GLU796  ALA797  LYS798  CYS799  TRP800  GLU811  SER814 

> <Gold.Protein.RotatedAtoms>
  151.5304  135.1068  159.9900 H   0  0  0  0  0  0  0  0  0  0  0  0  # atno 6907 bound_to 6896
  152.4581  133.7760  159.6835 H   0  0  0  0  0  0  0  0  0  0  0  0  # atno 6908 bound_to 6896
  150.8532  133.7690  159.3043 H   0  0  0  0  0  0  0  0  0  0  0  0  # atno 6909 bound_to 6896
  144.7212  139.9866  143.6439 H   0  0  0  0  0  0  0  0  0  0  0  0  # atno 7974 bound_to 7965
  156.2853  140.2180  156.5389 H   0  0  0  0  0  0  0  0  0  0  0  0  # atno 8008 bound_to 7997
  154.7386  140.0489  157.0813 H   0  0  0  0  0  0  0  0  0  0  0  0  # atno 8009 bound_to 7997
  155.0260  140.3129  155.4779 H   0  0  0  0  0  0  0  0  0  0  0  0  # atno 8010 bound_to 7997
  140.7186  143.3551  151.2076 H   0  0  0  0  0  0  0  0  0  0  0  0  # atno 10167 bound_to 10162
  156.4793  130.8295  151.2523 H   0  0  0  0  0  0  0  0  0  0  0  0  # atno 10718 bound_to 10713
  152.9876  135.6122  154.2999 H   0  0  0  0  0  0  0  0  0  0  0  0  # atno 10763 bound_to 10752
  154.2720  135.2779  155.2736 H   0  0  0  0  0  0  0  0  0  0  0  0  # atno 10764 bound_to 10752
  154.5113  135.5840  153.6664 H   0  0  0  0  0  0  0  0  0  0  0  0  # atno 10765 bound_to 10752
  139.8851  134.9441  156.6031 H   0  0  0  0  0  0  0  0  0  0  0  0  # atno 11005 bound_to 11000
  146.0445  139.3452  143.0677 LP  0  0  0  0  0  0  0  0  0  0  0  0  # atno 17320 bound_to 7965
  145.8293  140.9639  143.0857 LP  0  0  0  0  0  0  0  0  0  0  0  0  # atno 17321 bound_to 7965
  139.7090  143.9407  152.2939 LP  0  0  0  0  0  0  0  0  0  0  0  0  # atno 17342 bound_to 10162
  139.9126  144.6847  150.8546 LP  0  0  0  0  0  0  0  0  0  0  0  0  # atno 17343 bound_to 10162
  157.7485  131.0050  150.3098 LP  0  0  0  0  0  0  0  0  0  0  0  0  # atno 17370 bound_to 10713
  156.3538  130.3835  149.7307 LP  0  0  0  0  0  0  0  0  0  0  0  0  # atno 17371 bound_to 10713
  140.7869  133.8614  155.8613 LP  0  0  0  0  0  0  0  0  0  0  0  0  # atno 17394 bound_to 11000
  140.9712  134.1529  157.4575 LP  0  0  0  0  0  0  0  0  0  0  0  0  # atno 17395 bound_to 11000

$$$$
