AV-unprocessed.smi:1900|AV-procd|sdf|7714|dock1
  -GOLD-   22720 9453D 1   1.00000     0.00000
 Structure written by MMmdl.
 43 44  0  0  0  0  0  0  0  0  1 V2000
  150.9099  142.2116  156.2649 C   0  0  0  0  0  0  0  0  0  0  0  0
  150.1018  141.0156  155.7505 C   0  0  1  0  0  0  0  0  0  0  0  0
  149.0262  141.4352  154.7309 C   0  0  0  0  0  0  0  0  0  0  0  0
  148.3073  140.2885  154.1870 N   0  0  0  0  0  0  0  0  0  0  0  0
  147.2924  140.7196  153.2267 C   0  0  0  0  0  0  0  0  0  0  0  0
  146.7452  139.6113  152.3107 C   0  0  0  0  0  0  0  0  0  0  0  0
  146.2488  138.3970  153.1113 C   0  0  0  0  0  0  0  0  0  0  0  0
  146.5472  137.1436  152.4277 N   0  0  0  0  0  0  0  0  0  0  0  0
  145.6319  136.2492  152.0282 C   0  0  0  0  0  0  0  0  0  0  0  0
  144.4220  136.3872  152.2079 O   0  0  0  0  0  0  0  0  0  0  0  0
  146.2074  135.2017  151.4156 N   0  0  0  0  0  0  0  0  0  0  0  0
  145.5567  134.0826  150.8384 C   0  0  0  0  0  0  0  0  0  0  0  0
  146.0832  132.7950  150.5247 C   0  0  0  0  0  0  0  0  0  0  0  0
  145.1533  132.0130  149.9946 N   0  0  0  0  0  0  0  0  0  0  0  0
  144.0435  132.7846  149.9678 N   0  0  0  0  0  0  0  0  0  0  0  0
  144.2446  134.0509  150.4712 C   0  0  0  0  0  0  0  0  0  0  0  0
  149.2727  139.3592  153.6045 C   0  0  0  0  0  0  0  0  0  0  0  0
  150.3555  138.9383  154.6175 C   0  0  1  0  0  0  0  0  0  0  0  0
  151.4210  138.0365  153.9855 C   0  0  0  0  0  0  0  0  0  0  0  0
  151.0002  140.1030  155.1259 O   0  0  0  0  0  0  0  0  0  0  0  0
  143.1665  132.4362  149.6072 H   0  0  0  0  0  0  0  0  0  0  0  0
  150.2644  142.9352  156.7635 H   0  0  0  0  0  0  0  0  0  0  0  0
  151.4202  142.7236  155.4482 H   0  0  0  0  0  0  0  0  0  0  0  0
  151.6661  141.8915  156.9818 H   0  0  0  0  0  0  0  0  0  0  0  0
  149.6279  140.5209  156.6002 H   0  0  0  0  0  0  0  0  0  0  0  0
  148.3226  142.1162  155.2116 H   0  0  0  0  0  0  0  0  0  0  0  0
  149.4946  141.9945  153.9193 H   0  0  0  0  0  0  0  0  0  0  0  0
  146.4473  141.1356  153.7773 H   0  0  0  0  0  0  0  0  0  0  0  0
  147.6837  141.5368  152.6188 H   0  0  0  0  0  0  0  0  0  0  0  0
  145.9240  139.9913  151.7034 H   0  0  0  0  0  0  0  0  0  0  0  0
  147.5277  139.2991  151.6178 H   0  0  0  0  0  0  0  0  0  0  0  0
  146.6850  138.3930  154.1117 H   0  0  0  0  0  0  0  0  0  0  0  0
  145.1685  138.4589  153.2457 H   0  0  0  0  0  0  0  0  0  0  0  0
  147.5195  136.9476  152.2398 H   0  0  0  0  0  0  0  0  0  0  0  0
  147.2140  135.2124  151.3430 H   0  0  0  0  0  0  0  0  0  0  0  0
  147.0801  132.4018  150.6572 H   0  0  0  0  0  0  0  0  0  0  0  0
  143.4606  134.7921  150.5223 H   0  0  0  0  0  0  0  0  0  0  0  0
  148.7658  138.4635  153.2473 H   0  0  0  0  0  0  0  0  0  0  0  0
  149.7473  139.8183  152.7356 H   0  0  0  0  0  0  0  0  0  0  0  0
  149.8902  138.4023  155.4466 H   0  0  0  0  0  0  0  0  0  0  0  0
  150.9772  137.1232  153.5887 H   0  0  0  0  0  0  0  0  0  0  0  0
  152.1727  137.7481  154.7206 H   0  0  0  0  0  0  0  0  0  0  0  0
  151.9329  138.5437  153.1672 H   0  0  0  0  0  0  0  0  0  0  0  0
  1  2  1  0  0  0  0
  1 22  1  0  0  0  0
  1 23  1  0  0  0  0
  1 24  1  0  0  0  0
  2 20  1  0  0  0  0
  2  3  1  0  0  0  0
  2 25  1  0  0  0  0
  3  4  1  0  0  0  0
  3 26  1  0  0  0  0
  3 27  1  0  0  0  0
  4  5  1  0  0  0  0
  4 17  1  0  0  0  0
  5  6  1  0  0  0  0
  5 28  1  0  0  0  0
  5 29  1  0  0  0  0
  6  7  1  0  0  0  0
  6 30  1  0  0  0  0
  6 31  1  0  0  0  0
  7  8  1  0  0  0  0
  7 32  1  0  0  0  0
  7 33  1  0  0  0  0
  8  9  1  0  0  0  0
  8 34  1  0  0  0  0
  9 10  2  0  0  0  0
  9 11  1  0  0  0  0
 11 12  1  0  0  0  0
 11 35  1  0  0  0  0
 12 16  2  0  0  0  0
 12 13  1  0  0  0  0
 13 14  2  0  0  0  0
 13 36  1  0  0  0  0
 14 15  1  0  0  0  0
 15 21  1  0  0  0  0
 15 16  1  0  0  0  0
 16 37  1  0  0  0  0
 17 18  1  0  0  0  0
 17 38  1  0  0  0  0
 17 39  1  0  0  0  0
 18 19  1  0  0  0  0
 18 20  1  0  0  0  0
 18 40  1  0  0  0  0
 19 41  1  0  0  0  0
 19 42  1  0  0  0  0
 19 43  1  0  0  0  0
M  END
> <s_m_source_file>
AV-unprocessed.smi

> <i_m_source_file_index>
1900

> <i_lp_mmshare_version>
43012

> <i_f3d_flags>
0

> <s_epik_input>
W0NIM11bQ0BASF0xW0NIMl1OKFtDSDJdW0NASF0oTzEpW0NIM10pW0NIMl1bQ0gyXVtDSDJdW05IXUMoPU8pW05IXWMyW2NIXW5bbkhdW2NIXTI=

> <s_epik_cmdline>
J2VwaWtfcHl0aG9uJywgJy1waCcsICc3LjAnLCAnLXRuJywgJzgnLCAnLW1hJywgJzIwMCcsICctbWV0YWxfYmluZGluZycsICctaW1hZScsICc8aW5maWxlLm1hZT4nLCAnLW9tYWUnLCAnPG91dGZpbGUubWFlPic=

> <r_lp_tautomer_probability>
0.5

> <r_epik_Ionization_Penalty>
0.594715

> <r_epik_Ionization_Penalty_Charging>
0

> <r_epik_Ionization_Penalty_Neutral>
0.594715

> <r_epik_State_Penalty>
0.608529

> <r_epik_Charging_Adjusted_Penalty>
0.608529

> <i_epik_Tot_Q>
0

> <i_epik_Tot_abs_Q>
0

> <r_epik_Metal_State_Penalty>
0.608528

> <b_epik_Metal_Only>
0

> <s_lp_Force_Field>
OPLS_2005

> <r_lp_Energy>
22.5064

> <b_lp_Chiralities_Consistent>
1

> <s_lp_Variant>
AV-unprocessed.smi:1900-6

> <Gold.Version>
5.8.1

> <Gold.Id.Protein>
6NUR|6NUR_protein|mol2

> <Gold.PLP.Fitness>
46.4510

> <Gold.PLP.PLP>
-33.6372

> <Gold.PLP.part.hbond>
-3.0000

> <Gold.PLP.part.metal>
0.0000

> <Gold.PLP.part.buried>
-1.1713

> <Gold.PLP.part.nonpolar>
-31.3629

> <Gold.PLP.part.repulsive>
0.6713

> <Gold.PLP.ligand.clash>
0.0000

> <Gold.PLP.ligand.torsion>
0.4952

> <Gold.PLP.Chemscore.Hbond>
2.9280

> <Gold.PLP.Chemscore.CHOScore>
1.6238

> <Gold.PLP.Chemscore.Metal>
0.0000

> <Gold.Chemscore.Hbonds>
donor molecule, donor type, donor heavy atom, donor atom, acceptor molecule, acceptor atom, score
      L1  H     8    34       P1  7948  1.00
      L1  H    11    35       P1  7948  0.93
      P1  H  7989  7998       L1    20  1.00
      L1  C    13    36       P1 10747  1.00
      L1  C    16    37       P1 10186  0.62

> <Gold.PLP.Chemscore.Internal.Correction>
0.1489

> <Gold.Rescore>
     Score         DG    S(hbond)    S(metal)    S(lipo)     H(rot)  DE(clash)    DE(int)     intcor
     14.72     -16.62       1.92        0.00      81.41       1.88       0.24       1.67       ----

> <Gold.Chemscore.Fitness>
14.7172

> <Gold.Chemscore.DG>
-16.6215

> <Gold.Chemscore.ZeroCoef>
-5.4800

> <Gold.Chemscore.Hbond>
1.9248

> <Gold.Chemscore.Metal>
0.0000

> <Gold.Chemscore.Lipo>
81.4126

> <Gold.Chemscore.Internal_Hbond>
0.0000

> <Gold.Chemscore.DEClash>
0.2357

> <Gold.Chemscore.DEInternal>
1.6687

> <Gold.Chemscore.Rot>
1.8799

> <Gold.Chemscore.Internal.Correction>
   9.000000E+99

> <Gold.Chemscore.Hbonds>
donor molecule, donor type, donor heavy atom, donor atom, acceptor molecule, acceptor atom, score
      L1  H     8    34       P1  7948  0.99
      L1  H    11    35       P1  7948  0.70
      P1  H  7989  7998       L1    20  0.18

> <Gold.Chemscore.Hbond.Weighted>
-6.4288

> <Gold.Chemscore.Metal.Weighted>
-0.0000

> <Gold.Chemscore.Lipo.Weighted>
-9.5253

> <Gold.Chemscore.Internal_Hbond.Weighted>
0.0000

> <Gold.Chemscore.DEClash.Weighted>
0.2357

> <Gold.Chemscore.DEInternal.Weighted>
1.6687

> <Gold.Chemscore.Rot.Weighted>
4.8126

> <Gold.Chemscore.Internal.Correction.Weighted>
   9.000000E+99

> <Gold.Protein.RotatedTorsions>
[ 6907 6896 6895 6894 ] final   47.73 input  -60.11 | X-H torsion
[ 7974 7965 7964 7962 ] final   38.30 input  175.53 | X-H torsion
[ 8008 7997 7996 7995 ] final  -65.29 input   59.86 | X-H torsion
[ 10167 10162 10161 10158 ] final  -79.07 input  -65.29 | X-H torsion
[ 10718 10713 10712 10709 ] final   81.12 input   66.30 | X-H torsion
[ 10763 10752 10751 10750 ] final   61.48 input  -60.55 | X-H torsion
[ 11005 11000 10999 10996 ] final  -90.54 input  -57.11 | X-H torsion

> <Gold.Protein.ActiveResidues>
 VAL166  LYS551  ARG553  GLY616  TRP617  ASP618  TYR619  PRO620  LYS621  CYS622 
 ASP623  PHE694  ASN695  SER759  ASP760  ASP761  ALA762  ILE779  LEU786  VAL792 
 PHE793  MET794  SER795  GLU796  ALA797  LYS798  CYS799  TRP800  GLU811  SER814 

> <Gold.Protein.RotatedAtoms>
  152.2714  134.7928  160.0413 H   0  0  0  0  0  0  0  0  0  0  0  0  # atno 6907 bound_to 6896
  151.8539  133.3439  159.3690 H   0  0  0  0  0  0  0  0  0  0  0  0  # atno 6908 bound_to 6896
  150.7153  134.5200  159.5693 H   0  0  0  0  0  0  0  0  0  0  0  0  # atno 6909 bound_to 6896
  146.1072  139.5789  142.9375 H   0  0  0  0  0  0  0  0  0  0  0  0  # atno 7974 bound_to 7965
  154.4663  140.0936  156.7028 H   0  0  0  0  0  0  0  0  0  0  0  0  # atno 8008 bound_to 7997
  155.4850  140.3469  155.4327 H   0  0  0  0  0  0  0  0  0  0  0  0  # atno 8009 bound_to 7997
  156.0961  140.1410  156.9517 H   0  0  0  0  0  0  0  0  0  0  0  0  # atno 8010 bound_to 7997
  140.4626  143.2449  151.8326 H   0  0  0  0  0  0  0  0  0  0  0  0  # atno 10167 bound_to 10162
  157.6824  130.9990  150.2180 H   0  0  0  0  0  0  0  0  0  0  0  0  # atno 10718 bound_to 10713
  152.9952  135.5499  154.6041 H   0  0  0  0  0  0  0  0  0  0  0  0  # atno 10763 bound_to 10752
  154.5376  135.2817  155.1127 H   0  0  0  0  0  0  0  0  0  0  0  0  # atno 10764 bound_to 10752
  154.2417  135.6415  153.5262 H   0  0  0  0  0  0  0  0  0  0  0  0  # atno 10765 bound_to 10752
  141.1563  133.7698  156.9752 H   0  0  0  0  0  0  0  0  0  0  0  0  # atno 11005 bound_to 11000
  145.5736  141.0391  143.2160 LP  0  0  0  0  0  0  0  0  0  0  0  0  # atno 17320 bound_to 7965
  144.7481  139.7266  143.7284 LP  0  0  0  0  0  0  0  0  0  0  0  0  # atno 17321 bound_to 7965
  139.4808  144.4989  151.9086 LP  0  0  0  0  0  0  0  0  0  0  0  0  # atno 17342 bound_to 10162
  140.4075  144.2412  150.5890 LP  0  0  0  0  0  0  0  0  0  0  0  0  # atno 17343 bound_to 10162
  156.2837  130.3736  149.7910 LP  0  0  0  0  0  0  0  0  0  0  0  0  # atno 17370 bound_to 10713
  156.5590  130.8375  151.3323 LP  0  0  0  0  0  0  0  0  0  0  0  0  # atno 17371 bound_to 10713
  140.1103  134.9481  157.2055 LP  0  0  0  0  0  0  0  0  0  0  0  0  # atno 17394 bound_to 11000
  140.3203  134.2924  155.7248 LP  0  0  0  0  0  0  0  0  0  0  0  0  # atno 17395 bound_to 11000

$$$$
