AV-unprocessed.smi:34|AV-procd|sdf|220|dock9
  -GOLD-   2262015533D 1   1.00000     0.00000
 Structure written by MMmdl.
 55 59  0  0  0  0  0  0  0  0  1 V2000
  153.7107  139.7940  159.5277 O   0  0  0  0  0  0  0  0  0  0  0  0
  152.9214  140.6294  159.0854 C   0  0  0  0  0  0  0  0  0  0  0  0
  152.1452  140.3980  157.8800 N   0  0  0  0  0  0  0  0  0  0  0  0
  152.1911  139.3301  157.0491 C   0  0  0  0  0  0  0  0  0  0  0  0
  152.7191  139.4024  155.7991 N   0  0  0  0  0  0  0  0  0  0  0  0
  152.7466  138.3194  155.0177 C   0  0  0  0  0  0  0  0  0  0  0  0
  152.3062  137.0892  155.2859 N   0  0  0  0  0  0  0  0  0  0  0  0
  151.7679  137.0061  156.5361 C   0  0  0  0  0  0  0  0  0  0  0  0
  151.6725  138.0771  157.4686 C   0  0  0  0  0  0  0  0  0  0  0  0
  151.0688  137.6312  158.6369 N   0  0  0  0  0  0  0  0  0  0  0  0
  150.8267  136.3692  158.4052 C   0  0  0  0  0  0  0  0  0  0  0  0
  151.2199  135.9066  157.1692 N   0  0  0  0  0  0  0  0  0  0  0  0
  151.0827  134.5083  156.6468 C   0  0  1  0  0  0  0  0  0  0  0  0
  150.5510  133.6765  157.6329 O   0  0  0  0  0  0  0  0  0  0  0  0
  149.5502  132.8108  157.0911 C   0  0  1  0  0  0  0  0  0  0  0  0
  148.1869  133.1906  157.6872 C   0  0  0  0  0  0  0  0  0  0  0  0
  148.3867  133.8460  158.9292 O   0  0  0  0  0  0  0  0  0  0  0  0
  148.7328  133.1373  160.0220 C   0  0  0  0  0  0  0  0  0  0  0  0
  148.9751  131.9287  160.0046 O   0  0  0  0  0  0  0  0  0  0  0  0
  148.7854  133.9680  161.2591 C   0  0  0  0  0  0  0  0  0  0  0  0
  148.8915  133.3309  162.5175 C   0  0  0  0  0  0  0  0  0  0  0  0
  148.9426  134.0889  163.7035 C   0  0  0  0  0  0  0  0  0  0  0  0
  148.8886  135.4938  163.6452 C   0  0  0  0  0  0  0  0  0  0  0  0
  148.7825  136.1396  162.3997 C   0  0  0  0  0  0  0  0  0  0  0  0
  148.7300  135.3831  161.2127 C   0  0  0  0  0  0  0  0  0  0  0  0
  149.6006  133.0202  155.5733 C   0  0  2  0  0  0  0  0  0  0  0  0
  150.4439  132.1392  155.0317 F   0  0  0  0  0  0  0  0  0  0  0  0
  150.1703  134.4171  155.4174 C   0  0  1  0  0  0  0  0  0  0  0  0
  149.1481  135.3968  155.3768 O   0  0  0  0  0  0  0  0  0  0  0  0
  152.6397  141.9105  159.8147 C   0  0  0  0  0  0  0  0  0  0  0  0
  153.2214  142.1449  161.0810 C   0  0  0  0  0  0  0  0  0  0  0  0
  152.9733  143.3491  161.7680 C   0  0  0  0  0  0  0  0  0  0  0  0
  152.1489  144.3331  161.1905 C   0  0  0  0  0  0  0  0  0  0  0  0
  151.5758  144.1135  159.9237 C   0  0  0  0  0  0  0  0  0  0  0  0
  151.8222  142.9090  159.2362 C   0  0  0  0  0  0  0  0  0  0  0  0
  151.4862  141.1222  157.6334 H   0  0  0  0  0  0  0  0  0  0  0  0
  153.1844  138.4571  154.0399 H   0  0  0  0  0  0  0  0  0  0  0  0
  150.3567  135.7317  159.1399 H   0  0  0  0  0  0  0  0  0  0  0  0
  152.1037  134.1891  156.4326 H   0  0  0  0  0  0  0  0  0  0  0  0
  149.7777  131.7736  157.3411 H   0  0  0  0  0  0  0  0  0  0  0  0
  147.6316  133.8206  156.9922 H   0  0  0  0  0  0  0  0  0  0  0  0
  147.5890  132.2951  157.8593 H   0  0  0  0  0  0  0  0  0  0  0  0
  148.9352  132.2535  162.5871 H   0  0  0  0  0  0  0  0  0  0  0  0
  149.0236  133.5913  164.6587 H   0  0  0  0  0  0  0  0  0  0  0  0
  148.9283  136.0751  164.5546 H   0  0  0  0  0  0  0  0  0  0  0  0
  148.7416  137.2179  162.3537 H   0  0  0  0  0  0  0  0  0  0  0  0
  148.6463  135.9102  160.2735 H   0  0  0  0  0  0  0  0  0  0  0  0
  148.6392  132.8796  155.0774 H   0  0  0  0  0  0  0  0  0  0  0  0
  150.7689  134.5191  154.5114 H   0  0  0  0  0  0  0  0  0  0  0  0
  149.0897  135.7318  154.4948 H   0  0  0  0  0  0  0  0  0  0  0  0
  153.8575  141.3999  161.5372 H   0  0  0  0  0  0  0  0  0  0  0  0
  153.4168  143.5177  162.7382 H   0  0  0  0  0  0  0  0  0  0  0  0
  151.9593  145.2567  161.7173 H   0  0  0  0  0  0  0  0  0  0  0  0
  150.9484  144.8709  159.4772 H   0  0  0  0  0  0  0  0  0  0  0  0
  151.3798  142.7644  158.2612 H   0  0  0  0  0  0  0  0  0  0  0  0
  1  2  2  0  0  0  0
  2  3  1  0  0  0  0
  2 30  1  0  0  0  0
  3  4  1  0  0  0  0
  3 36  1  0  0  0  0
  4  9  1  0  0  0  0
  4  5  2  0  0  0  0
  5  6  1  0  0  0  0
  6  7  2  0  0  0  0
  6 37  1  0  0  0  0
  7  8  1  0  0  0  0
  8 12  1  0  0  0  0
  8  9  2  0  0  0  0
  9 10  1  0  0  0  0
 10 11  2  0  0  0  0
 11 12  1  0  0  0  0
 11 38  1  0  0  0  0
 12 13  1  0  0  0  0
 13 28  1  0  0  0  0
 13 14  1  0  0  0  0
 13 39  1  0  0  0  0
 14 15  1  0  0  0  0
 15 16  1  0  0  0  0
 15 26  1  0  0  0  0
 15 40  1  0  0  0  0
 16 17  1  0  0  0  0
 16 41  1  0  0  0  0
 16 42  1  0  0  0  0
 17 18  1  0  0  0  0
 18 19  2  0  0  0  0
 18 20  1  0  0  0  0
 20 25  1  0  0  0  0
 20 21  2  0  0  0  0
 21 22  1  0  0  0  0
 21 43  1  0  0  0  0
 22 23  2  0  0  0  0
 22 44  1  0  0  0  0
 23 24  1  0  0  0  0
 23 45  1  0  0  0  0
 24 25  2  0  0  0  0
 24 46  1  0  0  0  0
 25 47  1  0  0  0  0
 26 27  1  0  0  0  0
 26 28  1  0  0  0  0
 26 48  1  0  0  0  0
 28 29  1  0  0  0  0
 28 49  1  0  0  0  0
 29 50  1  0  0  0  0
 30 35  1  0  0  0  0
 30 31  2  0  0  0  0
 31 32  1  0  0  0  0
 31 51  1  0  0  0  0
 32 33  2  0  0  0  0
 32 52  1  0  0  0  0
 33 34  1  0  0  0  0
 33 53  1  0  0  0  0
 34 35  2  0  0  0  0
 34 54  1  0  0  0  0
 35 55  1  0  0  0  0
M  END
> <s_m_source_file>
AV-unprocessed.smi

> <i_m_source_file_index>
34

> <i_lp_mmshare_version>
43012

> <i_f3d_flags>
0

> <s_epik_input>
W2NIXTFbY0hdW2NIXVtjSF1bY0hdYzFDKD1PKVtOSF1jKG5bY0hdbjIpYyhjMjMpbltjSF1uM1tDQEBIXTRPW0NASF0oW0NAQEhdKEYpW0NASF00W09IXSlbQ0gyXU9DKD1PKWM1W2NIXVtjSF1bY0hdW2NIXVtjSF01

> <s_epik_cmdline>
J2VwaWtfcHl0aG9uJywgJy1waCcsICc3LjAnLCAnLXRuJywgJzgnLCAnLW1hJywgJzIwMCcsICctbWV0YWxfYmluZGluZycsICctaW1hZScsICc8aW5maWxlLm1hZT4nLCAnLW9tYWUnLCAnPG91dGZpbGUubWFlPic=

> <r_lp_tautomer_probability>
1

> <r_epik_Ionization_Penalty>
0.00257489

> <r_epik_Ionization_Penalty_Charging>
0

> <r_epik_Ionization_Penalty_Neutral>
0.00257489

> <r_epik_State_Penalty>
0.00519398

> <r_epik_Charging_Adjusted_Penalty>
0.00519398

> <i_epik_Tot_Q>
0

> <i_epik_Tot_abs_Q>
0

> <r_epik_Metal_State_Penalty>
0.335891

> <b_epik_Metal_Only>
0

> <s_epik_Chemistry_Notes>
This compound has an ester and may undergo hydrolysis at high or low pH. This compound contains an acetal/aminal-like group ( X-CH(R)-Y where X, Y are N, S, or O) that may be acid/base labile, releasing an aldehyde.

> <s_lp_Force_Field>
OPLS_2005

> <r_lp_Energy>
51.6643

> <b_lp_Chiralities_Consistent>
1

> <s_lp_Variant>
AV-unprocessed.smi:34-6

> <Gold.Version>
5.8.1

> <Gold.Id.Protein>
6NUR|6NUR_protein|mol2

> <Gold.PLP.Fitness>
68.8873

> <Gold.PLP.PLP>
-63.0348

> <Gold.PLP.part.hbond>
-3.0000

> <Gold.PLP.part.metal>
0.0000

> <Gold.PLP.part.buried>
-8.6814

> <Gold.PLP.part.nonpolar>
-51.5552

> <Gold.PLP.part.repulsive>
0.1583

> <Gold.PLP.ligand.clash>
0.0000

> <Gold.PLP.ligand.torsion>
1.3773

> <Gold.PLP.Chemscore.Hbond>
2.8160

> <Gold.PLP.Chemscore.CHOScore>
0.0000

> <Gold.PLP.Chemscore.Metal>
0.0000

> <Gold.Chemscore.Hbonds>
donor molecule, donor type, donor heavy atom, donor atom, acceptor molecule, acceptor atom, score
      P1  H  6896  6909       L1    14  0.26
      P1  H  7997  8010       L1     5  0.80
      P1  H 10752 10765       L1     7  0.78

> <Gold.PLP.Chemscore.Internal.Correction>
0.1592

> <Gold.Rescore>
     Score         DG    S(hbond)    S(metal)    S(lipo)     H(rot)  DE(clash)    DE(int)     intcor
     20.23     -21.45       2.38        0.00     128.12       2.72       0.00       1.22       ----

> <Gold.Chemscore.Fitness>
20.2258

> <Gold.Chemscore.DG>
-21.4484

> <Gold.Chemscore.ZeroCoef>
-5.4800

> <Gold.Chemscore.Hbond>
2.3788

> <Gold.Chemscore.Metal>
0.0000

> <Gold.Chemscore.Lipo>
128.1208

> <Gold.Chemscore.Internal_Hbond>
0.0000

> <Gold.Chemscore.DEClash>
0.0009

> <Gold.Chemscore.DEInternal>
1.2216

> <Gold.Chemscore.Rot>
2.7215

> <Gold.Chemscore.Internal.Correction>
   9.000000E+99

> <Gold.Chemscore.Hbonds>
donor molecule, donor type, donor heavy atom, donor atom, acceptor molecule, acceptor atom, score
      P1  H  6896  6909       L1    14  0.24
      P1  H  7997  8010       L1     5  0.11
      P1  H 10752 10765       L1     7  0.73

> <Gold.Chemscore.Hbond.Weighted>
-7.9453

> <Gold.Chemscore.Metal.Weighted>
-0.0000

> <Gold.Chemscore.Lipo.Weighted>
-14.9901

> <Gold.Chemscore.Internal_Hbond.Weighted>
0.0000

> <Gold.Chemscore.DEClash.Weighted>
0.0009

> <Gold.Chemscore.DEInternal.Weighted>
1.2216

> <Gold.Chemscore.Rot.Weighted>
6.9670

> <Gold.Chemscore.Internal.Correction.Weighted>
   9.000000E+99

> <Gold.Protein.RotatedTorsions>
[ 6907 6896 6895 6894 ] final   38.16 input  -60.11 | X-H torsion
[ 7974 7965 7964 7962 ] final  -32.98 input  175.53 | X-H torsion
[ 8008 7997 7996 7995 ] final   78.49 input   59.86 | X-H torsion
[ 10167 10162 10161 10158 ] final  -85.17 input  -65.29 | X-H torsion
[ 10718 10713 10712 10709 ] final  172.59 input   66.30 | X-H torsion
[ 10763 10752 10751 10750 ] final  179.73 input  -60.55 | X-H torsion
[ 11005 11000 10999 10996 ] final  163.45 input  -57.11 | X-H torsion

> <Gold.Protein.ActiveResidues>
 VAL166  LYS551  ARG553  GLY616  TRP617  ASP618  TYR619  PRO620  LYS621  CYS622 
 ASP623  PHE694  ASN695  SER759  ASP760  ASP761  ALA762  ILE779  LEU786  VAL792 
 PHE793  MET794  SER795  GLU796  ALA797  LYS798  CYS799  TRP800  GLU811  SER814 

> <Gold.Protein.RotatedAtoms>
  152.1527  134.8975  160.0546 H   0  0  0  0  0  0  0  0  0  0  0  0  # atno 6907 bound_to 6896
  152.0001  133.3817  159.4186 H   0  0  0  0  0  0  0  0  0  0  0  0  # atno 6908 bound_to 6896
  150.6877  134.3765  159.5059 H   0  0  0  0  0  0  0  0  0  0  0  0  # atno 6909 bound_to 6896
  146.0947  140.5860  142.8848 H   0  0  0  0  0  0  0  0  0  0  0  0  # atno 7974 bound_to 7965
  155.8565  140.3455  155.5728 H   0  0  0  0  0  0  0  0  0  0  0  0  # atno 8008 bound_to 7997
  155.7980  140.0881  157.1992 H   0  0  0  0  0  0  0  0  0  0  0  0  # atno 8009 bound_to 7997
  154.4010  140.1470  156.3229 H   0  0  0  0  0  0  0  0  0  0  0  0  # atno 8010 bound_to 7997
  140.4063  143.2641  151.9076 H   0  0  0  0  0  0  0  0  0  0  0  0  # atno 10167 bound_to 10162
  156.9767  131.0106  151.2892 H   0  0  0  0  0  0  0  0  0  0  0  0  # atno 10718 bound_to 10713
  154.5245  135.2796  155.1234 H   0  0  0  0  0  0  0  0  0  0  0  0  # atno 10763 bound_to 10752
  154.2779  135.6291  153.5339 H   0  0  0  0  0  0  0  0  0  0  0  0  # atno 10764 bound_to 10752
  152.9943  135.5644  154.5742 H   0  0  0  0  0  0  0  0  0  0  0  0  # atno 10765 bound_to 10752
  140.2359  134.8088  157.3363 H   0  0  0  0  0  0  0  0  0  0  0  0  # atno 11005 bound_to 11000
  144.7386  140.4879  143.6885 LP  0  0  0  0  0  0  0  0  0  0  0  0  # atno 17320 bound_to 7965
  145.5971  139.1500  143.3149 LP  0  0  0  0  0  0  0  0  0  0  0  0  # atno 17321 bound_to 7965
  139.4783  144.5582  151.8280 LP  0  0  0  0  0  0  0  0  0  0  0  0  # atno 17342 bound_to 10162
  140.4686  144.1620  150.5915 LP  0  0  0  0  0  0  0  0  0  0  0  0  # atno 17343 bound_to 10162
  157.5555  130.8210  149.8199 LP  0  0  0  0  0  0  0  0  0  0  0  0  # atno 17370 bound_to 10713
  156.0261  130.3779  150.1820 LP  0  0  0  0  0  0  0  0  0  0  0  0  # atno 17371 bound_to 10713
  140.1702  134.4618  155.7836 LP  0  0  0  0  0  0  0  0  0  0  0  0  # atno 17394 bound_to 11000
  141.2214  133.6938  156.7695 LP  0  0  0  0  0  0  0  0  0  0  0  0  # atno 17395 bound_to 11000

$$$$
