#       Name:                AV-unprocessed.smi:3193
#       Creating user name   scv26
#       Creation time:       Fri Mar 27 18:04:09 2020


#       File generated by GOLD software.
#

@<TRIPOS>MOLECULE
AV-unprocessed.smi:3193
    41    42     1
SMALL
NO_CHARGES


@<TRIPOS>ATOM
      1 ****        -0.4279   1.7332  -1.9028 C.3            1 S1                 0.0000
      2 ****        -1.6724   1.8015  -0.9992 C.3            1 S1                 0.0000
      3 ****        -2.2638   3.2265  -1.0456 C.3            1 S1                 0.0000
      4 ****        -3.5425   3.3480  -0.2065 C.3            1 S1                 0.0000
      5 ****        -3.2840   2.9233   1.2429 C.3            1 S1                 0.0000
      6 ****        -2.7060   1.5024   1.3007 C.3            1 S1                 0.0000
      7 ****        -1.4090   1.3626   0.4723 C.3            1 S1                 0.0000
      8 ****        -0.8716  -0.0812   0.6019 C.3            1 S1                 0.0000
      9 ****         0.5857  -0.1560   0.3727 N.4            1 S1                 1.0000
     10 ****         1.1306  -1.5274   0.3948 C.3            1 S1                 0.0000
     11 ****         2.6399  -1.5267   0.1132 C.3            1 S1                 0.0000
     12 ****         3.1949  -2.8825   0.1018 N.pl3          1 S1                 0.0000
     13 ****         3.7457  -3.5653   1.1562 C.2            1 S1                 0.0000
     14 ****         4.1242  -4.7916   0.6733 C.2            1 S1                 0.0000
     15 ****         3.7905  -4.8051  -0.6546 N.pl3          1 S1                 1.0000
     16 ****         3.2252  -3.6436  -1.0004 C.2            1 S1                 0.0000
     17 ****         0.3994   2.3085  -1.4861 H              1 S1                 0.0000
     18 ****        -0.6424   2.1353  -2.8935 H              1 S1                 0.0000
     19 ****        -0.0916   0.7078  -2.0511 H              1 S1                 0.0000
     20 ****        -2.4164   1.1262  -1.4251 H              1 S1                 0.0000
     21 ****        -1.5244   3.9440  -0.6864 H              1 S1                 0.0000
     22 ****        -2.4862   3.5062  -2.0761 H              1 S1                 0.0000
     23 ****        -3.9109   4.3740  -0.2342 H              1 S1                 0.0000
     24 ****        -4.3265   2.7247  -0.6384 H              1 S1                 0.0000
     25 ****        -2.5919   3.6226   1.7138 H              1 S1                 0.0000
     26 ****        -4.2109   2.9721   1.8151 H              1 S1                 0.0000
     27 ****        -2.5154   1.2415   2.3426 H              1 S1                 0.0000
     28 ****        -3.4525   0.7937   0.9391 H              1 S1                 0.0000
     29 ****        -0.6754   2.0413   0.9113 H              1 S1                 0.0000
     30 ****        -1.0574  -0.4639   1.6065 H              1 S1                 0.0000
     31 ****        -1.3978  -0.7437  -0.0869 H              1 S1                 0.0000
     32 ****         0.7816   0.2517  -0.5306 H              1 S1                 0.0000
     33 ****         0.9301  -1.9793   1.3673 H              1 S1                 0.0000
     34 ****         0.6128  -2.1282  -0.3541 H              1 S1                 0.0000
     35 ****         2.8551  -1.0634  -0.8511 H              1 S1                 0.0000
     36 ****         3.1742  -0.9530   0.8719 H              1 S1                 0.0000
     37 ****         3.8274  -3.1406   2.1464 H              1 S1                 0.0000
     38 ****         4.5951  -5.6328   1.1612 H              1 S1                 0.0000
     39 ****         2.8653  -3.3758  -1.9781 H              1 S1                 0.0000
     40 ****         1.0505   0.3936   1.0817 H              1 S1                 0.0000
     41 ****         3.9499  -5.5805  -1.2863 H              1 S1                 0.0000
@<TRIPOS>BOND
    1    1    2 1     
    2    1   17 1     
    3    1   18 1     
    4    1   19 1     
    5    2    7 1     
    6    2    3 1     
    7    2   20 1     
    8    3    4 1     
    9    3   21 1     
   10    3   22 1     
   11    4    5 1     
   12    4   23 1     
   13    4   24 1     
   14    5    6 1     
   15    5   25 1     
   16    5   26 1     
   17    6    7 1     
   18    6   27 1     
   19    6   28 1     
   20    7    8 1     
   21    7   29 1     
   22    8    9 1     
   23    8   30 1     
   24    8   31 1     
   25    9   10 1     
   26    9   32 1     
   27    9   40 1     
   28   10   11 1     
   29   10   33 1     
   30   10   34 1     
   31   11   12 1     
   32   11   35 1     
   33   11   36 1     
   34   12   16 1     
   35   12   13 1     
   36   13   14 2     
   37   13   37 1     
   38   14   15 1     
   39   14   38 1     
   40   15   16 2     
   41   15   41 1     
   42   16   39 1     
@<TRIPOS>SUBSTRUCTURE
      1 S1             1
@<TRIPOS>SET
DONOR_HYDROGENS      STATIC     ATOMS    <user>   **** ""
3 32 40 41
ATOM$RED        STATIC     ATOMS    COLORGROUP SYSTEM
3 32 40 41
