AV-unprocessed.smi:484|AV-procd|sdf|2689|dock10
  -GOLD-   2262023123D 1   1.00000     0.00000
 Structure written by MMmdl.
 47 49  0  0  0  0  0  0  0  0  2 V2000
  146.8826  132.9477  151.9902 C   0  0  0  0  0  0  0  0  0  0  0  0
  147.5631  132.6477  153.3303 C   0  0  0  0  0  0  0  0  0  0  0  0
  148.2502  133.8685  153.9120 C   0  0  0  0  0  0  0  0  0  0  0  0
  147.4938  134.9951  154.2919 C   0  0  0  0  0  0  0  0  0  0  0  0
  148.1339  136.1264  154.8330 C   0  0  0  0  0  0  0  0  0  0  0  0
  149.5333  136.1529  155.0023 C   0  0  0  0  0  0  0  0  0  0  0  0
  150.0760  137.3018  155.5362 O   0  0  0  0  0  0  0  0  0  0  0  0
  151.4894  137.4570  155.5091 C   0  0  0  0  0  0  0  0  0  0  0  0
  151.8520  138.9404  155.6847 C   0  0  2  0  0  0  0  0  0  0  0  0
  153.2412  139.1050  155.4835 O   0  0  0  0  0  0  0  0  0  0  0  0
  151.3911  139.5321  157.0326 C   0  0  0  0  0  0  0  0  0  0  0  0
  151.2095  140.9913  156.9812 N   0  0  0  0  0  0  0  0  0  0  0  0
  150.5146  141.7549  156.0902 C   0  0  0  0  0  0  0  0  0  0  0  0
  149.7410  141.2587  154.9100 C   0  0  0  0  0  0  0  0  0  0  0  0
  149.1331  142.2933  154.1650 O   0  0  0  0  0  0  0  0  0  0  0  0
  150.6535  143.0544  156.4805 N   0  3  0  0  0  0  0  0  0  0  0  0
  151.4451  143.1231  157.6271 C   0  0  0  0  0  0  0  0  0  0  0  0
  151.8617  144.2155  158.3818 C   0  0  0  0  0  0  0  0  0  0  0  0
  152.6703  143.9382  159.5034 C   0  0  0  0  0  0  0  0  0  0  0  0
  153.0353  142.6176  159.8364 C   0  0  0  0  0  0  0  0  0  0  0  0
  152.6071  141.5185  159.0631 C   0  0  0  0  0  0  0  0  0  0  0  0
  151.8063  141.8005  157.9562 C   0  0  0  0  0  0  0  0  0  0  0  0
  150.2890  135.0158  154.6202 C   0  0  0  0  0  0  0  0  0  0  0  0
  149.6493  133.8832  154.0800 C   0  0  0  0  0  0  0  0  0  0  0  0
  146.3958  132.0565  151.5940 H   0  0  0  0  0  0  0  0  0  0  0  0
  147.6059  133.2894  151.2492 H   0  0  0  0  0  0  0  0  0  0  0  0
  146.1223  133.7218  152.0992 H   0  0  0  0  0  0  0  0  0  0  0  0
  146.8264  132.2763  154.0439 H   0  0  0  0  0  0  0  0  0  0  0  0
  148.2954  131.8493  153.2026 H   0  0  0  0  0  0  0  0  0  0  0  0
  146.4204  134.9949  154.1706 H   0  0  0  0  0  0  0  0  0  0  0  0
  147.5440  136.9842  155.1206 H   0  0  0  0  0  0  0  0  0  0  0  0
  151.9663  136.8539  156.2838 H   0  0  0  0  0  0  0  0  0  0  0  0
  151.8668  137.1173  154.5433 H   0  0  0  0  0  0  0  0  0  0  0  0
  151.3669  139.4955  154.8812 H   0  0  0  0  0  0  0  0  0  0  0  0
  153.5885  138.3006  155.1293 H   0  0  0  0  0  0  0  0  0  0  0  0
  150.4325  139.0972  157.3179 H   0  0  0  0  0  0  0  0  0  0  0  0
  152.0834  139.2863  157.8378 H   0  0  0  0  0  0  0  0  0  0  0  0
  150.4067  140.6981  154.2536 H   0  0  0  0  0  0  0  0  0  0  0  0
  148.9691  140.5699  155.2542 H   0  0  0  0  0  0  0  0  0  0  0  0
  149.2419  143.1061  154.6355 H   0  0  0  0  0  0  0  0  0  0  0  0
  151.5843  145.2279  158.1269 H   0  0  0  0  0  0  0  0  0  0  0  0
  153.0186  144.7544  160.1197 H   0  0  0  0  0  0  0  0  0  0  0  0
  153.6577  142.4431  160.7022 H   0  0  0  0  0  0  0  0  0  0  0  0
  152.8979  140.5125  159.3264 H   0  0  0  0  0  0  0  0  0  0  0  0
  151.3621  134.9863  154.7311 H   0  0  0  0  0  0  0  0  0  0  0  0
  150.2382  133.0236  153.7952 H   0  0  0  0  0  0  0  0  0  0  0  0
  150.2342  143.8342  155.9904 H   0  0  0  0  0  0  0  0  0  0  0  0
  1  2  1  0  0  0  0
  1 25  1  0  0  0  0
  1 26  1  0  0  0  0
  1 27  1  0  0  0  0
  2  3  1  0  0  0  0
  2 28  1  0  0  0  0
  2 29  1  0  0  0  0
  3 24  1  0  0  0  0
  3  4  2  0  0  0  0
  4  5  1  0  0  0  0
  4 30  1  0  0  0  0
  5  6  2  0  0  0  0
  5 31  1  0  0  0  0
  6  7  1  0  0  0  0
  6 23  1  0  0  0  0
  7  8  1  0  0  0  0
  8  9  1  0  0  0  0
  8 32  1  0  0  0  0
  8 33  1  0  0  0  0
  9 10  1  0  0  0  0
  9 11  1  0  0  0  0
  9 34  1  0  0  0  0
 10 35  1  0  0  0  0
 11 12  1  0  0  0  0
 11 36  1  0  0  0  0
 11 37  1  0  0  0  0
 12 22  1  0  0  0  0
 12 13  1  0  0  0  0
 13 14  1  0  0  0  0
 13 16  2  0  0  0  0
 14 15  1  0  0  0  0
 14 38  1  0  0  0  0
 14 39  1  0  0  0  0
 15 40  1  0  0  0  0
 16 17  1  0  0  0  0
 16 47  1  0  0  0  0
 17 22  2  0  0  0  0
 17 18  1  0  0  0  0
 18 19  2  0  0  0  0
 18 41  1  0  0  0  0
 19 20  1  0  0  0  0
 19 42  1  0  0  0  0
 20 21  2  0  0  0  0
 20 43  1  0  0  0  0
 21 22  1  0  0  0  0
 21 44  1  0  0  0  0
 23 24  2  0  0  0  0
 23 45  1  0  0  0  0
 24 46  1  0  0  0  0
M  CHG  1  16   1
M  END
> <s_m_source_file>
AV-unprocessed.smi

> <i_m_source_file_index>
484

> <i_lp_mmshare_version>
43012

> <i_f3d_flags>
0

> <s_epik_input>
W0NIM11bQ0gyXWMxW2NIXVtjSF1jKFtjSF1bY0hdMSlPW0NIMl1bQ0BIXShbT0hdKVtDSDJdbihjKG4yKVtDSDJdW09IXSljKGMyMylbY0hdW2NIXVtjSF1bY0hdMw==

> <s_epik_cmdline>
J2VwaWtfcHl0aG9uJywgJy1waCcsICc3LjAnLCAnLXRuJywgJzgnLCAnLW1hJywgJzIwMCcsICctbWV0YWxfYmluZGluZycsICctaW1hZScsICc8aW5maWxlLm1hZT4nLCAnLW9tYWUnLCAnPG91dGZpbGUubWFlPic=

> <r_lp_tautomer_probability>
1

> <r_epik_Ionization_Penalty>
1.43166

> <r_epik_Ionization_Penalty_Charging>
1.43081

> <r_epik_Ionization_Penalty_Neutral>
0.000858184

> <r_epik_State_Penalty>
1.51538

> <r_epik_Charging_Adjusted_Penalty>
2.94618

> <i_epik_Tot_Q>
1

> <i_epik_Tot_abs_Q>
1

> <r_epik_Metal_State_Penalty>
5.56039

> <b_epik_Metal_Only>
0

> <s_lp_Force_Field>
OPLS_2005

> <r_lp_Energy>
18.7475

> <b_lp_Chiralities_Consistent>
1

> <s_lp_Variant>
AV-unprocessed.smi:484-3

> <Gold.Version>
5.8.1

> <Gold.Id.Protein>
6NUR|6NUR_protein|mol2

> <Gold.PLP.Fitness>
62.0234

> <Gold.PLP.PLP>
-50.0455

> <Gold.PLP.part.hbond>
-3.8742

> <Gold.PLP.part.metal>
0.0000

> <Gold.PLP.part.buried>
-5.7214

> <Gold.PLP.part.nonpolar>
-40.7548

> <Gold.PLP.part.repulsive>
0.1628

> <Gold.PLP.ligand.clash>
0.0000

> <Gold.PLP.ligand.torsion>
0.5442

> <Gold.PLP.Chemscore.Hbond>
4.2964

> <Gold.PLP.Chemscore.CHOScore>
0.0000

> <Gold.PLP.Chemscore.Metal>
0.0000

> <Gold.Chemscore.Hbonds>
donor molecule, donor type, donor heavy atom, donor atom, acceptor molecule, acceptor atom, score
      L1  H    15    40       P1  8028  1.00
      L1  H    16    47       P1  8028  1.98
      P1  H  7997  8010       L1    10  1.00
      P1  H  8011  8017       L1    15  0.24

> <Gold.PLP.Chemscore.Internal.Correction>
0.1771

> <Gold.Rescore>
     Score         DG    S(hbond)    S(metal)    S(lipo)     H(rot)  DE(clash)    DE(int)     intcor
     21.52     -22.07       3.07        0.00     123.90       3.18       0.01       0.54       ----

> <Gold.Chemscore.Fitness>
21.5248

> <Gold.Chemscore.DG>
-22.0747

> <Gold.Chemscore.ZeroCoef>
-5.4800

> <Gold.Chemscore.Hbond>
3.0656

> <Gold.Chemscore.Metal>
0.0000

> <Gold.Chemscore.Lipo>
123.9030

> <Gold.Chemscore.Internal_Hbond>
0.0000

> <Gold.Chemscore.DEClash>
0.0106

> <Gold.Chemscore.DEInternal>
0.5393

> <Gold.Chemscore.Rot>
3.1801

> <Gold.Chemscore.Internal.Correction>
   9.000000E+99

> <Gold.Chemscore.Hbonds>
donor molecule, donor type, donor heavy atom, donor atom, acceptor molecule, acceptor atom, score
      L1  H    15    40       P1  8028  0.99
      L1  H    16    47       P1  8028  0.94
      P1  H  7997  8010       L1    10  0.84
      P1  H  8011  8017       L1    15  0.17

> <Gold.Chemscore.Hbond.Weighted>
-10.2391

> <Gold.Chemscore.Metal.Weighted>
-0.0000

> <Gold.Chemscore.Lipo.Weighted>
-14.4967

> <Gold.Chemscore.Internal_Hbond.Weighted>
0.0000

> <Gold.Chemscore.DEClash.Weighted>
0.0106

> <Gold.Chemscore.DEInternal.Weighted>
0.5393

> <Gold.Chemscore.Rot.Weighted>
8.1410

> <Gold.Chemscore.Internal.Correction.Weighted>
   9.000000E+99

> <Gold.Protein.RotatedTorsions>
[ 6907 6896 6895 6894 ] final  138.98 input  -60.11 | X-H torsion
[ 7974 7965 7964 7962 ] final    5.28 input  175.53 | X-H torsion
[ 8008 7997 7996 7995 ] final  100.61 input   59.86 | X-H torsion
[ 10167 10162 10161 10158 ] final   73.72 input  -65.29 | X-H torsion
[ 10718 10713 10712 10709 ] final -105.19 input   66.30 | X-H torsion
[ 10763 10752 10751 10750 ] final -125.13 input  -60.55 | X-H torsion
[ 11005 11000 10999 10996 ] final  -92.35 input  -57.11 | X-H torsion

> <Gold.Protein.ActiveResidues>
 VAL166  LYS551  ARG553  GLY616  TRP617  ASP618  TYR619  PRO620  LYS621  CYS622 
 ASP623  PHE694  ASN695  SER759  ASP760  ASP761  ALA762  ILE779  LEU786  VAL792 
 PHE793  MET794  SER795  GLU796  ALA797  LYS798  CYS799  TRP800  GLU811  SER814 

> <Gold.Protein.RotatedAtoms>
  152.2603  133.5291  159.5377 H   0  0  0  0  0  0  0  0  0  0  0  0  # atno 6907 bound_to 6896
  150.7123  134.0839  159.3917 H   0  0  0  0  0  0  0  0  0  0  0  0  # atno 6908 bound_to 6896
  151.8757  135.0472  160.0534 H   0  0  0  0  0  0  0  0  0  0  0  0  # atno 6909 bound_to 6896
  146.2441  140.0407  142.8382 H   0  0  0  0  0  0  0  0  0  0  0  0  # atno 7974 bound_to 7965
  156.1220  140.3210  155.8222 H   0  0  0  0  0  0  0  0  0  0  0  0  # atno 8008 bound_to 7997
  155.4488  140.0531  157.3020 H   0  0  0  0  0  0  0  0  0  0  0  0  # atno 8009 bound_to 7997
  154.4834  140.2062  155.9724 H   0  0  0  0  0  0  0  0  0  0  0  0  # atno 8010 bound_to 7997
  140.0214  144.5537  150.7579 H   0  0  0  0  0  0  0  0  0  0  0  0  # atno 10167 bound_to 10162
  156.0336  130.5552  150.7504 H   0  0  0  0  0  0  0  0  0  0  0  0  # atno 10718 bound_to 10713
  154.8732  135.4040  154.3218 H   0  0  0  0  0  0  0  0  0  0  0  0  # atno 10763 bound_to 10752
  153.4045  135.7019  153.6408 H   0  0  0  0  0  0  0  0  0  0  0  0  # atno 10764 bound_to 10752
  153.5136  135.3702  155.2569 H   0  0  0  0  0  0  0  0  0  0  0  0  # atno 10765 bound_to 10752
  141.1524  133.7815  157.0008 H   0  0  0  0  0  0  0  0  0  0  0  0  # atno 11005 bound_to 11000
  145.1071  140.9382  143.4678 LP  0  0  0  0  0  0  0  0  0  0  0  0  # atno 17320 bound_to 7965
  145.0613  139.3103  143.5879 LP  0  0  0  0  0  0  0  0  0  0  0  0  # atno 17321 bound_to 7965
  140.7341  143.2724  151.3845 LP  0  0  0  0  0  0  0  0  0  0  0  0  # atno 17342 bound_to 10162
  139.6137  144.1046  152.2324 LP  0  0  0  0  0  0  0  0  0  0  0  0  # atno 17343 bound_to 10162
  157.5050  131.0921  151.0268 LP  0  0  0  0  0  0  0  0  0  0  0  0  # atno 17370 bound_to 10713
  157.0639  130.5836  149.5390 LP  0  0  0  0  0  0  0  0  0  0  0  0  # atno 17371 bound_to 10713
  140.0941  134.9575  157.1822 LP  0  0  0  0  0  0  0  0  0  0  0  0  # atno 17394 bound_to 11000
  140.3406  134.2708  155.7213 LP  0  0  0  0  0  0  0  0  0  0  0  0  # atno 17395 bound_to 11000

$$$$
