AV-unprocessed.smi:811|AV-procd|sdf|3811|dock1
  -GOLD-   22720 1253D 1   1.00000     0.00000
 Structure written by MMmdl.
 46 48  0  0  0  0  0  0  0  0  2 V2000
  144.3938  134.8737  150.5579 C   0  0  0  0  0  0  0  0  0  0  0  0
  144.6450  136.2387  151.0640 N   0  3  1  0  0  0  0  0  0  0  0  0
  144.0651  136.5202  152.3985 C   0  0  0  0  0  0  0  0  0  0  0  0
  145.0647  137.4300  153.1334 C   0  0  0  0  0  0  0  0  0  0  0  0
  146.0852  137.8210  152.0617 C   0  0  1  0  0  0  0  0  0  0  0  0
  147.4228  138.0958  152.5756 N   0  0  0  0  0  0  0  0  0  0  0  0
  147.6905  138.9513  153.5720 C   0  0  0  0  0  0  0  0  0  0  0  0
  146.8206  139.5830  154.1711 O   0  0  0  0  0  0  0  0  0  0  0  0
  149.0083  139.0038  153.8322 N   0  0  0  0  0  0  0  0  0  0  0  0
  149.6868  139.8294  154.7689 C   0  0  0  0  0  0  0  0  0  0  0  0
  151.0103  139.4953  155.1154 C   0  0  0  0  0  0  0  0  0  0  0  0
  151.7112  140.3100  156.0246 C   0  0  0  0  0  0  0  0  0  0  0  0
  151.0722  141.4520  156.5627 C   0  0  0  0  0  0  0  0  0  0  0  0
  151.7541  142.2865  157.4755 N   0  0  0  0  0  0  0  0  0  0  0  0
  152.1202  141.6690  158.7480 C   0  0  0  0  0  0  0  0  0  0  0  0
  153.1067  142.5656  159.5163 C   0  0  0  0  0  0  0  0  0  0  0  0
  152.5558  143.8692  159.6713 O   0  0  0  0  0  0  0  0  0  0  0  0
  152.3168  144.4941  158.4148 C   0  0  0  0  0  0  0  0  0  0  0  0
  151.2974  143.6687  157.6120 C   0  0  0  0  0  0  0  0  0  0  0  0
  149.8055  141.7842  156.2122 N   0  0  0  0  0  0  0  0  0  0  0  0
  149.1352  140.9987  155.3436 C   0  0  0  0  0  0  0  0  0  0  0  0
  146.0685  136.6137  151.1293 C   0  0  0  0  0  0  0  0  0  0  0  0
  144.8475  134.1225  151.2057 H   0  0  0  0  0  0  0  0  0  0  0  0
  144.8082  134.7578  149.5559 H   0  0  0  0  0  0  0  0  0  0  0  0
  143.3222  134.6793  150.5048 H   0  0  0  0  0  0  0  0  0  0  0  0
  143.0977  137.0074  152.2737 H   0  0  0  0  0  0  0  0  0  0  0  0
  143.9042  135.6029  152.9668 H   0  0  0  0  0  0  0  0  0  0  0  0
  144.5853  138.2995  153.5847 H   0  0  0  0  0  0  0  0  0  0  0  0
  145.5497  136.8674  153.9329 H   0  0  0  0  0  0  0  0  0  0  0  0
  145.7158  138.6896  151.5118 H   0  0  0  0  0  0  0  0  0  0  0  0
  148.1942  137.6101  152.1413 H   0  0  0  0  0  0  0  0  0  0  0  0
  149.5916  138.3542  153.3254 H   0  0  0  0  0  0  0  0  0  0  0  0
  151.4875  138.6240  154.6910 H   0  0  0  0  0  0  0  0  0  0  0  0
  152.7294  140.0603  156.2827 H   0  0  0  0  0  0  0  0  0  0  0  0
  151.2151  141.5196  159.3384 H   0  0  0  0  0  0  0  0  0  0  0  0
  152.5715  140.6883  158.6059 H   0  0  0  0  0  0  0  0  0  0  0  0
  153.3046  142.1458  160.5026 H   0  0  0  0  0  0  0  0  0  0  0  0
  154.0647  142.6235  158.9972 H   0  0  0  0  0  0  0  0  0  0  0  0
  151.9337  145.5003  158.5849 H   0  0  0  0  0  0  0  0  0  0  0  0
  153.2530  144.5989  157.8642 H   0  0  0  0  0  0  0  0  0  0  0  0
  151.1622  144.1208  156.6284 H   0  0  0  0  0  0  0  0  0  0  0  0
  150.3286  143.6816  158.1136 H   0  0  0  0  0  0  0  0  0  0  0  0
  148.1436  141.3446  155.0968 H   0  0  0  0  0  0  0  0  0  0  0  0
  146.6485  135.7923  151.5550 H   0  0  0  0  0  0  0  0  0  0  0  0
  146.4697  136.8402  150.1407 H   0  0  0  0  0  0  0  0  0  0  0  0
  144.2094  136.8872  150.4235 H   0  0  0  0  0  0  0  0  0  0  0  0
  1  2  1  0  0  0  0
  1 23  1  0  0  0  0
  1 24  1  0  0  0  0
  1 25  1  0  0  0  0
  2 22  1  0  0  0  0
  2  3  1  0  0  0  0
  2 46  1  0  0  0  0
  3  4  1  0  0  0  0
  3 26  1  0  0  0  0
  3 27  1  0  0  0  0
  4  5  1  0  0  0  0
  4 28  1  0  0  0  0
  4 29  1  0  0  0  0
  5  6  1  0  0  0  0
  5 22  1  0  0  0  0
  5 30  1  0  0  0  0
  6  7  1  0  0  0  0
  6 31  1  0  0  0  0
  7  8  2  0  0  0  0
  7  9  1  0  0  0  0
  9 10  1  0  0  0  0
  9 32  1  0  0  0  0
 10 21  1  0  0  0  0
 10 11  2  0  0  0  0
 11 12  1  0  0  0  0
 11 33  1  0  0  0  0
 12 13  2  0  0  0  0
 12 34  1  0  0  0  0
 13 14  1  0  0  0  0
 13 20  1  0  0  0  0
 14 19  1  0  0  0  0
 14 15  1  0  0  0  0
 15 16  1  0  0  0  0
 15 35  1  0  0  0  0
 15 36  1  0  0  0  0
 16 17  1  0  0  0  0
 16 37  1  0  0  0  0
 16 38  1  0  0  0  0
 17 18  1  0  0  0  0
 18 19  1  0  0  0  0
 18 39  1  0  0  0  0
 18 40  1  0  0  0  0
 19 41  1  0  0  0  0
 19 42  1  0  0  0  0
 20 21  2  0  0  0  0
 21 43  1  0  0  0  0
 22 44  1  0  0  0  0
 22 45  1  0  0  0  0
M  CHG  1   2   1
M  END
> <s_m_source_file>
AV-unprocessed.smi

> <i_m_source_file_index>
811

> <i_lp_mmshare_version>
43012

> <i_f3d_flags>
0

> <s_epik_input>
W0NIM11OMVtDSDJdW0NIMl1bQ0BIXShbQ0gyXTEpW05IXUMoPU8pW05IXWMyW2NIXVtjSF1jKG5bY0hdMilOM1tDSDJdW0NIMl1PW0NIMl1bQ0gyXTM=

> <s_epik_cmdline>
J2VwaWtfcHl0aG9uJywgJy1waCcsICc3LjAnLCAnLXRuJywgJzgnLCAnLW1hJywgJzIwMCcsICctbWV0YWxfYmluZGluZycsICctaW1hZScsICc8aW5maWxlLm1hZT4nLCAnLW9tYWUnLCAnPG91dGZpbGUubWFlPic=

> <r_lp_tautomer_probability>
1

> <r_epik_Ionization_Penalty>
0.00503422

> <r_epik_Ionization_Penalty_Charging>
0.00366104

> <r_epik_Ionization_Penalty_Neutral>
0.00137318

> <r_epik_State_Penalty>
-0

> <r_epik_Charging_Adjusted_Penalty>
0.00366104

> <i_epik_Tot_Q>
1

> <i_epik_Tot_abs_Q>
1

> <r_epik_Metal_State_Penalty>
-0

> <b_epik_Metal_Only>
0

> <s_lp_Force_Field>
OPLS_2005

> <r_lp_Energy>
42.4701

> <b_lp_Chiralities_Consistent>
1

> <s_lp_Variant>
AV-unprocessed.smi:811-1

> <Gold.Version>
5.8.1

> <Gold.Id.Protein>
6NUR|6NUR_protein|mol2

> <Gold.PLP.Fitness>
46.7422

> <Gold.PLP.PLP>
-41.3837

> <Gold.PLP.part.hbond>
-3.4965

> <Gold.PLP.part.metal>
0.0000

> <Gold.PLP.part.buried>
0.3371

> <Gold.PLP.part.nonpolar>
-39.2302

> <Gold.PLP.part.repulsive>
0.6713

> <Gold.PLP.ligand.clash>
0.0000

> <Gold.PLP.ligand.torsion>
0.4830

> <Gold.PLP.Chemscore.Hbond>
1.9920

> <Gold.PLP.Chemscore.CHOScore>
0.0000

> <Gold.PLP.Chemscore.Metal>
0.0000

> <Gold.Chemscore.Hbonds>
donor molecule, donor type, donor heavy atom, donor atom, acceptor molecule, acceptor atom, score
      L1  H     2    46       P1 10171  1.00
      L1  H     6    31       P1  7948  1.00

> <Gold.PLP.Chemscore.Internal.Correction>
0.3484

> <Gold.Rescore>
     Score         DG    S(hbond)    S(metal)    S(lipo)     H(rot)  DE(clash)    DE(int)     intcor
     17.03     -20.65       1.93        0.00     101.50       1.23       0.99       2.63       ----

> <Gold.Chemscore.Fitness>
17.0341

> <Gold.Chemscore.DG>
-20.6526

> <Gold.Chemscore.ZeroCoef>
-5.4800

> <Gold.Chemscore.Hbond>
1.9296

> <Gold.Chemscore.Metal>
0.0000

> <Gold.Chemscore.Lipo>
101.4967

> <Gold.Chemscore.Internal_Hbond>
0.0000

> <Gold.Chemscore.DEClash>
0.9854

> <Gold.Chemscore.DEInternal>
2.6330

> <Gold.Chemscore.Rot>
1.2295

> <Gold.Chemscore.Internal.Correction>
   9.000000E+99

> <Gold.Chemscore.Hbonds>
donor molecule, donor type, donor heavy atom, donor atom, acceptor molecule, acceptor atom, score
      L1  H     2    46       P1 10171  0.97
      L1  H     6    31       P1  7948  0.92

> <Gold.Chemscore.Hbond.Weighted>
-6.4449

> <Gold.Chemscore.Metal.Weighted>
-0.0000

> <Gold.Chemscore.Lipo.Weighted>
-11.8751

> <Gold.Chemscore.Internal_Hbond.Weighted>
0.0000

> <Gold.Chemscore.DEClash.Weighted>
0.9854

> <Gold.Chemscore.DEInternal.Weighted>
2.6330

> <Gold.Chemscore.Rot.Weighted>
3.1474

> <Gold.Chemscore.Internal.Correction.Weighted>
   9.000000E+99

> <Gold.Protein.RotatedTorsions>
[ 6907 6896 6895 6894 ] final  -50.46 input  -60.11 | X-H torsion
[ 7974 7965 7964 7962 ] final    1.50 input  175.53 | X-H torsion
[ 8008 7997 7996 7995 ] final  144.25 input   59.86 | X-H torsion
[ 10167 10162 10161 10158 ] final  -98.32 input  -65.29 | X-H torsion
[ 10718 10713 10712 10709 ] final   20.17 input   66.30 | X-H torsion
[ 10763 10752 10751 10750 ] final -133.53 input  -60.55 | X-H torsion
[ 11005 11000 10999 10996 ] final -167.61 input  -57.11 | X-H torsion

> <Gold.Protein.ActiveResidues>
 VAL166  LYS551  ARG553  GLY616  TRP617  ASP618  TYR619  PRO620  LYS621  CYS622 
 ASP623  PHE694  ASN695  SER759  ASP760  ASP761  ALA762  ILE779  LEU786  VAL792 
 PHE793  MET794  SER795  GLU796  ALA797  LYS798  CYS799  TRP800  GLU811  SER814 

> <Gold.Protein.RotatedAtoms>
  150.8705  134.8078  159.7151 H   0  0  0  0  0  0  0  0  0  0  0  0  # atno 6907 bound_to 6896
  152.4711  134.4954  159.9718 H   0  0  0  0  0  0  0  0  0  0  0  0  # atno 6908 bound_to 6896
  151.5043  133.3459  159.2910 H   0  0  0  0  0  0  0  0  0  0  0  0  # atno 6909 bound_to 6896
  146.2440  140.0978  142.8349 H   0  0  0  0  0  0  0  0  0  0  0  0  # atno 7974 bound_to 7965
  156.2912  140.2241  156.5022 H   0  0  0  0  0  0  0  0  0  0  0  0  # atno 8008 bound_to 7997
  154.7680  140.0468  157.1049 H   0  0  0  0  0  0  0  0  0  0  0  0  # atno 8009 bound_to 7997
  154.9909  140.3090  155.4910 H   0  0  0  0  0  0  0  0  0  0  0  0  # atno 8010 bound_to 7997
  140.2742  143.3324  152.0504 H   0  0  0  0  0  0  0  0  0  0  0  0  # atno 10167 bound_to 10162
  157.1208  130.6549  149.5923 H   0  0  0  0  0  0  0  0  0  0  0  0  # atno 10718 bound_to 10713
  154.8731  135.3763  154.4588 H   0  0  0  0  0  0  0  0  0  0  0  0  # atno 10763 bound_to 10752
  153.5258  135.7028  153.5713 H   0  0  0  0  0  0  0  0  0  0  0  0  # atno 10764 bound_to 10752
  153.3940  135.3965  155.1908 H   0  0  0  0  0  0  0  0  0  0  0  0  # atno 10765 bound_to 10752
  140.5512  134.5426  157.5123 H   0  0  0  0  0  0  0  0  0  0  0  0  # atno 11005 bound_to 11000
  145.0595  140.9077  143.4947 LP  0  0  0  0  0  0  0  0  0  0  0  0  # atno 17320 bound_to 7965
  145.1090  139.2770  143.5647 LP  0  0  0  0  0  0  0  0  0  0  0  0  # atno 17321 bound_to 7965
  139.4980  144.6635  151.6409 LP  0  0  0  0  0  0  0  0  0  0  0  0  # atno 17342 bound_to 10162
  140.5864  143.9856  150.6298 LP  0  0  0  0  0  0  0  0  0  0  0  0  # atno 17343 bound_to 10162
  155.9829  130.4845  150.6905 LP  0  0  0  0  0  0  0  0  0  0  0  0  # atno 17370 bound_to 10713
  157.4478  131.0869  151.0877 LP  0  0  0  0  0  0  0  0  0  0  0  0  # atno 17371 bound_to 10713
  139.9454  134.7712  156.0575 LP  0  0  0  0  0  0  0  0  0  0  0  0  # atno 17394 bound_to 11000
  141.1170  133.6624  156.3119 LP  0  0  0  0  0  0  0  0  0  0  0  0  # atno 17395 bound_to 11000

$$$$
