AV-unprocessed.smi:3202|AV-procd|sdf|12248|dock4
  -GOLD-   2272018 83D 1   1.00000     0.00000
 Structure written by MMmdl.
 43 44  0  0  0  0  0  0  0  0  2 V2000
  150.6591  135.8083  154.8132 C   0  0  0  0  0  0  0  0  0  0  0  0
  150.6614  137.3065  154.8926 C   0  0  0  0  0  0  0  0  0  0  0  0
  151.4564  138.1424  155.7304 C   0  0  0  0  0  0  0  0  0  0  0  0
  151.0615  139.4118  155.4139 C   0  0  0  0  0  0  0  0  0  0  0  0
  151.4973  140.7399  155.9429 C   0  0  0  0  0  0  0  0  0  0  0  0
  150.3362  141.6839  156.3111 C   0  0  1  0  0  0  0  0  0  0  0  0
  149.3386  141.0463  157.2917 C   0  0  0  0  0  0  0  0  0  0  0  0
  150.8746  142.9319  156.8962 N   0  3  0  0  0  0  0  0  0  0  0  0
  151.1664  142.8838  158.3468 C   0  0  1  0  0  0  0  0  0  0  0  0
  152.1661  141.7813  158.7252 C   0  0  0  0  0  0  0  0  0  0  0  0
  152.8497  142.2676  160.0096 C   0  0  0  0  0  0  0  0  0  0  0  0
  152.3714  143.7095  160.2342 C   0  0  0  0  0  0  0  0  0  0  0  0
  151.7836  144.1887  158.8945 C   0  0  0  0  0  0  0  0  0  0  0  0
  152.9128  144.7433  157.9948 C   0  0  0  0  0  0  0  0  0  0  0  0
  150.7167  145.2779  159.1124 C   0  0  0  0  0  0  0  0  0  0  0  0
  150.0955  139.2822  154.4420 N   0  0  0  0  0  0  0  0  0  0  0  0
  149.8429  138.0011  154.1168 N   0  0  0  0  0  0  0  0  0  0  0  0
  149.6064  140.0459  153.9968 H   0  0  0  0  0  0  0  0  0  0  0  0
  151.4530  135.3797  155.4253 H   0  0  0  0  0  0  0  0  0  0  0  0
  150.8102  135.4668  153.7888 H   0  0  0  0  0  0  0  0  0  0  0  0
  149.7123  135.3992  155.1663 H   0  0  0  0  0  0  0  0  0  0  0  0
  152.1996  137.8510  156.4580 H   0  0  0  0  0  0  0  0  0  0  0  0
  152.1350  141.2235  155.2016 H   0  0  0  0  0  0  0  0  0  0  0  0
  152.1281  140.5819  156.8186 H   0  0  0  0  0  0  0  0  0  0  0  0
  149.7901  141.9191  155.3963 H   0  0  0  0  0  0  0  0  0  0  0  0
  148.8707  140.1580  156.8665 H   0  0  0  0  0  0  0  0  0  0  0  0
  148.5373  141.7428  157.5416 H   0  0  0  0  0  0  0  0  0  0  0  0
  149.8269  140.7530  158.2216 H   0  0  0  0  0  0  0  0  0  0  0  0
  151.7265  143.1753  156.4115 H   0  0  0  0  0  0  0  0  0  0  0  0
  150.2316  142.6977  158.8798 H   0  0  0  0  0  0  0  0  0  0  0  0
  151.6779  140.8161  158.8632 H   0  0  0  0  0  0  0  0  0  0  0  0
  152.9146  141.6562  157.9412 H   0  0  0  0  0  0  0  0  0  0  0  0
  152.5955  141.6376  160.8624 H   0  0  0  0  0  0  0  0  0  0  0  0
  153.9336  142.2342  159.8923 H   0  0  0  0  0  0  0  0  0  0  0  0
  151.5933  143.7004  160.9992 H   0  0  0  0  0  0  0  0  0  0  0  0
  153.1682  144.3561  160.6042 H   0  0  0  0  0  0  0  0  0  0  0  0
  153.4040  145.5959  158.4654 H   0  0  0  0  0  0  0  0  0  0  0  0
  152.5301  145.0876  157.0337 H   0  0  0  0  0  0  0  0  0  0  0  0
  153.6828  143.9980  157.7948 H   0  0  0  0  0  0  0  0  0  0  0  0
  151.1491  146.1654  159.5760 H   0  0  0  0  0  0  0  0  0  0  0  0
  149.9118  144.9302  159.7610 H   0  0  0  0  0  0  0  0  0  0  0  0
  150.2663  145.5855  158.1683 H   0  0  0  0  0  0  0  0  0  0  0  0
  150.1990  143.6653  156.7355 H   0  0  0  0  0  0  0  0  0  0  0  0
  1 19  1  0  0  0  0
  1 20  1  0  0  0  0
  1 21  1  0  0  0  0
  1  2  1  0  0  0  0
  2 17  2  0  0  0  0
  2  3  1  0  0  0  0
  3  4  2  0  0  0  0
  3 22  1  0  0  0  0
  4 16  1  0  0  0  0
  4  5  1  0  0  0  0
  5  6  1  0  0  0  0
  5 23  1  0  0  0  0
  5 24  1  0  0  0  0
  6  7  1  0  0  0  0
  6  8  1  0  0  0  0
  6 25  1  0  0  0  0
  7 26  1  0  0  0  0
  7 27  1  0  0  0  0
  7 28  1  0  0  0  0
  8  9  1  0  0  0  0
  8 29  1  0  0  0  0
  8 43  1  0  0  0  0
  9 13  1  0  0  0  0
  9 10  1  0  0  0  0
  9 30  1  0  0  0  0
 10 11  1  0  0  0  0
 10 31  1  0  0  0  0
 10 32  1  0  0  0  0
 11 12  1  0  0  0  0
 11 33  1  0  0  0  0
 11 34  1  0  0  0  0
 12 13  1  0  0  0  0
 12 35  1  0  0  0  0
 12 36  1  0  0  0  0
 13 14  1  0  0  0  0
 13 15  1  0  0  0  0
 14 37  1  0  0  0  0
 14 38  1  0  0  0  0
 14 39  1  0  0  0  0
 15 40  1  0  0  0  0
 15 41  1  0  0  0  0
 15 42  1  0  0  0  0
 16 17  1  0  0  0  0
 16 18  1  0  0  0  0
M  CHG  1   8   1
M  END
> <s_m_source_file>
AV-unprocessed.smi

> <i_m_source_file_index>
3202

> <i_lp_mmshare_version>
43012

> <i_f3d_flags>
0

> <s_epik_input>
W0NIM11jMVtjSF1jKG5bbkhdMSlbQ0gyXVtDQEhdKFtDSDNdKVtOSF1bQ0BASF0oQzIoW0NIM10pW0NIM10pW0NIMl1bQ0gyXVtDSDJdMg==

> <s_epik_cmdline>
J2VwaWtfcHl0aG9uJywgJy1waCcsICc3LjAnLCAnLXRuJywgJzgnLCAnLW1hJywgJzIwMCcsICctbWV0YWxfYmluZGluZycsICctaW1hZScsICc8aW5maWxlLm1hZT4nLCAnLW9tYWUnLCAnPG91dGZpbGUubWFlPic=

> <r_lp_tautomer_probability>
0.5

> <r_epik_Ionization_Penalty>
0.000449684

> <r_epik_Ionization_Penalty_Charging>
0.000404963

> <r_epik_Ionization_Penalty_Neutral>
4.47208e-05

> <r_epik_State_Penalty>
0.41068

> <r_epik_Charging_Adjusted_Penalty>
0.411085

> <i_epik_Tot_Q>
1

> <i_epik_Tot_abs_Q>
1

> <r_epik_Metal_State_Penalty>
0.410687

> <b_epik_Metal_Only>
0

> <s_lp_Force_Field>
OPLS_2005

> <r_lp_Energy>
32.3918

> <b_lp_Chiralities_Consistent>
1

> <s_lp_Variant>
AV-unprocessed.smi:3202-8

> <Gold.Version>
5.8.1

> <Gold.Id.Protein>
6NUR|6NUR_protein|mol2

> <Gold.PLP.Fitness>
43.5376

> <Gold.PLP.PLP>
-38.2922

> <Gold.PLP.part.hbond>
-1.0684

> <Gold.PLP.part.metal>
0.0000

> <Gold.PLP.part.buried>
-4.2646

> <Gold.PLP.part.nonpolar>
-32.6723

> <Gold.PLP.part.repulsive>
1.5239

> <Gold.PLP.ligand.clash>
0.0000

> <Gold.PLP.ligand.torsion>
0.3848

> <Gold.PLP.Chemscore.Hbond>
2.0000

> <Gold.PLP.Chemscore.CHOScore>
0.0000

> <Gold.PLP.Chemscore.Metal>
0.0000

> <Gold.Chemscore.Hbonds>
donor molecule, donor type, donor heavy atom, donor atom, acceptor molecule, acceptor atom, score
      L1  H     8    43       P1  8028  2.00

> <Gold.PLP.Chemscore.Internal.Correction>
0.0151

> <Gold.Rescore>
     Score         DG    S(hbond)    S(metal)    S(lipo)     H(rot)  DE(clash)    DE(int)     intcor
     18.73     -19.21       0.99        0.00     120.87       1.46       0.12       0.36       ----

> <Gold.Chemscore.Fitness>
18.7313

> <Gold.Chemscore.DG>
-19.2062

> <Gold.Chemscore.ZeroCoef>
-5.4800

> <Gold.Chemscore.Hbond>
0.9944

> <Gold.Chemscore.Metal>
0.0000

> <Gold.Chemscore.Lipo>
120.8668

> <Gold.Chemscore.Internal_Hbond>
0.0000

> <Gold.Chemscore.DEClash>
0.1168

> <Gold.Chemscore.DEInternal>
0.3581

> <Gold.Chemscore.Rot>
1.4596

> <Gold.Chemscore.Internal.Correction>
   9.000000E+99

> <Gold.Chemscore.Hbonds>
donor molecule, donor type, donor heavy atom, donor atom, acceptor molecule, acceptor atom, score
      L1  H     8    43       P1  8028  0.96

> <Gold.Chemscore.Hbond.Weighted>
-3.3213

> <Gold.Chemscore.Metal.Weighted>
-0.0000

> <Gold.Chemscore.Lipo.Weighted>
-14.1414

> <Gold.Chemscore.Internal_Hbond.Weighted>
0.0000

> <Gold.Chemscore.DEClash.Weighted>
0.1168

> <Gold.Chemscore.DEInternal.Weighted>
0.3581

> <Gold.Chemscore.Rot.Weighted>
3.7365

> <Gold.Chemscore.Internal.Correction.Weighted>
   9.000000E+99

> <Gold.Protein.RotatedTorsions>
[ 6907 6896 6895 6894 ] final   27.08 input  -60.11 | X-H torsion
[ 7974 7965 7964 7962 ] final  -29.52 input  175.53 | X-H torsion
[ 8008 7997 7996 7995 ] final  -39.80 input   59.86 | X-H torsion
[ 10167 10162 10161 10158 ] final  -76.35 input  -65.29 | X-H torsion
[ 10718 10713 10712 10709 ] final  179.27 input   66.30 | X-H torsion
[ 10763 10752 10751 10750 ] final   43.14 input  -60.55 | X-H torsion
[ 11005 11000 10999 10996 ] final   33.88 input  -57.11 | X-H torsion

> <Gold.Protein.ActiveResidues>
 VAL166  LYS551  ARG553  GLY616  TRP617  ASP618  TYR619  PRO620  LYS621  CYS622 
 ASP623  PHE694  ASN695  SER759  ASP760  ASP761  ALA762  ILE779  LEU786  VAL792 
 PHE793  MET794  SER795  GLU796  ALA797  LYS798  CYS799  TRP800  GLU811  SER814 

> <Gold.Protein.RotatedAtoms>
  151.9970  134.9949  160.0563 H   0  0  0  0  0  0  0  0  0  0  0  0  # atno 6907 bound_to 6896
  152.1555  133.4544  159.4843 H   0  0  0  0  0  0  0  0  0  0  0  0  # atno 6908 bound_to 6896
  150.6881  134.2054  159.4381 H   0  0  0  0  0  0  0  0  0  0  0  0  # atno 6909 bound_to 6896
  146.1210  140.5423  142.8735 H   0  0  0  0  0  0  0  0  0  0  0  0  # atno 7974 bound_to 7965
  154.4019  140.1542  156.2922 H   0  0  0  0  0  0  0  0  0  0  0  0  # atno 8008 bound_to 7997
  155.8775  140.3445  155.5842 H   0  0  0  0  0  0  0  0  0  0  0  0  # atno 8009 bound_to 7997
  155.7705  140.0829  157.2101 H   0  0  0  0  0  0  0  0  0  0  0  0  # atno 8010 bound_to 7997
  140.4865  143.2390  151.7976 H   0  0  0  0  0  0  0  0  0  0  0  0  # atno 10167 bound_to 10162
  156.8782  130.9807  151.3065 H   0  0  0  0  0  0  0  0  0  0  0  0  # atno 10718 bound_to 10713
  152.9867  135.6110  154.3063 H   0  0  0  0  0  0  0  0  0  0  0  0  # atno 10763 bound_to 10752
  154.2781  135.2778  155.2711 H   0  0  0  0  0  0  0  0  0  0  0  0  # atno 10764 bound_to 10752
  154.5062  135.5853  153.6626 H   0  0  0  0  0  0  0  0  0  0  0  0  # atno 10765 bound_to 10752
  140.2586  134.3219  155.7865 H   0  0  0  0  0  0  0  0  0  0  0  0  # atno 11005 bound_to 11000
  144.7597  140.5393  143.6744 LP  0  0  0  0  0  0  0  0  0  0  0  0  # atno 17320 bound_to 7965
  145.5465  139.1476  143.3418 LP  0  0  0  0  0  0  0  0  0  0  0  0  # atno 17321 bound_to 7965
  139.4843  144.4706  151.9430 LP  0  0  0  0  0  0  0  0  0  0  0  0  # atno 17342 bound_to 10162
  140.3792  144.2758  150.5910 LP  0  0  0  0  0  0  0  0  0  0  0  0  # atno 17343 bound_to 10162
  157.6156  130.8616  149.9023 LP  0  0  0  0  0  0  0  0  0  0  0  0  # atno 17370 bound_to 10713
  156.0691  130.3688  150.0814 LP  0  0  0  0  0  0  0  0  0  0  0  0  # atno 17371 bound_to 10713
  141.2193  133.7396  156.9150 LP  0  0  0  0  0  0  0  0  0  0  0  0  # atno 17394 bound_to 11000
  140.1487  134.9244  157.2564 LP  0  0  0  0  0  0  0  0  0  0  0  0  # atno 17395 bound_to 11000

$$$$
