AV-unprocessed.smi:2032|AV-procd|sdf|8256|dock6
  -GOLD-   2272010533D 1   1.00000     0.00000
 Structure written by MMmdl.
 42 43  0  0  0  0  0  0  0  0  3 V2000
  146.2939  129.4481  151.6832 C   0  0  0  0  0  0  0  0  0  0  0  0
  145.8783  130.5820  152.6374 C   0  0  1  0  0  0  0  0  0  0  0  0
  147.0290  131.0959  153.5219 C   0  0  0  0  0  0  0  0  0  0  0  0
  148.0076  131.8964  152.7382 N   0  3  2  0  0  0  0  0  0  0  0  0
  149.2024  132.2889  153.5527 C   0  0  2  0  0  0  0  0  0  0  0  0
  149.6805  131.1905  154.5331 C   0  0  0  0  0  0  0  0  0  0  0  0
  148.9038  133.6026  154.3220 C   0  0  0  0  0  0  0  0  0  0  0  0
  149.9568  134.6018  154.1721 N   0  0  0  0  0  0  0  0  0  0  0  0
  150.3689  135.4492  155.1251 C   0  0  0  0  0  0  0  0  0  0  0  0
  149.8597  135.4056  156.2475 O   0  0  0  0  0  0  0  0  0  0  0  0
  151.3378  136.2976  154.7148 N   0  5  0  0  0  0  0  0  0  0  0  0
  151.4451  137.5151  155.2713 C   0  0  0  0  0  0  0  0  0  0  0  0
  150.6731  137.9253  156.2842 N   0  0  0  0  0  0  0  0  0  0  0  0
  150.9620  139.2225  156.7124 C   0  0  0  0  0  0  0  0  0  0  0  0
  151.9826  139.8110  156.0140 C   0  0  0  0  0  0  0  0  0  0  0  0
  152.6161  138.7467  154.7912 S   0  0  0  0  0  0  0  0  0  0  0  0
  147.2943  133.0021  152.0446 C   0  0  0  0  0  0  0  0  0  0  0  0
  146.1537  132.4547  151.1661 C   0  0  2  0  0  0  0  0  0  0  0  0
  145.3399  133.5798  150.5168 C   0  0  0  0  0  0  0  0  0  0  0  0
  145.2636  131.6732  151.9558 O   0  0  0  0  0  0  0  0  0  0  0  0
  146.6380  128.5791  152.2450 H   0  0  0  0  0  0  0  0  0  0  0  0
  147.1042  129.7416  151.0164 H   0  0  0  0  0  0  0  0  0  0  0  0
  145.4521  129.1293  151.0683 H   0  0  0  0  0  0  0  0  0  0  0  0
  145.1131  130.1714  153.2968 H   0  0  0  0  0  0  0  0  0  0  0  0
  146.6204  131.7202  154.3185 H   0  0  0  0  0  0  0  0  0  0  0  0
  147.5066  130.2493  154.0123 H   0  0  0  0  0  0  0  0  0  0  0  0
  150.0266  132.4630  152.8591 H   0  0  0  0  0  0  0  0  0  0  0  0
  150.5393  131.5204  155.1176 H   0  0  0  0  0  0  0  0  0  0  0  0
  150.0085  130.2914  154.0113 H   0  0  0  0  0  0  0  0  0  0  0  0
  148.8951  130.9132  155.2369 H   0  0  0  0  0  0  0  0  0  0  0  0
  147.9611  134.0531  154.0137 H   0  0  0  0  0  0  0  0  0  0  0  0
  148.7985  133.3893  155.3862 H   0  0  0  0  0  0  0  0  0  0  0  0
  150.4035  134.6669  153.2688 H   0  0  0  0  0  0  0  0  0  0  0  0
  150.3902  139.6486  157.5232 H   0  0  0  0  0  0  0  0  0  0  0  0
  152.3994  140.7982  156.1435 H   0  0  0  0  0  0  0  0  0  0  0  0
  146.9066  133.7064  152.7827 H   0  0  0  0  0  0  0  0  0  0  0  0
  147.9711  133.5512  151.3907 H   0  0  0  0  0  0  0  0  0  0  0  0
  146.5713  131.8403  150.3682 H   0  0  0  0  0  0  0  0  0  0  0  0
  145.9693  134.2072  149.8850 H   0  0  0  0  0  0  0  0  0  0  0  0
  144.8786  134.2193  151.2698 H   0  0  0  0  0  0  0  0  0  0  0  0
  144.5437  133.1738  149.8922 H   0  0  0  0  0  0  0  0  0  0  0  0
  148.3590  131.2965  152.0057 H   0  0  0  0  0  0  0  0  0  0  0  0
  1  2  1  0  0  0  0
  1 21  1  0  0  0  0
  1 22  1  0  0  0  0
  1 23  1  0  0  0  0
  2 20  1  0  0  0  0
  2  3  1  0  0  0  0
  2 24  1  0  0  0  0
  3  4  1  0  0  0  0
  3 25  1  0  0  0  0
  3 26  1  0  0  0  0
  4  5  1  0  0  0  0
  4 17  1  0  0  0  0
  4 42  1  0  0  0  0
  5  6  1  0  0  0  0
  5  7  1  0  0  0  0
  5 27  1  0  0  0  0
  6 28  1  0  0  0  0
  6 29  1  0  0  0  0
  6 30  1  0  0  0  0
  7  8  1  0  0  0  0
  7 31  1  0  0  0  0
  7 32  1  0  0  0  0
  8  9  1  0  0  0  0
  8 33  1  0  0  0  0
  9 10  2  0  0  0  0
  9 11  1  0  0  0  0
 11 12  1  0  0  0  0
 12 16  1  0  0  0  0
 12 13  2  0  0  0  0
 13 14  1  0  0  0  0
 14 15  2  0  0  0  0
 14 34  1  0  0  0  0
 15 16  1  0  0  0  0
 15 35  1  0  0  0  0
 17 18  1  0  0  0  0
 17 36  1  0  0  0  0
 17 37  1  0  0  0  0
 18 19  1  0  0  0  0
 18 20  1  0  0  0  0
 18 38  1  0  0  0  0
 19 39  1  0  0  0  0
 19 40  1  0  0  0  0
 19 41  1  0  0  0  0
M  CHG  1   4   1
M  CHG  1  11  -1
M  END
> <s_m_source_file>
AV-unprocessed.smi

> <i_m_source_file_index>
2032

> <i_lp_mmshare_version>
43012

> <i_f3d_flags>
0

> <s_epik_input>
W0NIM11bQ0BASF0xW0NIMl1OKFtDSDJdW0NASF0oTzEpW0NIM10pW0NASF0oW0NIM10pW0NIMl1bTkhdQyg9TylbTkhdYzJuW2NIXVtjSF1zMg==

> <s_epik_cmdline>
J2VwaWtfcHl0aG9uJywgJy1waCcsICc3LjAnLCAnLXRuJywgJzgnLCAnLW1hJywgJzIwMCcsICctbWV0YWxfYmluZGluZycsICctaW1hZScsICc8aW5maWxlLm1hZT4nLCAnLW9tYWUnLCAnPG91dGZpbGUubWFlPic=

> <r_lp_tautomer_probability>
0.999

> <r_epik_Ionization_Penalty>
6.71699

> <r_epik_Ionization_Penalty_Charging>
5.88592

> <r_epik_Ionization_Penalty_Neutral>
0.831074

> <r_epik_State_Penalty>
6.08365

> <r_epik_Charging_Adjusted_Penalty>
11.9696

> <i_epik_Tot_Q>
0

> <i_epik_Tot_abs_Q>
2

> <r_epik_Metal_State_Penalty>
2.0947

> <b_epik_Metal_Only>
1

> <s_lp_Force_Field>
OPLS_2005

> <r_lp_Energy>
13.0478

> <b_lp_Chiralities_Consistent>
1

> <s_lp_Variant>
AV-unprocessed.smi:2032-26

> <Gold.Version>
5.8.1

> <Gold.Id.Protein>
6NUR|6NUR_protein|mol2

> <Gold.PLP.Fitness>
41.8944

> <Gold.PLP.PLP>
-35.5848

> <Gold.PLP.part.hbond>
-3.5654

> <Gold.PLP.part.metal>
0.0000

> <Gold.PLP.part.buried>
-3.2831

> <Gold.PLP.part.nonpolar>
-28.6256

> <Gold.PLP.part.repulsive>
0.4137

> <Gold.PLP.ligand.clash>
0.0000

> <Gold.PLP.ligand.torsion>
1.3955

> <Gold.PLP.Chemscore.Hbond>
3.0000

> <Gold.PLP.Chemscore.CHOScore>
0.0000

> <Gold.PLP.Chemscore.Metal>
0.0000

> <Gold.Chemscore.Hbonds>
donor molecule, donor type, donor heavy atom, donor atom, acceptor molecule, acceptor atom, score
      L1  H     4    42       P1 10747  1.00
      P1  H 10752 10765       L1    11  2.00

> <Gold.PLP.Chemscore.Internal.Correction>
0.1005

> <Gold.Rescore>
     Score         DG    S(hbond)    S(metal)    S(lipo)     H(rot)  DE(clash)    DE(int)     intcor
     13.78     -16.72       1.87        0.00      77.22       1.58       0.00       2.93       ----

> <Gold.Chemscore.Fitness>
13.7837

> <Gold.Chemscore.DG>
-16.7155

> <Gold.Chemscore.ZeroCoef>
-5.4800

> <Gold.Chemscore.Hbond>
1.8693

> <Gold.Chemscore.Metal>
0.0000

> <Gold.Chemscore.Lipo>
77.2180

> <Gold.Chemscore.Internal_Hbond>
0.0000

> <Gold.Chemscore.DEClash>
0.0021

> <Gold.Chemscore.DEInternal>
2.9297

> <Gold.Chemscore.Rot>
1.5791

> <Gold.Chemscore.Internal.Correction>
   9.000000E+99

> <Gold.Chemscore.Hbonds>
donor molecule, donor type, donor heavy atom, donor atom, acceptor molecule, acceptor atom, score
      L1  H     4    42       P1 10747  0.99
      P1  H 10752 10765       L1    11  0.70

> <Gold.Chemscore.Hbond.Weighted>
-6.2435

> <Gold.Chemscore.Metal.Weighted>
-0.0000

> <Gold.Chemscore.Lipo.Weighted>
-9.0345

> <Gold.Chemscore.Internal_Hbond.Weighted>
0.0000

> <Gold.Chemscore.DEClash.Weighted>
0.0021

> <Gold.Chemscore.DEInternal.Weighted>
2.9297

> <Gold.Chemscore.Rot.Weighted>
4.0425

> <Gold.Chemscore.Internal.Correction.Weighted>
   9.000000E+99

> <Gold.Protein.RotatedTorsions>
[ 6907 6896 6895 6894 ] final -128.53 input  -60.11 | X-H torsion
[ 7974 7965 7964 7962 ] final  -36.62 input  175.53 | X-H torsion
[ 8008 7997 7996 7995 ] final  -73.48 input   59.86 | X-H torsion
[ 10167 10162 10161 10158 ] final  -46.02 input  -65.29 | X-H torsion
[ 10718 10713 10712 10709 ] final -167.67 input   66.30 | X-H torsion
[ 10763 10752 10751 10750 ] final  170.07 input  -60.55 | X-H torsion
[ 11005 11000 10999 10996 ] final   62.52 input  -57.11 | X-H torsion

> <Gold.Protein.ActiveResidues>
 VAL166  LYS551  ARG553  GLY616  TRP617  ASP618  TYR619  PRO620  LYS621  CYS622 
 ASP623  PHE694  ASN695  SER759  ASP760  ASP761  ALA762  ILE779  LEU786  VAL792 
 PHE793  MET794  SER795  GLU796  ALA797  LYS798  CYS799  TRP800  GLU811  SER814 

> <Gold.Protein.RotatedAtoms>
  150.9189  133.6905  159.2836 H   0  0  0  0  0  0  0  0  0  0  0  0  # atno 6907 bound_to 6896
  151.4366  135.1014  159.9667 H   0  0  0  0  0  0  0  0  0  0  0  0  # atno 6908 bound_to 6896
  152.4969  133.8607  159.7304 H   0  0  0  0  0  0  0  0  0  0  0  0  # atno 6909 bound_to 6896
  146.0645  140.6300  142.8981 H   0  0  0  0  0  0  0  0  0  0  0  0  # atno 7974 bound_to 7965
  154.5251  140.0778  156.8243 H   0  0  0  0  0  0  0  0  0  0  0  0  # atno 8008 bound_to 7997
  155.3494  140.3412  155.4221 H   0  0  0  0  0  0  0  0  0  0  0  0  # atno 8009 bound_to 7997
  156.1722  140.1623  156.8413 H   0  0  0  0  0  0  0  0  0  0  0  0  # atno 8010 bound_to 7997
  140.6834  143.2851  151.3723 H   0  0  0  0  0  0  0  0  0  0  0  0  # atno 10167 bound_to 10162
  156.6858  130.9140  151.3063 H   0  0  0  0  0  0  0  0  0  0  0  0  # atno 10718 bound_to 10713
  154.3922  135.2754  155.2147 H   0  0  0  0  0  0  0  0  0  0  0  0  # atno 10763 bound_to 10752
  154.4209  135.6000  153.6013 H   0  0  0  0  0  0  0  0  0  0  0  0  # atno 10764 bound_to 10752
  152.9832  135.5972  154.4179 H   0  0  0  0  0  0  0  0  0  0  0  0  # atno 10765 bound_to 10752
  140.0087  134.6330  155.9815 H   0  0  0  0  0  0  0  0  0  0  0  0  # atno 11005 bound_to 11000
  144.7194  140.4323  143.7019 LP  0  0  0  0  0  0  0  0  0  0  0  0  # atno 17320 bound_to 7965
  145.6501  139.1563  143.2867 LP  0  0  0  0  0  0  0  0  0  0  0  0  # atno 17321 bound_to 7965
  139.6174  144.0975  152.2358 LP  0  0  0  0  0  0  0  0  0  0  0  0  # atno 17342 bound_to 10162
  140.0409  144.6008  150.7412 LP  0  0  0  0  0  0  0  0  0  0  0  0  # atno 17343 bound_to 10162
  157.7027  130.9350  150.0834 LP  0  0  0  0  0  0  0  0  0  0  0  0  # atno 17370 bound_to 10713
  156.1834  130.3651  149.9005 LP  0  0  0  0  0  0  0  0  0  0  0  0  # atno 17371 bound_to 10713
  141.1695  133.6537  156.4600 LP  0  0  0  0  0  0  0  0  0  0  0  0  # atno 17394 bound_to 11000
  140.4594  134.6855  157.5078 LP  0  0  0  0  0  0  0  0  0  0  0  0  # atno 17395 bound_to 11000

$$$$
