AV-unprocessed.smi:975|AV-procd|sdf|4301|dock5
  -GOLD-   22720 2203D 1   1.00000     0.00000
 Structure written by MMmdl.
 44 45  0  0  0  0  0  0  0  0  1 V2000
  144.2149  144.5476  154.8443 C   0  0  0  0  0  0  0  0  0  0  0  0
  145.1992  143.4143  155.0474 C   0  0  0  0  0  0  0  0  0  0  0  0
  144.9963  142.4357  156.0955 C   0  0  0  0  0  0  0  0  0  0  0  0
  145.8915  141.4479  156.2493 C   0  0  0  0  0  0  0  0  0  0  0  0
  147.0217  141.3329  155.4199 N   0  0  0  0  0  0  0  0  0  0  0  0
  147.9268  140.1974  155.6750 C   0  0  0  0  0  0  0  0  0  0  0  0
  149.4109  140.5746  155.8270 C   0  0  0  0  0  0  0  0  0  0  0  0
  150.1008  140.7024  154.8163 O   0  0  0  0  0  0  0  0  0  0  0  0
  149.8950  140.7565  157.0681 N   0  0  0  0  0  0  0  0  0  0  0  0
  151.2658  141.1208  157.4151 C   0  0  0  0  0  0  0  0  0  0  0  0
  151.6443  140.3827  158.7198 C   0  0  0  0  0  0  0  0  0  0  0  0
  153.0103  140.7377  159.3346 C   0  0  0  0  0  0  0  0  0  0  0  0
  152.9784  141.8304  160.4273 C   0  0  0  0  0  0  0  0  0  0  0  0
  153.1234  143.2778  159.9222 C   0  0  0  0  0  0  0  0  0  0  0  0
  151.8137  144.0341  159.6126 C   0  0  0  0  0  0  0  0  0  0  0  0
  150.7980  143.3310  158.6936 C   0  0  0  0  0  0  0  0  0  0  0  0
  151.4133  142.6583  157.4506 C   0  0  0  0  0  0  0  0  0  0  0  0
  147.2671  142.2179  154.4069 C   0  0  0  0  0  0  0  0  0  0  0  0
  148.2446  142.1118  153.6664 O   0  0  0  0  0  0  0  0  0  0  0  0
  146.2852  143.2974  154.2518 C   0  0  0  0  0  0  0  0  0  0  0  0
  143.3900  144.4863  155.5549 H   0  0  0  0  0  0  0  0  0  0  0  0
  143.7994  144.5132  153.8369 H   0  0  0  0  0  0  0  0  0  0  0  0
  144.7106  145.5092  154.9800 H   0  0  0  0  0  0  0  0  0  0  0  0
  144.1355  142.4949  156.7458 H   0  0  0  0  0  0  0  0  0  0  0  0
  145.7971  140.6827  157.0065 H   0  0  0  0  0  0  0  0  0  0  0  0
  147.6153  139.6550  156.5694 H   0  0  0  0  0  0  0  0  0  0  0  0
  147.8460  139.4699  154.8658 H   0  0  0  0  0  0  0  0  0  0  0  0
  149.2558  140.6334  157.8400 H   0  0  0  0  0  0  0  0  0  0  0  0
  151.9282  140.7486  156.6311 H   0  0  0  0  0  0  0  0  0  0  0  0
  150.8645  140.4898  159.4745 H   0  0  0  0  0  0  0  0  0  0  0  0
  151.6536  139.3164  158.4888 H   0  0  0  0  0  0  0  0  0  0  0  0
  153.3822  139.8307  159.8131 H   0  0  0  0  0  0  0  0  0  0  0  0
  153.7421  140.9691  158.5597 H   0  0  0  0  0  0  0  0  0  0  0  0
  152.1033  141.7262  161.0697 H   0  0  0  0  0  0  0  0  0  0  0  0
  153.8323  141.6418  161.0792 H   0  0  0  0  0  0  0  0  0  0  0  0
  153.6390  143.8498  160.6946 H   0  0  0  0  0  0  0  0  0  0  0  0
  153.7995  143.3070  159.0680 H   0  0  0  0  0  0  0  0  0  0  0  0
  151.3138  144.2780  160.5507 H   0  0  0  0  0  0  0  0  0  0  0  0
  152.0799  144.9932  159.1667 H   0  0  0  0  0  0  0  0  0  0  0  0
  150.2152  142.6184  159.2755 H   0  0  0  0  0  0  0  0  0  0  0  0
  150.0674  144.0716  158.3664 H   0  0  0  0  0  0  0  0  0  0  0  0
  152.4640  142.9221  157.3443 H   0  0  0  0  0  0  0  0  0  0  0  0
  150.9499  143.0806  156.5579 H   0  0  0  0  0  0  0  0  0  0  0  0
  146.4423  144.0242  153.4678 H   0  0  0  0  0  0  0  0  0  0  0  0
  1  2  1  0  0  0  0
  1 21  1  0  0  0  0
  1 22  1  0  0  0  0
  1 23  1  0  0  0  0
  2 20  2  0  0  0  0
  2  3  1  0  0  0  0
  3  4  2  0  0  0  0
  3 24  1  0  0  0  0
  4  5  1  0  0  0  0
  4 25  1  0  0  0  0
  5  6  1  0  0  0  0
  5 18  1  0  0  0  0
  6  7  1  0  0  0  0
  6 26  1  0  0  0  0
  6 27  1  0  0  0  0
  7  8  2  0  0  0  0
  7  9  1  0  0  0  0
  9 10  1  0  0  0  0
  9 28  1  0  0  0  0
 10 17  1  0  0  0  0
 10 11  1  0  0  0  0
 10 29  1  0  0  0  0
 11 12  1  0  0  0  0
 11 30  1  0  0  0  0
 11 31  1  0  0  0  0
 12 13  1  0  0  0  0
 12 32  1  0  0  0  0
 12 33  1  0  0  0  0
 13 14  1  0  0  0  0
 13 34  1  0  0  0  0
 13 35  1  0  0  0  0
 14 15  1  0  0  0  0
 14 36  1  0  0  0  0
 14 37  1  0  0  0  0
 15 16  1  0  0  0  0
 15 38  1  0  0  0  0
 15 39  1  0  0  0  0
 16 17  1  0  0  0  0
 16 40  1  0  0  0  0
 16 41  1  0  0  0  0
 17 42  1  0  0  0  0
 17 43  1  0  0  0  0
 18 19  2  0  0  0  0
 18 20  1  0  0  0  0
 20 44  1  0  0  0  0
M  END
> <s_m_source_file>
AV-unprocessed.smi

> <i_m_source_file_index>
975

> <i_lp_mmshare_version>
43012

> <i_f3d_flags>
0

> <s_epik_input>
W0NIM11jMVtjSF1bY0hdbihjKD1PKVtjSF0xKVtDSDJdQyg9TylbTkhdW0NIXTJbQ0gyXVtDSDJdW0NIMl1bQ0gyXVtDSDJdW0NIMl1bQ0gyXTI=

> <s_epik_cmdline>
J2VwaWtfcHl0aG9uJywgJy1waCcsICc3LjAnLCAnLXRuJywgJzgnLCAnLW1hJywgJzIwMCcsICctbWV0YWxfYmluZGluZycsICctaW1hZScsICc8aW5maWxlLm1hZT4nLCAnLW9tYWUnLCAnPG91dGZpbGUubWFlPic=

> <r_lp_tautomer_probability>
1

> <r_epik_Ionization_Penalty>
5.54847e-07

> <r_epik_Ionization_Penalty_Charging>
5.34632e-07

> <r_epik_Ionization_Penalty_Neutral>
2.02148e-08

> <r_epik_State_Penalty>
-0

> <r_epik_Charging_Adjusted_Penalty>
5.34632e-07

> <i_epik_Tot_Q>
0

> <i_epik_Tot_abs_Q>
0

> <r_epik_Metal_State_Penalty>
-0

> <b_epik_Metal_Only>
0

> <s_lp_Force_Field>
OPLS_2005

> <r_lp_Energy>
31.8723

> <b_lp_Chiralities_Consistent>
1

> <s_lp_Variant>
AV-unprocessed.smi:975-1

> <Gold.Version>
5.8.1

> <Gold.Id.Protein>
6NUR|6NUR_protein|mol2

> <Gold.PLP.Fitness>
42.6400

> <Gold.PLP.PLP>
-39.4126

> <Gold.PLP.part.hbond>
-2.0000

> <Gold.PLP.part.metal>
0.0000

> <Gold.PLP.part.buried>
-5.4575

> <Gold.PLP.part.nonpolar>
-32.8381

> <Gold.PLP.part.repulsive>
0.4374

> <Gold.PLP.ligand.clash>
0.0000

> <Gold.PLP.ligand.torsion>
0.7627

> <Gold.PLP.Chemscore.Hbond>
1.5753

> <Gold.PLP.Chemscore.CHOScore>
0.0000

> <Gold.PLP.Chemscore.Metal>
0.0000

> <Gold.Chemscore.Hbonds>
donor molecule, donor type, donor heavy atom, donor atom, acceptor molecule, acceptor atom, score
      P1  H  7989  7998       L1     8  0.83
      P1  H  8011  8017       L1    19  0.33

> <Gold.PLP.Chemscore.Internal.Correction>
0.0268

> <Gold.Rescore>
     Score         DG    S(hbond)    S(metal)    S(lipo)     H(rot)  DE(clash)    DE(int)     intcor
     14.82     -19.05       1.59        0.00      99.68       1.34       0.68       3.55       ----

> <Gold.Chemscore.Fitness>
14.8223

> <Gold.Chemscore.DG>
-19.0462

> <Gold.Chemscore.ZeroCoef>
-5.4800

> <Gold.Chemscore.Hbond>
1.5935

> <Gold.Chemscore.Metal>
0.0000

> <Gold.Chemscore.Lipo>
99.6751

> <Gold.Chemscore.Internal_Hbond>
0.0000

> <Gold.Chemscore.DEClash>
0.6779

> <Gold.Chemscore.DEInternal>
3.5460

> <Gold.Chemscore.Rot>
1.3352

> <Gold.Chemscore.Internal.Correction>
   9.000000E+99

> <Gold.Chemscore.Hbonds>
donor molecule, donor type, donor heavy atom, donor atom, acceptor molecule, acceptor atom, score
      P1  H  7989  7998       L1     8  0.79
      P1  H  8011  8017       L1    19  0.32

> <Gold.Chemscore.Hbond.Weighted>
-5.3223

> <Gold.Chemscore.Metal.Weighted>
-0.0000

> <Gold.Chemscore.Lipo.Weighted>
-11.6620

> <Gold.Chemscore.Internal_Hbond.Weighted>
0.0000

> <Gold.Chemscore.DEClash.Weighted>
0.6779

> <Gold.Chemscore.DEInternal.Weighted>
3.5460

> <Gold.Chemscore.Rot.Weighted>
3.4181

> <Gold.Chemscore.Internal.Correction.Weighted>
   9.000000E+99

> <Gold.Protein.RotatedTorsions>
[ 6907 6896 6895 6894 ] final  -57.14 input  -60.11 | X-H torsion
[ 7974 7965 7964 7962 ] final   99.59 input  175.53 | X-H torsion
[ 8008 7997 7996 7995 ] final  111.60 input   59.86 | X-H torsion
[ 10167 10162 10161 10158 ] final   79.92 input  -65.29 | X-H torsion
[ 10718 10713 10712 10709 ] final  110.48 input   66.30 | X-H torsion
[ 10763 10752 10751 10750 ] final  -13.10 input  -60.55 | X-H torsion
[ 11005 11000 10999 10996 ] final -168.13 input  -57.11 | X-H torsion

> <Gold.Protein.ActiveResidues>
 VAL166  LYS551  ARG553  GLY616  TRP617  ASP618  TYR619  PRO620  LYS621  CYS622 
 ASP623  PHE694  ASN695  SER759  ASP760  ASP761  ALA762  ILE779  LEU786  VAL792 
 PHE793  MET794  SER795  GLU796  ALA797  LYS798  CYS799  TRP800  GLU811  SER814 

> <Gold.Protein.RotatedAtoms>
  150.8110  134.7265  159.6687 H   0  0  0  0  0  0  0  0  0  0  0  0  # atno 6907 bound_to 6896
  152.4230  134.5917  159.9985 H   0  0  0  0  0  0  0  0  0  0  0  0  # atno 6908 bound_to 6896
  151.6126  133.3308  159.3107 H   0  0  0  0  0  0  0  0  0  0  0  0  # atno 6909 bound_to 6896
  145.3969  139.2354  143.3321 H   0  0  0  0  0  0  0  0  0  0  0  0  # atno 7974 bound_to 7965
  156.2135  140.3016  155.9786 H   0  0  0  0  0  0  0  0  0  0  0  0  # atno 8008 bound_to 7997
  155.2665  140.0432  157.3020 H   0  0  0  0  0  0  0  0  0  0  0  0  # atno 8009 bound_to 7997
  154.5733  140.2354  155.8167 H   0  0  0  0  0  0  0  0  0  0  0  0  # atno 8010 bound_to 7997
  139.9552  144.5999  150.8123 H   0  0  0  0  0  0  0  0  0  0  0  0  # atno 10167 bound_to 10162
  157.6492  131.0933  150.6608 H   0  0  0  0  0  0  0  0  0  0  0  0  # atno 10718 bound_to 10713
  153.5083  135.7016  153.5794 H   0  0  0  0  0  0  0  0  0  0  0  0  # atno 10763 bound_to 10752
  153.3896  135.3899  155.1913 H   0  0  0  0  0  0  0  0  0  0  0  0  # atno 10764 bound_to 10752
  154.8705  135.3855  154.4561 H   0  0  0  0  0  0  0  0  0  0  0  0  # atno 10765 bound_to 10752
  140.5455  134.5480  157.5110 H   0  0  0  0  0  0  0  0  0  0  0  0  # atno 11005 bound_to 11000
  146.2771  140.4660  142.8791 LP  0  0  0  0  0  0  0  0  0  0  0  0  # atno 17320 bound_to 7965
  144.8401  140.6844  143.6235 LP  0  0  0  0  0  0  0  0  0  0  0  0  # atno 17321 bound_to 7965
  140.7570  143.3078  151.2918 LP  0  0  0  0  0  0  0  0  0  0  0  0  # atno 17342 bound_to 10162
  139.6597  144.0212  152.2684 LP  0  0  0  0  0  0  0  0  0  0  0  0  # atno 17343 bound_to 10162
  156.6922  130.4598  149.5596 LP  0  0  0  0  0  0  0  0  0  0  0  0  # atno 17370 bound_to 10713
  156.1854  130.6525  151.1000 LP  0  0  0  0  0  0  0  0  0  0  0  0  # atno 17371 bound_to 10713
  139.9482  134.7664  156.0511 LP  0  0  0  0  0  0  0  0  0  0  0  0  # atno 17394 bound_to 11000
  141.1202  133.6615  156.3196 LP  0  0  0  0  0  0  0  0  0  0  0  0  # atno 17395 bound_to 11000

$$$$
