AV-unprocessed.smi:960|AV-procd|sdf|4273|dock10
  -GOLD-   22720 2183D 1   1.00000     0.00000
 Structure written by MMmdl.
 45 46  0  0  0  0  0  0  0  0  1 V2000
  148.0476  127.5636  150.9623 C   0  0  0  0  0  0  0  0  0  0  0  0
  147.2654  127.9862  151.9691 C   0  0  0  0  0  0  0  0  0  0  0  0
  147.2395  127.2867  153.3152 C   0  0  0  0  0  0  0  0  0  0  0  0
  146.3712  129.2102  151.8329 C   0  0  0  0  0  0  0  0  0  0  0  0
  147.0259  130.4579  152.2269 N   0  0  0  0  0  0  0  0  0  0  0  0
  147.1960  130.5400  153.6819 C   0  0  0  0  0  0  0  0  0  0  0  0
  147.9489  131.8270  154.0619 C   0  0  0  0  0  0  0  0  0  0  0  0
  147.2124  133.0753  153.5537 C   0  0  0  0  0  0  0  0  0  0  0  0
  148.0202  134.2643  153.8083 N   0  0  0  0  0  0  0  0  0  0  0  0
  148.5098  134.6247  155.0028 C   0  0  0  0  0  0  0  0  0  0  0  0
  148.3507  133.9692  156.0322 O   0  0  0  0  0  0  0  0  0  0  0  0
  149.2040  135.7697  154.9211 N   0  0  0  0  0  0  0  0  0  0  0  0
  149.8304  136.4653  155.9855 C   0  0  0  0  0  0  0  0  0  0  0  0
  149.5342  136.4493  157.3805 C   0  0  0  0  0  0  0  0  0  0  0  0
  148.4846  135.7078  158.1607 C   0  0  0  0  0  0  0  0  0  0  0  0
  150.3418  137.2814  158.0215 N   0  0  0  0  0  0  0  0  0  0  0  0
  151.1574  137.8813  157.0500 O   0  0  0  0  0  0  0  0  0  0  0  0
  150.8206  137.3899  155.8292 C   0  0  0  0  0  0  0  0  0  0  0  0
  151.5657  137.9263  154.6539 C   0  0  0  0  0  0  0  0  0  0  0  0
  146.9306  132.9159  152.0497 C   0  0  0  0  0  0  0  0  0  0  0  0
  146.2179  131.5846  151.7573 C   0  0  0  0  0  0  0  0  0  0  0  0
  148.6852  126.6986  151.0722 H   0  0  0  0  0  0  0  0  0  0  0  0
  148.0617  128.0763  150.0117 H   0  0  0  0  0  0  0  0  0  0  0  0
  147.5199  127.9812  154.1070 H   0  0  0  0  0  0  0  0  0  0  0  0
  147.9336  126.4462  153.3403 H   0  0  0  0  0  0  0  0  0  0  0  0
  146.2411  126.9053  153.5309 H   0  0  0  0  0  0  0  0  0  0  0  0
  146.0614  129.2793  150.7893 H   0  0  0  0  0  0  0  0  0  0  0  0
  145.4639  129.0692  152.4227 H   0  0  0  0  0  0  0  0  0  0  0  0
  146.2227  130.5097  154.1743 H   0  0  0  0  0  0  0  0  0  0  0  0
  147.7645  129.6850  154.0475 H   0  0  0  0  0  0  0  0  0  0  0  0
  148.0654  131.8778  155.1451 H   0  0  0  0  0  0  0  0  0  0  0  0
  148.9562  131.7904  153.6438 H   0  0  0  0  0  0  0  0  0  0  0  0
  146.2648  133.1587  154.0897 H   0  0  0  0  0  0  0  0  0  0  0  0
  148.2085  134.8624  153.0172 H   0  0  0  0  0  0  0  0  0  0  0  0
  149.3666  136.1378  153.9952 H   0  0  0  0  0  0  0  0  0  0  0  0
  147.5719  135.5852  157.5776 H   0  0  0  0  0  0  0  0  0  0  0  0
  148.2158  136.2392  159.0743 H   0  0  0  0  0  0  0  0  0  0  0  0
  148.8371  134.7173  158.4478 H   0  0  0  0  0  0  0  0  0  0  0  0
  151.1506  137.5483  153.7195 H   0  0  0  0  0  0  0  0  0  0  0  0
  152.6154  137.6364  154.6985 H   0  0  0  0  0  0  0  0  0  0  0  0
  151.5156  139.0148  154.6291 H   0  0  0  0  0  0  0  0  0  0  0  0
  146.3183  133.7440  151.6913 H   0  0  0  0  0  0  0  0  0  0  0  0
  147.8649  132.9563  151.4876 H   0  0  0  0  0  0  0  0  0  0  0  0
  146.0554  131.4950  150.6824 H   0  0  0  0  0  0  0  0  0  0  0  0
  145.2354  131.5679  152.2321 H   0  0  0  0  0  0  0  0  0  0  0  0
  1  2  2  0  0  0  0
  1 22  1  0  0  0  0
  1 23  1  0  0  0  0
  2  3  1  0  0  0  0
  2  4  1  0  0  0  0
  3 24  1  0  0  0  0
  3 25  1  0  0  0  0
  3 26  1  0  0  0  0
  4  5  1  0  0  0  0
  4 27  1  0  0  0  0
  4 28  1  0  0  0  0
  5 21  1  0  0  0  0
  5  6  1  0  0  0  0
  6  7  1  0  0  0  0
  6 29  1  0  0  0  0
  6 30  1  0  0  0  0
  7  8  1  0  0  0  0
  7 31  1  0  0  0  0
  7 32  1  0  0  0  0
  8  9  1  0  0  0  0
  8 20  1  0  0  0  0
  8 33  1  0  0  0  0
  9 10  1  0  0  0  0
  9 34  1  0  0  0  0
 10 11  2  0  0  0  0
 10 12  1  0  0  0  0
 12 13  1  0  0  0  0
 12 35  1  0  0  0  0
 13 18  2  0  0  0  0
 13 14  1  0  0  0  0
 14 15  1  0  0  0  0
 14 16  2  0  0  0  0
 15 36  1  0  0  0  0
 15 37  1  0  0  0  0
 15 38  1  0  0  0  0
 16 17  1  0  0  0  0
 17 18  1  0  0  0  0
 18 19  1  0  0  0  0
 19 39  1  0  0  0  0
 19 40  1  0  0  0  0
 19 41  1  0  0  0  0
 20 21  1  0  0  0  0
 20 42  1  0  0  0  0
 20 43  1  0  0  0  0
 21 44  1  0  0  0  0
 21 45  1  0  0  0  0
M  END
> <s_m_source_file>
AV-unprocessed.smi

> <i_m_source_file_index>
960

> <i_lp_mmshare_version>
43012

> <i_f3d_flags>
0

> <s_epik_input>
W0NIMl09QyhbQ0gzXSlbQ0gyXU4xW0NIMl1bQ0gyXVtDSF0oW0NIMl1bQ0gyXTEpW05IXUMoPU8pW05IXWMyYyhbQ0gzXSlub2MyW0NIM10=

> <s_epik_cmdline>
J2VwaWtfcHl0aG9uJywgJy1waCcsICc3LjAnLCAnLXRuJywgJzgnLCAnLW1hJywgJzIwMCcsICctbWV0YWxfYmluZGluZycsICctaW1hZScsICc8aW5maWxlLm1hZT4nLCAnLW9tYWUnLCAnPG91dGZpbGUubWFlPic=

> <r_epik_Ionization_Penalty>
2.03694

> <r_epik_Ionization_Penalty_Charging>
0

> <r_epik_Ionization_Penalty_Neutral>
2.03694

> <r_epik_State_Penalty>
2.16834

> <r_epik_Charging_Adjusted_Penalty>
2.16834

> <i_epik_Tot_Q>
0

> <i_epik_Tot_abs_Q>
0

> <r_epik_Metal_State_Penalty>
2.16834

> <b_epik_Metal_Only>
0

> <s_lp_Force_Field>
OPLS_2005

> <r_lp_Energy>
16.835

> <b_lp_Chiralities_Consistent>
1

> <s_lp_Variant>
AV-unprocessed.smi:960-3

> <Gold.Version>
5.8.1

> <Gold.Id.Protein>
6NUR|6NUR_protein|mol2

> <Gold.PLP.Fitness>
35.6980

> <Gold.PLP.PLP>
-30.6381

> <Gold.PLP.part.hbond>
-2.0000

> <Gold.PLP.part.metal>
0.0000

> <Gold.PLP.part.buried>
-5.5073

> <Gold.PLP.part.nonpolar>
-26.1688

> <Gold.PLP.part.repulsive>
2.6889

> <Gold.PLP.ligand.clash>
0.0000

> <Gold.PLP.ligand.torsion>
0.5928

> <Gold.PLP.Chemscore.Hbond>
2.0000

> <Gold.PLP.Chemscore.CHOScore>
0.0000

> <Gold.PLP.Chemscore.Metal>
0.0000

> <Gold.Chemscore.Hbonds>
donor molecule, donor type, donor heavy atom, donor atom, acceptor molecule, acceptor atom, score
      L1  H     9    34       P1  7948  1.00
      L1  H    12    35       P1  7948  0.70

> <Gold.PLP.Chemscore.Internal.Correction>
0.2456

> <Gold.Rescore>
     Score         DG    S(hbond)    S(metal)    S(lipo)     H(rot)  DE(clash)    DE(int)     intcor
     14.34     -18.21       1.74        0.00      88.09       1.32       0.45       3.42       ----

> <Gold.Chemscore.Fitness>
14.3401

> <Gold.Chemscore.DG>
-18.2129

> <Gold.Chemscore.ZeroCoef>
-5.4800

> <Gold.Chemscore.Hbond>
1.7401

> <Gold.Chemscore.Metal>
0.0000

> <Gold.Chemscore.Lipo>
88.0889

> <Gold.Chemscore.Internal_Hbond>
0.0000

> <Gold.Chemscore.DEClash>
0.4504

> <Gold.Chemscore.DEInternal>
3.4224

> <Gold.Chemscore.Rot>
1.3225

> <Gold.Chemscore.Internal.Correction>
   9.000000E+99

> <Gold.Chemscore.Hbonds>
donor molecule, donor type, donor heavy atom, donor atom, acceptor molecule, acceptor atom, score
      L1  H     9    34       P1  7948  0.82
      L1  H    12    35       P1  7948  0.56

> <Gold.Chemscore.Hbond.Weighted>
-5.8121

> <Gold.Chemscore.Metal.Weighted>
-0.0000

> <Gold.Chemscore.Lipo.Weighted>
-10.3064

> <Gold.Chemscore.Internal_Hbond.Weighted>
0.0000

> <Gold.Chemscore.DEClash.Weighted>
0.4504

> <Gold.Chemscore.DEInternal.Weighted>
3.4224

> <Gold.Chemscore.Rot.Weighted>
3.3856

> <Gold.Chemscore.Internal.Correction.Weighted>
   9.000000E+99

> <Gold.Protein.RotatedTorsions>
[ 6907 6896 6895 6894 ] final -125.98 input  -60.11 | X-H torsion
[ 7974 7965 7964 7962 ] final   63.05 input  175.53 | X-H torsion
[ 8008 7997 7996 7995 ] final -126.92 input   59.86 | X-H torsion
[ 10167 10162 10161 10158 ] final   86.48 input  -65.29 | X-H torsion
[ 10718 10713 10712 10709 ] final  -51.56 input   66.30 | X-H torsion
[ 10763 10752 10751 10750 ] final  160.28 input  -60.55 | X-H torsion
[ 11005 11000 10999 10996 ] final   -4.77 input  -57.11 | X-H torsion

> <Gold.Protein.ActiveResidues>
 VAL166  LYS551  ARG553  GLY616  TRP617  ASP618  TYR619  PRO620  LYS621  CYS622 
 ASP623  PHE694  ASN695  SER759  ASP760  ASP761  ALA762  ILE779  LEU786  VAL792 
 PHE793  MET794  SER795  GLU796  ALA797  LYS798  CYS799  TRP800  GLU811  SER814 

> <Gold.Protein.RotatedAtoms>
  150.8923  133.7227  159.2901 H   0  0  0  0  0  0  0  0  0  0  0  0  # atno 6907 bound_to 6896
  151.4773  135.1048  159.9778 H   0  0  0  0  0  0  0  0  0  0  0  0  # atno 6908 bound_to 6896
  152.4827  133.8248  159.7128 H   0  0  0  0  0  0  0  0  0  0  0  0  # atno 6909 bound_to 6896
  145.8663  139.3348  143.0789 H   0  0  0  0  0  0  0  0  0  0  0  0  # atno 7974 bound_to 7965
  155.2377  140.0427  157.2971 H   0  0  0  0  0  0  0  0  0  0  0  0  # atno 8008 bound_to 7997
  154.5848  140.2410  155.7973 H   0  0  0  0  0  0  0  0  0  0  0  0  # atno 8009 bound_to 7997
  156.2218  140.2967  155.9980 H   0  0  0  0  0  0  0  0  0  0  0  0  # atno 8010 bound_to 7997
  139.8870  144.6407  150.8780 H   0  0  0  0  0  0  0  0  0  0  0  0  # atno 10167 bound_to 10162
  156.1699  130.4149  149.9663 H   0  0  0  0  0  0  0  0  0  0  0  0  # atno 10718 bound_to 10713
  154.2449  135.2773  155.2839 H   0  0  0  0  0  0  0  0  0  0  0  0  # atno 10763 bound_to 10752
  154.5514  135.5674  153.6928 H   0  0  0  0  0  0  0  0  0  0  0  0  # atno 10764 bound_to 10752
  152.9992  135.6275  154.2594 H   0  0  0  0  0  0  0  0  0  0  0  0  # atno 10765 bound_to 10752
  140.6838  133.9130  155.8573 H   0  0  0  0  0  0  0  0  0  0  0  0  # atno 11005 bound_to 11000
  145.9189  140.9129  143.0415 LP  0  0  0  0  0  0  0  0  0  0  0  0  # atno 17320 bound_to 7965
  144.6726  140.1261  143.7446 LP  0  0  0  0  0  0  0  0  0  0  0  0  # atno 17321 bound_to 7965
  140.7734  143.3540  151.1958 LP  0  0  0  0  0  0  0  0  0  0  0  0  # atno 17342 bound_to 10162
  139.7144  143.9325  152.2960 LP  0  0  0  0  0  0  0  0  0  0  0  0  # atno 17343 bound_to 10162
  156.7466  130.9099  151.3635 LP  0  0  0  0  0  0  0  0  0  0  0  0  # atno 17370 bound_to 10713
  157.6795  130.9126  150.0232 LP  0  0  0  0  0  0  0  0  0  0  0  0  # atno 17371 bound_to 10713
  141.0296  134.0775  157.4029 LP  0  0  0  0  0  0  0  0  0  0  0  0  # atno 17394 bound_to 11000
  139.8943  135.0135  156.6946 LP  0  0  0  0  0  0  0  0  0  0  0  0  # atno 17395 bound_to 11000

$$$$
