AV-unprocessed.smi:197|AV-procd|sdf|1547|dock6
  -GOLD-   2262019413D 1   1.00000     0.00000
 Structure written by MMmdl.
 54 57  0  0  0  0  0  0  0  0  1 V2000
  157.6004  136.9535  154.0856 C   0  0  0  0  0  0  0  0  0  0  0  0
  157.0010  135.8589  154.7558 O   0  0  0  0  0  0  0  0  0  0  0  0
  156.6534  136.1655  156.0960 C   0  0  0  0  0  0  0  0  0  0  0  0
  155.3958  137.0478  156.1058 C   0  0  0  0  0  0  0  0  0  0  0  0
  154.4174  136.7630  157.2771 C   0  0  1  0  0  0  0  0  0  0  0  0
  155.1930  136.5585  158.6014 C   0  0  0  0  0  0  0  0  0  0  0  0
  154.2977  136.3673  159.6901 O   0  0  0  0  0  0  0  0  0  0  0  0
  153.4643  137.4996  159.8900 C   0  0  0  0  0  0  0  0  0  0  0  0
  152.5996  137.7008  158.6402 C   0  0  0  0  0  0  0  0  0  0  0  0
  153.4370  137.8453  157.4534 N   0  0  0  0  0  0  0  0  0  0  0  0
  152.6633  138.1730  156.3902 C   0  0  0  0  0  0  0  0  0  0  0  0
  152.7121  137.4349  155.2490 N   0  0  0  0  0  0  0  0  0  0  0  0
  151.9278  137.7500  154.2138 C   0  0  0  0  0  0  0  0  0  0  0  0
  151.0329  138.7356  154.1139 N   0  0  0  0  0  0  0  0  0  0  0  0
  150.9735  139.4693  155.2624 C   0  0  0  0  0  0  0  0  0  0  0  0
  151.7477  139.2577  156.4369 C   0  0  0  0  0  0  0  0  0  0  0  0
  151.4185  140.1998  157.4027 N   0  0  0  0  0  0  0  0  0  0  0  0
  150.4968  140.9271  156.8319 C   0  0  0  0  0  0  0  0  0  0  0  0
  150.1627  140.5534  155.5492 N   0  0  0  0  0  0  0  0  0  0  0  0
  149.1670  141.1768  154.6912 C   0  0  0  0  0  0  0  0  0  0  0  0
  147.7369  141.1262  155.2797 C   0  0  2  0  0  0  0  0  0  0  0  0
  147.6873  141.9765  156.4151 O   0  0  0  0  0  0  0  0  0  0  0  0
  147.2851  139.7348  155.6983 C   0  0  0  0  0  0  0  0  0  0  0  0
  145.7669  139.8544  155.6559 C   0  0  0  0  0  0  0  0  0  0  0  0
  145.5002  140.7106  154.5524 O   0  0  0  0  0  0  0  0  0  0  0  0
  146.6439  141.5124  154.2589 C   0  0  1  0  0  0  0  0  0  0  0  0
  146.2677  143.0010  154.1833 C   0  0  0  0  0  0  0  0  0  0  0  0
  157.8440  136.6675  153.0625 H   0  0  0  0  0  0  0  0  0  0  0  0
  158.5242  137.2590  154.5787 H   0  0  0  0  0  0  0  0  0  0  0  0
  156.9250  137.8090  154.0443 H   0  0  0  0  0  0  0  0  0  0  0  0
  156.5008  135.2535  156.6733 H   0  0  0  0  0  0  0  0  0  0  0  0
  157.4751  136.7047  156.5698 H   0  0  0  0  0  0  0  0  0  0  0  0
  155.6942  138.0965  156.1330 H   0  0  0  0  0  0  0  0  0  0  0  0
  154.9017  136.9089  155.1446 H   0  0  0  0  0  0  0  0  0  0  0  0
  153.8660  135.8457  157.0652 H   0  0  0  0  0  0  0  0  0  0  0  0
  155.8290  135.6761  158.5444 H   0  0  0  0  0  0  0  0  0  0  0  0
  155.8465  137.4079  158.8075 H   0  0  0  0  0  0  0  0  0  0  0  0
  152.8320  137.3279  160.7612 H   0  0  0  0  0  0  0  0  0  0  0  0
  154.0663  138.3855  160.0987 H   0  0  0  0  0  0  0  0  0  0  0  0
  151.9319  136.8473  158.5114 H   0  0  0  0  0  0  0  0  0  0  0  0
  151.9710  138.5830  158.7721 H   0  0  0  0  0  0  0  0  0  0  0  0
  152.0292  137.1201  153.3425 H   0  0  0  0  0  0  0  0  0  0  0  0
  150.0258  141.7576  157.3375 H   0  0  0  0  0  0  0  0  0  0  0  0
  149.4668  142.2097  154.5084 H   0  0  0  0  0  0  0  0  0  0  0  0
  149.1949  140.6758  153.7226 H   0  0  0  0  0  0  0  0  0  0  0  0
  148.0341  142.8210  156.1718 H   0  0  0  0  0  0  0  0  0  0  0  0
  147.6053  138.9980  154.9606 H   0  0  0  0  0  0  0  0  0  0  0  0
  147.6650  139.4214  156.6718 H   0  0  0  0  0  0  0  0  0  0  0  0
  145.2718  138.8898  155.5437 H   0  0  0  0  0  0  0  0  0  0  0  0
  145.3940  140.3242  156.5670 H   0  0  0  0  0  0  0  0  0  0  0  0
  146.9687  141.1951  153.2671 H   0  0  0  0  0  0  0  0  0  0  0  0
  147.1415  143.6157  153.9656 H   0  0  0  0  0  0  0  0  0  0  0  0
  145.8278  143.3544  155.1162 H   0  0  0  0  0  0  0  0  0  0  0  0
  145.5367  143.1732  153.3933 H   0  0  0  0  0  0  0  0  0  0  0  0
  1  2  1  0  0  0  0
  1 28  1  0  0  0  0
  1 29  1  0  0  0  0
  1 30  1  0  0  0  0
  2  3  1  0  0  0  0
  3  4  1  0  0  0  0
  3 31  1  0  0  0  0
  3 32  1  0  0  0  0
  4  5  1  0  0  0  0
  4 33  1  0  0  0  0
  4 34  1  0  0  0  0
  5 10  1  0  0  0  0
  5  6  1  0  0  0  0
  5 35  1  0  0  0  0
  6  7  1  0  0  0  0
  6 36  1  0  0  0  0
  6 37  1  0  0  0  0
  7  8  1  0  0  0  0
  8  9  1  0  0  0  0
  8 38  1  0  0  0  0
  8 39  1  0  0  0  0
  9 10  1  0  0  0  0
  9 40  1  0  0  0  0
  9 41  1  0  0  0  0
 10 11  1  0  0  0  0
 11 16  1  0  0  0  0
 11 12  2  0  0  0  0
 12 13  1  0  0  0  0
 13 14  2  0  0  0  0
 13 42  1  0  0  0  0
 14 15  1  0  0  0  0
 15 19  1  0  0  0  0
 15 16  2  0  0  0  0
 16 17  1  0  0  0  0
 17 18  2  0  0  0  0
 18 19  1  0  0  0  0
 18 43  1  0  0  0  0
 19 20  1  0  0  0  0
 20 21  1  0  0  0  0
 20 44  1  0  0  0  0
 20 45  1  0  0  0  0
 21 26  1  0  0  0  0
 21 22  1  0  0  0  0
 21 23  1  0  0  0  0
 22 46  1  0  0  0  0
 23 24  1  0  0  0  0
 23 47  1  0  0  0  0
 23 48  1  0  0  0  0
 24 25  1  0  0  0  0
 24 49  1  0  0  0  0
 24 50  1  0  0  0  0
 25 26  1  0  0  0  0
 26 27  1  0  0  0  0
 26 51  1  0  0  0  0
 27 52  1  0  0  0  0
 27 53  1  0  0  0  0
 27 54  1  0  0  0  0
M  END
> <s_m_source_file>
AV-unprocessed.smi

> <i_m_source_file_index>
197

> <i_lp_mmshare_version>
43012

> <i_f3d_flags>
0

> <s_epik_input>
W0NIM11PW0NIMl1bQ0gyXVtDQEBIXTFbQ0gyXU9bQ0gyXVtDSDJdTjFjKG5bY0hdbjIpYyhjMjMpbltjSF1uM1tDSDJdW0NAQF00KFtPSF0pW0NIMl1bQ0gyXU9bQ0BIXTRbQ0gzXQ==

> <s_epik_cmdline>
J2VwaWtfcHl0aG9uJywgJy1waCcsICc3LjAnLCAnLXRuJywgJzgnLCAnLW1hJywgJzIwMCcsICctbWV0YWxfYmluZGluZycsICctaW1hZScsICc8aW5maWxlLm1hZT4nLCAnLW9tYWUnLCAnPG91dGZpbGUubWFlPic=

> <r_lp_tautomer_probability>
1

> <r_epik_Ionization_Penalty>
0.000106218

> <r_epik_Ionization_Penalty_Charging>
0

> <r_epik_Ionization_Penalty_Neutral>
0.000106218

> <r_epik_State_Penalty>
-0

> <r_epik_Charging_Adjusted_Penalty>
0

> <i_epik_Tot_Q>
0

> <i_epik_Tot_abs_Q>
0

> <r_epik_Metal_State_Penalty>
-0

> <b_epik_Metal_Only>
0

> <s_lp_Force_Field>
OPLS_2005

> <r_lp_Energy>
42.2665

> <b_lp_Chiralities_Consistent>
1

> <s_lp_Variant>
AV-unprocessed.smi:197-4

> <Gold.Version>
5.8.1

> <Gold.Id.Protein>
6NUR|6NUR_protein|mol2

> <Gold.PLP.Fitness>
43.9588

> <Gold.PLP.PLP>
-32.9113

> <Gold.PLP.part.hbond>
-3.9756

> <Gold.PLP.part.metal>
0.0000

> <Gold.PLP.part.buried>
-1.2942

> <Gold.PLP.part.nonpolar>
-29.7506

> <Gold.PLP.part.repulsive>
0.9005

> <Gold.PLP.ligand.clash>
0.0000

> <Gold.PLP.ligand.torsion>
0.5862

> <Gold.PLP.Chemscore.Hbond>
2.9413

> <Gold.PLP.Chemscore.CHOScore>
0.9737

> <Gold.PLP.Chemscore.Metal>
0.0000

> <Gold.Chemscore.Hbonds>
donor molecule, donor type, donor heavy atom, donor atom, acceptor molecule, acceptor atom, score
      L1  H    22    46       P1  8028  0.76
      P1  H 10752 10763       L1    12  0.22
      P1  H 10752 10764       L1     2  0.22
      L1  C    13    42       P1  7949  1.00

> <Gold.PLP.Chemscore.Internal.Correction>
0.4748

> <Gold.Rescore>
     Score         DG    S(hbond)    S(metal)    S(lipo)     H(rot)  DE(clash)    DE(int)     intcor
      7.48      -9.68       1.09        0.00      66.85       2.84       0.24       1.95       ----

> <Gold.Chemscore.Fitness>
7.4810

> <Gold.Chemscore.DG>
-9.6766

> <Gold.Chemscore.ZeroCoef>
-5.4800

> <Gold.Chemscore.Hbond>
1.0883

> <Gold.Chemscore.Metal>
0.0000

> <Gold.Chemscore.Lipo>
66.8477

> <Gold.Chemscore.Internal_Hbond>
0.0000

> <Gold.Chemscore.DEClash>
0.2428

> <Gold.Chemscore.DEInternal>
1.9528

> <Gold.Chemscore.Rot>
2.8358

> <Gold.Chemscore.Internal.Correction>
   9.000000E+99

> <Gold.Chemscore.Hbonds>
donor molecule, donor type, donor heavy atom, donor atom, acceptor molecule, acceptor atom, score
      L1  H    22    46       P1  8028  0.49
      P1  H 10752 10763       L1    12  0.19

> <Gold.Chemscore.Hbond.Weighted>
-3.6350

> <Gold.Chemscore.Metal.Weighted>
-0.0000

> <Gold.Chemscore.Lipo.Weighted>
-7.8212

> <Gold.Chemscore.Internal_Hbond.Weighted>
0.0000

> <Gold.Chemscore.DEClash.Weighted>
0.2428

> <Gold.Chemscore.DEInternal.Weighted>
1.9528

> <Gold.Chemscore.Rot.Weighted>
7.2596

> <Gold.Chemscore.Internal.Correction.Weighted>
   9.000000E+99

> <Gold.Protein.RotatedTorsions>
[ 6907 6896 6895 6894 ] final -129.47 input  -60.11 | X-H torsion
[ 7974 7965 7964 7962 ] final -135.16 input  175.53 | X-H torsion
[ 8008 7997 7996 7995 ] final   18.94 input   59.86 | X-H torsion
[ 10167 10162 10161 10158 ] final  178.60 input  -65.29 | X-H torsion
[ 10718 10713 10712 10709 ] final   23.64 input   66.30 | X-H torsion
[ 10763 10752 10751 10750 ] final  106.40 input  -60.55 | X-H torsion
[ 11005 11000 10999 10996 ] final -117.30 input  -57.11 | X-H torsion

> <Gold.Protein.ActiveResidues>
 VAL166  LYS551  ARG553  GLY616  TRP617  ASP618  TYR619  PRO620  LYS621  CYS622 
 ASP623  PHE694  ASN695  SER759  ASP760  ASP761  ALA762  ILE779  LEU786  VAL792 
 PHE793  MET794  SER795  GLU796  ALA797  LYS798  CYS799  TRP800  GLU811  SER814 

> <Gold.Protein.RotatedAtoms>
  150.9291  133.6788  159.2814 H   0  0  0  0  0  0  0  0  0  0  0  0  # atno 6907 bound_to 6896
  151.4216  135.0997  159.9625 H   0  0  0  0  0  0  0  0  0  0  0  0  # atno 6908 bound_to 6896
  152.5017  133.8741  159.7368 H   0  0  0  0  0  0  0  0  0  0  0  0  # atno 6909 bound_to 6896
  144.9039  140.6807  143.5068 H   0  0  0  0  0  0  0  0  0  0  0  0  # atno 7974 bound_to 7965
  154.9134  140.3017  155.5254 H   0  0  0  0  0  0  0  0  0  0  0  0  # atno 8008 bound_to 7997
  156.3013  140.2385  156.4111 H   0  0  0  0  0  0  0  0  0  0  0  0  # atno 8009 bound_to 7997
  154.8403  140.0414  157.1525 H   0  0  0  0  0  0  0  0  0  0  0  0  # atno 8010 bound_to 7997
  139.5301  144.2660  152.0667 H   0  0  0  0  0  0  0  0  0  0  0  0  # atno 10167 bound_to 10162
  157.1689  130.6750  149.6070 H   0  0  0  0  0  0  0  0  0  0  0  0  # atno 10718 bound_to 10713
  153.3924  135.3878  155.1932 H   0  0  0  0  0  0  0  0  0  0  0  0  # atno 10763 bound_to 10752
  154.8721  135.3751  154.4721 H   0  0  0  0  0  0  0  0  0  0  0  0  # atno 10764 bound_to 10752
  153.5209  135.7087  153.5793 H   0  0  0  0  0  0  0  0  0  0  0  0  # atno 10765 bound_to 10752
  141.0364  133.9903  157.3064 H   0  0  0  0  0  0  0  0  0  0  0  0  # atno 11005 bound_to 11000
  145.3569  139.1691  143.4404 LP  0  0  0  0  0  0  0  0  0  0  0  0  # atno 17320 bound_to 7965
  146.3123  140.3627  142.8666 LP  0  0  0  0  0  0  0  0  0  0  0  0  # atno 17321 bound_to 7965
  140.2122  144.4551  150.6380 LP  0  0  0  0  0  0  0  0  0  0  0  0  # atno 17342 bound_to 10162
  140.6473  143.2216  151.6157 LP  0  0  0  0  0  0  0  0  0  0  0  0  # atno 17343 bound_to 10162
  155.9741  130.4686  150.6365 LP  0  0  0  0  0  0  0  0  0  0  0  0  # atno 17370 bound_to 10713
  157.4062  131.0817  151.1263 LP  0  0  0  0  0  0  0  0  0  0  0  0  # atno 17371 bound_to 10713
  139.9244  135.0201  156.8181 LP  0  0  0  0  0  0  0  0  0  0  0  0  # atno 17394 bound_to 11000
  140.6314  133.9902  155.7664 LP  0  0  0  0  0  0  0  0  0  0  0  0  # atno 17395 bound_to 11000

$$$$
