AV-unprocessed.smi:2444|AV-procd|sdf|9632|dock9
  -GOLD-   2272013263D 1   1.00000     0.00000
 Structure written by MMmdl.
 18 18  0  0  0  0  0  0  0  0  2 V2000
  150.0014  143.6619  157.7811 N   0  3  0  0  0  0  0  0  0  0  0  0
  149.9152  142.2190  157.4993 C   0  0  0  0  0  0  0  0  0  0  0  0
  150.8910  141.8054  156.3896 C   0  0  0  0  0  0  0  0  0  0  0  0
  150.5768  140.4591  155.8281 C   0  0  0  0  0  0  0  0  0  0  0  0
  150.5867  139.2893  156.4772 N   0  0  0  0  0  0  0  0  0  0  0  0
  150.1789  138.3433  155.5602 N   0  0  0  0  0  0  0  0  0  0  0  0
  149.9424  139.0272  154.4418 C   0  0  0  0  0  0  0  0  0  0  0  0
  149.5070  138.5792  153.2067 N   0  0  0  0  0  0  0  0  0  0  0  0
  150.1590  140.3616  154.5382 O   0  0  0  0  0  0  0  0  0  0  0  0
  149.4514  143.8795  158.6001 H   0  0  0  0  0  0  0  0  0  0  0  0
  149.6476  144.1828  156.9912 H   0  0  0  0  0  0  0  0  0  0  0  0
  150.1316  141.6711  158.4172 H   0  0  0  0  0  0  0  0  0  0  0  0
  148.8907  141.9778  157.2137 H   0  0  0  0  0  0  0  0  0  0  0  0
  150.8695  142.5334  155.5775 H   0  0  0  0  0  0  0  0  0  0  0  0
  151.9128  141.7912  156.7711 H   0  0  0  0  0  0  0  0  0  0  0  0
  149.3156  137.6016  153.0403 H   0  0  0  0  0  0  0  0  0  0  0  0
  149.4052  139.2067  152.4223 H   0  0  0  0  0  0  0  0  0  0  0  0
  150.9647  143.9162  157.9475 H   0  0  0  0  0  0  0  0  0  0  0  0
  1  2  1  0  0  0  0
  1 10  1  0  0  0  0
  1 11  1  0  0  0  0
  1 18  1  0  0  0  0
  2  3  1  0  0  0  0
  2 12  1  0  0  0  0
  2 13  1  0  0  0  0
  3  4  1  0  0  0  0
  3 14  1  0  0  0  0
  3 15  1  0  0  0  0
  4  9  1  0  0  0  0
  4  5  2  0  0  0  0
  5  6  1  0  0  0  0
  6  7  2  0  0  0  0
  7  8  1  0  0  0  0
  7  9  1  0  0  0  0
  8 16  1  0  0  0  0
  8 17  1  0  0  0  0
M  CHG  1   1   1
M  END
> <s_m_source_file>
AV-unprocessed.smi

> <i_m_source_file_index>
2444

> <i_lp_mmshare_version>
43012

> <i_f3d_flags>
0

> <s_epik_input>
W05IMl1bQ0gyXVtDSDJdYzFubmMobzEpW05IMl0=

> <s_epik_cmdline>
J2VwaWtfcHl0aG9uJywgJy1waCcsICc3LjAnLCAnLXRuJywgJzgnLCAnLW1hJywgJzIwMCcsICctbWV0YWxfYmluZGluZycsICctaW1hZScsICc8aW5maWxlLm1hZT4nLCAnLW9tYWUnLCAnPG91dGZpbGUubWFlPic=

> <r_lp_tautomer_probability>
0.999976

> <r_epik_Ionization_Penalty>
0.00128557

> <r_epik_Ionization_Penalty_Charging>
0.00128552

> <r_epik_Ionization_Penalty_Neutral>
5.30568e-08

> <r_epik_State_Penalty>
0.000852301

> <r_epik_Charging_Adjusted_Penalty>
0.00213782

> <i_epik_Tot_Q>
1

> <i_epik_Tot_abs_Q>
1

> <r_epik_Metal_State_Penalty>
-0

> <b_epik_Metal_Only>
0

> <s_lp_Force_Field>
OPLS_2005

> <r_lp_Energy>
0.265405

> <b_lp_Chiralities_Consistent>
1

> <s_lp_Variant>
AV-unprocessed.smi:2444-1

> <Gold.Version>
5.8.1

> <Gold.Id.Protein>
6NUR|6NUR_protein|mol2

> <Gold.PLP.Fitness>
30.0591

> <Gold.PLP.PLP>
-15.2383

> <Gold.PLP.part.hbond>
-4.0042

> <Gold.PLP.part.metal>
0.0000

> <Gold.PLP.part.buried>
-3.4346

> <Gold.PLP.part.nonpolar>
-8.5266

> <Gold.PLP.part.repulsive>
0.2611

> <Gold.PLP.ligand.clash>
0.0000

> <Gold.PLP.ligand.torsion>
0.0816

> <Gold.PLP.Chemscore.Hbond>
4.9920

> <Gold.PLP.Chemscore.CHOScore>
0.0000

> <Gold.PLP.Chemscore.Metal>
0.0000

> <Gold.Chemscore.Hbonds>
donor molecule, donor type, donor heavy atom, donor atom, acceptor molecule, acceptor atom, score
      L1  H     1    11       P1  8028  2.00
      L1  H     8    16       P1  7948  0.98
      L1  H     8    17       P1  7957  0.96
      P1  H  7989  7998       L1     9  0.98

> <Gold.PLP.Chemscore.Internal.Correction>
0.0080

> <Gold.Rescore>
     Score         DG    S(hbond)    S(metal)    S(lipo)     H(rot)  DE(clash)    DE(int)     intcor
     15.02     -15.24       3.76        0.00      12.62       1.67       0.00       0.22       ----

> <Gold.Chemscore.Fitness>
15.0215

> <Gold.Chemscore.DG>
-15.2409

> <Gold.Chemscore.ZeroCoef>
-5.4800

> <Gold.Chemscore.Hbond>
3.7640

> <Gold.Chemscore.Metal>
0.0000

> <Gold.Chemscore.Lipo>
12.6181

> <Gold.Chemscore.Internal_Hbond>
0.0000

> <Gold.Chemscore.DEClash>
0.0029

> <Gold.Chemscore.DEInternal>
0.2165

> <Gold.Chemscore.Rot>
1.6747

> <Gold.Chemscore.Internal.Correction>
   9.000000E+99

> <Gold.Chemscore.Hbonds>
donor molecule, donor type, donor heavy atom, donor atom, acceptor molecule, acceptor atom, score
      L1  H     1    11       P1  8028  0.64
      L1  H     8    16       P1  7948  0.89
      L1  H     8    17       P1  7957  0.90
      P1  H  7989  7998       L1     9  0.40

> <Gold.Chemscore.Hbond.Weighted>
-12.5717

> <Gold.Chemscore.Metal.Weighted>
-0.0000

> <Gold.Chemscore.Lipo.Weighted>
-1.4763

> <Gold.Chemscore.Internal_Hbond.Weighted>
0.0000

> <Gold.Chemscore.DEClash.Weighted>
0.0029

> <Gold.Chemscore.DEInternal.Weighted>
0.2165

> <Gold.Chemscore.Rot.Weighted>
4.2872

> <Gold.Chemscore.Internal.Correction.Weighted>
   9.000000E+99

> <Gold.Protein.RotatedTorsions>
[ 6907 6896 6895 6894 ] final -165.48 input  -60.11 | X-H torsion
[ 7974 7965 7964 7962 ] final  -46.26 input  175.53 | X-H torsion
[ 8008 7997 7996 7995 ] final -179.01 input   59.86 | X-H torsion
[ 10167 10162 10161 10158 ] final   99.78 input  -65.29 | X-H torsion
[ 10718 10713 10712 10709 ] final  -68.18 input   66.30 | X-H torsion
[ 10763 10752 10751 10750 ] final  161.89 input  -60.55 | X-H torsion
[ 11005 11000 10999 10996 ] final -142.89 input  -57.11 | X-H torsion

> <Gold.Protein.ActiveResidues>
 VAL166  LYS551  ARG553  GLY616  TRP617  ASP618  TYR619  PRO620  LYS621  CYS622 
 ASP623  PHE694  ASN695  SER759  ASP760  ASP761  ALA762  ILE779  LEU786  VAL792 
 PHE793  MET794  SER795  GLU796  ALA797  LYS798  CYS799  TRP800  GLU811  SER814 

> <Gold.Protein.RotatedAtoms>
  151.4284  133.3677  159.2765 H   0  0  0  0  0  0  0  0  0  0  0  0  # atno 6907 bound_to 6896
  150.9243  134.8661  159.7520 H   0  0  0  0  0  0  0  0  0  0  0  0  # atno 6908 bound_to 6896
  152.4997  134.4224  159.9537 H   0  0  0  0  0  0  0  0  0  0  0  0  # atno 6909 bound_to 6896
  145.9737  140.7356  142.9397 H   0  0  0  0  0  0  0  0  0  0  0  0  # atno 7974 bound_to 7965
  156.0255  140.1270  157.0313 H   0  0  0  0  0  0  0  0  0  0  0  0  # atno 8008 bound_to 7997
  154.4329  140.1060  156.6095 H   0  0  0  0  0  0  0  0  0  0  0  0  # atno 8009 bound_to 7997
  155.5882  140.3469  155.4561 H   0  0  0  0  0  0  0  0  0  0  0  0  # atno 8010 bound_to 7997
  139.7586  144.6961  151.0325 H   0  0  0  0  0  0  0  0  0  0  0  0  # atno 10167 bound_to 10162
  156.0519  130.4290  150.1962 H   0  0  0  0  0  0  0  0  0  0  0  0  # atno 10718 bound_to 10713
  154.2699  135.2766  155.2743 H   0  0  0  0  0  0  0  0  0  0  0  0  # atno 10763 bound_to 10752
  154.5311  135.5729  153.6763 H   0  0  0  0  0  0  0  0  0  0  0  0  # atno 10764 bound_to 10752
  152.9947  135.6228  154.2853 H   0  0  0  0  0  0  0  0  0  0  0  0  # atno 10765 bound_to 10752
  140.8180  134.2665  157.4912 H   0  0  0  0  0  0  0  0  0  0  0  0  # atno 11005 bound_to 11000
  144.6843  140.2792  143.7294 LP  0  0  0  0  0  0  0  0  0  0  0  0  # atno 17320 bound_to 7965
  145.7869  139.1912  143.2125 LP  0  0  0  0  0  0  0  0  0  0  0  0  # atno 17321 bound_to 7965
  140.7805  143.4723  151.0129 LP  0  0  0  0  0  0  0  0  0  0  0  0  # atno 17342 bound_to 10162
  139.8410  143.7564  152.3180 LP  0  0  0  0  0  0  0  0  0  0  0  0  # atno 17343 bound_to 10162
  157.0044  130.9932  151.3382 LP  0  0  0  0  0  0  0  0  0  0  0  0  # atno 17370 bound_to 10713
  157.5453  130.8146  149.8078 LP  0  0  0  0  0  0  0  0  0  0  0  0  # atno 17371 bound_to 10713
  139.8710  134.9520  156.4101 LP  0  0  0  0  0  0  0  0  0  0  0  0  # atno 17394 bound_to 11000
  140.9128  133.7699  155.9812 LP  0  0  0  0  0  0  0  0  0  0  0  0  # atno 17395 bound_to 11000

$$$$
