AV-unprocessed.smi:410|AV-procd|sdf|2507|dock2
  -GOLD-   2262022453D 1   1.00000     0.00000
 Structure written by MMmdl.
 33 35  0  0  0  0  0  0  0  0  2 V2000
  150.6807  136.7110  154.7484 C   0  0  0  0  0  0  0  0  0  0  0  0
  150.5921  138.1243  155.2404 C   0  0  0  0  0  0  0  0  0  0  0  0
  149.9344  139.0088  154.5260 N   0  0  0  0  0  0  0  0  0  0  0  0
  150.0446  140.1946  155.1719 N   0  0  0  0  0  0  0  0  0  0  0  0
  149.4129  141.3669  154.5884 C   0  0  0  0  0  0  0  0  0  0  0  0
  147.9239  141.1405  154.2796 C   0  0  0  0  0  0  0  0  0  0  0  0
  147.7589  140.2071  153.2321 O   0  0  0  0  0  0  0  0  0  0  0  0
  150.7852  140.1001  156.3365 C   0  0  0  0  0  0  0  0  0  0  0  0
  151.0924  141.1091  157.2000 N   0  0  0  0  0  0  0  0  0  0  0  0
  151.8472  140.7450  158.2594 C   0  0  0  0  0  0  0  0  0  0  0  0
  152.2007  141.8203  159.1858 C   0  0  0  0  0  0  0  0  0  0  0  0
  152.8143  141.8222  160.4104 C   0  0  0  0  0  0  0  0  0  0  0  0
  152.8878  143.1798  160.8283 C   0  0  0  0  0  0  0  0  0  0  0  0
  152.3136  143.9122  159.8296 C   0  0  0  0  0  0  0  0  0  0  0  0
  151.8894  143.1013  158.8229 O   0  0  0  0  0  0  0  0  0  0  0  0
  152.2795  139.4205  158.4836 C   0  0  0  0  0  0  0  0  0  0  0  0
  151.9312  138.3888  157.5786 C   0  0  0  0  0  0  0  0  0  0  0  0
  152.3900  136.9842  157.8721 C   0  0  0  0  0  0  0  0  0  0  0  0
  152.7163  136.6690  159.0353 O   0  0  0  0  0  0  0  0  0  0  0  0
  152.4610  136.1694  156.9247 O   0  5  0  0  0  0  0  0  0  0  0  0
  151.1559  138.7287  156.4296 C   0  0  0  0  0  0  0  0  0  0  0  0
  151.7109  136.3551  154.7510 H   0  0  0  0  0  0  0  0  0  0  0  0
  150.3144  136.6156  153.7257 H   0  0  0  0  0  0  0  0  0  0  0  0
  150.0848  136.0398  155.3666 H   0  0  0  0  0  0  0  0  0  0  0  0
  149.5280  142.2029  155.2795 H   0  0  0  0  0  0  0  0  0  0  0  0
  149.9498  141.6423  153.6798 H   0  0  0  0  0  0  0  0  0  0  0  0
  147.3984  140.7791  155.1641 H   0  0  0  0  0  0  0  0  0  0  0  0
  147.4541  142.0801  153.9882 H   0  0  0  0  0  0  0  0  0  0  0  0
  148.5617  140.1669  152.7354 H   0  0  0  0  0  0  0  0  0  0  0  0
  153.1702  140.9527  160.9426 H   0  0  0  0  0  0  0  0  0  0  0  0
  153.3085  143.5703  161.7429 H   0  0  0  0  0  0  0  0  0  0  0  0
  152.1337  144.9666  159.6797 H   0  0  0  0  0  0  0  0  0  0  0  0
  152.8700  139.1954  159.3598 H   0  0  0  0  0  0  0  0  0  0  0  0
  1  2  1  0  0  0  0
  1 22  1  0  0  0  0
  1 23  1  0  0  0  0
  1 24  1  0  0  0  0
  2 21  1  0  0  0  0
  2  3  2  0  0  0  0
  3  4  1  0  0  0  0
  4  5  1  0  0  0  0
  4  8  1  0  0  0  0
  5  6  1  0  0  0  0
  5 25  1  0  0  0  0
  5 26  1  0  0  0  0
  6  7  1  0  0  0  0
  6 27  1  0  0  0  0
  6 28  1  0  0  0  0
  7 29  1  0  0  0  0
  8 21  1  0  0  0  0
  8  9  2  0  0  0  0
  9 10  1  0  0  0  0
 10 11  1  0  0  0  0
 10 16  2  0  0  0  0
 11 15  1  0  0  0  0
 11 12  2  0  0  0  0
 12 13  1  0  0  0  0
 12 30  1  0  0  0  0
 13 14  2  0  0  0  0
 13 31  1  0  0  0  0
 14 15  1  0  0  0  0
 14 32  1  0  0  0  0
 16 17  1  0  0  0  0
 16 33  1  0  0  0  0
 17 18  1  0  0  0  0
 17 21  2  0  0  0  0
 18 19  2  0  0  0  0
 18 20  1  0  0  0  0
M  CHG  1  20  -1
M  END
> <s_m_source_file>
AV-unprocessed.smi

> <i_m_source_file_index>
410

> <i_lp_mmshare_version>
43012

> <i_f3d_flags>
0

> <s_epik_input>
W09IXVtDSDJdW0NIMl1uMW5jKFtDSDNdKWMoYzEyKWMoQyg9TylbT0hdKVtjSF1jKG4yKS1jM1tjSF1bY0hdW2NIXW8z

> <s_epik_cmdline>
J2VwaWtfcHl0aG9uJywgJy1waCcsICc3LjAnLCAnLXRuJywgJzgnLCAnLW1hJywgJzIwMCcsICctbWV0YWxfYmluZGluZycsICctaW1hZScsICc8aW5maWxlLm1hZT4nLCAnLW9tYWUnLCAnPG91dGZpbGUubWFlPic=

> <r_epik_Ionization_Penalty>
0.0015027

> <r_epik_Ionization_Penalty_Charging>
0.0014228

> <r_epik_Ionization_Penalty_Neutral>
7.98983e-05

> <r_epik_State_Penalty>
0.000949801

> <r_epik_Charging_Adjusted_Penalty>
0.0023726

> <i_epik_Tot_Q>
-1

> <i_epik_Tot_abs_Q>
1

> <r_epik_Metal_State_Penalty>
-0

> <b_epik_Metal_Only>
0

> <s_lp_Force_Field>
OPLS_2005

> <r_lp_Energy>
7.49674

> <b_lp_Chiralities_Consistent>
1

> <s_lp_Variant>
AV-unprocessed.smi:410-1

> <Gold.Version>
5.8.1

> <Gold.Id.Protein>
6NUR|6NUR_protein|mol2

> <Gold.PLP.Fitness>
50.6224

> <Gold.PLP.PLP>
-36.8078

> <Gold.PLP.part.hbond>
-3.0000

> <Gold.PLP.part.metal>
0.0000

> <Gold.PLP.part.buried>
-4.9118

> <Gold.PLP.part.nonpolar>
-29.8874

> <Gold.PLP.part.repulsive>
0.2069

> <Gold.PLP.ligand.clash>
0.0000

> <Gold.PLP.ligand.torsion>
0.2906

> <Gold.PLP.Chemscore.Hbond>
4.7920

> <Gold.PLP.Chemscore.CHOScore>
0.0000

> <Gold.PLP.Chemscore.Metal>
0.0000

> <Gold.Chemscore.Hbonds>
donor molecule, donor type, donor heavy atom, donor atom, acceptor molecule, acceptor atom, score
      L1  H     7    29       P1  7957  1.00
      P1  H  6896  6909       L1    19  1.82
      P1  H 10752 10764       L1    20  1.85

> <Gold.PLP.Chemscore.Internal.Correction>
0.0198

> <Gold.Rescore>
     Score         DG    S(hbond)    S(metal)    S(lipo)     H(rot)  DE(clash)    DE(int)     intcor
     19.36     -20.98       2.85        0.00      91.37       1.84       0.04       1.58       ----

> <Gold.Chemscore.Fitness>
19.3576

> <Gold.Chemscore.DG>
-20.9764

> <Gold.Chemscore.ZeroCoef>
-5.4800

> <Gold.Chemscore.Hbond>
2.8478

> <Gold.Chemscore.Metal>
0.0000

> <Gold.Chemscore.Lipo>
91.3661

> <Gold.Chemscore.Internal_Hbond>
0.0000

> <Gold.Chemscore.DEClash>
0.0368

> <Gold.Chemscore.DEInternal>
1.5819

> <Gold.Chemscore.Rot>
1.8379

> <Gold.Chemscore.Internal.Correction>
   9.000000E+99

> <Gold.Chemscore.Hbonds>
donor molecule, donor type, donor heavy atom, donor atom, acceptor molecule, acceptor atom, score
      L1  H     7    29       P1  7957  0.98
      P1  H  6896  6909       L1    19  0.83
      P1  H 10752 10764       L1    20  0.89

> <Gold.Chemscore.Hbond.Weighted>
-9.5116

> <Gold.Chemscore.Metal.Weighted>
-0.0000

> <Gold.Chemscore.Lipo.Weighted>
-10.6898

> <Gold.Chemscore.Internal_Hbond.Weighted>
0.0000

> <Gold.Chemscore.DEClash.Weighted>
0.0368

> <Gold.Chemscore.DEInternal.Weighted>
1.5819

> <Gold.Chemscore.Rot.Weighted>
4.7051

> <Gold.Chemscore.Internal.Correction.Weighted>
   9.000000E+99

> <Gold.Protein.RotatedTorsions>
[ 6907 6896 6895 6894 ] final  143.70 input  -60.11 | X-H torsion
[ 7974 7965 7964 7962 ] final   86.27 input  175.53 | X-H torsion
[ 8008 7997 7996 7995 ] final   72.67 input   59.86 | X-H torsion
[ 10167 10162 10161 10158 ] final   87.89 input  -65.29 | X-H torsion
[ 10718 10713 10712 10709 ] final  168.86 input   66.30 | X-H torsion
[ 10763 10752 10751 10750 ] final  -21.62 input  -60.55 | X-H torsion
[ 11005 11000 10999 10996 ] final  112.15 input  -57.11 | X-H torsion

> <Gold.Protein.ActiveResidues>
 VAL166  LYS551  ARG553  GLY616  TRP617  ASP618  TYR619  PRO620  LYS621  CYS622 
 ASP623  PHE694  ASN695  SER759  ASP760  ASP761  ALA762  ILE779  LEU786  VAL792 
 PHE793  MET794  SER795  GLU796  ALA797  LYS798  CYS799  TRP800  GLU811  SER814 

> <Gold.Protein.RotatedAtoms>
  152.2029  133.4854  159.5068 H   0  0  0  0  0  0  0  0  0  0  0  0  # atno 6907 bound_to 6896
  150.6973  134.1566  159.4169 H   0  0  0  0  0  0  0  0  0  0  0  0  # atno 6908 bound_to 6896
  151.9484  135.0180  160.0591 H   0  0  0  0  0  0  0  0  0  0  0  0  # atno 6909 bound_to 6896
  145.5745  139.2317  143.2387 H   0  0  0  0  0  0  0  0  0  0  0  0  # atno 7974 bound_to 7965
  155.7723  140.3484  155.5253 H   0  0  0  0  0  0  0  0  0  0  0  0  # atno 8008 bound_to 7997
  155.8809  140.1002  157.1506 H   0  0  0  0  0  0  0  0  0  0  0  0  # atno 8009 bound_to 7997
  154.4025  140.1322  156.4183 H   0  0  0  0  0  0  0  0  0  0  0  0  # atno 8010 bound_to 7997
  139.8728  144.6483  150.8930 H   0  0  0  0  0  0  0  0  0  0  0  0  # atno 10167 bound_to 10162
  157.0311  131.0259  151.2744 H   0  0  0  0  0  0  0  0  0  0  0  0  # atno 10718 bound_to 10713
  153.6390  135.6986  153.5248 H   0  0  0  0  0  0  0  0  0  0  0  0  # atno 10763 bound_to 10752
  153.2797  135.4189  155.1067 H   0  0  0  0  0  0  0  0  0  0  0  0  # atno 10764 bound_to 10752
  154.8504  135.3599  154.5934 H   0  0  0  0  0  0  0  0  0  0  0  0  # atno 10765 bound_to 10752
  139.8920  134.9523  156.6541 H   0  0  0  0  0  0  0  0  0  0  0  0  # atno 11005 bound_to 11000
  146.1761  140.6571  142.9211 LP  0  0  0  0  0  0  0  0  0  0  0  0  # atno 17320 bound_to 7965
  144.7422  140.4973  143.6861 LP  0  0  0  0  0  0  0  0  0  0  0  0  # atno 17321 bound_to 7965
  140.7758  143.3649  151.1757 LP  0  0  0  0  0  0  0  0  0  0  0  0  # atno 17342 bound_to 10162
  139.7268  143.9136  152.3005 LP  0  0  0  0  0  0  0  0  0  0  0  0  # atno 17343 bound_to 10162
  157.5177  130.7978  149.7774 LP  0  0  0  0  0  0  0  0  0  0  0  0  # atno 17370 bound_to 10713
  156.0069  130.3851  150.2399 LP  0  0  0  0  0  0  0  0  0  0  0  0  # atno 17371 bound_to 10713
  140.7497  133.8907  155.8338 LP  0  0  0  0  0  0  0  0  0  0  0  0  # atno 17394 bound_to 11000
  141.0010  134.1150  157.4317 LP  0  0  0  0  0  0  0  0  0  0  0  0  # atno 17395 bound_to 11000

$$$$
