AV-unprocessed.smi:90|AV-procd|sdf|830|dock7
  -GOLD-   2262017253D 1   1.00000     0.00000
 Structure written by MMmdl.
 64 67  0  0  0  0  0  0  0  0  2 V2000
  152.3523  138.2804  159.8146 C   0  0  0  0  0  0  0  0  0  0  0  0
  152.1890  139.0911  158.6110 N   0  0  0  0  0  0  0  0  0  0  0  0
  152.8650  140.3868  158.5822 C   0  0  0  0  0  0  0  0  0  0  0  0
  152.2335  141.4060  159.5506 C   0  0  0  0  0  0  0  0  0  0  0  0
  153.1856  142.5664  159.9430 C   0  0  1  0  0  0  0  0  0  0  0  0
  153.4767  143.5457  158.7823 C   0  0  0  0  0  0  0  0  0  0  0  0
  152.2549  144.4131  158.4408 C   0  0  0  0  0  0  0  0  0  0  0  0
  151.7595  145.1441  159.6959 C   0  0  0  0  0  0  0  0  0  0  0  0
  151.5043  144.1637  160.8532 C   0  0  0  0  0  0  0  0  0  0  0  0
  152.7120  143.3434  161.1275 N   0  3  1  0  0  0  0  0  0  0  0  0
  152.6078  142.5606  162.3805 C   0  0  0  0  0  0  0  0  0  0  0  0
  152.0409  138.4439  157.4230 C   0  0  0  0  0  0  0  0  0  0  0  0
  152.7941  138.8307  156.3582 N   0  0  0  0  0  0  0  0  0  0  0  0
  152.6527  138.2325  155.1726 C   0  0  0  0  0  0  0  0  0  0  0  0
  151.8335  137.2365  154.8352 N   0  0  0  0  0  0  0  0  0  0  0  0
  151.0854  136.8276  155.8986 C   0  0  0  0  0  0  0  0  0  0  0  0
  151.1207  137.3745  157.2139 C   0  0  0  0  0  0  0  0  0  0  0  0
  150.2154  136.6983  158.0239 N   0  0  0  0  0  0  0  0  0  0  0  0
  149.6717  135.8145  157.2337 C   0  0  0  0  0  0  0  0  0  0  0  0
  150.1475  135.8095  155.9421 N   0  0  0  0  0  0  0  0  0  0  0  0
  149.7195  134.9323  154.8603 C   0  0  0  0  0  0  0  0  0  0  0  0
  149.4545  133.4538  155.2767 C   0  0  0  0  0  0  0  0  0  0  0  0
  148.1670  133.3498  156.1431 C   0  0  0  0  0  0  0  0  0  0  0  0
  147.0024  133.6796  155.4131 O   0  0  0  0  0  0  0  0  0  0  0  0
  149.3005  132.5667  154.0144 C   0  0  0  0  0  0  0  0  0  0  0  0
  149.3651  131.0584  154.3210 C   0  0  0  0  0  0  0  0  0  0  0  0
  150.5683  130.7475  155.0107 O   0  0  0  0  0  0  0  0  0  0  0  0
  150.6713  131.4107  156.2636 C   0  0  0  0  0  0  0  0  0  0  0  0
  150.6958  132.9333  156.0450 C   0  0  0  0  0  0  0  0  0  0  0  0
  151.5820  137.5101  159.8713 H   0  0  0  0  0  0  0  0  0  0  0  0
  152.2670  138.9001  160.7075 H   0  0  0  0  0  0  0  0  0  0  0  0
  153.3295  137.7964  159.8306 H   0  0  0  0  0  0  0  0  0  0  0  0
  153.9267  140.2787  158.7932 H   0  0  0  0  0  0  0  0  0  0  0  0
  152.8092  140.7626  157.5610 H   0  0  0  0  0  0  0  0  0  0  0  0
  151.3120  141.7925  159.1168 H   0  0  0  0  0  0  0  0  0  0  0  0
  151.9360  140.8658  160.4483 H   0  0  0  0  0  0  0  0  0  0  0  0
  154.1383  142.1174  160.2277 H   0  0  0  0  0  0  0  0  0  0  0  0
  154.3005  144.1999  159.0710 H   0  0  0  0  0  0  0  0  0  0  0  0
  153.8231  143.0173  157.8949 H   0  0  0  0  0  0  0  0  0  0  0  0
  152.5144  145.1356  157.6665 H   0  0  0  0  0  0  0  0  0  0  0  0
  151.4567  143.7952  158.0289 H   0  0  0  0  0  0  0  0  0  0  0  0
  152.5035  145.8802  160.0032 H   0  0  0  0  0  0  0  0  0  0  0  0
  150.8500  145.7014  159.4697 H   0  0  0  0  0  0  0  0  0  0  0  0
  151.2401  144.7290  161.7476 H   0  0  0  0  0  0  0  0  0  0  0  0
  150.6523  143.5205  160.6310 H   0  0  0  0  0  0  0  0  0  0  0  0
  151.7513  141.8862  162.3670 H   0  0  0  0  0  0  0  0  0  0  0  0
  152.4879  143.2304  163.2323 H   0  0  0  0  0  0  0  0  0  0  0  0
  153.5106  141.9726  162.5483 H   0  0  0  0  0  0  0  0  0  0  0  0
  153.2852  138.6059  154.3807 H   0  0  0  0  0  0  0  0  0  0  0  0
  148.9084  135.1312  157.5766 H   0  0  0  0  0  0  0  0  0  0  0  0
  148.8163  135.3656  154.4285 H   0  0  0  0  0  0  0  0  0  0  0  0
  150.4688  134.9762  154.0692 H   0  0  0  0  0  0  0  0  0  0  0  0
  148.0502  132.3436  156.5460 H   0  0  0  0  0  0  0  0  0  0  0  0
  148.2062  134.0126  157.0058 H   0  0  0  0  0  0  0  0  0  0  0  0
  147.2496  134.2266  154.6834 H   0  0  0  0  0  0  0  0  0  0  0  0
  148.3643  132.7869  153.5006 H   0  0  0  0  0  0  0  0  0  0  0  0
  150.0981  132.8017  153.3083 H   0  0  0  0  0  0  0  0  0  0  0  0
  148.5032  130.7275  154.9010 H   0  0  0  0  0  0  0  0  0  0  0  0
  149.3451  130.4924  153.3897 H   0  0  0  0  0  0  0  0  0  0  0  0
  149.8547  131.1111  156.9212 H   0  0  0  0  0  0  0  0  0  0  0  0
  151.5940  131.0922  156.7488 H   0  0  0  0  0  0  0  0  0  0  0  0
  151.5979  133.1745  155.4811 H   0  0  0  0  0  0  0  0  0  0  0  0
  150.8030  133.4438  157.0024 H   0  0  0  0  0  0  0  0  0  0  0  0
  153.4480  144.0123  161.3039 H   0  0  0  0  0  0  0  0  0  0  0  0
  1  2  1  0  0  0  0
  1 30  1  0  0  0  0
  1 31  1  0  0  0  0
  1 32  1  0  0  0  0
  2  3  1  0  0  0  0
  2 12  1  0  0  0  0
  3  4  1  0  0  0  0
  3 33  1  0  0  0  0
  3 34  1  0  0  0  0
  4  5  1  0  0  0  0
  4 35  1  0  0  0  0
  4 36  1  0  0  0  0
  5 10  1  0  0  0  0
  5  6  1  0  0  0  0
  5 37  1  0  0  0  0
  6  7  1  0  0  0  0
  6 38  1  0  0  0  0
  6 39  1  0  0  0  0
  7  8  1  0  0  0  0
  7 40  1  0  0  0  0
  7 41  1  0  0  0  0
  8  9  1  0  0  0  0
  8 42  1  0  0  0  0
  8 43  1  0  0  0  0
  9 10  1  0  0  0  0
  9 44  1  0  0  0  0
  9 45  1  0  0  0  0
 10 11  1  0  0  0  0
 10 64  1  0  0  0  0
 11 46  1  0  0  0  0
 11 47  1  0  0  0  0
 11 48  1  0  0  0  0
 12 17  1  0  0  0  0
 12 13  2  0  0  0  0
 13 14  1  0  0  0  0
 14 15  2  0  0  0  0
 14 49  1  0  0  0  0
 15 16  1  0  0  0  0
 16 20  1  0  0  0  0
 16 17  2  0  0  0  0
 17 18  1  0  0  0  0
 18 19  2  0  0  0  0
 19 20  1  0  0  0  0
 19 50  1  0  0  0  0
 20 21  1  0  0  0  0
 21 22  1  0  0  0  0
 21 51  1  0  0  0  0
 21 52  1  0  0  0  0
 22 29  1  0  0  0  0
 22 23  1  0  0  0  0
 22 25  1  0  0  0  0
 23 24  1  0  0  0  0
 23 53  1  0  0  0  0
 23 54  1  0  0  0  0
 24 55  1  0  0  0  0
 25 26  1  0  0  0  0
 25 56  1  0  0  0  0
 25 57  1  0  0  0  0
 26 27  1  0  0  0  0
 26 58  1  0  0  0  0
 26 59  1  0  0  0  0
 27 28  1  0  0  0  0
 28 29  1  0  0  0  0
 28 60  1  0  0  0  0
 28 61  1  0  0  0  0
 29 62  1  0  0  0  0
 29 63  1  0  0  0  0
M  CHG  1  10   1
M  END
> <s_m_source_file>
AV-unprocessed.smi

> <i_m_source_file_index>
90

> <i_lp_mmshare_version>
43012

> <i_f3d_flags>
0

> <s_epik_input>
W0NIM11OMVtDSDJdW0NIMl1bQ0gyXVtDSDJdW0NASF0xW0NIMl1bQ0gyXU4oW0NIM10pYyhuW2NIXW4yKWMoYzIzKW5bY0hdbjNbQ0gyXUM0KFtDSDJdW09IXSlbQ0gyXVtDSDJdT1tDSDJdW0NIMl00

> <s_epik_cmdline>
J2VwaWtfcHl0aG9uJywgJy1waCcsICc3LjAnLCAnLXRuJywgJzgnLCAnLW1hJywgJzIwMCcsICctbWV0YWxfYmluZGluZycsICctaW1hZScsICc8aW5maWxlLm1hZT4nLCAnLW9tYWUnLCAnPG91dGZpbGUubWFlPic=

> <r_lp_tautomer_probability>
1

> <r_epik_Ionization_Penalty>
0.00234895

> <r_epik_Ionization_Penalty_Charging>
0.00106647

> <r_epik_Ionization_Penalty_Neutral>
0.00128248

> <r_epik_State_Penalty>
-0

> <r_epik_Charging_Adjusted_Penalty>
0.00106647

> <i_epik_Tot_Q>
1

> <i_epik_Tot_abs_Q>
1

> <r_epik_Metal_State_Penalty>
-0

> <b_epik_Metal_Only>
0

> <s_lp_Force_Field>
OPLS_2005

> <r_lp_Energy>
42.9862

> <b_lp_Chiralities_Consistent>
1

> <s_lp_Variant>
AV-unprocessed.smi:90-2

> <Gold.Version>
5.8.1

> <Gold.Id.Protein>
6NUR|6NUR_protein|mol2

> <Gold.PLP.Fitness>
57.1939

> <Gold.PLP.PLP>
-52.9523

> <Gold.PLP.part.hbond>
-2.3840

> <Gold.PLP.part.metal>
0.0000

> <Gold.PLP.part.buried>
-6.6282

> <Gold.PLP.part.nonpolar>
-43.8985

> <Gold.PLP.part.repulsive>
0.1797

> <Gold.PLP.ligand.clash>
0.0000

> <Gold.PLP.ligand.torsion>
1.2707

> <Gold.PLP.Chemscore.Hbond>
2.0087

> <Gold.PLP.Chemscore.CHOScore>
0.0000

> <Gold.PLP.Chemscore.Metal>
0.0000

> <Gold.Chemscore.Hbonds>
donor molecule, donor type, donor heavy atom, donor atom, acceptor molecule, acceptor atom, score
      P1  H  7997  8009       L1    13  1.00
      P1  H 10752 10764       L1    15  0.94

> <Gold.PLP.Chemscore.Internal.Correction>
0.7567

> <Gold.Rescore>
     Score         DG    S(hbond)    S(metal)    S(lipo)     H(rot)  DE(clash)    DE(int)     intcor
     16.90     -18.35       1.16        0.00     136.62       2.73       0.21       1.24       ----

> <Gold.Chemscore.Fitness>
16.9012

> <Gold.Chemscore.DG>
-18.3483

> <Gold.Chemscore.ZeroCoef>
-5.4800

> <Gold.Chemscore.Hbond>
1.1632

> <Gold.Chemscore.Metal>
0.0000

> <Gold.Chemscore.Lipo>
136.6153

> <Gold.Chemscore.Internal_Hbond>
0.0000

> <Gold.Chemscore.DEClash>
0.2067

> <Gold.Chemscore.DEInternal>
1.2404

> <Gold.Chemscore.Rot>
2.7347

> <Gold.Chemscore.Internal.Correction>
   9.000000E+99

> <Gold.Chemscore.Hbonds>
donor molecule, donor type, donor heavy atom, donor atom, acceptor molecule, acceptor atom, score
      P1  H  7997  8009       L1    13  0.66
      P1  H 10752 10764       L1    15  0.29

> <Gold.Chemscore.Hbond.Weighted>
-3.8852

> <Gold.Chemscore.Metal.Weighted>
-0.0000

> <Gold.Chemscore.Lipo.Weighted>
-15.9840

> <Gold.Chemscore.Internal_Hbond.Weighted>
0.0000

> <Gold.Chemscore.DEClash.Weighted>
0.2067

> <Gold.Chemscore.DEInternal.Weighted>
1.2404

> <Gold.Chemscore.Rot.Weighted>
7.0009

> <Gold.Chemscore.Internal.Correction.Weighted>
   9.000000E+99

> <Gold.Protein.RotatedTorsions>
[ 6907 6896 6895 6894 ] final -168.51 input  -60.11 | X-H torsion
[ 7974 7965 7964 7962 ] final  129.14 input  175.53 | X-H torsion
[ 8008 7997 7996 7995 ] final -157.03 input   59.86 | X-H torsion
[ 10167 10162 10161 10158 ] final  -33.68 input  -65.29 | X-H torsion
[ 10718 10713 10712 10709 ] final -155.75 input   66.30 | X-H torsion
[ 10763 10752 10751 10750 ] final  -75.57 input  -60.55 | X-H torsion
[ 11005 11000 10999 10996 ] final   97.55 input  -57.11 | X-H torsion

> <Gold.Protein.ActiveResidues>
 VAL166  LYS551  ARG553  GLY616  TRP617  ASP618  TYR619  PRO620  LYS621  CYS622 
 ASP623  PHE694  ASN695  SER759  ASP760  ASP761  ALA762  ILE779  LEU786  VAL792 
 PHE793  MET794  SER795  GLU796  ALA797  LYS798  CYS799  TRP800  GLU811  SER814 

> <Gold.Protein.RotatedAtoms>
  151.4768  133.3556  159.2831 H   0  0  0  0  0  0  0  0  0  0  0  0  # atno 6907 bound_to 6896
  150.8924  134.8331  159.7313 H   0  0  0  0  0  0  0  0  0  0  0  0  # atno 6908 bound_to 6896
  152.4831  134.4679  159.9678 H   0  0  0  0  0  0  0  0  0  0  0  0  # atno 6909 bound_to 6896
  145.0319  139.4038  143.5145 H   0  0  0  0  0  0  0  0  0  0  0  0  # atno 7974 bound_to 7965
  155.7262  140.0796  157.2309 H   0  0  0  0  0  0  0  0  0  0  0  0  # atno 8008 bound_to 7997
  154.4038  140.1603  156.2512 H   0  0  0  0  0  0  0  0  0  0  0  0  # atno 8009 bound_to 7997
  155.9151  140.3401  155.6131 H   0  0  0  0  0  0  0  0  0  0  0  0  # atno 8010 bound_to 7997
  140.7200  143.3602  151.1978 H   0  0  0  0  0  0  0  0  0  0  0  0  # atno 10167 bound_to 10162
  156.5171  130.8461  151.2668 H   0  0  0  0  0  0  0  0  0  0  0  0  # atno 10718 bound_to 10713
  154.4883  135.5827  153.6440 H   0  0  0  0  0  0  0  0  0  0  0  0  # atno 10763 bound_to 10752
  152.9858  135.6106  154.3158 H   0  0  0  0  0  0  0  0  0  0  0  0  # atno 10764 bound_to 10752
  154.3056  135.2846  155.2570 H   0  0  0  0  0  0  0  0  0  0  0  0  # atno 10765 bound_to 10752
  139.8775  134.9006  156.4324 H   0  0  0  0  0  0  0  0  0  0  0  0  # atno 11005 bound_to 11000
  146.3499  139.9874  142.8689 LP  0  0  0  0  0  0  0  0  0  0  0  0  # atno 17320 bound_to 7965
  145.1759  140.9744  143.4294 LP  0  0  0  0  0  0  0  0  0  0  0  0  # atno 17321 bound_to 7965
  139.7152  143.9311  152.2964 LP  0  0  0  0  0  0  0  0  0  0  0  0  # atno 17342 bound_to 10162
  139.9050  144.6890  150.8624 LP  0  0  0  0  0  0  0  0  0  0  0  0  # atno 17343 bound_to 10162
  157.7442  130.9930  150.2656 LP  0  0  0  0  0  0  0  0  0  0  0  0  # atno 17370 bound_to 10713
  156.3185  130.3782  149.7597 LP  0  0  0  0  0  0  0  0  0  0  0  0  # atno 17371 bound_to 10713
  140.9057  133.7747  155.9732 LP  0  0  0  0  0  0  0  0  0  0  0  0  # atno 17394 bound_to 11000
  140.8602  134.2850  157.5238 LP  0  0  0  0  0  0  0  0  0  0  0  0  # atno 17395 bound_to 11000

$$$$
