#       Name:                AV-unprocessed.smi:2913
#       Creating user name   scv26
#       Creation time:       Fri Mar 27 16:07:43 2020


#       File generated by GOLD software.
#

@<TRIPOS>MOLECULE
AV-unprocessed.smi:2913
    47    48     1
SMALL
NO_CHARGES


@<TRIPOS>ATOM
      1 ****        -2.1157  -3.2113  -0.8711 C.3            1 S1                 0.0000
      2 ****        -2.9370  -1.9325  -0.8625 C.2            1 S1                 0.0000
      3 ****        -4.2862  -2.0003  -0.9102 C.2            1 S1                 0.0000
      4 ****        -5.1401  -0.8112  -0.9064 C.2            1 S1                 0.0000
      5 ****        -6.3687  -0.8836  -0.9456 O.2            1 S1                 0.0000
      6 ****        -4.4852   0.3813  -0.8595 N.am           1 S1                 0.0000
      7 ****        -5.2488   1.6321  -0.8636 C.3            1 S1                 0.0000
      8 ****        -3.0836   0.4661  -0.8093 C.2            1 S1                 0.0000
      9 ****        -2.2899  -0.6279  -0.8007 C.2            1 S1                 0.0000
     10 ****        -0.8857  -0.5887  -0.7615 N.am           1 S1                 0.0000
     11 ****        -0.0634   0.4425  -0.4915 C.2            1 S1                 0.0000
     12 ****        -0.4122   1.5806  -0.1791 O.2            1 S1                 0.0000
     13 ****         1.2186   0.0616  -0.5868 N.am           1 S1                 0.0000
     14 ****         2.3858   0.8956  -0.3084 C.3            1 S1                 0.0000
     15 ****         3.2212   1.0231  -1.5919 C.3            1 S1                 0.0000
     16 ****         3.1827   0.2777   0.8573 C.3            1 S1                 0.0000
     17 ****         4.4045   1.0860   1.2968 C.3            1 S1                 0.0000
     18 ****         4.5876   0.6133   2.7203 C.3            1 S1                 0.0000
     19 ****         3.1429   0.4847   3.1927 C.3            1 S1                 0.0000
     20 ****         2.3721   0.1964   2.0289 O.3            1 S1                 0.0000
     21 ****        -2.7490  -4.0986  -0.9040 H              1 S1                 0.0000
     22 ****        -1.4997  -3.2727   0.0265 H              1 S1                 0.0000
     23 ****        -1.4599  -3.2348  -1.7419 H              1 S1                 0.0000
     24 ****        -4.7661  -2.9673  -0.9539 H              1 S1                 0.0000
     25 ****        -4.6140   2.5175  -0.8190 H              1 S1                 0.0000
     26 ****        -5.9215   1.6726  -0.0058 H              1 S1                 0.0000
     27 ****        -5.8498   1.7098  -1.7707 H              1 S1                 0.0000
     28 ****        -2.7180   1.4800  -0.7910 H              1 S1                 0.0000
     29 ****        -0.4378  -1.4739  -0.9481 H              1 S1                 0.0000
     30 ****         1.4052  -0.8956  -0.8464 H              1 S1                 0.0000
     31 ****         2.0726   1.8985  -0.0134 H              1 S1                 0.0000
     32 ****         4.0775   1.6812  -1.4452 H              1 S1                 0.0000
     33 ****         2.6273   1.4414  -2.4053 H              1 S1                 0.0000
     34 ****         3.5982   0.0535  -1.9188 H              1 S1                 0.0000
     35 ****         3.4984  -0.7361   0.6041 H              1 S1                 0.0000
     36 ****         5.2815   0.9076   0.6741 H              1 S1                 0.0000
     37 ****         4.1855   2.1549   1.2848 H              1 S1                 0.0000
     38 ****         5.0759  -0.3623   2.7309 H              1 S1                 0.0000
     39 ****         5.1772   1.2986   3.3297 H              1 S1                 0.0000
     40 ****         3.0228  -0.2888   3.9514 H              1 S1                 0.0000
     41 ****         2.7932   1.4284   3.6132 H              1 S1                 0.0000
     42 ****        -6.8160  -1.7772  -0.9816 LP             1 S1                 0.0000
     43 ****        -6.9191  -0.0487  -0.9414 LP             1 S1                 0.0000
     44 ****        -1.3843   1.8037  -0.1075 LP             1 S1                 0.0000
     45 ****         0.2766   2.2823   0.0032 LP             1 S1                 0.0000
     46 ****         1.9954  -0.7268   2.1046 LP             1 S1                 0.0000
     47 ****         1.6245   0.8567   1.9579 LP             1 S1                 0.0000
@<TRIPOS>BOND
    1    1    2 1     
    2    1   21 1     
    3    1   22 1     
    4    1   23 1     
    5    2    9 1     
    6    2    3 2     
    7    3    4 1     
    8    3   24 1     
    9    4    5 2     
   10    4    6 am    
   11    6    7 1     
   12    6    8 1     
   13    7   25 1     
   14    7   26 1     
   15    7   27 1     
   16    8    9 2     
   17    8   28 1     
   18    9   10 1     
   19   10   11 am    
   20   10   29 1     
   21   11   12 2     
   22   11   13 am    
   23   13   14 1     
   24   13   30 1     
   25   14   15 1     
   26   14   16 1     
   27   14   31 1     
   28   15   32 1     
   29   15   33 1     
   30   15   34 1     
   31   16   20 1     
   32   16   17 1     
   33   16   35 1     
   34   17   18 1     
   35   17   36 1     
   36   17   37 1     
   37   18   19 1     
   38   18   38 1     
   39   18   39 1     
   40   19   20 1     
   41   19   40 1     
   42   19   41 1     
   43    5   42 1     
   44    5   43 1     
   45   12   44 1     
   46   12   45 1     
   47   20   46 1     
   48   20   47 1     
@<TRIPOS>SUBSTRUCTURE
      1 S1             1
@<TRIPOS>SET
LONE_PAIRS      STATIC     ATOMS    <user>   **** ""
6 42 43 44 45 46 47
DONOR_HYDROGENS      STATIC     ATOMS    <user>   **** ""
2 29 30
ATOM$BLUE        STATIC     ATOMS    COLORGROUP SYSTEM
6 42 43 44 45 46 47
ATOM$RED        STATIC     ATOMS    COLORGROUP SYSTEM
2 29 30
