AV-unprocessed.smi:3323|AV-procd|sdf|12778|dock6
  -GOLD-   2272019123D 1   1.00000     0.00000
 Structure written by MMmdl.
 37 38  0  0  0  0  0  0  0  0  1 V2000
  151.0105  142.1547  156.1172 C   0  0  0  0  0  0  0  0  0  0  0  0
  150.4846  140.7622  155.7518 C   0  0  1  0  0  0  0  0  0  0  0  0
  149.2215  140.8325  154.8732 C   0  0  0  0  0  0  0  0  0  0  0  0
  148.7598  139.4227  154.4604 C   0  0  1  0  0  0  0  0  0  0  0  0
  147.5402  139.4435  153.5157 C   0  0  0  0  0  0  0  0  0  0  0  0
  147.3124  138.1552  152.8691 N   0  0  0  0  0  0  0  0  0  0  0  0
  146.1589  137.4734  152.8915 C   0  0  0  0  0  0  0  0  0  0  0  0
  145.1522  137.8645  153.4814 O   0  0  0  0  0  0  0  0  0  0  0  0
  146.2652  136.3247  152.2016 N   0  0  0  0  0  0  0  0  0  0  0  0
  145.2925  135.3072  152.0017 C   0  0  0  0  0  0  0  0  0  0  0  0
  144.1151  135.1556  152.7742 C   0  0  0  0  0  0  0  0  0  0  0  0
  143.2288  134.1064  152.4630 C   0  0  0  0  0  0  0  0  0  0  0  0
  143.5462  133.2526  151.3891 C   0  0  0  0  0  0  0  0  0  0  0  0
  144.6571  133.3932  150.6359 N   0  0  0  0  0  0  0  0  0  0  0  0
  145.5021  134.4011  150.9402 C   0  0  0  0  0  0  0  0  0  0  0  0
  149.9460  138.6820  153.8236 C   0  0  0  0  0  0  0  0  0  0  0  0
  151.1742  138.7201  154.7468 C   0  0  0  0  0  0  0  0  0  0  0  0
  151.5127  140.0690  155.0503 O   0  0  0  0  0  0  0  0  0  0  0  0
  150.2619  142.7250  156.6676 H   0  0  0  0  0  0  0  0  0  0  0  0
  151.2766  142.7234  155.2256 H   0  0  0  0  0  0  0  0  0  0  0  0
  151.8993  142.0831  156.7444 H   0  0  0  0  0  0  0  0  0  0  0  0
  150.2588  140.2248  156.6746 H   0  0  0  0  0  0  0  0  0  0  0  0
  148.4292  141.3484  155.4165 H   0  0  0  0  0  0  0  0  0  0  0  0
  149.4272  141.4271  153.9819 H   0  0  0  0  0  0  0  0  0  0  0  0
  148.4797  138.8814  155.3654 H   0  0  0  0  0  0  0  0  0  0  0  0
  146.6405  139.7011  154.0753 H   0  0  0  0  0  0  0  0  0  0  0  0
  147.6608  140.2189  152.7573 H   0  0  0  0  0  0  0  0  0  0  0  0
  148.0904  137.7571  152.3638 H   0  0  0  0  0  0  0  0  0  0  0  0
  147.1777  136.1255  151.8188 H   0  0  0  0  0  0  0  0  0  0  0  0
  143.8660  135.8206  153.5859 H   0  0  0  0  0  0  0  0  0  0  0  0
  142.3237  133.9614  153.0339 H   0  0  0  0  0  0  0  0  0  0  0  0
  142.8881  132.4379  151.1250 H   0  0  0  0  0  0  0  0  0  0  0  0
  146.3802  134.4837  150.3162 H   0  0  0  0  0  0  0  0  0  0  0  0
  149.6746  137.6475  153.6108 H   0  0  0  0  0  0  0  0  0  0  0  0
  150.1999  139.1414  152.8673 H   0  0  0  0  0  0  0  0  0  0  0  0
  150.9881  138.1636  155.6666 H   0  0  0  0  0  0  0  0  0  0  0  0
  152.0248  138.2469  154.2562 H   0  0  0  0  0  0  0  0  0  0  0  0
  1  2  1  0  0  0  0
  1 19  1  0  0  0  0
  1 20  1  0  0  0  0
  1 21  1  0  0  0  0
  2 18  1  0  0  0  0
  2  3  1  0  0  0  0
  2 22  1  0  0  0  0
  3  4  1  0  0  0  0
  3 23  1  0  0  0  0
  3 24  1  0  0  0  0
  4  5  1  0  0  0  0
  4 16  1  0  0  0  0
  4 25  1  0  0  0  0
  5  6  1  0  0  0  0
  5 26  1  0  0  0  0
  5 27  1  0  0  0  0
  6  7  1  0  0  0  0
  6 28  1  0  0  0  0
  7  8  2  0  0  0  0
  7  9  1  0  0  0  0
  9 10  1  0  0  0  0
  9 29  1  0  0  0  0
 10 15  1  0  0  0  0
 10 11  2  0  0  0  0
 11 12  1  0  0  0  0
 11 30  1  0  0  0  0
 12 13  2  0  0  0  0
 12 31  1  0  0  0  0
 13 14  1  0  0  0  0
 13 32  1  0  0  0  0
 14 15  2  0  0  0  0
 15 33  1  0  0  0  0
 16 17  1  0  0  0  0
 16 34  1  0  0  0  0
 16 35  1  0  0  0  0
 17 18  1  0  0  0  0
 17 36  1  0  0  0  0
 17 37  1  0  0  0  0
M  END
> <s_m_source_file>
AV-unprocessed.smi

> <i_m_source_file_index>
3323

> <i_lp_mmshare_version>
43012

> <i_f3d_flags>
0

> <s_epik_input>
W0NIM11bQ0BASF0xW0NIMl1bQ0BIXShbQ0gyXVtDSDJdTzEpW0NIMl1bTkhdQyg9TylbTkhdYzJbY0hdW2NIXVtjSF1uW2NIXTI=

> <s_epik_cmdline>
J2VwaWtfcHl0aG9uJywgJy1waCcsICc3LjAnLCAnLXRuJywgJzgnLCAnLW1hJywgJzIwMCcsICctbWV0YWxfYmluZGluZycsICctaW1hZScsICc8aW5maWxlLm1hZT4nLCAnLW9tYWUnLCAnPG91dGZpbGUubWFlPic=

> <r_epik_Ionization_Penalty>
0.00485293

> <r_epik_Ionization_Penalty_Charging>
0

> <r_epik_Ionization_Penalty_Neutral>
0.00485293

> <r_epik_State_Penalty>
0.00349083

> <r_epik_Charging_Adjusted_Penalty>
0.00349083

> <i_epik_Tot_Q>
0

> <i_epik_Tot_abs_Q>
0

> <r_epik_Metal_State_Penalty>
-0

> <b_epik_Metal_Only>
0

> <s_lp_Force_Field>
OPLS_2005

> <r_lp_Energy>
10.9361

> <b_lp_Chiralities_Consistent>
1

> <s_lp_Variant>
AV-unprocessed.smi:3323-2

> <Gold.Version>
5.8.1

> <Gold.Id.Protein>
6NUR|6NUR_protein|mol2

> <Gold.PLP.Fitness>
41.0638

> <Gold.PLP.PLP>
-30.2549

> <Gold.PLP.part.hbond>
-3.0000

> <Gold.PLP.part.metal>
0.0000

> <Gold.PLP.part.buried>
-2.5175

> <Gold.PLP.part.nonpolar>
-24.9520

> <Gold.PLP.part.repulsive>
0.8275

> <Gold.PLP.ligand.clash>
0.0000

> <Gold.PLP.ligand.torsion>
0.2003

> <Gold.PLP.Chemscore.Hbond>
2.8960

> <Gold.PLP.Chemscore.CHOScore>
0.8397

> <Gold.PLP.Chemscore.Metal>
0.0000

> <Gold.Chemscore.Hbonds>
donor molecule, donor type, donor heavy atom, donor atom, acceptor molecule, acceptor atom, score
      L1  H     6    28       P1  7948  0.96
      L1  H     9    29       P1  7948  1.00
      P1  H  7989  7998       L1    18  1.00
      L1  C    15    33       P1  7921  0.43

> <Gold.PLP.Chemscore.Internal.Correction>
0.0024

> <Gold.Rescore>
     Score         DG    S(hbond)    S(metal)    S(lipo)     H(rot)  DE(clash)    DE(int)     intcor
     17.54     -18.93       2.42        0.00      72.70       1.23       0.04       1.35       ----

> <Gold.Chemscore.Fitness>
17.5378

> <Gold.Chemscore.DG>
-18.9288

> <Gold.Chemscore.ZeroCoef>
-5.4800

> <Gold.Chemscore.Hbond>
2.4205

> <Gold.Chemscore.Metal>
0.0000

> <Gold.Chemscore.Lipo>
72.7032

> <Gold.Chemscore.Internal_Hbond>
0.0000

> <Gold.Chemscore.DEClash>
0.0398

> <Gold.Chemscore.DEInternal>
1.3511

> <Gold.Chemscore.Rot>
1.2273

> <Gold.Chemscore.Internal.Correction>
   9.000000E+99

> <Gold.Chemscore.Hbonds>
donor molecule, donor type, donor heavy atom, donor atom, acceptor molecule, acceptor atom, score
      L1  H     6    28       P1  7948  0.92
      L1  H     9    29       P1  7948  0.98
      P1  H  7989  7998       L1    18  0.30

> <Gold.Chemscore.Hbond.Weighted>
-8.0843

> <Gold.Chemscore.Metal.Weighted>
-0.0000

> <Gold.Chemscore.Lipo.Weighted>
-8.5063

> <Gold.Chemscore.Internal_Hbond.Weighted>
0.0000

> <Gold.Chemscore.DEClash.Weighted>
0.0398

> <Gold.Chemscore.DEInternal.Weighted>
1.3511

> <Gold.Chemscore.Rot.Weighted>
3.1418

> <Gold.Chemscore.Internal.Correction.Weighted>
   9.000000E+99

> <Gold.Protein.RotatedTorsions>
[ 6907 6896 6895 6894 ] final  -69.34 input  -60.11 | X-H torsion
[ 7974 7965 7964 7962 ] final -147.98 input  175.53 | X-H torsion
[ 8008 7997 7996 7995 ] final  -34.89 input   59.86 | X-H torsion
[ 10167 10162 10161 10158 ] final  113.70 input  -65.29 | X-H torsion
[ 10718 10713 10712 10709 ] final  -30.22 input   66.30 | X-H torsion
[ 10763 10752 10751 10750 ] final  -17.97 input  -60.55 | X-H torsion
[ 11005 11000 10999 10996 ] final  -35.94 input  -57.11 | X-H torsion

> <Gold.Protein.ActiveResidues>
 VAL166  LYS551  ARG553  GLY616  TRP617  ASP618  TYR619  PRO620  LYS621  CYS622 
 ASP623  PHE694  ASN695  SER759  ASP760  ASP761  ALA762  ILE779  LEU786  VAL792 
 PHE793  MET794  SER795  GLU796  ALA797  LYS798  CYS799  TRP800  GLU811  SER814 

> <Gold.Protein.RotatedAtoms>
  150.7310  134.5611  159.5842 H   0  0  0  0  0  0  0  0  0  0  0  0  # atno 6907 bound_to 6896
  152.3074  134.7535  160.0353 H   0  0  0  0  0  0  0  0  0  0  0  0  # atno 6908 bound_to 6896
  151.8095  133.3344  159.3588 H   0  0  0  0  0  0  0  0  0  0  0  0  # atno 6909 bound_to 6896
  144.8059  140.5257  143.5675 H   0  0  0  0  0  0  0  0  0  0  0  0  # atno 7974 bound_to 7965
  154.4109  140.1672  156.2123 H   0  0  0  0  0  0  0  0  0  0  0  0  # atno 8008 bound_to 7997
  155.9434  140.3406  155.6323 H   0  0  0  0  0  0  0  0  0  0  0  0  # atno 8009 bound_to 7997
  155.6961  140.0739  157.2420 H   0  0  0  0  0  0  0  0  0  0  0  0  # atno 8010 bound_to 7997
  139.6442  144.7125  151.2175 H   0  0  0  0  0  0  0  0  0  0  0  0  # atno 10167 bound_to 10162
  156.4026  130.4393  149.7311 H   0  0  0  0  0  0  0  0  0  0  0  0  # atno 10718 bound_to 10713
  153.5821  135.7005  153.5459 H   0  0  0  0  0  0  0  0  0  0  0  0  # atno 10763 bound_to 10752
  153.3252  135.4063  155.1449 H   0  0  0  0  0  0  0  0  0  0  0  0  # atno 10764 bound_to 10752
  154.8615  135.3705  154.5349 H   0  0  0  0  0  0  0  0  0  0  0  0  # atno 10765 bound_to 10752
  140.9836  133.7043  156.1726 H   0  0  0  0  0  0  0  0  0  0  0  0  # atno 11005 bound_to 11000
  145.5441  139.1475  143.3431 LP  0  0  0  0  0  0  0  0  0  0  0  0  # atno 17320 bound_to 7965
  146.2350  140.5580  142.8959 LP  0  0  0  0  0  0  0  0  0  0  0  0  # atno 17321 bound_to 7965
  140.7506  143.6259  150.8469 LP  0  0  0  0  0  0  0  0  0  0  0  0  # atno 17342 bound_to 10162
  139.9900  143.5857  152.2913 LP  0  0  0  0  0  0  0  0  0  0  0  0  # atno 17343 bound_to 10162
  156.4322  130.7820  151.2840 LP  0  0  0  0  0  0  0  0  0  0  0  0  # atno 17370 bound_to 10713
  157.7504  131.0150  150.3489 LP  0  0  0  0  0  0  0  0  0  0  0  0  # atno 17371 bound_to 10713
  140.7149  134.4421  157.5579 LP  0  0  0  0  0  0  0  0  0  0  0  0  # atno 17394 bound_to 11000
  139.8960  134.8668  156.2104 LP  0  0  0  0  0  0  0  0  0  0  0  0  # atno 17395 bound_to 11000

$$$$
