AV-unprocessed.smi:3230|AV-procd|sdf|12330|dock9
  -GOLD-   2272018183D 1   1.00000     0.00000
 Structure written by MMmdl.
 40 40  0  0  0  0  0  0  0  0  1 V2000
  146.0270  138.5265  155.7632 C   0  0  0  0  0  0  0  0  0  0  0  0
  146.3479  139.5777  154.6903 C   0  0  0  0  0  0  0  0  0  0  0  0
  147.7614  140.2040  154.8013 C   0  0  0  0  0  0  0  0  0  0  0  0
  147.8689  141.5124  153.9757 C   0  0  0  0  0  0  0  0  0  0  0  0
  146.6767  142.4665  154.1425 C   0  0  0  0  0  0  0  0  0  0  0  0
  148.8867  139.1888  154.4528 C   0  0  1  0  0  0  0  0  0  0  0  0
  148.7273  138.7686  153.1109 O   0  0  0  0  0  0  0  0  0  0  0  0
  150.3114  139.7628  154.6316 C   0  0  0  0  0  0  0  0  0  0  0  0
  150.6454  139.9718  156.0363 N   0  0  0  0  0  0  0  0  0  0  0  0
  151.8852  139.9433  156.5496 C   0  0  0  0  0  0  0  0  0  0  0  0
  152.8934  139.7287  155.8769 O   0  0  0  0  0  0  0  0  0  0  0  0
  152.0082  140.1883  158.0539 C   0  0  0  0  0  0  0  0  0  0  0  0
  151.6901  141.6235  158.3750 C   0  0  0  0  0  0  0  0  0  0  0  0
  152.5285  142.6002  158.9809 C   0  0  0  0  0  0  0  0  0  0  0  0
  151.7406  143.7145  159.0353 C   0  0  0  0  0  0  0  0  0  0  0  0
  151.9685  145.0969  159.5432 C   0  0  0  0  0  0  0  0  0  0  0  0
  150.5170  143.4495  158.5100 O   0  0  0  0  0  0  0  0  0  0  0  0
  150.4931  142.1140  158.0930 N   0  0  0  0  0  0  0  0  0  0  0  0
  144.9804  138.2274  155.7040 H   0  0  0  0  0  0  0  0  0  0  0  0
  146.2014  138.9183  156.7655 H   0  0  0  0  0  0  0  0  0  0  0  0
  146.6247  137.6238  155.6420 H   0  0  0  0  0  0  0  0  0  0  0  0
  146.2047  139.1432  153.7005 H   0  0  0  0  0  0  0  0  0  0  0  0
  145.5950  140.3594  154.7786 H   0  0  0  0  0  0  0  0  0  0  0  0
  147.9025  140.4775  155.8481 H   0  0  0  0  0  0  0  0  0  0  0  0
  148.7602  142.0651  154.2701 H   0  0  0  0  0  0  0  0  0  0  0  0
  148.0015  141.2777  152.9189 H   0  0  0  0  0  0  0  0  0  0  0  0
  146.8596  143.4023  153.6141 H   0  0  0  0  0  0  0  0  0  0  0  0
  146.5092  142.7088  155.1922 H   0  0  0  0  0  0  0  0  0  0  0  0
  145.7552  142.0461  153.7416 H   0  0  0  0  0  0  0  0  0  0  0  0
  148.7887  138.3155  155.0966 H   0  0  0  0  0  0  0  0  0  0  0  0
  148.9910  139.4767  152.5427 H   0  0  0  0  0  0  0  0  0  0  0  0
  151.0653  139.1486  154.1354 H   0  0  0  0  0  0  0  0  0  0  0  0
  150.3696  140.7464  154.1648 H   0  0  0  0  0  0  0  0  0  0  0  0
  149.8768  140.1589  156.6644 H   0  0  0  0  0  0  0  0  0  0  0  0
  151.3443  139.5087  158.5903 H   0  0  0  0  0  0  0  0  0  0  0  0
  153.0217  139.9463  158.3757 H   0  0  0  0  0  0  0  0  0  0  0  0
  153.5486  142.4980  159.3201 H   0  0  0  0  0  0  0  0  0  0  0  0
  153.0117  145.2417  159.8243 H   0  0  0  0  0  0  0  0  0  0  0  0
  151.3518  145.2922  160.4204 H   0  0  0  0  0  0  0  0  0  0  0  0
  151.7183  145.8353  158.7811 H   0  0  0  0  0  0  0  0  0  0  0  0
  1  2  1  0  0  0  0
  1 19  1  0  0  0  0
  1 20  1  0  0  0  0
  1 21  1  0  0  0  0
  2  3  1  0  0  0  0
  2 22  1  0  0  0  0
  2 23  1  0  0  0  0
  3  4  1  0  0  0  0
  3  6  1  0  0  0  0
  3 24  1  0  0  0  0
  4  5  1  0  0  0  0
  4 25  1  0  0  0  0
  4 26  1  0  0  0  0
  5 27  1  0  0  0  0
  5 28  1  0  0  0  0
  5 29  1  0  0  0  0
  6  7  1  0  0  0  0
  6  8  1  0  0  0  0
  6 30  1  0  0  0  0
  7 31  1  0  0  0  0
  8  9  1  0  0  0  0
  8 32  1  0  0  0  0
  8 33  1  0  0  0  0
  9 10  1  0  0  0  0
  9 34  1  0  0  0  0
 10 11  2  0  0  0  0
 10 12  1  0  0  0  0
 12 13  1  0  0  0  0
 12 35  1  0  0  0  0
 12 36  1  0  0  0  0
 13 18  2  0  0  0  0
 13 14  1  0  0  0  0
 14 15  2  0  0  0  0
 14 37  1  0  0  0  0
 15 16  1  0  0  0  0
 15 17  1  0  0  0  0
 16 38  1  0  0  0  0
 16 39  1  0  0  0  0
 16 40  1  0  0  0  0
 17 18  1  0  0  0  0
M  END
> <s_m_source_file>
AV-unprocessed.smi

> <i_m_source_file_index>
3230

> <i_lp_mmshare_version>
43012

> <i_f3d_flags>
0

> <s_epik_input>
W0NIM11bQ0gyXVtDSF0oW0NIMl1bQ0gzXSlbQ0BIXShbT0hdKVtDSDJdW05IXUMoPU8pW0NIMl1jMVtjSF1jKFtDSDNdKW9uMQ==

> <s_epik_cmdline>
J2VwaWtfcHl0aG9uJywgJy1waCcsICc3LjAnLCAnLXRuJywgJzgnLCAnLW1hJywgJzIwMCcsICctbWV0YWxfYmluZGluZycsICctaW1hZScsICc8aW5maWxlLm1hZT4nLCAnLW9tYWUnLCAnPG91dGZpbGUubWFlPic=

> <r_lp_tautomer_probability>
1

> <r_epik_Ionization_Penalty>
2.40054e-07

> <r_epik_Ionization_Penalty_Charging>
0

> <r_epik_Ionization_Penalty_Neutral>
2.40054e-07

> <r_epik_State_Penalty>
-0

> <r_epik_Charging_Adjusted_Penalty>
0

> <i_epik_Tot_Q>
0

> <i_epik_Tot_abs_Q>
0

> <r_epik_Metal_State_Penalty>
-0

> <b_epik_Metal_Only>
0

> <s_lp_Force_Field>
OPLS_2005

> <r_lp_Energy>
9.12341

> <b_lp_Chiralities_Consistent>
1

> <s_lp_Variant>
AV-unprocessed.smi:3230-2

> <Gold.Version>
5.8.1

> <Gold.Id.Protein>
6NUR|6NUR_protein|mol2

> <Gold.PLP.Fitness>
39.8132

> <Gold.PLP.PLP>
-34.5651

> <Gold.PLP.part.hbond>
-3.0000

> <Gold.PLP.part.metal>
0.0000

> <Gold.PLP.part.buried>
-4.9502

> <Gold.PLP.part.nonpolar>
-27.1048

> <Gold.PLP.part.repulsive>
0.2838

> <Gold.PLP.ligand.clash>
0.0000

> <Gold.PLP.ligand.torsion>
0.5050

> <Gold.PLP.Chemscore.Hbond>
2.0000

> <Gold.PLP.Chemscore.CHOScore>
0.0000

> <Gold.PLP.Chemscore.Metal>
0.0000

> <Gold.Chemscore.Hbonds>
donor molecule, donor type, donor heavy atom, donor atom, acceptor molecule, acceptor atom, score
      L1  H     7    31       P1  7957  1.00
      P1  H  7997  8009       L1    11  1.00

> <Gold.PLP.Chemscore.Internal.Correction>
0.2581

> <Gold.Rescore>
     Score         DG    S(hbond)    S(metal)    S(lipo)     H(rot)  DE(clash)    DE(int)     intcor
     14.95     -15.57       1.97        0.00      86.16       2.57       0.04       0.57       ----

> <Gold.Chemscore.Fitness>
14.9521

> <Gold.Chemscore.DG>
-15.5695

> <Gold.Chemscore.ZeroCoef>
-5.4800

> <Gold.Chemscore.Hbond>
1.9736

> <Gold.Chemscore.Metal>
0.0000

> <Gold.Chemscore.Lipo>
86.1610

> <Gold.Chemscore.Internal_Hbond>
0.0000

> <Gold.Chemscore.DEClash>
0.0432

> <Gold.Chemscore.DEInternal>
0.5742

> <Gold.Chemscore.Rot>
2.5715

> <Gold.Chemscore.Internal.Correction>
   9.000000E+99

> <Gold.Chemscore.Hbonds>
donor molecule, donor type, donor heavy atom, donor atom, acceptor molecule, acceptor atom, score
      L1  H     7    31       P1  7957  0.94
      P1  H  7997  8009       L1    11  0.95

> <Gold.Chemscore.Hbond.Weighted>
-6.5918

> <Gold.Chemscore.Metal.Weighted>
-0.0000

> <Gold.Chemscore.Lipo.Weighted>
-10.0808

> <Gold.Chemscore.Internal_Hbond.Weighted>
0.0000

> <Gold.Chemscore.DEClash.Weighted>
0.0432

> <Gold.Chemscore.DEInternal.Weighted>
0.5742

> <Gold.Chemscore.Rot.Weighted>
6.5831

> <Gold.Chemscore.Internal.Correction.Weighted>
   9.000000E+99

> <Gold.Protein.RotatedTorsions>
[ 6907 6896 6895 6894 ] final -109.19 input  -60.11 | X-H torsion
[ 7974 7965 7964 7962 ] final   33.28 input  175.53 | X-H torsion
[ 8008 7997 7996 7995 ] final -170.45 input   59.86 | X-H torsion
[ 10167 10162 10161 10158 ] final   80.91 input  -65.29 | X-H torsion
[ 10718 10713 10712 10709 ] final   76.27 input   66.30 | X-H torsion
[ 10763 10752 10751 10750 ] final  -54.89 input  -60.55 | X-H torsion
[ 11005 11000 10999 10996 ] final -111.55 input  -57.11 | X-H torsion

> <Gold.Protein.ActiveResidues>
 VAL166  LYS551  ARG553  GLY616  TRP617  ASP618  TYR619  PRO620  LYS621  CYS622 
 ASP623  PHE694  ASN695  SER759  ASP760  ASP761  ALA762  ILE779  LEU786  VAL792 
 PHE793  MET794  SER795  GLU796  ALA797  LYS798  CYS799  TRP800  GLU811  SER814 

> <Gold.Protein.RotatedAtoms>
  150.7547  133.9566  159.3502 H   0  0  0  0  0  0  0  0  0  0  0  0  # atno 6907 bound_to 6896
  151.7488  135.0835  160.0337 H   0  0  0  0  0  0  0  0  0  0  0  0  # atno 6908 bound_to 6896
  152.3480  133.6108  159.5960 H   0  0  0  0  0  0  0  0  0  0  0  0  # atno 6909 bound_to 6896
  146.1431  139.6417  142.9150 H   0  0  0  0  0  0  0  0  0  0  0  0  # atno 7974 bound_to 7965
  155.9185  140.1070  157.1225 H   0  0  0  0  0  0  0  0  0  0  0  0  # atno 8008 bound_to 7997
  154.4050  140.1260  156.4713 H   0  0  0  0  0  0  0  0  0  0  0  0  # atno 8009 bound_to 7997
  155.7225  140.3469  155.5024 H   0  0  0  0  0  0  0  0  0  0  0  0  # atno 8010 bound_to 7997
  139.9448  144.6065  150.8217 H   0  0  0  0  0  0  0  0  0  0  0  0  # atno 10167 bound_to 10162
  157.6667  130.9766  150.1473 H   0  0  0  0  0  0  0  0  0  0  0  0  # atno 10718 bound_to 10713
  154.1821  135.6441  153.5037 H   0  0  0  0  0  0  0  0  0  0  0  0  # atno 10763 bound_to 10752
  153.0056  135.5408  154.6503 H   0  0  0  0  0  0  0  0  0  0  0  0  # atno 10764 bound_to 10752
  154.5870  135.2930  155.0647 H   0  0  0  0  0  0  0  0  0  0  0  0  # atno 10765 bound_to 10752
  141.0727  133.9352  157.2452 H   0  0  0  0  0  0  0  0  0  0  0  0  # atno 11005 bound_to 11000
  145.5001  141.0437  143.2545 LP  0  0  0  0  0  0  0  0  0  0  0  0  # atno 17320 bound_to 7965
  144.7815  139.6517  143.7152 LP  0  0  0  0  0  0  0  0  0  0  0  0  # atno 17321 bound_to 7965
  140.7600  143.3142  151.2773 LP  0  0  0  0  0  0  0  0  0  0  0  0  # atno 17342 bound_to 10162
  139.6675  144.0079  152.2732 LP  0  0  0  0  0  0  0  0  0  0  0  0  # atno 17343 bound_to 10162
  156.2281  130.3679  149.8477 LP  0  0  0  0  0  0  0  0  0  0  0  0  # atno 17370 bound_to 10713
  156.6311  130.8666  151.3495 LP  0  0  0  0  0  0  0  0  0  0  0  0  # atno 17371 bound_to 10713
  139.9540  135.0169  156.9076 LP  0  0  0  0  0  0  0  0  0  0  0  0  # atno 17394 bound_to 11000
  140.5638  134.0509  155.7407 LP  0  0  0  0  0  0  0  0  0  0  0  0  # atno 17395 bound_to 11000

$$$$
