AV-unprocessed.smi:3255|AV-procd|sdf|12458|dock2
  -GOLD-   2272018353D 1   1.00000     0.00000
 Structure written by MMmdl.
 39 40  0  0  0  0  0  0  0  0  2 V2000
  148.2437  140.4183  154.1113 C   0  0  0  0  0  0  0  0  0  0  0  0
  148.8013  139.0190  154.4091 C   0  0  1  0  0  0  0  0  0  0  0  0
  148.1007  138.0366  153.5832 N   0  0  0  0  0  0  0  0  0  0  0  0
  146.7728  137.8602  153.5451 C   0  0  0  0  0  0  0  0  0  0  0  0
  145.9645  138.5345  154.1841 O   0  0  0  0  0  0  0  0  0  0  0  0
  146.4267  136.8471  152.7390 N   0  0  0  0  0  0  0  0  0  0  0  0
  145.0574  136.3953  152.5249 C   0  0  0  0  0  0  0  0  0  0  0  0
  144.8569  135.8691  151.0937 C   0  0  0  0  0  0  0  0  0  0  0  0
  145.1437  134.4375  150.9996 N   0  0  0  0  0  0  0  0  0  0  0  0
  146.3466  133.8118  151.2028 C   0  0  0  0  0  0  0  0  0  0  0  0
  146.1285  132.4729  151.0004 C   0  0  0  0  0  0  0  0  0  0  0  0
  144.8035  132.3393  150.6814 N   0  3  0  0  0  0  0  0  0  0  0  0
  144.2063  133.5356  150.6811 C   0  0  0  0  0  0  0  0  0  0  0  0
  150.3333  138.9547  154.2054 C   0  0  2  0  0  0  0  0  0  0  0  0
  151.0281  137.6661  154.6666 C   0  0  0  0  0  0  0  0  0  0  0  0
  152.4177  138.1630  154.9943 C   0  0  0  0  0  0  0  0  0  0  0  0
  152.1132  139.5217  155.6137 C   0  0  0  0  0  0  0  0  0  0  0  0
  150.9876  140.0179  154.8972 O   0  0  0  0  0  0  0  0  0  0  0  0
  148.7207  141.1715  154.7389 H   0  0  0  0  0  0  0  0  0  0  0  0
  147.1714  140.4629  154.3046 H   0  0  0  0  0  0  0  0  0  0  0  0
  148.4061  140.7009  153.0707 H   0  0  0  0  0  0  0  0  0  0  0  0
  148.5911  138.8112  155.4599 H   0  0  0  0  0  0  0  0  0  0  0  0
  148.6761  137.4292  153.0185 H   0  0  0  0  0  0  0  0  0  0  0  0
  147.1581  136.3494  152.2523 H   0  0  0  0  0  0  0  0  0  0  0  0
  144.8064  135.6250  153.2564 H   0  0  0  0  0  0  0  0  0  0  0  0
  144.3846  137.2324  152.7134 H   0  0  0  0  0  0  0  0  0  0  0  0
  143.8306  136.0318  150.7621 H   0  0  0  0  0  0  0  0  0  0  0  0
  145.5076  136.3876  150.3873 H   0  0  0  0  0  0  0  0  0  0  0  0
  147.2444  134.3511  151.4687 H   0  0  0  0  0  0  0  0  0  0  0  0
  146.7990  131.6278  151.0570 H   0  0  0  0  0  0  0  0  0  0  0  0
  143.1714  133.7346  150.4650 H   0  0  0  0  0  0  0  0  0  0  0  0
  150.5575  139.1061  153.1483 H   0  0  0  0  0  0  0  0  0  0  0  0
  150.5695  137.2583  155.5677 H   0  0  0  0  0  0  0  0  0  0  0  0
  151.0234  136.8873  153.9037 H   0  0  0  0  0  0  0  0  0  0  0  0
  152.9648  137.5009  155.6660 H   0  0  0  0  0  0  0  0  0  0  0  0
  153.0003  138.2856  154.0803 H   0  0  0  0  0  0  0  0  0  0  0  0
  151.8338  139.4076  156.6620 H   0  0  0  0  0  0  0  0  0  0  0  0
  152.9579  140.2087  155.5589 H   0  0  0  0  0  0  0  0  0  0  0  0
  144.3396  131.4634  150.4745 H   0  0  0  0  0  0  0  0  0  0  0  0
  1  2  1  0  0  0  0
  1 19  1  0  0  0  0
  1 20  1  0  0  0  0
  1 21  1  0  0  0  0
  2  3  1  0  0  0  0
  2 14  1  0  0  0  0
  2 22  1  0  0  0  0
  3  4  1  0  0  0  0
  3 23  1  0  0  0  0
  4  5  2  0  0  0  0
  4  6  1  0  0  0  0
  6  7  1  0  0  0  0
  6 24  1  0  0  0  0
  7  8  1  0  0  0  0
  7 25  1  0  0  0  0
  7 26  1  0  0  0  0
  8  9  1  0  0  0  0
  8 27  1  0  0  0  0
  8 28  1  0  0  0  0
  9 13  1  0  0  0  0
  9 10  1  0  0  0  0
 10 11  2  0  0  0  0
 10 29  1  0  0  0  0
 11 12  1  0  0  0  0
 11 30  1  0  0  0  0
 12 13  2  0  0  0  0
 12 39  1  0  0  0  0
 13 31  1  0  0  0  0
 14 18  1  0  0  0  0
 14 15  1  0  0  0  0
 14 32  1  0  0  0  0
 15 16  1  0  0  0  0
 15 33  1  0  0  0  0
 15 34  1  0  0  0  0
 16 17  1  0  0  0  0
 16 35  1  0  0  0  0
 16 36  1  0  0  0  0
 17 18  1  0  0  0  0
 17 37  1  0  0  0  0
 17 38  1  0  0  0  0
M  CHG  1  12   1
M  END
> <s_m_source_file>
AV-unprocessed.smi

> <i_m_source_file_index>
3255

> <i_lp_mmshare_version>
43012

> <i_f3d_flags>
0

> <s_epik_input>
TzFbQ0gyXVtDSDJdW0NIMl1bQ0BIXTFbQ0BIXShbQ0gzXSlbTkhdQyg9TylbTkhdW0NIMl1bQ0gyXW4yW2NIXVtjSF1uW2NIXTI=

> <s_epik_cmdline>
J2VwaWtfcHl0aG9uJywgJy1waCcsICc3LjAnLCAnLXRuJywgJzgnLCAnLW1hJywgJzIwMCcsICctbWV0YWxfYmluZGluZycsICctaW1hZScsICc8aW5maWxlLm1hZT4nLCAnLW9tYWUnLCAnPG91dGZpbGUubWFlPic=

> <r_lp_tautomer_probability>
1

> <r_epik_Ionization_Penalty>
0.256241

> <r_epik_Ionization_Penalty_Charging>
0

> <r_epik_Ionization_Penalty_Neutral>
0.256241

> <r_epik_State_Penalty>
0.247735

> <r_epik_Charging_Adjusted_Penalty>
0.247735

> <i_epik_Tot_Q>
1

> <i_epik_Tot_abs_Q>
1

> <r_epik_Metal_State_Penalty>
0.537184

> <b_epik_Metal_Only>
0

> <s_lp_Force_Field>
OPLS_2005

> <r_lp_Energy>
18.6285

> <b_lp_Chiralities_Consistent>
1

> <s_lp_Variant>
AV-unprocessed.smi:3255-2

> <Gold.Version>
5.8.1

> <Gold.Id.Protein>
6NUR|6NUR_protein|mol2

> <Gold.PLP.Fitness>
48.2294

> <Gold.PLP.PLP>
-34.1842

> <Gold.PLP.part.hbond>
-3.0000

> <Gold.PLP.part.metal>
0.0000

> <Gold.PLP.part.buried>
-3.4157

> <Gold.PLP.part.nonpolar>
-28.0451

> <Gold.PLP.part.repulsive>
0.2802

> <Gold.PLP.ligand.clash>
0.0000

> <Gold.PLP.ligand.torsion>
0.4554

> <Gold.PLP.Chemscore.Hbond>
2.9600

> <Gold.PLP.Chemscore.CHOScore>
2.0000

> <Gold.PLP.Chemscore.Metal>
0.0000

> <Gold.Chemscore.Hbonds>
donor molecule, donor type, donor heavy atom, donor atom, acceptor molecule, acceptor atom, score
      L1  H     3    23       P1  7948  1.00
      L1  H     6    24       P1  7948  0.96
      P1  H  7989  7998       L1    18  0.90
      L1  C    10    29       P1  7948  1.00
      L1  C    13    31       P1 10186  1.00

> <Gold.PLP.Chemscore.Internal.Correction>
0.0761

> <Gold.Rescore>
     Score         DG    S(hbond)    S(metal)    S(lipo)     H(rot)  DE(clash)    DE(int)     intcor
     15.13     -16.01       2.63        0.00      64.42       2.26       0.15       0.73       ----

> <Gold.Chemscore.Fitness>
15.1316

> <Gold.Chemscore.DG>
-16.0122

> <Gold.Chemscore.ZeroCoef>
-5.4800

> <Gold.Chemscore.Hbond>
2.6320

> <Gold.Chemscore.Metal>
0.0000

> <Gold.Chemscore.Lipo>
64.4183

> <Gold.Chemscore.Internal_Hbond>
0.0000

> <Gold.Chemscore.DEClash>
0.1483

> <Gold.Chemscore.DEInternal>
0.7324

> <Gold.Chemscore.Rot>
2.2640

> <Gold.Chemscore.Internal.Correction>
   9.000000E+99

> <Gold.Chemscore.Hbonds>
donor molecule, donor type, donor heavy atom, donor atom, acceptor molecule, acceptor atom, score
      L1  H     3    23       P1  7948  0.98
      L1  H     6    24       P1  7948  0.92
      P1  H  7989  7998       L1    18  0.10

> <Gold.Chemscore.Hbond.Weighted>
-8.7910

> <Gold.Chemscore.Metal.Weighted>
-0.0000

> <Gold.Chemscore.Lipo.Weighted>
-7.5369

> <Gold.Chemscore.Internal_Hbond.Weighted>
0.0000

> <Gold.Chemscore.DEClash.Weighted>
0.1483

> <Gold.Chemscore.DEInternal.Weighted>
0.7324

> <Gold.Chemscore.Rot.Weighted>
5.7958

> <Gold.Chemscore.Internal.Correction.Weighted>
   9.000000E+99

> <Gold.Protein.RotatedTorsions>
[ 6907 6896 6895 6894 ] final -118.90 input  -60.11 | X-H torsion
[ 7974 7965 7964 7962 ] final   87.06 input  175.53 | X-H torsion
[ 8008 7997 7996 7995 ] final    7.73 input   59.86 | X-H torsion
[ 10167 10162 10161 10158 ] final   29.16 input  -65.29 | X-H torsion
[ 10718 10713 10712 10709 ] final   53.38 input   66.30 | X-H torsion
[ 10763 10752 10751 10750 ] final   28.93 input  -60.55 | X-H torsion
[ 11005 11000 10999 10996 ] final   15.04 input  -57.11 | X-H torsion

> <Gold.Protein.ActiveResidues>
 VAL166  LYS551  ARG553  GLY616  TRP617  ASP618  TYR619  PRO620  LYS621  CYS622 
 ASP623  PHE694  ASN695  SER759  ASP760  ASP761  ALA762  ILE779  LEU786  VAL792 
 PHE793  MET794  SER795  GLU796  ALA797  LYS798  CYS799  TRP800  GLU811  SER814 

> <Gold.Protein.RotatedAtoms>
  150.8259  133.8173  159.3118 H   0  0  0  0  0  0  0  0  0  0  0  0  # atno 6907 bound_to 6896
  151.5917  135.1051  160.0050 H   0  0  0  0  0  0  0  0  0  0  0  0  # atno 6908 bound_to 6896
  152.4344  133.7293  159.6635 H   0  0  0  0  0  0  0  0  0  0  0  0  # atno 6909 bound_to 6896
  145.5640  139.2307  143.2443 H   0  0  0  0  0  0  0  0  0  0  0  0  # atno 7974 bound_to 7965
  154.7577  140.2779  155.6240 H   0  0  0  0  0  0  0  0  0  0  0  0  # atno 8008 bound_to 7997
  156.2909  140.2666  156.2274 H   0  0  0  0  0  0  0  0  0  0  0  0  # atno 8009 bound_to 7997
  155.0057  140.0372  157.2368 H   0  0  0  0  0  0  0  0  0  0  0  0  # atno 8010 bound_to 7997
  140.4790  144.0645  150.6259 H   0  0  0  0  0  0  0  0  0  0  0  0  # atno 10167 bound_to 10162
  157.5162  130.8534  149.8498 H   0  0  0  0  0  0  0  0  0  0  0  0  # atno 10718 bound_to 10713
  153.0461  135.6501  154.0813 H   0  0  0  0  0  0  0  0  0  0  0  0  # atno 10763 bound_to 10752
  154.0511  135.2895  155.3342 H   0  0  0  0  0  0  0  0  0  0  0  0  # atno 10764 bound_to 10752
  154.6719  135.5353  153.8215 H   0  0  0  0  0  0  0  0  0  0  0  0  # atno 10765 bound_to 10752
  140.4628  134.1110  155.7719 H   0  0  0  0  0  0  0  0  0  0  0  0  # atno 11005 bound_to 11000
  146.1831  140.6465  142.9180 LP  0  0  0  0  0  0  0  0  0  0  0  0  # atno 17320 bound_to 7965
  144.7469  140.5092  143.6829 LP  0  0  0  0  0  0  0  0  0  0  0  0  # atno 17321 bound_to 7965
  140.3882  143.2766  152.0091 LP  0  0  0  0  0  0  0  0  0  0  0  0  # atno 17342 bound_to 10162
  139.4830  144.6099  151.7452 LP  0  0  0  0  0  0  0  0  0  0  0  0  # atno 17343 bound_to 10162
  156.0322  130.3761  150.1657 LP  0  0  0  0  0  0  0  0  0  0  0  0  # atno 17370 bound_to 10713
  156.9846  130.9875  151.3429 LP  0  0  0  0  0  0  0  0  0  0  0  0  # atno 17371 bound_to 10713
  141.1613  133.8787  157.1839 LP  0  0  0  0  0  0  0  0  0  0  0  0  # atno 17394 bound_to 11000
  139.9934  135.0056  157.0028 LP  0  0  0  0  0  0  0  0  0  0  0  0  # atno 17395 bound_to 11000

$$$$
