AV-unprocessed.smi:3259|AV-procd|sdf|12473|dock6
  -GOLD-   2272018373D 1   1.00000     0.00000
 Structure written by MMmdl.
 39 40  0  0  0  0  0  0  0  0  1 V2000
  151.3532  142.3559  157.3570 C   0  0  0  0  0  0  0  0  0  0  0  0
  151.2498  141.0533  156.7953 O   0  0  0  0  0  0  0  0  0  0  0  0
  149.9323  140.5576  156.5198 C   0  0  2  0  0  0  0  0  0  0  0  0
  149.2382  141.4299  155.4660 C   0  0  0  0  0  0  0  0  0  0  0  0
  149.1981  140.2356  157.8357 C   0  0  0  0  0  0  0  0  0  0  0  0
  149.9257  138.8927  157.8266 C   0  0  1  0  0  0  0  0  0  0  0  0
  149.0885  137.7959  158.2961 N   0  0  0  0  0  0  0  0  0  0  0  0
  149.4665  136.8892  159.2098 C   0  0  0  0  0  0  0  0  0  0  0  0
  150.5355  136.9440  159.8170 O   0  0  0  0  0  0  0  0  0  0  0  0
  148.4973  135.7334  159.4654 C   0  0  0  0  0  0  0  0  0  0  0  0
  147.9446  135.7990  160.8080 N   0  0  0  0  0  0  0  0  0  0  0  0
  147.5595  134.7585  161.6282 C   0  0  0  0  0  0  0  0  0  0  0  0
  147.1255  135.3044  162.8020 C   0  0  0  0  0  0  0  0  0  0  0  0
  147.2830  136.7044  162.6022 C   0  0  0  0  0  0  0  0  0  0  0  0
  147.7724  136.9974  161.4081 N   0  0  0  0  0  0  0  0  0  0  0  0
  150.0243  139.0144  156.2835 C   0  0  0  0  0  0  0  0  0  0  0  0
  148.8786  138.3876  155.4640 C   0  0  0  0  0  0  0  0  0  0  0  0
  151.3196  138.4913  155.6532 C   0  0  0  0  0  0  0  0  0  0  0  0
  152.3858  142.5310  157.6587 H   0  0  0  0  0  0  0  0  0  0  0  0
  150.7262  142.4805  158.2393 H   0  0  0  0  0  0  0  0  0  0  0  0
  151.0960  143.1279  156.6319 H   0  0  0  0  0  0  0  0  0  0  0  0
  148.2752  141.0166  155.1682 H   0  0  0  0  0  0  0  0  0  0  0  0
  149.8462  141.5232  154.5659 H   0  0  0  0  0  0  0  0  0  0  0  0
  149.0327  142.4332  155.8380 H   0  0  0  0  0  0  0  0  0  0  0  0
  149.4391  140.8688  158.6887 H   0  0  0  0  0  0  0  0  0  0  0  0
  148.1177  140.1486  157.7070 H   0  0  0  0  0  0  0  0  0  0  0  0
  150.8965  138.9553  158.3239 H   0  0  0  0  0  0  0  0  0  0  0  0
  148.1903  137.6800  157.8502 H   0  0  0  0  0  0  0  0  0  0  0  0
  147.6826  135.7551  158.7398 H   0  0  0  0  0  0  0  0  0  0  0  0
  149.0168  134.7828  159.3397 H   0  0  0  0  0  0  0  0  0  0  0  0
  147.6310  133.7277  161.3136 H   0  0  0  0  0  0  0  0  0  0  0  0
  146.7531  134.7832  163.6714 H   0  0  0  0  0  0  0  0  0  0  0  0
  147.0579  137.5108  163.2844 H   0  0  0  0  0  0  0  0  0  0  0  0
  148.9113  137.2977  155.4914 H   0  0  0  0  0  0  0  0  0  0  0  0
  148.9306  138.6824  154.4155 H   0  0  0  0  0  0  0  0  0  0  0  0
  147.8966  138.6840  155.8330 H   0  0  0  0  0  0  0  0  0  0  0  0
  151.3232  137.4027  155.5883 H   0  0  0  0  0  0  0  0  0  0  0  0
  152.1983  138.7710  156.2346 H   0  0  0  0  0  0  0  0  0  0  0  0
  151.4588  138.8832  154.6452 H   0  0  0  0  0  0  0  0  0  0  0  0
  1  2  1  0  0  0  0
  1 19  1  0  0  0  0
  1 20  1  0  0  0  0
  1 21  1  0  0  0  0
  2  3  1  0  0  0  0
  3 16  1  0  0  0  0
  3  4  1  0  0  0  0
  3  5  1  0  0  0  0
  4 22  1  0  0  0  0
  4 23  1  0  0  0  0
  4 24  1  0  0  0  0
  5  6  1  0  0  0  0
  5 25  1  0  0  0  0
  5 26  1  0  0  0  0
  6  7  1  0  0  0  0
  6 16  1  0  0  0  0
  6 27  1  0  0  0  0
  7  8  1  0  0  0  0
  7 28  1  0  0  0  0
  8  9  2  0  0  0  0
  8 10  1  0  0  0  0
 10 11  1  0  0  0  0
 10 29  1  0  0  0  0
 10 30  1  0  0  0  0
 11 15  1  0  0  0  0
 11 12  1  0  0  0  0
 12 13  2  0  0  0  0
 12 31  1  0  0  0  0
 13 14  1  0  0  0  0
 13 32  1  0  0  0  0
 14 15  2  0  0  0  0
 14 33  1  0  0  0  0
 16 17  1  0  0  0  0
 16 18  1  0  0  0  0
 17 34  1  0  0  0  0
 17 35  1  0  0  0  0
 17 36  1  0  0  0  0
 18 37  1  0  0  0  0
 18 38  1  0  0  0  0
 18 39  1  0  0  0  0
M  END
> <s_m_source_file>
AV-unprocessed.smi

> <i_m_source_file_index>
3259

> <i_lp_mmshare_version>
43012

> <i_f3d_flags>
0

> <s_epik_input>
W0NIM11PW0NAQF0xKFtDSDNdKVtDSDJdW0NASF0oQzEoW0NIM10pW0NIM10pW05IXUMoPU8pW0NIMl1uMltjSF1bY0hdW2NIXW4y

> <s_epik_cmdline>
J2VwaWtfcHl0aG9uJywgJy1waCcsICc3LjAnLCAnLXRuJywgJzgnLCAnLW1hJywgJzIwMCcsICctbWV0YWxfYmluZGluZycsICctaW1hZScsICc8aW5maWxlLm1hZT4nLCAnLW9tYWUnLCAnPG91dGZpbGUubWFlPic=

> <r_lp_tautomer_probability>
1

> <r_epik_Ionization_Penalty>
1.78399e-05

> <r_epik_Ionization_Penalty_Charging>
0

> <r_epik_Ionization_Penalty_Neutral>
1.78399e-05

> <r_epik_State_Penalty>
-0

> <r_epik_Charging_Adjusted_Penalty>
0

> <i_epik_Tot_Q>
0

> <i_epik_Tot_abs_Q>
0

> <r_epik_Metal_State_Penalty>
-0

> <b_epik_Metal_Only>
0

> <s_lp_Force_Field>
OPLS_2005

> <r_lp_Energy>
22.327

> <b_lp_Chiralities_Consistent>
1

> <s_lp_Variant>
AV-unprocessed.smi:3259-2

> <Gold.Version>
5.8.1

> <Gold.Id.Protein>
6NUR|6NUR_protein|mol2

> <Gold.PLP.Fitness>
37.2338

> <Gold.PLP.PLP>
-30.3533

> <Gold.PLP.part.hbond>
-3.2432

> <Gold.PLP.part.metal>
0.0000

> <Gold.PLP.part.buried>
-5.3593

> <Gold.PLP.part.nonpolar>
-22.2211

> <Gold.PLP.part.repulsive>
0.1494

> <Gold.PLP.ligand.clash>
0.0000

> <Gold.PLP.ligand.torsion>
0.6159

> <Gold.PLP.Chemscore.Hbond>
2.5758

> <Gold.PLP.Chemscore.CHOScore>
0.0000

> <Gold.PLP.Chemscore.Metal>
0.0000

> <Gold.Chemscore.Hbonds>
donor molecule, donor type, donor heavy atom, donor atom, acceptor molecule, acceptor atom, score
      P1  H  6896  6909       L1     9  1.00
      P1  H  6931  6943       L1    15  0.95
      P1  H  6934  6947       L1    15  0.55

> <Gold.PLP.Chemscore.Internal.Correction>
0.3850

> <Gold.Rescore>
     Score         DG    S(hbond)    S(metal)    S(lipo)     H(rot)  DE(clash)    DE(int)     intcor
     16.01     -17.35       2.45        0.00      66.32       1.60       0.00       1.33       ----

> <Gold.Chemscore.Fitness>
16.0127

> <Gold.Chemscore.DG>
-17.3457

> <Gold.Chemscore.ZeroCoef>
-5.4800

> <Gold.Chemscore.Hbond>
2.4527

> <Gold.Chemscore.Metal>
0.0000

> <Gold.Chemscore.Lipo>
66.3238

> <Gold.Chemscore.Internal_Hbond>
0.0000

> <Gold.Chemscore.DEClash>
0.0000

> <Gold.Chemscore.DEInternal>
1.3330

> <Gold.Chemscore.Rot>
1.5962

> <Gold.Chemscore.Internal.Correction>
   9.000000E+99

> <Gold.Chemscore.Hbonds>
donor molecule, donor type, donor heavy atom, donor atom, acceptor molecule, acceptor atom, score
      P1  H  6896  6909       L1     9  0.44
      P1  H  6931  6943       L1    15  0.21
      P1  H  6934  6947       L1    15  0.36

> <Gold.Chemscore.Hbond.Weighted>
-8.1921

> <Gold.Chemscore.Metal.Weighted>
-0.0000

> <Gold.Chemscore.Lipo.Weighted>
-7.7599

> <Gold.Chemscore.Internal_Hbond.Weighted>
0.0000

> <Gold.Chemscore.DEClash.Weighted>
0.0000

> <Gold.Chemscore.DEInternal.Weighted>
1.3330

> <Gold.Chemscore.Rot.Weighted>
4.0862

> <Gold.Chemscore.Internal.Correction.Weighted>
   9.000000E+99

> <Gold.Protein.RotatedTorsions>
[ 6907 6896 6895 6894 ] final   92.58 input  -60.11 | X-H torsion
[ 7974 7965 7964 7962 ] final  142.06 input  175.53 | X-H torsion
[ 8008 7997 7996 7995 ] final  -39.86 input   59.86 | X-H torsion
[ 10167 10162 10161 10158 ] final  -97.37 input  -65.29 | X-H torsion
[ 10718 10713 10712 10709 ] final  -80.89 input   66.30 | X-H torsion
[ 10763 10752 10751 10750 ] final  -93.16 input  -60.55 | X-H torsion
[ 11005 11000 10999 10996 ] final   90.59 input  -57.11 | X-H torsion

> <Gold.Protein.ActiveResidues>
 VAL166  LYS551  ARG553  GLY616  TRP617  ASP618  TYR619  PRO620  LYS621  CYS622 
 ASP623  PHE694  ASN695  SER759  ASP760  ASP761  ALA762  ILE779  LEU786  VAL792 
 PHE793  MET794  SER795  GLU796  ALA797  LYS798  CYS799  TRP800  GLU811  SER814 

> <Gold.Protein.RotatedAtoms>
  152.5453  134.1480  159.8506 H   0  0  0  0  0  0  0  0  0  0  0  0  # atno 6907 bound_to 6896
  151.1510  133.4900  159.2603 H   0  0  0  0  0  0  0  0  0  0  0  0  # atno 6908 bound_to 6896
  151.1472  135.0220  159.8707 H   0  0  0  0  0  0  0  0  0  0  0  0  # atno 6909 bound_to 6896
  144.9041  139.5382  143.5740 H   0  0  0  0  0  0  0  0  0  0  0  0  # atno 7974 bound_to 7965
  154.4018  140.1540  156.2932 H   0  0  0  0  0  0  0  0  0  0  0  0  # atno 8008 bound_to 7997
  155.8767  140.3446  155.5837 H   0  0  0  0  0  0  0  0  0  0  0  0  # atno 8009 bound_to 7997
  155.7714  140.0831  157.2097 H   0  0  0  0  0  0  0  0  0  0  0  0  # atno 8010 bound_to 7997
  140.2841  143.3263  152.0412 H   0  0  0  0  0  0  0  0  0  0  0  0  # atno 10167 bound_to 10162
  156.0061  130.4587  150.3870 H   0  0  0  0  0  0  0  0  0  0  0  0  # atno 10718 bound_to 10713
  154.6932  135.5204  153.8422 H   0  0  0  0  0  0  0  0  0  0  0  0  # atno 10763 bound_to 10752
  153.0648  135.6581  154.0389 H   0  0  0  0  0  0  0  0  0  0  0  0  # atno 10764 bound_to 10752
  154.0260  135.2989  155.3354 H   0  0  0  0  0  0  0  0  0  0  0  0  # atno 10765 bound_to 10752
  139.8853  134.8623  156.3306 H   0  0  0  0  0  0  0  0  0  0  0  0  # atno 11005 bound_to 11000
  146.3124  139.7795  142.9009 LP  0  0  0  0  0  0  0  0  0  0  0  0  # atno 17320 bound_to 7965
  145.3566  141.0318  143.3308 LP  0  0  0  0  0  0  0  0  0  0  0  0  # atno 17321 bound_to 7965
  139.4955  144.6571  151.6548 LP  0  0  0  0  0  0  0  0  0  0  0  0  # atno 17342 bound_to 10162
  140.5787  143.9983  150.6256 LP  0  0  0  0  0  0  0  0  0  0  0  0  # atno 17343 bound_to 10162
  157.1946  131.0423  151.2682 LP  0  0  0  0  0  0  0  0  0  0  0  0  # atno 17370 bound_to 10713
  157.4030  130.7344  149.6781 LP  0  0  0  0  0  0  0  0  0  0  0  0  # atno 17371 bound_to 10713
  140.9725  133.7318  156.0555 LP  0  0  0  0  0  0  0  0  0  0  0  0  # atno 17394 bound_to 11000
  140.7852  134.3680  157.5478 LP  0  0  0  0  0  0  0  0  0  0  0  0  # atno 17395 bound_to 11000

$$$$
