#       Name:                AV-unprocessed.smi:2753
#       Creating user name   scv26
#       Creation time:       Fri Mar 27 15:06:28 2020


#       File generated by GOLD software.
#

@<TRIPOS>MOLECULE
AV-unprocessed.smi:2753
    29    30     1
SMALL
NO_CHARGES


@<TRIPOS>ATOM
      1 ****        -4.3833   2.2525  -1.7875 F              1 S1                 0.0000
      2 ****        -4.0032   0.9760  -1.7366 C.3            1 S1                 0.0000
      3 ****        -4.6189   0.3836  -0.7136 F              1 S1                 0.0000
      4 ****        -4.3649   0.3686  -2.8668 F              1 S1                 0.0000
      5 ****        -2.5001   0.8895  -1.5600 C.2            1 S1                 0.0000
      6 ****        -1.6461   1.4607  -2.5492 C.2            1 S1                 0.0000
      7 ****        -0.4025   1.2252  -2.1167 N.pl3          1 S1                -1.0000
      8 ****        -0.4453   0.5586  -0.9438 C.2            1 S1                 0.0000
      9 ****         0.7627   0.1098  -0.1477 C.3            1 S1                 0.0000
     10 ****         0.8280   0.7816   1.2358 C.3            1 S1                 0.0000
     11 ****         2.0540   0.2821   2.0156 C.3            1 S1                 0.0000
     12 ****         2.0721  -1.2544   2.0863 C.3            1 S1                 0.0000
     13 ****         2.0272  -1.8420   0.7293 N.4            1 S1                 1.0000
     14 ****         0.8362  -1.4246  -0.0416 C.3            1 S1                 0.0000
     15 ****        -1.7291   0.3473  -0.5976 N.2            1 S1                 0.0000
     16 ****        -1.8323   1.9872  -3.4770 H              1 S1                 0.0000
     17 ****         1.6382   0.4393  -0.7099 H              1 S1                 0.0000
     18 ****         0.8675   1.8662   1.1283 H              1 S1                 0.0000
     19 ****        -0.0782   0.5561   1.7999 H              1 S1                 0.0000
     20 ****         2.9651   0.6378   1.5327 H              1 S1                 0.0000
     21 ****         2.0523   0.7030   3.0214 H              1 S1                 0.0000
     22 ****         2.9733  -1.5992   2.5937 H              1 S1                 0.0000
     23 ****         1.2209  -1.6181   2.6636 H              1 S1                 0.0000
     24 ****         2.8518  -1.5492   0.2248 H              1 S1                 0.0000
     25 ****        -0.0579  -1.8168   0.4453 H              1 S1                 0.0000
     26 ****         0.8816  -1.8726  -1.0346 H              1 S1                 0.0000
     27 ****         2.0300  -2.8490   0.8053 H              1 S1                 0.0000
     28 ****         0.4334   1.5015  -2.5910 LP             1 S1                 0.0000
     29 ****        -2.0510  -0.1251   0.2229 LP             1 S1                 0.0000
@<TRIPOS>BOND
    1    1    2 1     
    2    2    3 1     
    3    2    4 1     
    4    2    5 1     
    5    5   15 1     
    6    5    6 2     
    7    6    7 1     
    8    6   16 1     
    9    7    8 1     
   10    8    9 1     
   11    8   15 2     
   12    9   14 1     
   13    9   10 1     
   14    9   17 1     
   15   10   11 1     
   16   10   18 1     
   17   10   19 1     
   18   11   12 1     
   19   11   20 1     
   20   11   21 1     
   21   12   13 1     
   22   12   22 1     
   23   12   23 1     
   24   13   14 1     
   25   13   24 1     
   26   13   27 1     
   27   14   25 1     
   28   14   26 1     
   29    7   28 1     
   30   15   29 1     
@<TRIPOS>SUBSTRUCTURE
      1 S1             1
@<TRIPOS>SET
LONE_PAIRS      STATIC     ATOMS    <user>   **** ""
2 28 29
DONOR_HYDROGENS      STATIC     ATOMS    <user>   **** ""
2 24 27
ATOM$BLUE        STATIC     ATOMS    COLORGROUP SYSTEM
2 28 29
ATOM$RED        STATIC     ATOMS    COLORGROUP SYSTEM
2 24 27
