AV-unprocessed.smi:2770|AV-procd|sdf|10660|dock8
  -GOLD-   2272015103D 1   1.00000     0.00000
 Structure written by MMmdl.
 35 36  0  0  0  0  0  0  0  0  2 V2000
  146.3337  142.7007  154.3494 C   0  0  0  0  0  0  0  0  0  0  0  0
  147.3893  142.0026  155.0669 N   0  0  0  0  0  0  0  0  0  0  0  0
  148.3852  141.3247  154.4768 C   0  0  0  0  0  0  0  0  0  0  0  0
  148.5007  141.2369  153.2537 O   0  0  0  0  0  0  0  0  0  0  0  0
  149.4120  140.6639  155.4072 C   0  0  2  0  0  0  0  0  0  0  0  0
  150.1205  141.6857  156.3255 C   0  0  0  0  0  0  0  0  0  0  0  0
  151.1538  141.0273  157.1140 N   0  0  0  0  0  0  0  0  0  0  0  0
  151.7623  141.8876  158.0370 C   0  0  0  0  0  0  0  0  0  0  0  0
  151.5375  143.2839  158.0685 C   0  0  0  0  0  0  0  0  0  0  0  0
  152.1926  144.0665  159.0414 C   0  0  0  0  0  0  0  0  0  0  0  0
  153.0574  143.4422  159.9633 C   0  0  0  0  0  0  0  0  0  0  0  0
  153.2459  142.0459  159.8911 C   0  0  0  0  0  0  0  0  0  0  0  0
  154.1553  141.3002  160.8445 C   0  0  0  0  0  0  0  0  0  0  0  0
  152.5986  141.3327  158.9426 N   0  3  0  0  0  0  0  0  0  0  0  0
  152.1023  140.2870  156.2928 C   0  0  0  0  0  0  0  0  0  0  0  0
  151.3494  139.2929  155.3946 C   0  0  0  0  0  0  0  0  0  0  0  0
  150.3929  139.9981  154.6097 O   0  0  0  0  0  0  0  0  0  0  0  0
  145.6389  143.1526  155.0571 H   0  0  0  0  0  0  0  0  0  0  0  0
  145.7741  142.0128  153.7146 H   0  0  0  0  0  0  0  0  0  0  0  0
  146.7477  143.4930  153.7246 H   0  0  0  0  0  0  0  0  0  0  0  0
  147.3623  142.0329  156.0761 H   0  0  0  0  0  0  0  0  0  0  0  0
  148.8819  139.9268  156.0132 H   0  0  0  0  0  0  0  0  0  0  0  0
  150.5677  142.4824  155.7283 H   0  0  0  0  0  0  0  0  0  0  0  0
  149.3990  142.1525  156.9978 H   0  0  0  0  0  0  0  0  0  0  0  0
  150.8696  143.7532  157.3609 H   0  0  0  0  0  0  0  0  0  0  0  0
  152.0326  145.1339  159.0812 H   0  0  0  0  0  0  0  0  0  0  0  0
  153.5658  144.0291  160.7147 H   0  0  0  0  0  0  0  0  0  0  0  0
  154.5635  141.9693  161.6026 H   0  0  0  0  0  0  0  0  0  0  0  0
  154.9876  140.8512  160.3020 H   0  0  0  0  0  0  0  0  0  0  0  0
  153.6061  140.5066  161.3518 H   0  0  0  0  0  0  0  0  0  0  0  0
  152.6795  140.9762  155.6755 H   0  0  0  0  0  0  0  0  0  0  0  0
  152.8078  139.7547  156.9320 H   0  0  0  0  0  0  0  0  0  0  0  0
  152.0469  138.7819  154.7308 H   0  0  0  0  0  0  0  0  0  0  0  0
  150.8537  138.5247  155.9905 H   0  0  0  0  0  0  0  0  0  0  0  0
  152.7492  140.3241  158.9087 H   0  0  0  0  0  0  0  0  0  0  0  0
  1  2  1  0  0  0  0
  1 18  1  0  0  0  0
  1 19  1  0  0  0  0
  1 20  1  0  0  0  0
  2  3  1  0  0  0  0
  2 21  1  0  0  0  0
  3  4  2  0  0  0  0
  3  5  1  0  0  0  0
  5 17  1  0  0  0  0
  5  6  1  0  0  0  0
  5 22  1  0  0  0  0
  6  7  1  0  0  0  0
  6 23  1  0  0  0  0
  6 24  1  0  0  0  0
  7  8  1  0  0  0  0
  7 15  1  0  0  0  0
  8 14  1  0  0  0  0
  8  9  2  0  0  0  0
  9 10  1  0  0  0  0
  9 25  1  0  0  0  0
 10 11  2  0  0  0  0
 10 26  1  0  0  0  0
 11 12  1  0  0  0  0
 11 27  1  0  0  0  0
 12 13  1  0  0  0  0
 12 14  2  0  0  0  0
 13 28  1  0  0  0  0
 13 29  1  0  0  0  0
 13 30  1  0  0  0  0
 14 35  1  0  0  0  0
 15 16  1  0  0  0  0
 15 31  1  0  0  0  0
 15 32  1  0  0  0  0
 16 17  1  0  0  0  0
 16 33  1  0  0  0  0
 16 34  1  0  0  0  0
M  CHG  1  14   1
M  END
> <s_m_source_file>
AV-unprocessed.smi

> <i_m_source_file_index>
2770

> <i_lp_mmshare_version>
43012

> <i_f3d_flags>
0

> <s_epik_input>
W0NIM11bTkhdQyg9TylbQ0BASF0xW0NIMl1OKFtDSDJdW0NIMl1PMSljMltjSF1bY0hdW2NIXWMobjIpW0NIM10=

> <s_epik_cmdline>
J2VwaWtfcHl0aG9uJywgJy1waCcsICc3LjAnLCAnLXRuJywgJzgnLCAnLW1hJywgJzIwMCcsICctbWV0YWxfYmluZGluZycsICctaW1hZScsICc8aW5maWxlLm1hZT4nLCAnLW9tYWUnLCAnPG91dGZpbGUubWFlPic=

> <r_lp_tautomer_probability>
0.999994

> <r_epik_Ionization_Penalty>
2.33902

> <r_epik_Ionization_Penalty_Charging>
2.33902

> <r_epik_Ionization_Penalty_Neutral>
5.66859e-08

> <r_epik_State_Penalty>
2.4925

> <r_epik_Charging_Adjusted_Penalty>
4.83152

> <i_epik_Tot_Q>
1

> <i_epik_Tot_abs_Q>
1

> <r_epik_Metal_State_Penalty>
2.50392

> <b_epik_Metal_Only>
0

> <s_lp_Force_Field>
OPLS_2005

> <r_lp_Energy>
23.5554

> <b_lp_Chiralities_Consistent>
1

> <s_lp_Variant>
AV-unprocessed.smi:2770-3

> <Gold.Version>
5.8.1

> <Gold.Id.Protein>
6NUR|6NUR_protein|mol2

> <Gold.PLP.Fitness>
41.3441

> <Gold.PLP.PLP>
-35.5196

> <Gold.PLP.part.hbond>
-3.0000

> <Gold.PLP.part.metal>
0.0000

> <Gold.PLP.part.buried>
-4.5224

> <Gold.PLP.part.nonpolar>
-32.3183

> <Gold.PLP.part.repulsive>
4.2745

> <Gold.PLP.ligand.clash>
0.0000

> <Gold.PLP.ligand.torsion>
0.0775

> <Gold.PLP.Chemscore.Hbond>
1.9600

> <Gold.PLP.Chemscore.CHOScore>
0.0000

> <Gold.PLP.Chemscore.Metal>
0.0000

> <Gold.Chemscore.Hbonds>
donor molecule, donor type, donor heavy atom, donor atom, acceptor molecule, acceptor atom, score
      P1  H  7989  7998       L1    17  0.85
      P1  H  8011  8017       L1     4  0.90

> <Gold.PLP.Chemscore.Internal.Correction>
0.0995

> <Gold.Rescore>
     Score         DG    S(hbond)    S(metal)    S(lipo)     H(rot)  DE(clash)    DE(int)     intcor
     15.97     -18.05       1.56        0.00      91.16       1.30       1.85       0.23       ----

> <Gold.Chemscore.Fitness>
15.9702

> <Gold.Chemscore.DG>
-18.0475

> <Gold.Chemscore.ZeroCoef>
-5.4800

> <Gold.Chemscore.Hbond>
1.5628

> <Gold.Chemscore.Metal>
0.0000

> <Gold.Chemscore.Lipo>
91.1637

> <Gold.Chemscore.Internal_Hbond>
0.0000

> <Gold.Chemscore.DEClash>
1.8512

> <Gold.Chemscore.DEInternal>
0.2261

> <Gold.Chemscore.Rot>
1.2963

> <Gold.Chemscore.Internal.Correction>
   9.000000E+99

> <Gold.Chemscore.Hbonds>
donor molecule, donor type, donor heavy atom, donor atom, acceptor molecule, acceptor atom, score
      P1  H  7989  7998       L1    17  0.15
      P1  H  8011  8017       L1     4  0.83

> <Gold.Chemscore.Hbond.Weighted>
-5.2199

> <Gold.Chemscore.Metal.Weighted>
-0.0000

> <Gold.Chemscore.Lipo.Weighted>
-10.6661

> <Gold.Chemscore.Internal_Hbond.Weighted>
0.0000

> <Gold.Chemscore.DEClash.Weighted>
1.8512

> <Gold.Chemscore.DEInternal.Weighted>
0.2261

> <Gold.Chemscore.Rot.Weighted>
3.3185

> <Gold.Chemscore.Internal.Correction.Weighted>
   9.000000E+99

> <Gold.Protein.RotatedTorsions>
[ 6907 6896 6895 6894 ] final   33.02 input  -60.11 | X-H torsion
[ 7974 7965 7964 7962 ] final -107.95 input  175.53 | X-H torsion
[ 8008 7997 7996 7995 ] final   36.93 input   59.86 | X-H torsion
[ 10167 10162 10161 10158 ] final   89.59 input  -65.29 | X-H torsion
[ 10718 10713 10712 10709 ] final -168.10 input   66.30 | X-H torsion
[ 10763 10752 10751 10750 ] final   -2.02 input  -60.55 | X-H torsion
[ 11005 11000 10999 10996 ] final  -77.54 input  -57.11 | X-H torsion

> <Gold.Protein.ActiveResidues>
 VAL166  LYS551  ARG553  GLY616  TRP617  ASP618  TYR619  PRO620  LYS621  CYS622 
 ASP623  PHE694  ASN695  SER759  ASP760  ASP761  ALA762  ILE779  LEU786  VAL792 
 PHE793  MET794  SER795  GLU796  ALA797  LYS798  CYS799  TRP800  GLU811  SER814 

> <Gold.Protein.RotatedAtoms>
  152.0827  134.9460  160.0573 H   0  0  0  0  0  0  0  0  0  0  0  0  # atno 6907 bound_to 6896
  152.0742  133.4116  159.4481 H   0  0  0  0  0  0  0  0  0  0  0  0  # atno 6908 bound_to 6896
  150.6836  134.2976  159.4736 H   0  0  0  0  0  0  0  0  0  0  0  0  # atno 6909 bound_to 6896
  145.1989  140.9047  143.3381 H   0  0  0  0  0  0  0  0  0  0  0  0  # atno 7974 bound_to 7965
  155.1955  140.3311  155.4351 H   0  0  0  0  0  0  0  0  0  0  0  0  # atno 8008 bound_to 7997
  156.2426  140.1903  156.6995 H   0  0  0  0  0  0  0  0  0  0  0  0  # atno 8009 bound_to 7997
  154.6177  140.0600  156.9560 H   0  0  0  0  0  0  0  0  0  0  0  0  # atno 8010 bound_to 7997
  139.8557  144.6570  150.9117 H   0  0  0  0  0  0  0  0  0  0  0  0  # atno 10167 bound_to 10162
  156.6920  130.9163  151.3070 H   0  0  0  0  0  0  0  0  0  0  0  0  # atno 10718 bound_to 10713
  153.3526  135.6986  153.6776 H   0  0  0  0  0  0  0  0  0  0  0  0  # atno 10763 bound_to 10752
  153.5497  135.3556  155.2755 H   0  0  0  0  0  0  0  0  0  0  0  0  # atno 10764 bound_to 10752
  154.8655  135.4223  154.2764 H   0  0  0  0  0  0  0  0  0  0  0  0  # atno 10765 bound_to 10752
  141.1661  133.7027  156.7837 H   0  0  0  0  0  0  0  0  0  0  0  0  # atno 11005 bound_to 11000
  144.9967  139.3637  143.6188 LP  0  0  0  0  0  0  0  0  0  0  0  0  # atno 17320 bound_to 7965
  146.3421  139.9173  142.8771 LP  0  0  0  0  0  0  0  0  0  0  0  0  # atno 17321 bound_to 7965
  140.7782  143.3788  151.1514 LP  0  0  0  0  0  0  0  0  0  0  0  0  # atno 17342 bound_to 10162
  139.7422  143.8907  152.3053 LP  0  0  0  0  0  0  0  0  0  0  0  0  # atno 17343 bound_to 10162
  157.7005  130.9328  150.0772 LP  0  0  0  0  0  0  0  0  0  0  0  0  # atno 17370 bound_to 10713
  156.1791  130.3649  149.9060 LP  0  0  0  0  0  0  0  0  0  0  0  0  # atno 17371 bound_to 10713
  140.2376  134.8638  157.3541 LP  0  0  0  0  0  0  0  0  0  0  0  0  # atno 17394 bound_to 11000
  140.1828  134.4468  155.7762 LP  0  0  0  0  0  0  0  0  0  0  0  0  # atno 17395 bound_to 11000

$$$$
