AV-unprocessed.smi:348|AV-procd|sdf|2395|dock9
  -GOLD-   2262022323D 1   1.00000     0.00000
 Structure written by MMmdl.
 39 40  0  0  0  0  0  0  0  0  1 V2000
  151.0840  137.6098  158.6782 C   0  0  0  0  0  0  0  0  0  0  0  0
  150.1519  136.5513  158.8311 O   0  0  0  0  0  0  0  0  0  0  0  0
  149.6892  136.0047  157.6045 C   0  0  0  0  0  0  0  0  0  0  0  0
  150.8343  135.3581  156.8029 C   0  0  0  0  0  0  0  0  0  0  0  0
  150.3838  134.2415  155.9956 N   0  0  0  0  0  0  0  0  0  0  0  0
  149.6329  134.3844  154.8254 C   0  0  0  0  0  0  0  0  0  0  0  0
  149.3211  135.6699  154.4064 N   0  0  0  0  0  0  0  0  0  0  0  0
  149.2189  133.3124  154.0873 C   0  0  0  0  0  0  0  0  0  0  0  0
  148.4710  133.4987  152.9236 N   0  0  0  0  0  0  0  0  0  0  0  0
  147.9218  132.5351  151.9812 C   0  0  0  0  0  0  0  0  0  0  0  0
  146.4635  132.7901  151.6500 C   0  0  0  0  0  0  0  0  0  0  0  0
  145.7150  131.8203  150.9489 C   0  0  0  0  0  0  0  0  0  0  0  0
  144.3604  132.0555  150.6426 C   0  0  0  0  0  0  0  0  0  0  0  0
  143.7476  133.2603  151.0375 C   0  0  0  0  0  0  0  0  0  0  0  0
  144.4898  134.2294  151.7397 C   0  0  0  0  0  0  0  0  0  0  0  0
  145.8444  133.9946  152.0467 C   0  0  0  0  0  0  0  0  0  0  0  0
  149.5719  131.9470  154.5167 C   0  0  0  0  0  0  0  0  0  0  0  0
  149.2602  130.8960  153.9590 O   0  0  0  0  0  0  0  0  0  0  0  0
  150.3448  131.8749  155.6731 N   0  0  0  0  0  0  0  0  0  0  0  0
  150.7810  132.9555  156.4284 C   0  0  0  0  0  0  0  0  0  0  0  0
  151.4813  132.7557  157.4215 O   0  0  0  0  0  0  0  0  0  0  0  0
  150.6172  130.9550  155.9872 H   0  0  0  0  0  0  0  0  0  0  0  0
  151.4165  137.9433  159.6611 H   0  0  0  0  0  0  0  0  0  0  0  0
  150.6460  138.4684  158.1698 H   0  0  0  0  0  0  0  0  0  0  0  0
  151.9632  137.2838  158.1214 H   0  0  0  0  0  0  0  0  0  0  0  0
  148.8773  135.2964  157.7773 H   0  0  0  0  0  0  0  0  0  0  0  0
  149.2635  136.8258  157.0273 H   0  0  0  0  0  0  0  0  0  0  0  0
  151.3268  136.0774  156.1464 H   0  0  0  0  0  0  0  0  0  0  0  0
  151.6264  134.9784  157.4466 H   0  0  0  0  0  0  0  0  0  0  0  0
  149.6204  136.4857  154.9206 H   0  0  0  0  0  0  0  0  0  0  0  0
  148.8014  135.8423  153.5579 H   0  0  0  0  0  0  0  0  0  0  0  0
  148.2365  134.4554  152.7040 H   0  0  0  0  0  0  0  0  0  0  0  0
  148.4913  132.5732  151.0520 H   0  0  0  0  0  0  0  0  0  0  0  0
  148.0343  131.5307  152.3917 H   0  0  0  0  0  0  0  0  0  0  0  0
  146.1783  130.8926  150.6455 H   0  0  0  0  0  0  0  0  0  0  0  0
  143.7916  131.3111  150.1054 H   0  0  0  0  0  0  0  0  0  0  0  0
  142.7089  133.4404  150.8028 H   0  0  0  0  0  0  0  0  0  0  0  0
  144.0201  135.1533  152.0432 H   0  0  0  0  0  0  0  0  0  0  0  0
  146.4051  134.7441  152.5858 H   0  0  0  0  0  0  0  0  0  0  0  0
  1  2  1  0  0  0  0
  1 23  1  0  0  0  0
  1 24  1  0  0  0  0
  1 25  1  0  0  0  0
  2  3  1  0  0  0  0
  3  4  1  0  0  0  0
  3 26  1  0  0  0  0
  3 27  1  0  0  0  0
  4  5  1  0  0  0  0
  4 28  1  0  0  0  0
  4 29  1  0  0  0  0
  5 20  1  0  0  0  0
  5  6  1  0  0  0  0
  6  7  1  0  0  0  0
  6  8  2  0  0  0  0
  7 30  1  0  0  0  0
  7 31  1  0  0  0  0
  8  9  1  0  0  0  0
  8 17  1  0  0  0  0
  9 10  1  0  0  0  0
  9 32  1  0  0  0  0
 10 11  1  0  0  0  0
 10 33  1  0  0  0  0
 10 34  1  0  0  0  0
 11 16  1  0  0  0  0
 11 12  2  0  0  0  0
 12 13  1  0  0  0  0
 12 35  1  0  0  0  0
 13 14  2  0  0  0  0
 13 36  1  0  0  0  0
 14 15  1  0  0  0  0
 14 37  1  0  0  0  0
 15 16  2  0  0  0  0
 15 38  1  0  0  0  0
 16 39  1  0  0  0  0
 17 18  2  0  0  0  0
 17 19  1  0  0  0  0
 19 22  1  0  0  0  0
 19 20  1  0  0  0  0
 20 21  2  0  0  0  0
M  END
> <s_m_source_file>
AV-unprocessed.smi

> <i_m_source_file_index>
348

> <i_lp_mmshare_version>
43012

> <i_f3d_flags>
0

> <s_epik_input>
W0NIM11PW0NIMl1bQ0gyXW4xYyhbTkgyXSljKGMoPU8pW25IXWMxPU8pW05IXVtDSDJdYzJbY0hdW2NIXVtjSF1bY0hdW2NIXTI=

> <s_epik_cmdline>
J2VwaWtfcHl0aG9uJywgJy1waCcsICc3LjAnLCAnLXRuJywgJzgnLCAnLW1hJywgJzIwMCcsICctbWV0YWxfYmluZGluZycsICctaW1hZScsICc8aW5maWxlLm1hZT4nLCAnLW9tYWUnLCAnPG91dGZpbGUubWFlPic=

> <r_lp_tautomer_probability>
1

> <r_epik_Ionization_Penalty>
5.85579e-06

> <r_epik_Ionization_Penalty_Charging>
2.30036e-06

> <r_epik_Ionization_Penalty_Neutral>
3.55543e-06

> <r_epik_State_Penalty>
-0

> <r_epik_Charging_Adjusted_Penalty>
2.30036e-06

> <i_epik_Tot_Q>
0

> <i_epik_Tot_abs_Q>
0

> <r_epik_Metal_State_Penalty>
-0

> <b_epik_Metal_Only>
0

> <s_epik_Chemistry_Notes>
This compound has an imine and may undergo hydrolysis.

> <s_lp_Force_Field>
OPLS_2005

> <r_lp_Energy>
18.6076

> <b_lp_Chiralities_Consistent>
1

> <s_lp_Variant>
AV-unprocessed.smi:348-1

> <Gold.Version>
5.8.1

> <Gold.Id.Protein>
6NUR|6NUR_protein|mol2

> <Gold.PLP.Fitness>
44.1308

> <Gold.PLP.PLP>
-33.8107

> <Gold.PLP.part.hbond>
-4.0000

> <Gold.PLP.part.metal>
0.0000

> <Gold.PLP.part.buried>
-1.0855

> <Gold.PLP.part.nonpolar>
-28.4912

> <Gold.PLP.part.repulsive>
0.1042

> <Gold.PLP.ligand.clash>
0.0000

> <Gold.PLP.ligand.torsion>
0.5158

> <Gold.PLP.Chemscore.Hbond>
3.7760

> <Gold.PLP.Chemscore.CHOScore>
0.0000

> <Gold.PLP.Chemscore.Metal>
0.0000

> <Gold.Chemscore.Hbonds>
donor molecule, donor type, donor heavy atom, donor atom, acceptor molecule, acceptor atom, score
      L1  H     7    31       P1  7948  0.86
      L1  H     9    32       P1  7948  0.83
      P1  H  6896  6907       L1     2  1.00
      P1  H  6896  6909       L1    21  0.99

> <Gold.PLP.Chemscore.Internal.Correction>
0.0238

> <Gold.Rescore>
     Score         DG    S(hbond)    S(metal)    S(lipo)     H(rot)  DE(clash)    DE(int)     intcor
     15.37     -17.28       3.15        0.00      56.81       2.10       0.03       1.87       ----

> <Gold.Chemscore.Fitness>
15.3708

> <Gold.Chemscore.DG>
-17.2759

> <Gold.Chemscore.ZeroCoef>
-5.4800

> <Gold.Chemscore.Hbond>
3.1487

> <Gold.Chemscore.Metal>
0.0000

> <Gold.Chemscore.Lipo>
56.8102

> <Gold.Chemscore.Internal_Hbond>
0.0000

> <Gold.Chemscore.DEClash>
0.0328

> <Gold.Chemscore.DEInternal>
1.8722

> <Gold.Chemscore.Rot>
2.0968

> <Gold.Chemscore.Internal.Correction>
   9.000000E+99

> <Gold.Chemscore.Hbonds>
donor molecule, donor type, donor heavy atom, donor atom, acceptor molecule, acceptor atom, score
      L1  H     7    31       P1  7948  0.84
      L1  H     9    32       P1  7948  0.23
      P1  H  6896  6907       L1     2  0.31
      P1  H  6896  6909       L1    21  0.93

> <Gold.Chemscore.Hbond.Weighted>
-10.5168

> <Gold.Chemscore.Metal.Weighted>
-0.0000

> <Gold.Chemscore.Lipo.Weighted>
-6.6468

> <Gold.Chemscore.Internal_Hbond.Weighted>
0.0000

> <Gold.Chemscore.DEClash.Weighted>
0.0328

> <Gold.Chemscore.DEInternal.Weighted>
1.8722

> <Gold.Chemscore.Rot.Weighted>
5.3677

> <Gold.Chemscore.Internal.Correction.Weighted>
   9.000000E+99

> <Gold.Protein.RotatedTorsions>
[ 6907 6896 6895 6894 ] final  -40.20 input  -60.11 | X-H torsion
[ 7974 7965 7964 7962 ] final    7.48 input  175.53 | X-H torsion
[ 8008 7997 7996 7995 ] final  124.14 input   59.86 | X-H torsion
[ 10167 10162 10161 10158 ] final -137.74 input  -65.29 | X-H torsion
[ 10718 10713 10712 10709 ] final   55.91 input   66.30 | X-H torsion
[ 10763 10752 10751 10750 ] final  -73.83 input  -60.55 | X-H torsion
[ 11005 11000 10999 10996 ] final   65.61 input  -57.11 | X-H torsion

> <Gold.Protein.ActiveResidues>
 VAL166  LYS551  ARG553  GLY616  TRP617  ASP618  TYR619  PRO620  LYS621  CYS622 
 ASP623  PHE694  ASN695  SER759  ASP760  ASP761  ALA762  ILE779  LEU786  VAL792 
 PHE793  MET794  SER795  GLU796  ALA797  LYS798  CYS799  TRP800  GLU811  SER814 

> <Gold.Protein.RotatedAtoms>
  150.9813  134.9167  159.7845 H   0  0  0  0  0  0  0  0  0  0  0  0  # atno 6907 bound_to 6896
  152.5222  134.3407  159.9226 H   0  0  0  0  0  0  0  0  0  0  0  0  # atno 6908 bound_to 6896
  151.3414  133.3920  159.2706 H   0  0  0  0  0  0  0  0  0  0  0  0  # atno 6909 bound_to 6896
  146.2426  140.0076  142.8410 H   0  0  0  0  0  0  0  0  0  0  0  0  # atno 7974 bound_to 7965
  156.2791  140.2746  156.1740 H   0  0  0  0  0  0  0  0  0  0  0  0  # atno 8008 bound_to 7997
  155.0625  140.0386  157.2599 H   0  0  0  0  0  0  0  0  0  0  0  0  # atno 8009 bound_to 7997
  154.7106  140.2668  155.6638 H   0  0  0  0  0  0  0  0  0  0  0  0  # atno 8010 bound_to 7997
  139.8547  143.7153  152.2655 H   0  0  0  0  0  0  0  0  0  0  0  0  # atno 10167 bound_to 10162
  157.5385  130.8681  149.8788 H   0  0  0  0  0  0  0  0  0  0  0  0  # atno 10718 bound_to 10713
  154.4649  135.5884  153.6281 H   0  0  0  0  0  0  0  0  0  0  0  0  # atno 10763 bound_to 10752
  152.9827  135.6053  154.3440 H   0  0  0  0  0  0  0  0  0  0  0  0  # atno 10764 bound_to 10752
  154.3316  135.2842  155.2448 H   0  0  0  0  0  0  0  0  0  0  0  0  # atno 10765 bound_to 10752
  139.9883  134.6632  156.0136 H   0  0  0  0  0  0  0  0  0  0  0  0  # atno 11005 bound_to 11000
  145.1357  140.9543  143.4518 LP  0  0  0  0  0  0  0  0  0  0  0  0  # atno 17320 bound_to 7965
  145.0344  139.3313  143.6008 LP  0  0  0  0  0  0  0  0  0  0  0  0  # atno 17321 bound_to 7965
  139.7431  144.7554  151.0622 LP  0  0  0  0  0  0  0  0  0  0  0  0  # atno 17342 bound_to 10162
  140.7783  143.4949  150.9846 LP  0  0  0  0  0  0  0  0  0  0  0  0  # atno 17343 bound_to 10162
  156.0478  130.3724  150.1275 LP  0  0  0  0  0  0  0  0  0  0  0  0  # atno 17370 bound_to 10713
  156.9456  130.9758  151.3508 LP  0  0  0  0  0  0  0  0  0  0  0  0  # atno 17371 bound_to 10713
  141.1544  133.6544  156.4115 LP  0  0  0  0  0  0  0  0  0  0  0  0  # atno 17394 bound_to 11000
  140.4958  134.6532  157.5229 LP  0  0  0  0  0  0  0  0  0  0  0  0  # atno 17395 bound_to 11000

$$$$
