AV-unprocessed.smi:249|AV-procd|sdf|1916|dock4
  -GOLD-   2262021 13D 1   1.00000     0.00000
 Structure written by MMmdl.
 64 67  0  0  0  0  0  0  0  0  2 V2000
  146.6172  129.7853  152.3910 C   0  0  0  0  0  0  0  0  0  0  0  0
  145.8070  130.8109  151.5833 C   0  0  0  0  0  0  0  0  0  0  0  0
  146.6002  132.0167  151.2019 N   0  3  2  0  0  0  0  0  0  0  0  0
  147.0019  132.8707  152.3556 C   0  0  0  0  0  0  0  0  0  0  0  0
  145.8127  133.6670  152.9264 C   0  0  0  0  0  0  0  0  0  0  0  0
  145.1433  134.5143  151.8265 C   0  0  2  0  0  0  0  0  0  0  0  0
  144.0075  135.2949  152.3306 N   0  0  0  0  0  0  0  0  0  0  0  0
  142.6898  134.6710  152.4500 C   0  0  0  0  0  0  0  0  0  0  0  0
  144.3210  136.2336  153.2607 C   0  0  0  0  0  0  0  0  0  0  0  0
  143.7491  136.1780  154.4934 N   0  0  0  0  0  0  0  0  0  0  0  0
  144.0649  137.0822  155.4251 C   0  0  0  0  0  0  0  0  0  0  0  0
  144.9166  138.1054  155.3393 N   0  0  0  0  0  0  0  0  0  0  0  0
  145.4909  138.1700  154.1044 C   0  0  0  0  0  0  0  0  0  0  0  0
  145.2466  137.2869  153.0150 C   0  0  0  0  0  0  0  0  0  0  0  0
  145.9950  137.6790  151.9109 N   0  0  0  0  0  0  0  0  0  0  0  0
  146.6514  138.7274  152.3268 C   0  0  0  0  0  0  0  0  0  0  0  0
  146.4292  139.0760  153.6402 N   0  0  0  0  0  0  0  0  0  0  0  0
  147.0258  140.1938  154.3500 C   0  0  0  0  0  0  0  0  0  0  0  0
  148.5800  140.1922  154.3970 C   0  0  2  0  0  0  0  0  0  0  0  0
  149.0742  138.7473  154.6523 C   0  0  0  0  0  0  0  0  0  0  0  0
  149.9638  138.3195  153.6414 O   0  0  0  0  0  0  0  0  0  0  0  0
  149.1741  141.1845  155.4426 C   0  0  2  0  0  0  0  0  0  0  0  0
  150.5741  140.8659  155.9499 C   0  0  0  0  0  0  0  0  0  0  0  0
  150.6627  141.6586  157.2496 C   0  0  0  0  0  0  0  0  0  0  0  0
  149.3329  141.7565  157.7398 O   0  0  0  0  0  0  0  0  0  0  0  0
  148.4276  141.2205  156.7832 C   0  0  0  0  0  0  0  0  0  0  0  0
  144.7702  133.6314  150.6197 C   0  0  0  0  0  0  0  0  0  0  0  0
  146.0036  132.8534  150.1153 C   0  0  2  0  0  0  0  0  0  0  0  0
  145.7199  132.0727  148.8195 C   0  0  0  0  0  0  0  0  0  0  0  0
  146.0501  128.8616  152.5097 H   0  0  0  0  0  0  0  0  0  0  0  0
  146.8522  130.1418  153.3933 H   0  0  0  0  0  0  0  0  0  0  0  0
  147.5521  129.5339  151.8892 H   0  0  0  0  0  0  0  0  0  0  0  0
  145.4687  130.2948  150.6870 H   0  0  0  0  0  0  0  0  0  0  0  0
  144.9069  131.0913  152.1299 H   0  0  0  0  0  0  0  0  0  0  0  0
  147.4792  132.2844  153.1388 H   0  0  0  0  0  0  0  0  0  0  0  0
  147.7669  133.5692  152.0134 H   0  0  0  0  0  0  0  0  0  0  0  0
  145.0928  132.9852  153.3793 H   0  0  0  0  0  0  0  0  0  0  0  0
  146.1643  134.3142  153.7308 H   0  0  0  0  0  0  0  0  0  0  0  0
  145.9048  135.2062  151.4680 H   0  0  0  0  0  0  0  0  0  0  0  0
  141.9284  135.4179  152.6784 H   0  0  0  0  0  0  0  0  0  0  0  0
  142.6803  133.9221  153.2424 H   0  0  0  0  0  0  0  0  0  0  0  0
  142.3943  134.1880  151.5199 H   0  0  0  0  0  0  0  0  0  0  0  0
  143.5671  136.9673  156.3768 H   0  0  0  0  0  0  0  0  0  0  0  0
  147.3316  139.2700  151.6864 H   0  0  0  0  0  0  0  0  0  0  0  0
  146.6729  141.1206  153.8957 H   0  0  0  0  0  0  0  0  0  0  0  0
  146.6125  140.1757  155.3586 H   0  0  0  0  0  0  0  0  0  0  0  0
  148.9581  140.4854  153.4171 H   0  0  0  0  0  0  0  0  0  0  0  0
  149.6197  138.6696  155.5914 H   0  0  0  0  0  0  0  0  0  0  0  0
  148.2339  138.0548  154.7117 H   0  0  0  0  0  0  0  0  0  0  0  0
  149.5585  137.6125  153.1629 H   0  0  0  0  0  0  0  0  0  0  0  0
  149.1756  142.1922  155.0243 H   0  0  0  0  0  0  0  0  0  0  0  0
  150.6703  139.7988  156.1565 H   0  0  0  0  0  0  0  0  0  0  0  0
  151.3684  141.1543  155.2647 H   0  0  0  0  0  0  0  0  0  0  0  0
  151.3219  141.1856  157.9779 H   0  0  0  0  0  0  0  0  0  0  0  0
  151.0354  142.6655  157.0582 H   0  0  0  0  0  0  0  0  0  0  0  0
  147.5182  141.8205  156.7435 H   0  0  0  0  0  0  0  0  0  0  0  0
  148.1550  140.2124  157.0994 H   0  0  0  0  0  0  0  0  0  0  0  0
  143.9760  132.9308  150.8759 H   0  0  0  0  0  0  0  0  0  0  0  0
  144.3786  134.2605  149.8194 H   0  0  0  0  0  0  0  0  0  0  0  0
  146.7661  133.5887  149.8524 H   0  0  0  0  0  0  0  0  0  0  0  0
  145.4931  132.7583  148.0024 H   0  0  0  0  0  0  0  0  0  0  0  0
  144.8635  131.4056  148.9171 H   0  0  0  0  0  0  0  0  0  0  0  0
  146.5833  131.4795  148.5168 H   0  0  0  0  0  0  0  0  0  0  0  0
  147.4603  131.6520  150.8178 H   0  0  0  0  0  0  0  0  0  0  0  0
  1  2  1  0  0  0  0
  1 30  1  0  0  0  0
  1 31  1  0  0  0  0
  1 32  1  0  0  0  0
  2  3  1  0  0  0  0
  2 33  1  0  0  0  0
  2 34  1  0  0  0  0
  3 28  1  0  0  0  0
  3  4  1  0  0  0  0
  3 64  1  0  0  0  0
  4  5  1  0  0  0  0
  4 35  1  0  0  0  0
  4 36  1  0  0  0  0
  5  6  1  0  0  0  0
  5 37  1  0  0  0  0
  5 38  1  0  0  0  0
  6  7  1  0  0  0  0
  6 27  1  0  0  0  0
  6 39  1  0  0  0  0
  7  8  1  0  0  0  0
  7  9  1  0  0  0  0
  8 40  1  0  0  0  0
  8 41  1  0  0  0  0
  8 42  1  0  0  0  0
  9 14  1  0  0  0  0
  9 10  2  0  0  0  0
 10 11  1  0  0  0  0
 11 12  2  0  0  0  0
 11 43  1  0  0  0  0
 12 13  1  0  0  0  0
 13 17  1  0  0  0  0
 13 14  2  0  0  0  0
 14 15  1  0  0  0  0
 15 16  2  0  0  0  0
 16 17  1  0  0  0  0
 16 44  1  0  0  0  0
 17 18  1  0  0  0  0
 18 19  1  0  0  0  0
 18 45  1  0  0  0  0
 18 46  1  0  0  0  0
 19 20  1  0  0  0  0
 19 22  1  0  0  0  0
 19 47  1  0  0  0  0
 20 21  1  0  0  0  0
 20 48  1  0  0  0  0
 20 49  1  0  0  0  0
 21 50  1  0  0  0  0
 22 26  1  0  0  0  0
 22 23  1  0  0  0  0
 22 51  1  0  0  0  0
 23 24  1  0  0  0  0
 23 52  1  0  0  0  0
 23 53  1  0  0  0  0
 24 25  1  0  0  0  0
 24 54  1  0  0  0  0
 24 55  1  0  0  0  0
 25 26  1  0  0  0  0
 26 56  1  0  0  0  0
 26 57  1  0  0  0  0
 27 28  1  0  0  0  0
 27 58  1  0  0  0  0
 27 59  1  0  0  0  0
 28 29  1  0  0  0  0
 28 60  1  0  0  0  0
 29 61  1  0  0  0  0
 29 62  1  0  0  0  0
 29 63  1  0  0  0  0
M  CHG  1   3   1
M  END
> <s_m_source_file>
AV-unprocessed.smi

> <i_m_source_file_index>
249

> <i_lp_mmshare_version>
43012

> <i_f3d_flags>
0

> <s_epik_input>
W0NIM11bQ0gyXU4xW0NIMl1bQ0gyXVtDQEhdKFtDSDJdW0NASF0xW0NIM10pTihbQ0gzXSljKG5bY0hdbjIpYyhjMjMpbltjSF1uM1tDSDJdW0NASF0oW0NIMl1bT0hdKVtDQEBIXTRbQ0gyXVtDSDJdT1tDSDJdNA==

> <s_epik_cmdline>
J2VwaWtfcHl0aG9uJywgJy1waCcsICc3LjAnLCAnLXRuJywgJzgnLCAnLW1hJywgJzIwMCcsICctbWV0YWxfYmluZGluZycsICctaW1hZScsICc8aW5maWxlLm1hZT4nLCAnLW9tYWUnLCAnPG91dGZpbGUubWFlPic=

> <r_lp_tautomer_probability>
1

> <r_epik_Ionization_Penalty>
0.00294688

> <r_epik_Ionization_Penalty_Charging>
0.00169971

> <r_epik_Ionization_Penalty_Neutral>
0.00124717

> <r_epik_State_Penalty>
-0

> <r_epik_Charging_Adjusted_Penalty>
0.00169971

> <i_epik_Tot_Q>
1

> <i_epik_Tot_abs_Q>
1

> <r_epik_Metal_State_Penalty>
-0

> <b_epik_Metal_Only>
0

> <s_lp_Force_Field>
OPLS_2005

> <r_lp_Energy>
55.1027

> <b_lp_Chiralities_Consistent>
1

> <s_lp_Variant>
AV-unprocessed.smi:249-19

> <Gold.Version>
5.8.1

> <Gold.Id.Protein>
6NUR|6NUR_protein|mol2

> <Gold.PLP.Fitness>
51.8499

> <Gold.PLP.PLP>
-46.5392

> <Gold.PLP.part.hbond>
-3.1068

> <Gold.PLP.part.metal>
0.0000

> <Gold.PLP.part.buried>
-4.8008

> <Gold.PLP.part.nonpolar>
-38.4644

> <Gold.PLP.part.repulsive>
0.5425

> <Gold.PLP.ligand.clash>
0.0000

> <Gold.PLP.ligand.torsion>
2.4604

> <Gold.PLP.Chemscore.Hbond>
2.0000

> <Gold.PLP.Chemscore.CHOScore>
1.0000

> <Gold.PLP.Chemscore.Metal>
0.0000

> <Gold.Chemscore.Hbonds>
donor molecule, donor type, donor heavy atom, donor atom, acceptor molecule, acceptor atom, score
      L1  H     3    64       P1 10747  1.00
      L1  H    21    50       P1  7948  1.00
      L1  C    16    44       P1  7957  1.00

> <Gold.PLP.Chemscore.Internal.Correction>
1.2316

> <Gold.Rescore>
     Score         DG    S(hbond)    S(metal)    S(lipo)     H(rot)  DE(clash)    DE(int)     intcor
     14.88     -18.24       1.88        0.00     113.33       2.65       0.18       3.18       ----

> <Gold.Chemscore.Fitness>
14.8780

> <Gold.Chemscore.DG>
-18.2425

> <Gold.Chemscore.ZeroCoef>
-5.4800

> <Gold.Chemscore.Hbond>
1.8836

> <Gold.Chemscore.Metal>
0.0000

> <Gold.Chemscore.Lipo>
113.3258

> <Gold.Chemscore.Internal_Hbond>
0.0000

> <Gold.Chemscore.DEClash>
0.1834

> <Gold.Chemscore.DEInternal>
3.1810

> <Gold.Chemscore.Rot>
2.6515

> <Gold.Chemscore.Internal.Correction>
   9.000000E+99

> <Gold.Chemscore.Hbonds>
donor molecule, donor type, donor heavy atom, donor atom, acceptor molecule, acceptor atom, score
      L1  H     3    64       P1 10747  1.00
      L1  H    21    50       P1  7948  0.84

> <Gold.Chemscore.Hbond.Weighted>
-6.2913

> <Gold.Chemscore.Metal.Weighted>
-0.0000

> <Gold.Chemscore.Lipo.Weighted>
-13.2591

> <Gold.Chemscore.Internal_Hbond.Weighted>
0.0000

> <Gold.Chemscore.DEClash.Weighted>
0.1834

> <Gold.Chemscore.DEInternal.Weighted>
3.1810

> <Gold.Chemscore.Rot.Weighted>
6.7880

> <Gold.Chemscore.Internal.Correction.Weighted>
   9.000000E+99

> <Gold.Protein.RotatedTorsions>
[ 6907 6896 6895 6894 ] final  -82.15 input  -60.11 | X-H torsion
[ 7974 7965 7964 7962 ] final  144.12 input  175.53 | X-H torsion
[ 8008 7997 7996 7995 ] final  150.58 input   59.86 | X-H torsion
[ 10167 10162 10161 10158 ] final -101.66 input  -65.29 | X-H torsion
[ 10718 10713 10712 10709 ] final   87.52 input   66.30 | X-H torsion
[ 10763 10752 10751 10750 ] final  141.29 input  -60.55 | X-H torsion
[ 11005 11000 10999 10996 ] final -141.84 input  -57.11 | X-H torsion

> <Gold.Protein.ActiveResidues>
 VAL166  LYS551  ARG553  GLY616  TRP617  ASP618  TYR619  PRO620  LYS621  CYS622 
 ASP623  PHE694  ASN695  SER759  ASP760  ASP761  ALA762  ILE779  LEU786  VAL792 
 PHE793  MET794  SER795  GLU796  ALA797  LYS798  CYS799  TRP800  GLU811  SER814 

> <Gold.Protein.RotatedAtoms>
  150.6901  134.3709  159.4991 H   0  0  0  0  0  0  0  0  0  0  0  0  # atno 6907 bound_to 6896
  152.1525  134.8974  160.0556 H   0  0  0  0  0  0  0  0  0  0  0  0  # atno 6908 bound_to 6896
  152.0066  133.3810  159.4240 H   0  0  0  0  0  0  0  0  0  0  0  0  # atno 6909 bound_to 6896
  144.8862  139.5625  143.5820 H   0  0  0  0  0  0  0  0  0  0  0  0  # atno 7974 bound_to 7965
  156.2710  140.2071  156.6039 H   0  0  0  0  0  0  0  0  0  0  0  0  # atno 8008 bound_to 7997
  154.6885  140.0532  157.0362 H   0  0  0  0  0  0  0  0  0  0  0  0  # atno 8009 bound_to 7997
  155.0900  140.3195  155.4579 H   0  0  0  0  0  0  0  0  0  0  0  0  # atno 8010 bound_to 7997
  140.2390  143.3552  152.0819 H   0  0  0  0  0  0  0  0  0  0  0  0  # atno 10167 bound_to 10162
  157.6941  131.0259  150.3136 H   0  0  0  0  0  0  0  0  0  0  0  0  # atno 10718 bound_to 10713
  153.9368  135.2984  155.3444 H   0  0  0  0  0  0  0  0  0  0  0  0  # atno 10763 bound_to 10752
  154.7498  135.4986  153.9271 H   0  0  0  0  0  0  0  0  0  0  0  0  # atno 10764 bound_to 10752
  153.1063  135.6747  153.9687 H   0  0  0  0  0  0  0  0  0  0  0  0  # atno 10765 bound_to 10752
  140.8284  134.2547  157.4868 H   0  0  0  0  0  0  0  0  0  0  0  0  # atno 11005 bound_to 11000
  146.3026  139.7475  142.9080 LP  0  0  0  0  0  0  0  0  0  0  0  0  # atno 17320 bound_to 7965
  145.3864  141.0366  143.3148 LP  0  0  0  0  0  0  0  0  0  0  0  0  # atno 17321 bound_to 7965
  139.5084  144.6849  151.5914 LP  0  0  0  0  0  0  0  0  0  0  0  0  # atno 17342 bound_to 10162
  140.6128  143.9404  150.6466 LP  0  0  0  0  0  0  0  0  0  0  0  0  # atno 17343 bound_to 10162
  156.3634  130.3851  149.7233 LP  0  0  0  0  0  0  0  0  0  0  0  0  # atno 17370 bound_to 10713
  156.4671  130.7979  151.2998 LP  0  0  0  0  0  0  0  0  0  0  0  0  # atno 17371 bound_to 10713
  139.8705  134.9573  156.4264 LP  0  0  0  0  0  0  0  0  0  0  0  0  # atno 17394 bound_to 11000
  140.9024  133.7770  155.9696 LP  0  0  0  0  0  0  0  0  0  0  0  0  # atno 17395 bound_to 11000

$$$$
