AV-unprocessed.smi:356|AV-procd|sdf|2410|dock6
  -GOLD-   2262022343D 1   1.00000     0.00000
 Structure written by MMmdl.
 42 44  0  0  0  0  0  0  0  0  2 V2000
  152.2199  139.3587  158.2734 C   0  0  0  0  0  0  0  0  0  0  0  0
  152.0920  140.8142  158.5942 C   0  0  0  0  0  0  0  0  0  0  0  0
  152.3891  141.3043  159.7974 N   0  0  0  0  0  0  0  0  0  0  0  0
  152.1417  142.6548  159.6446 C   0  0  0  0  0  0  0  0  0  0  0  0
  152.2647  143.7210  160.5639 C   0  0  0  0  0  0  0  0  0  0  0  0
  151.9479  145.0391  160.1747 C   0  0  0  0  0  0  0  0  0  0  0  0
  151.5048  145.3098  158.8640 C   0  0  0  0  0  0  0  0  0  0  0  0
  151.3743  144.2620  157.9323 C   0  0  0  0  0  0  0  0  0  0  0  0
  151.6914  142.9478  158.3259 C   0  0  0  0  0  0  0  0  0  0  0  0
  151.6650  141.7166  157.6765 N   0  0  0  0  0  0  0  0  0  0  0  0
  151.2633  141.4719  156.2982 C   0  0  0  0  0  0  0  0  0  0  0  0
  149.8594  140.8429  156.1826 C   0  0  2  0  0  0  0  0  0  0  0  0
  150.0136  139.4390  156.2379 O   0  0  0  0  0  0  0  0  0  0  0  0
  149.1212  141.2102  154.8759 C   0  0  0  0  0  0  0  0  0  0  0  0
  147.9093  142.0349  155.1128 N   0  3  0  0  0  0  0  0  0  0  0  0
  146.9844  142.0843  153.9527 C   0  0  0  0  0  0  0  0  0  0  0  0
  145.7778  142.9858  154.2652 C   0  0  0  0  0  0  0  0  0  0  0  0
  145.1183  142.5163  155.4346 O   0  0  0  0  0  0  0  0  0  0  0  0
  145.9693  142.5465  156.5734 C   0  0  0  0  0  0  0  0  0  0  0  0
  147.1795  141.6276  156.3371 C   0  0  0  0  0  0  0  0  0  0  0  0
  152.6239  138.8139  159.1273 H   0  0  0  0  0  0  0  0  0  0  0  0
  152.8932  139.2137  157.4286 H   0  0  0  0  0  0  0  0  0  0  0  0
  151.2460  138.9358  158.0298 H   0  0  0  0  0  0  0  0  0  0  0  0
  152.6039  143.5246  161.5703 H   0  0  0  0  0  0  0  0  0  0  0  0
  152.0465  145.8467  160.8854 H   0  0  0  0  0  0  0  0  0  0  0  0
  151.2658  146.3229  158.5746 H   0  0  0  0  0  0  0  0  0  0  0  0
  151.0341  144.4679  156.9285 H   0  0  0  0  0  0  0  0  0  0  0  0
  151.2954  142.4192  155.7583 H   0  0  0  0  0  0  0  0  0  0  0  0
  152.0083  140.8322  155.8241 H   0  0  0  0  0  0  0  0  0  0  0  0
  149.2711  141.1476  157.0464 H   0  0  0  0  0  0  0  0  0  0  0  0
  150.0507  139.1748  157.1452 H   0  0  0  0  0  0  0  0  0  0  0  0
  149.7765  141.7482  154.1905 H   0  0  0  0  0  0  0  0  0  0  0  0
  148.8415  140.2860  154.3674 H   0  0  0  0  0  0  0  0  0  0  0  0
  147.4958  142.4646  153.0692 H   0  0  0  0  0  0  0  0  0  0  0  0
  146.6420  141.0760  153.7139 H   0  0  0  0  0  0  0  0  0  0  0  0
  146.0902  144.0226  154.4003 H   0  0  0  0  0  0  0  0  0  0  0  0
  145.0733  142.9716  153.4334 H   0  0  0  0  0  0  0  0  0  0  0  0
  146.2898  143.5695  156.7772 H   0  0  0  0  0  0  0  0  0  0  0  0
  145.4063  142.2096  157.4440 H   0  0  0  0  0  0  0  0  0  0  0  0
  146.8497  140.5920  156.2394 H   0  0  0  0  0  0  0  0  0  0  0  0
  147.8463  141.6727  157.1990 H   0  0  0  0  0  0  0  0  0  0  0  0
  148.2348  142.9775  155.2769 H   0  0  0  0  0  0  0  0  0  0  0  0
  1  2  1  0  0  0  0
  1 21  1  0  0  0  0
  1 22  1  0  0  0  0
  1 23  1  0  0  0  0
  2 10  1  0  0  0  0
  2  3  2  0  0  0  0
  3  4  1  0  0  0  0
  4  9  2  0  0  0  0
  4  5  1  0  0  0  0
  5  6  2  0  0  0  0
  5 24  1  0  0  0  0
  6  7  1  0  0  0  0
  6 25  1  0  0  0  0
  7  8  2  0  0  0  0
  7 26  1  0  0  0  0
  8  9  1  0  0  0  0
  8 27  1  0  0  0  0
  9 10  1  0  0  0  0
 10 11  1  0  0  0  0
 11 12  1  0  0  0  0
 11 28  1  0  0  0  0
 11 29  1  0  0  0  0
 12 13  1  0  0  0  0
 12 14  1  0  0  0  0
 12 30  1  0  0  0  0
 13 31  1  0  0  0  0
 14 15  1  0  0  0  0
 14 32  1  0  0  0  0
 14 33  1  0  0  0  0
 15 20  1  0  0  0  0
 15 16  1  0  0  0  0
 15 42  1  0  0  0  0
 16 17  1  0  0  0  0
 16 34  1  0  0  0  0
 16 35  1  0  0  0  0
 17 18  1  0  0  0  0
 17 36  1  0  0  0  0
 17 37  1  0  0  0  0
 18 19  1  0  0  0  0
 19 20  1  0  0  0  0
 19 38  1  0  0  0  0
 19 39  1  0  0  0  0
 20 40  1  0  0  0  0
 20 41  1  0  0  0  0
M  CHG  1  15   1
M  END
> <s_m_source_file>
AV-unprocessed.smi

> <i_m_source_file_index>
356

> <i_lp_mmshare_version>
43012

> <i_f3d_flags>
0

> <s_epik_input>
W2NIXTFbY0hdW2NIXVtjSF1jKGMxMiluKGMobjIpW0NIM10pW0NIMl1bQ0BIXShbT0hdKVtDSDJdTjNbQ0gyXVtDSDJdT1tDSDJdW0NIMl0z

> <s_epik_cmdline>
J2VwaWtfcHl0aG9uJywgJy1waCcsICc3LjAnLCAnLXRuJywgJzgnLCAnLW1hJywgJzIwMCcsICctbWV0YWxfYmluZGluZycsICctaW1hZScsICc8aW5maWxlLm1hZT4nLCAnLW9tYWUnLCAnPG91dGZpbGUubWFlPic=

> <r_epik_Ionization_Penalty>
0.706388

> <r_epik_Ionization_Penalty_Charging>
0.608065

> <r_epik_Ionization_Penalty_Neutral>
0.0983237

> <r_epik_State_Penalty>
0.742533

> <r_epik_Charging_Adjusted_Penalty>
1.3506

> <i_epik_Tot_Q>
1

> <i_epik_Tot_abs_Q>
1

> <r_epik_Metal_State_Penalty>
0.651809

> <b_epik_Metal_Only>
0

> <s_lp_Force_Field>
OPLS_2005

> <r_lp_Energy>
21.62

> <b_lp_Chiralities_Consistent>
1

> <s_lp_Variant>
AV-unprocessed.smi:356-3

> <Gold.Version>
5.8.1

> <Gold.Id.Protein>
6NUR|6NUR_protein|mol2

> <Gold.PLP.Fitness>
47.4797

> <Gold.PLP.PLP>
-44.4024

> <Gold.PLP.part.hbond>
-1.0000

> <Gold.PLP.part.metal>
0.0000

> <Gold.PLP.part.buried>
-7.8717

> <Gold.PLP.part.nonpolar>
-35.5510

> <Gold.PLP.part.repulsive>
0.2840

> <Gold.PLP.ligand.clash>
0.0000

> <Gold.PLP.ligand.torsion>
1.4724

> <Gold.PLP.Chemscore.Hbond>
2.0000

> <Gold.PLP.Chemscore.CHOScore>
0.0000

> <Gold.PLP.Chemscore.Metal>
0.0000

> <Gold.Chemscore.Hbonds>
donor molecule, donor type, donor heavy atom, donor atom, acceptor molecule, acceptor atom, score
      L1  H    15    42       P1  8028  2.00

> <Gold.PLP.Chemscore.Internal.Correction>
0.0221

> <Gold.Rescore>
     Score         DG    S(hbond)    S(metal)    S(lipo)     H(rot)  DE(clash)    DE(int)     intcor
     15.20     -16.68       1.00        0.00     112.43       2.07       0.03       1.45       ----

> <Gold.Chemscore.Fitness>
15.1976

> <Gold.Chemscore.DG>
-16.6759

> <Gold.Chemscore.ZeroCoef>
-5.4800

> <Gold.Chemscore.Hbond>
0.9968

> <Gold.Chemscore.Metal>
0.0000

> <Gold.Chemscore.Lipo>
112.4308

> <Gold.Chemscore.Internal_Hbond>
0.0000

> <Gold.Chemscore.DEClash>
0.0268

> <Gold.Chemscore.DEInternal>
1.4515

> <Gold.Chemscore.Rot>
2.0656

> <Gold.Chemscore.Internal.Correction>
   9.000000E+99

> <Gold.Chemscore.Hbonds>
donor molecule, donor type, donor heavy atom, donor atom, acceptor molecule, acceptor atom, score
      L1  H    15    42       P1  8028  0.98

> <Gold.Chemscore.Hbond.Weighted>
-3.3294

> <Gold.Chemscore.Metal.Weighted>
-0.0000

> <Gold.Chemscore.Lipo.Weighted>
-13.1544

> <Gold.Chemscore.Internal_Hbond.Weighted>
0.0000

> <Gold.Chemscore.DEClash.Weighted>
0.0268

> <Gold.Chemscore.DEInternal.Weighted>
1.4515

> <Gold.Chemscore.Rot.Weighted>
5.2879

> <Gold.Chemscore.Internal.Correction.Weighted>
   9.000000E+99

> <Gold.Protein.RotatedTorsions>
[ 6907 6896 6895 6894 ] final  128.58 input  -60.11 | X-H torsion
[ 7974 7965 7964 7962 ] final   36.92 input  175.53 | X-H torsion
[ 8008 7997 7996 7995 ] final   16.99 input   59.86 | X-H torsion
[ 10167 10162 10161 10158 ] final   51.90 input  -65.29 | X-H torsion
[ 10718 10713 10712 10709 ] final  -65.35 input   66.30 | X-H torsion
[ 10763 10752 10751 10750 ] final  -57.38 input  -60.55 | X-H torsion
[ 11005 11000 10999 10996 ] final   61.85 input  -57.11 | X-H torsion

> <Gold.Protein.ActiveResidues>
 VAL166  LYS551  ARG553  GLY616  TRP617  ASP618  TYR619  PRO620  LYS621  CYS622 
 ASP623  PHE694  ASN695  SER759  ASP760  ASP761  ALA762  ILE779  LEU786  VAL792 
 PHE793  MET794  SER795  GLU796  ALA797  LYS798  CYS799  TRP800  GLU811  SER814 

> <Gold.Protein.RotatedAtoms>
  152.3706  133.6413  159.6083 H   0  0  0  0  0  0  0  0  0  0  0  0  # atno 6907 bound_to 6896
  150.7666  133.9277  159.3426 H   0  0  0  0  0  0  0  0  0  0  0  0  # atno 6908 bound_to 6896
  151.7100  135.0915  160.0317 H   0  0  0  0  0  0  0  0  0  0  0  0  # atno 6909 bound_to 6896
  146.1176  139.5958  142.9311 H   0  0  0  0  0  0  0  0  0  0  0  0  # atno 7974 bound_to 7965
  154.8849  140.2978  155.5403 H   0  0  0  0  0  0  0  0  0  0  0  0  # atno 8008 bound_to 7997
  156.3021  140.2435  156.3791 H   0  0  0  0  0  0  0  0  0  0  0  0  # atno 8009 bound_to 7997
  154.8678  140.0402  157.1695 H   0  0  0  0  0  0  0  0  0  0  0  0  # atno 8010 bound_to 7997
  140.2571  144.3415  150.6330 H   0  0  0  0  0  0  0  0  0  0  0  0  # atno 10167 bound_to 10162
  156.0675  130.4246  150.1551 H   0  0  0  0  0  0  0  0  0  0  0  0  # atno 10718 bound_to 10713
  154.2215  135.6377  153.5146 H   0  0  0  0  0  0  0  0  0  0  0  0  # atno 10763 bound_to 10752
  152.9968  135.5498  154.6109 H   0  0  0  0  0  0  0  0  0  0  0  0  # atno 10764 bound_to 10752
  154.5570  135.2906  155.0929 H   0  0  0  0  0  0  0  0  0  0  0  0  # atno 10765 bound_to 10752
  140.0132  134.6264  155.9748 H   0  0  0  0  0  0  0  0  0  0  0  0  # atno 11005 bound_to 11000
  145.5534  141.0411  143.2266 LP  0  0  0  0  0  0  0  0  0  0  0  0  # atno 17320 bound_to 7965
  144.7567  139.7057  143.7251 LP  0  0  0  0  0  0  0  0  0  0  0  0  # atno 17321 bound_to 7965
  140.5995  143.2167  151.7099 LP  0  0  0  0  0  0  0  0  0  0  0  0  # atno 17342 bound_to 10162
  139.5028  144.3814  152.0372 LP  0  0  0  0  0  0  0  0  0  0  0  0  # atno 17343 bound_to 10162
  156.9609  130.9804  151.3479 LP  0  0  0  0  0  0  0  0  0  0  0  0  # atno 17370 bound_to 10713
  157.5725  130.8320  149.8411 LP  0  0  0  0  0  0  0  0  0  0  0  0  # atno 17371 bound_to 10713
  141.1725  133.6538  156.4706 LP  0  0  0  0  0  0  0  0  0  0  0  0  # atno 17394 bound_to 11000
  140.4517  134.6923  157.5042 LP  0  0  0  0  0  0  0  0  0  0  0  0  # atno 17395 bound_to 11000

$$$$
