AV-unprocessed.smi:1679|AV-procd|sdf|6735|dock3
  -GOLD-   22720 7483D 1   1.00000     0.00000
 Structure written by MMmdl.
 44 45  0  0  0  0  0  0  0  0  2 V2000
  152.1355  141.4306  159.2491 C   0  0  0  0  0  0  0  0  0  0  0  0
  151.9259  141.2174  157.7429 C   0  0  2  0  0  0  0  0  0  0  0  0
  150.7118  142.0106  157.2195 C   0  0  0  0  0  0  0  0  0  0  0  0
  150.5410  141.8476  155.7017 C   0  0  0  0  0  0  0  0  0  0  0  0
  150.4466  140.3668  155.3059 C   0  0  0  0  0  0  0  0  0  0  0  0
  151.6543  139.5690  155.8285 C   0  0  0  0  0  0  0  0  0  0  0  0
  151.8269  139.7223  157.3511 C   0  0  2  0  0  0  0  0  0  0  0  0
  150.6927  139.1219  157.9629 O   0  0  0  0  0  0  0  0  0  0  0  0
  150.6464  137.7049  157.9021 C   0  0  0  0  0  0  0  0  0  0  0  0
  149.1911  137.2442  158.0808 C   0  0  0  0  0  0  0  0  0  0  0  0
  148.8361  137.1223  159.4919 N   0  0  0  0  0  0  0  0  0  0  0  0
  148.4759  135.9813  160.1007 C   0  0  0  0  0  0  0  0  0  0  0  0
  148.4617  134.8905  159.5297 O   0  0  0  0  0  0  0  0  0  0  0  0
  148.0948  136.0884  161.5834 C   0  0  0  0  0  0  0  0  0  0  0  0
  146.6700  135.7988  161.8142 N   0  0  0  0  0  0  0  0  0  0  0  0
  146.3615  134.6376  162.5444 C   0  0  0  0  0  0  0  0  0  0  0  0
  145.0930  134.2968  162.8393 C   0  0  0  0  0  0  0  0  0  0  0  0
  144.0203  135.1693  162.3793 C   0  0  0  0  0  0  0  0  0  0  0  0
  142.8563  134.8814  162.6511 O   0  0  0  0  0  0  0  0  0  0  0  0
  144.3679  136.2767  161.6610 N   0  5  0  0  0  0  0  0  0  0  0  0
  145.6633  136.6088  161.3657 C   0  0  0  0  0  0  0  0  0  0  0  0
  145.9518  137.6104  160.7108 O   0  0  0  0  0  0  0  0  0  0  0  0
  151.2755  141.0859  159.8227 H   0  0  0  0  0  0  0  0  0  0  0  0
  152.2802  142.4867  159.4777 H   0  0  0  0  0  0  0  0  0  0  0  0
  153.0143  140.8925  159.6046 H   0  0  0  0  0  0  0  0  0  0  0  0
  152.8109  141.6199  157.2480 H   0  0  0  0  0  0  0  0  0  0  0  0
  149.8044  141.6791  157.7248 H   0  0  0  0  0  0  0  0  0  0  0  0
  150.8250  143.0683  157.4587 H   0  0  0  0  0  0  0  0  0  0  0  0
  149.6477  142.3784  155.3713 H   0  0  0  0  0  0  0  0  0  0  0  0
  151.3841  142.3103  155.1874 H   0  0  0  0  0  0  0  0  0  0  0  0
  149.5246  139.9421  155.7055 H   0  0  0  0  0  0  0  0  0  0  0  0
  150.3821  140.2759  154.2214 H   0  0  0  0  0  0  0  0  0  0  0  0
  151.5416  138.5155  155.5708 H   0  0  0  0  0  0  0  0  0  0  0  0
  152.5583  139.9129  155.3247 H   0  0  0  0  0  0  0  0  0  0  0  0
  152.7420  139.2033  157.6429 H   0  0  0  0  0  0  0  0  0  0  0  0
  151.0254  137.3776  156.9332 H   0  0  0  0  0  0  0  0  0  0  0  0
  151.2796  137.2530  158.6661 H   0  0  0  0  0  0  0  0  0  0  0  0
  148.5071  137.9200  157.5645 H   0  0  0  0  0  0  0  0  0  0  0  0
  149.0621  136.2640  157.6212 H   0  0  0  0  0  0  0  0  0  0  0  0
  148.8330  137.9713  160.0378 H   0  0  0  0  0  0  0  0  0  0  0  0
  148.7285  135.4093  162.1559 H   0  0  0  0  0  0  0  0  0  0  0  0
  148.3375  137.0845  161.9574 H   0  0  0  0  0  0  0  0  0  0  0  0
  147.2132  134.0501  162.8536 H   0  0  0  0  0  0  0  0  0  0  0  0
  144.8756  133.4040  163.4066 H   0  0  0  0  0  0  0  0  0  0  0  0
  1  2  1  0  0  0  0
  1 23  1  0  0  0  0
  1 24  1  0  0  0  0
  1 25  1  0  0  0  0
  2  7  1  0  0  0  0
  2  3  1  0  0  0  0
  2 26  1  0  0  0  0
  3  4  1  0  0  0  0
  3 27  1  0  0  0  0
  3 28  1  0  0  0  0
  4  5  1  0  0  0  0
  4 29  1  0  0  0  0
  4 30  1  0  0  0  0
  5  6  1  0  0  0  0
  5 31  1  0  0  0  0
  5 32  1  0  0  0  0
  6  7  1  0  0  0  0
  6 33  1  0  0  0  0
  6 34  1  0  0  0  0
  7  8  1  0  0  0  0
  7 35  1  0  0  0  0
  8  9  1  0  0  0  0
  9 10  1  0  0  0  0
  9 36  1  0  0  0  0
  9 37  1  0  0  0  0
 10 11  1  0  0  0  0
 10 38  1  0  0  0  0
 10 39  1  0  0  0  0
 11 12  1  0  0  0  0
 11 40  1  0  0  0  0
 12 13  2  0  0  0  0
 12 14  1  0  0  0  0
 14 15  1  0  0  0  0
 14 41  1  0  0  0  0
 14 42  1  0  0  0  0
 15 21  1  0  0  0  0
 15 16  1  0  0  0  0
 16 17  2  0  0  0  0
 16 43  1  0  0  0  0
 17 18  1  0  0  0  0
 17 44  1  0  0  0  0
 18 19  2  0  0  0  0
 18 20  1  0  0  0  0
 20 21  1  0  0  0  0
 21 22  2  0  0  0  0
M  CHG  1  20  -1
M  END
> <s_m_source_file>
AV-unprocessed.smi

> <i_m_source_file_index>
1679

> <i_lp_mmshare_version>
43012

> <i_f3d_flags>
0

> <s_epik_input>
W0NIM11bQ0BASF0xW0NIMl1bQ0gyXVtDSDJdW0NIMl1bQ0BIXTFPW0NIMl1bQ0gyXVtOSF1DKD1PKVtDSDJdbjJbY0hdW2NIXWMoPU8pW25IXWMyPU8=

> <s_epik_cmdline>
J2VwaWtfcHl0aG9uJywgJy1waCcsICc3LjAnLCAnLXRuJywgJzgnLCAnLW1hJywgJzIwMCcsICctbWV0YWxfYmluZGluZycsICctaW1hZScsICc8aW5maWxlLm1hZT4nLCAnLW9tYWUnLCAnPG91dGZpbGUubWFlPic=

> <r_lp_tautomer_probability>
0.999537

> <r_epik_Ionization_Penalty>
3.07454

> <r_epik_Ionization_Penalty_Charging>
2.80088e-08

> <r_epik_Ionization_Penalty_Neutral>
3.07454

> <r_epik_State_Penalty>
3.07357

> <r_epik_Charging_Adjusted_Penalty>
3.07357

> <i_epik_Tot_Q>
-1

> <i_epik_Tot_abs_Q>
1

> <r_epik_Metal_State_Penalty>
0.45948

> <b_epik_Metal_Only>
1

> <s_lp_Force_Field>
OPLS_2005

> <r_lp_Energy>
19.9019

> <b_lp_Chiralities_Consistent>
1

> <s_lp_Variant>
AV-unprocessed.smi:1679-7

> <Gold.Version>
5.8.1

> <Gold.Id.Protein>
6NUR|6NUR_protein|mol2

> <Gold.PLP.Fitness>
42.0739

> <Gold.PLP.PLP>
-37.0973

> <Gold.PLP.part.hbond>
-2.0000

> <Gold.PLP.part.metal>
0.0000

> <Gold.PLP.part.buried>
-6.1393

> <Gold.PLP.part.nonpolar>
-29.8302

> <Gold.PLP.part.repulsive>
0.3247

> <Gold.PLP.ligand.clash>
0.0000

> <Gold.PLP.ligand.torsion>
0.4281

> <Gold.PLP.Chemscore.Hbond>
1.8938

> <Gold.PLP.Chemscore.CHOScore>
0.0000

> <Gold.PLP.Chemscore.Metal>
0.0000

> <Gold.Chemscore.Hbonds>
donor molecule, donor type, donor heavy atom, donor atom, acceptor molecule, acceptor atom, score
      P1  H  6896  6909       L1    13  0.54
      P1  H  6934  6947       L1    22  1.00

> <Gold.PLP.Chemscore.Internal.Correction>
0.1515

> <Gold.Rescore>
     Score         DG    S(hbond)    S(metal)    S(lipo)     H(rot)  DE(clash)    DE(int)     intcor
     14.02     -14.75       1.86        0.00      79.83       2.45       0.09       0.64       ----

> <Gold.Chemscore.Fitness>
14.0185

> <Gold.Chemscore.DG>
-14.7470

> <Gold.Chemscore.ZeroCoef>
-5.4800

> <Gold.Chemscore.Hbond>
1.8553

> <Gold.Chemscore.Metal>
0.0000

> <Gold.Chemscore.Lipo>
79.8277

> <Gold.Chemscore.Internal_Hbond>
0.0000

> <Gold.Chemscore.DEClash>
0.0899

> <Gold.Chemscore.DEInternal>
0.6385

> <Gold.Chemscore.Rot>
2.4490

> <Gold.Chemscore.Internal.Correction>
   9.000000E+99

> <Gold.Chemscore.Hbonds>
donor molecule, donor type, donor heavy atom, donor atom, acceptor molecule, acceptor atom, score
      P1  H  6896  6909       L1    13  0.16
      P1  H  6934  6947       L1    22  0.99

> <Gold.Chemscore.Hbond.Weighted>
-6.1965

> <Gold.Chemscore.Metal.Weighted>
-0.0000

> <Gold.Chemscore.Lipo.Weighted>
-9.3398

> <Gold.Chemscore.Internal_Hbond.Weighted>
0.0000

> <Gold.Chemscore.DEClash.Weighted>
0.0899

> <Gold.Chemscore.DEInternal.Weighted>
0.6385

> <Gold.Chemscore.Rot.Weighted>
6.2694

> <Gold.Chemscore.Internal.Correction.Weighted>
   9.000000E+99

> <Gold.Protein.RotatedTorsions>
[ 6907 6896 6895 6894 ] final   39.23 input  -60.11 | X-H torsion
[ 7974 7965 7964 7962 ] final  102.72 input  175.53 | X-H torsion
[ 8008 7997 7996 7995 ] final  145.18 input   59.86 | X-H torsion
[ 10167 10162 10161 10158 ] final -134.35 input  -65.29 | X-H torsion
[ 10718 10713 10712 10709 ] final -113.70 input   66.30 | X-H torsion
[ 10763 10752 10751 10750 ] final  163.67 input  -60.55 | X-H torsion
[ 11005 11000 10999 10996 ] final    7.02 input  -57.11 | X-H torsion

> <Gold.Protein.ActiveResidues>
 VAL166  LYS551  ARG553  GLY616  TRP617  ASP618  TYR619  PRO620  LYS621  CYS622 
 ASP623  PHE694  ASN695  SER759  ASP760  ASP761  ALA762  ILE779  LEU786  VAL792 
 PHE793  MET794  SER795  GLU796  ALA797  LYS798  CYS799  TRP800  GLU811  SER814 

> <Gold.Protein.RotatedAtoms>
  152.1668  134.8867  160.0537 H   0  0  0  0  0  0  0  0  0  0  0  0  # atno 6907 bound_to 6896
  151.9842  133.3763  159.4127 H   0  0  0  0  0  0  0  0  0  0  0  0  # atno 6908 bound_to 6896
  150.6896  134.3929  159.5128 H   0  0  0  0  0  0  0  0  0  0  0  0  # atno 6909 bound_to 6896
  145.3554  139.2430  143.3535 H   0  0  0  0  0  0  0  0  0  0  0  0  # atno 7974 bound_to 7965
  156.2889  140.2216  156.5174 H   0  0  0  0  0  0  0  0  0  0  0  0  # atno 8008 bound_to 7997
  154.7557  140.0477  157.0953 H   0  0  0  0  0  0  0  0  0  0  0  0  # atno 8009 bound_to 7997
  155.0053  140.3106  155.4854 H   0  0  0  0  0  0  0  0  0  0  0  0  # atno 8010 bound_to 7997
  139.8890  143.6746  152.2615 H   0  0  0  0  0  0  0  0  0  0  0  0  # atno 10167 bound_to 10162
  156.0783  130.5987  150.8676 H   0  0  0  0  0  0  0  0  0  0  0  0  # atno 10718 bound_to 10713
  154.2972  135.2760  155.2627 H   0  0  0  0  0  0  0  0  0  0  0  0  # atno 10763 bound_to 10752
  154.5080  135.5790  153.6586 H   0  0  0  0  0  0  0  0  0  0  0  0  # atno 10764 bound_to 10752
  152.9905  135.6174  154.3141 H   0  0  0  0  0  0  0  0  0  0  0  0  # atno 10765 bound_to 10752
  140.5530  134.0265  155.7943 H   0  0  0  0  0  0  0  0  0  0  0  0  # atno 11005 bound_to 11000
  146.2950  140.4178  142.8725 LP  0  0  0  0  0  0  0  0  0  0  0  0  # atno 17320 bound_to 7965
  144.8686  140.7241  143.6061 LP  0  0  0  0  0  0  0  0  0  0  0  0  # atno 17321 bound_to 7965
  139.7127  144.7617  151.1085 LP  0  0  0  0  0  0  0  0  0  0  0  0  # atno 17342 bound_to 10162
  140.7730  143.5310  150.9424 LP  0  0  0  0  0  0  0  0  0  0  0  0  # atno 17343 bound_to 10162
  157.5888  131.0945  150.9152 LP  0  0  0  0  0  0  0  0  0  0  0  0  # atno 17370 bound_to 10713
  156.9333  130.5357  149.5279 LP  0  0  0  0  0  0  0  0  0  0  0  0  # atno 17371 bound_to 10713
  141.1160  133.9539  157.2821 LP  0  0  0  0  0  0  0  0  0  0  0  0  # atno 17394 bound_to 11000
  139.9446  135.0186  156.8812 LP  0  0  0  0  0  0  0  0  0  0  0  0  # atno 17395 bound_to 11000

$$$$
