AV-unprocessed.smi:2198|AV-procd|sdf|8914|dock3
  -GOLD-   2272012133D 1   1.00000     0.00000
 Structure written by MMmdl.
 43 44  0  0  0  0  0  0  0  0  1 V2000
  146.2779  138.1104  152.0110 C   0  0  0  0  0  0  0  0  0  0  0  0
  147.1868  139.0143  152.8171 C   0  0  0  0  0  0  0  0  0  0  0  0
  146.9047  140.2396  153.1157 N   0  0  0  0  0  0  0  0  0  0  0  0
  147.8286  140.9816  153.8652 C   0  0  0  0  0  0  0  0  0  0  0  0
  147.4234  142.4135  154.1711 C   0  0  0  0  0  0  0  0  0  0  0  0
  149.0100  140.4397  154.2844 C   0  0  0  0  0  0  0  0  0  0  0  0
  150.0389  141.2211  155.0990 C   0  0  0  0  0  0  0  0  0  0  0  0
  149.7603  141.2993  156.6007 C   0  0  0  0  0  0  0  0  0  0  0  0
  148.6886  140.8927  157.0489 O   0  0  0  0  0  0  0  0  0  0  0  0
  150.7301  141.8271  157.3633 N   0  0  0  0  0  0  0  0  0  0  0  0
  150.6755  141.9970  158.8138 C   0  0  1  0  0  0  0  0  0  0  0  0
  151.8226  141.2353  159.5101 C   0  0  0  0  0  0  0  0  0  0  0  0
  153.1922  141.8845  159.2481 C   0  0  0  0  0  0  0  0  0  0  0  0
  153.1911  143.3689  159.6447 C   0  0  0  0  0  0  0  0  0  0  0  0
  152.0776  144.1478  158.9188 C   0  0  2  0  0  0  0  0  0  0  0  0
  152.0781  145.6296  159.3202 C   0  0  0  0  0  0  0  0  0  0  0  0
  150.7032  143.4951  159.1783 C   0  0  0  0  0  0  0  0  0  0  0  0
  149.3199  139.0380  153.9409 C   0  0  0  0  0  0  0  0  0  0  0  0
  150.3478  138.4491  154.2715 O   0  0  0  0  0  0  0  0  0  0  0  0
  148.3740  138.4017  153.2141 N   0  0  0  0  0  0  0  0  0  0  0  0
  148.5406  137.4406  152.9535 H   0  0  0  0  0  0  0  0  0  0  0  0
  145.3206  137.9912  152.5188 H   0  0  0  0  0  0  0  0  0  0  0  0
  146.7154  137.1211  151.8692 H   0  0  0  0  0  0  0  0  0  0  0  0
  146.0928  138.5446  151.0283 H   0  0  0  0  0  0  0  0  0  0  0  0
  148.1614  143.1157  153.7837 H   0  0  0  0  0  0  0  0  0  0  0  0
  147.3285  142.5639  155.2464 H   0  0  0  0  0  0  0  0  0  0  0  0
  146.4632  142.6585  153.7156 H   0  0  0  0  0  0  0  0  0  0  0  0
  151.0353  140.7992  154.9635 H   0  0  0  0  0  0  0  0  0  0  0  0
  150.1147  142.2298  154.6918 H   0  0  0  0  0  0  0  0  0  0  0  0
  151.5741  142.1366  156.9039 H   0  0  0  0  0  0  0  0  0  0  0  0
  149.7261  141.5908  159.1676 H   0  0  0  0  0  0  0  0  0  0  0  0
  151.6380  141.2208  160.5848 H   0  0  0  0  0  0  0  0  0  0  0  0
  151.8366  140.1918  159.1931 H   0  0  0  0  0  0  0  0  0  0  0  0
  153.9653  141.3537  159.8044 H   0  0  0  0  0  0  0  0  0  0  0  0
  153.4518  141.7868  158.1933 H   0  0  0  0  0  0  0  0  0  0  0  0
  153.0590  143.4554  160.7242 H   0  0  0  0  0  0  0  0  0  0  0  0
  154.1634  143.8075  159.4174 H   0  0  0  0  0  0  0  0  0  0  0  0
  152.2796  144.1025  157.8476 H   0  0  0  0  0  0  0  0  0  0  0  0
  151.8855  145.7524  160.3865 H   0  0  0  0  0  0  0  0  0  0  0  0
  151.3117  146.1835  158.7775 H   0  0  0  0  0  0  0  0  0  0  0  0
  153.0392  146.0953  159.1002 H   0  0  0  0  0  0  0  0  0  0  0  0
  149.9254  144.0251  158.6266 H   0  0  0  0  0  0  0  0  0  0  0  0
  150.4500  143.6042  160.2337 H   0  0  0  0  0  0  0  0  0  0  0  0
  1  2  1  0  0  0  0
  1 22  1  0  0  0  0
  1 23  1  0  0  0  0
  1 24  1  0  0  0  0
  2 20  1  0  0  0  0
  2  3  2  0  0  0  0
  3  4  1  0  0  0  0
  4  5  1  0  0  0  0
  4  6  2  0  0  0  0
  5 25  1  0  0  0  0
  5 26  1  0  0  0  0
  5 27  1  0  0  0  0
  6  7  1  0  0  0  0
  6 18  1  0  0  0  0
  7  8  1  0  0  0  0
  7 28  1  0  0  0  0
  7 29  1  0  0  0  0
  8  9  2  0  0  0  0
  8 10  1  0  0  0  0
 10 11  1  0  0  0  0
 10 30  1  0  0  0  0
 11 17  1  0  0  0  0
 11 12  1  0  0  0  0
 11 31  1  0  0  0  0
 12 13  1  0  0  0  0
 12 32  1  0  0  0  0
 12 33  1  0  0  0  0
 13 14  1  0  0  0  0
 13 34  1  0  0  0  0
 13 35  1  0  0  0  0
 14 15  1  0  0  0  0
 14 36  1  0  0  0  0
 14 37  1  0  0  0  0
 15 16  1  0  0  0  0
 15 17  1  0  0  0  0
 15 38  1  0  0  0  0
 16 39  1  0  0  0  0
 16 40  1  0  0  0  0
 16 41  1  0  0  0  0
 17 42  1  0  0  0  0
 17 43  1  0  0  0  0
 18 19  2  0  0  0  0
 18 20  1  0  0  0  0
 20 21  1  0  0  0  0
M  END
> <s_m_source_file>
AV-unprocessed.smi

> <i_m_source_file_index>
2198

> <i_lp_mmshare_version>
43012

> <i_f3d_flags>
0

> <s_epik_input>
W0NIM11jMW5jKFtDSDNdKWMoYyg9TylbbkhdMSlbQ0gyXUMoPU8pW05IXVtDQEBIXTJbQ0gyXVtDSDJdW0NIMl1bQ0BASF0oW0NIM10pW0NIMl0y

> <s_epik_cmdline>
J2VwaWtfcHl0aG9uJywgJy1waCcsICc3LjAnLCAnLXRuJywgJzgnLCAnLW1hJywgJzIwMCcsICctbWV0YWxfYmluZGluZycsICctaW1hZScsICc8aW5maWxlLm1hZT4nLCAnLW9tYWUnLCAnPG91dGZpbGUubWFlPic=

> <r_lp_tautomer_probability>
0.839158

> <r_epik_Ionization_Penalty>
0.000372587

> <r_epik_Ionization_Penalty_Charging>
0.000337977

> <r_epik_Ionization_Penalty_Neutral>
3.46101e-05

> <r_epik_State_Penalty>
0.09125

> <r_epik_Charging_Adjusted_Penalty>
0.091588

> <i_epik_Tot_Q>
0

> <i_epik_Tot_abs_Q>
0

> <r_epik_Metal_State_Penalty>
0.25197

> <b_epik_Metal_Only>
0

> <s_lp_Force_Field>
OPLS_2005

> <r_lp_Energy>
10.5346

> <b_lp_Chiralities_Consistent>
1

> <s_lp_Variant>
AV-unprocessed.smi:2198-4

> <Gold.Version>
5.8.1

> <Gold.Id.Protein>
6NUR|6NUR_protein|mol2

> <Gold.PLP.Fitness>
43.0099

> <Gold.PLP.PLP>
-40.7783

> <Gold.PLP.part.hbond>
-2.0000

> <Gold.PLP.part.metal>
0.0000

> <Gold.PLP.part.buried>
0.2831

> <Gold.PLP.part.nonpolar>
-39.6702

> <Gold.PLP.part.repulsive>
0.5551

> <Gold.PLP.ligand.clash>
0.0000

> <Gold.PLP.ligand.torsion>
0.3882

> <Gold.PLP.Chemscore.Hbond>
1.0000

> <Gold.PLP.Chemscore.CHOScore>
0.0000

> <Gold.PLP.Chemscore.Metal>
0.0000

> <Gold.Chemscore.Hbonds>
donor molecule, donor type, donor heavy atom, donor atom, acceptor molecule, acceptor atom, score
      L1  H    20    21       P1  7948  1.00

> <Gold.PLP.Chemscore.Internal.Correction>
0.0080

> <Gold.Rescore>
     Score         DG    S(hbond)    S(metal)    S(lipo)     H(rot)  DE(clash)    DE(int)     intcor
     16.33     -17.82       1.00        0.00     109.43       1.48       1.12       0.37       ----

> <Gold.Chemscore.Fitness>
16.3333

> <Gold.Chemscore.DG>
-17.8235

> <Gold.Chemscore.ZeroCoef>
-5.4800

> <Gold.Chemscore.Hbond>
0.9968

> <Gold.Chemscore.Metal>
0.0000

> <Gold.Chemscore.Lipo>
109.4286

> <Gold.Chemscore.Internal_Hbond>
0.0000

> <Gold.Chemscore.DEClash>
1.1244

> <Gold.Chemscore.DEInternal>
0.3658

> <Gold.Chemscore.Rot>
1.4801

> <Gold.Chemscore.Internal.Correction>
   9.000000E+99

> <Gold.Chemscore.Hbonds>
donor molecule, donor type, donor heavy atom, donor atom, acceptor molecule, acceptor atom, score
      L1  H    20    21       P1  7948  0.96

> <Gold.Chemscore.Hbond.Weighted>
-3.3295

> <Gold.Chemscore.Metal.Weighted>
-0.0000

> <Gold.Chemscore.Lipo.Weighted>
-12.8031

> <Gold.Chemscore.Internal_Hbond.Weighted>
0.0000

> <Gold.Chemscore.DEClash.Weighted>
1.1244

> <Gold.Chemscore.DEInternal.Weighted>
0.3658

> <Gold.Chemscore.Rot.Weighted>
3.7891

> <Gold.Chemscore.Internal.Correction.Weighted>
   9.000000E+99

> <Gold.Protein.RotatedTorsions>
[ 6907 6896 6895 6894 ] final -157.30 input  -60.11 | X-H torsion
[ 7974 7965 7964 7962 ] final   40.18 input  175.53 | X-H torsion
[ 8008 7997 7996 7995 ] final    5.74 input   59.86 | X-H torsion
[ 10167 10162 10161 10158 ] final    4.57 input  -65.29 | X-H torsion
[ 10718 10713 10712 10709 ] final  -42.24 input   66.30 | X-H torsion
[ 10763 10752 10751 10750 ] final   94.05 input  -60.55 | X-H torsion
[ 11005 11000 10999 10996 ] final  167.88 input  -57.11 | X-H torsion

> <Gold.Protein.ActiveResidues>
 VAL166  LYS551  ARG553  GLY616  TRP617  ASP618  TYR619  PRO620  LYS621  CYS622 
 ASP623  PHE694  ASN695  SER759  ASP760  ASP761  ALA762  ILE779  LEU786  VAL792 
 PHE793  MET794  SER795  GLU796  ALA797  LYS798  CYS799  TRP800  GLU811  SER814 

> <Gold.Protein.RotatedAtoms>
  151.3008  133.4123  159.2639 H   0  0  0  0  0  0  0  0  0  0  0  0  # atno 6907 bound_to 6896
  151.0197  134.9460  159.8063 H   0  0  0  0  0  0  0  0  0  0  0  0  # atno 6908 bound_to 6896
  152.5321  134.2971  159.9117 H   0  0  0  0  0  0  0  0  0  0  0  0  # atno 6909 bound_to 6896
  146.0925  139.5563  142.9466 H   0  0  0  0  0  0  0  0  0  0  0  0  # atno 7974 bound_to 7965
  154.7322  140.2732  155.6446 H   0  0  0  0  0  0  0  0  0  0  0  0  # atno 8008 bound_to 7997
  156.2852  140.2713  156.1951 H   0  0  0  0  0  0  0  0  0  0  0  0  # atno 8009 bound_to 7997
  155.0367  140.0371  157.2484 H   0  0  0  0  0  0  0  0  0  0  0  0  # atno 8010 bound_to 7997
  140.6528  143.7503  150.7603 H   0  0  0  0  0  0  0  0  0  0  0  0  # atno 10167 bound_to 10162
  156.2617  130.4197  149.8535 H   0  0  0  0  0  0  0  0  0  0  0  0  # atno 10718 bound_to 10713
  153.2373  135.4303  155.0660 H   0  0  0  0  0  0  0  0  0  0  0  0  # atno 10763 bound_to 10752
  154.8324  135.3394  154.6701 H   0  0  0  0  0  0  0  0  0  0  0  0  # atno 10764 bound_to 10752
  153.7126  135.7022  153.5090 H   0  0  0  0  0  0  0  0  0  0  0  0  # atno 10765 bound_to 10752
  140.2814  134.7747  157.3761 H   0  0  0  0  0  0  0  0  0  0  0  0  # atno 11005 bound_to 11000
  145.6011  141.0355  143.2017 LP  0  0  0  0  0  0  0  0  0  0  0  0  # atno 17320 bound_to 7965
  144.7371  139.7555  143.7325 LP  0  0  0  0  0  0  0  0  0  0  0  0  # atno 17321 bound_to 7965
  140.1157  143.4658  152.2343 LP  0  0  0  0  0  0  0  0  0  0  0  0  # atno 17342 bound_to 10162
  139.5745  144.7480  151.3801 LP  0  0  0  0  0  0  0  0  0  0  0  0  # atno 17343 bound_to 10162
  156.6047  130.8561  151.3440 LP  0  0  0  0  0  0  0  0  0  0  0  0  # atno 17370 bound_to 10713
  157.7253  130.9614  150.1608 LP  0  0  0  0  0  0  0  0  0  0  0  0  # atno 17371 bound_to 10713
  140.1280  134.5132  155.8128 LP  0  0  0  0  0  0  0  0  0  0  0  0  # atno 17394 bound_to 11000
  141.2162  133.6780  156.6988 LP  0  0  0  0  0  0  0  0  0  0  0  0  # atno 17395 bound_to 11000

$$$$
