AV-unprocessed.smi:1818|AV-procd|sdf|7380|dock1
  -GOLD-   22720 9 43D 1   1.00000     0.00000
 Structure written by MMmdl.
 36 37  0  0  0  0  0  0  0  0  1 V2000
  150.9026  139.3854  154.4262 N   0  0  0  0  0  0  0  0  0  0  0  0
  150.1693  140.1091  154.9531 C   0  0  0  0  0  0  0  0  0  0  0  0
  149.2341  141.0320  155.6265 C   0  0  0  0  0  0  0  0  0  0  0  0
  149.9276  142.2652  156.0122 N   0  0  0  0  0  0  0  0  0  0  0  0
  151.0053  142.3778  156.8072 C   0  0  0  0  0  0  0  0  0  0  0  0
  151.5528  141.4230  157.3569 O   0  0  0  0  0  0  0  0  0  0  0  0
  151.5582  143.7886  157.0046 C   0  0  0  0  0  0  0  0  0  0  0  0
  151.6711  144.1045  158.4158 N   0  0  0  0  0  0  0  0  0  0  0  0
  150.8802  144.9827  159.1461 C   0  0  0  0  0  0  0  0  0  0  0  0
  151.3615  144.9652  160.4358 C   0  0  0  0  0  0  0  0  0  0  0  0
  152.4417  144.0900  160.5211 N   0  0  0  0  0  0  0  0  0  0  0  0
  152.5672  143.6199  159.2869 C   0  0  0  0  0  0  0  0  0  0  0  0
  148.1484  141.4174  154.5911 C   0  0  0  0  0  0  0  0  0  0  0  0
  146.8194  141.9404  155.1654 C   0  0  0  0  0  0  0  0  0  0  0  0
  145.8152  140.8088  155.4502 C   0  0  0  0  0  0  0  0  0  0  0  0
  146.1497  139.9365  156.6703 C   0  0  0  0  0  0  0  0  0  0  0  0
  147.5554  139.3108  156.6540 C   0  0  0  0  0  0  0  0  0  0  0  0
  148.6605  140.3522  156.8975 C   0  0  0  0  0  0  0  0  0  0  0  0
  149.5593  143.1177  155.6165 H   0  0  0  0  0  0  0  0  0  0  0  0
  152.5391  143.8873  156.5372 H   0  0  0  0  0  0  0  0  0  0  0  0
  150.8986  144.5153  156.5281 H   0  0  0  0  0  0  0  0  0  0  0  0
  150.0650  145.5339  158.7008 H   0  0  0  0  0  0  0  0  0  0  0  0
  151.0177  145.5118  161.3015 H   0  0  0  0  0  0  0  0  0  0  0  0
  153.3306  142.9076  159.0090 H   0  0  0  0  0  0  0  0  0  0  0  0
  148.5594  142.1693  153.9152 H   0  0  0  0  0  0  0  0  0  0  0  0
  147.9360  140.5633  153.9460 H   0  0  0  0  0  0  0  0  0  0  0  0
  146.9838  142.5577  156.0491 H   0  0  0  0  0  0  0  0  0  0  0  0
  146.3686  142.5997  154.4230 H   0  0  0  0  0  0  0  0  0  0  0  0
  144.8297  141.2482  155.6069 H   0  0  0  0  0  0  0  0  0  0  0  0
  145.7154  140.1766  154.5670 H   0  0  0  0  0  0  0  0  0  0  0  0
  146.0207  140.5216  157.5817 H   0  0  0  0  0  0  0  0  0  0  0  0
  145.4115  139.1361  156.7306 H   0  0  0  0  0  0  0  0  0  0  0  0
  147.5988  138.5771  157.4595 H   0  0  0  0  0  0  0  0  0  0  0  0
  147.7318  138.7533  155.7335 H   0  0  0  0  0  0  0  0  0  0  0  0
  149.4791  139.8564  157.4209 H   0  0  0  0  0  0  0  0  0  0  0  0
  148.2950  141.1034  157.5994 H   0  0  0  0  0  0  0  0  0  0  0  0
  1  2  3  0  0  0  0
  2  3  1  0  0  0  0
  3 18  1  0  0  0  0
  3  4  1  0  0  0  0
  3 13  1  0  0  0  0
  4  5  1  0  0  0  0
  4 19  1  0  0  0  0
  5  6  2  0  0  0  0
  5  7  1  0  0  0  0
  7  8  1  0  0  0  0
  7 20  1  0  0  0  0
  7 21  1  0  0  0  0
  8 12  1  0  0  0  0
  8  9  1  0  0  0  0
  9 10  2  0  0  0  0
  9 22  1  0  0  0  0
 10 11  1  0  0  0  0
 10 23  1  0  0  0  0
 11 12  2  0  0  0  0
 12 24  1  0  0  0  0
 13 14  1  0  0  0  0
 13 25  1  0  0  0  0
 13 26  1  0  0  0  0
 14 15  1  0  0  0  0
 14 27  1  0  0  0  0
 14 28  1  0  0  0  0
 15 16  1  0  0  0  0
 15 29  1  0  0  0  0
 15 30  1  0  0  0  0
 16 17  1  0  0  0  0
 16 31  1  0  0  0  0
 16 32  1  0  0  0  0
 17 18  1  0  0  0  0
 17 33  1  0  0  0  0
 17 34  1  0  0  0  0
 18 35  1  0  0  0  0
 18 36  1  0  0  0  0
M  END
> <s_m_source_file>
AV-unprocessed.smi

> <i_m_source_file_index>
1818

> <i_lp_mmshare_version>
43012

> <i_f3d_flags>
0

> <s_epik_input>
W0NIMl0xW0NIMl1bQ0gyXVtDSDJdW0NIMl1bQ0gyXUMxKEMjTilbTkhdQyg9TylbQ0gyXW4yW2NIXVtjSF1uW2NIXTI=

> <s_epik_cmdline>
J2VwaWtfcHl0aG9uJywgJy1waCcsICc3LjAnLCAnLXRuJywgJzgnLCAnLW1hJywgJzIwMCcsICctbWV0YWxfYmluZGluZycsICctaW1hZScsICc8aW5maWxlLm1hZT4nLCAnLW9tYWUnLCAnPG91dGZpbGUubWFlPic=

> <r_lp_tautomer_probability>
1

> <r_epik_Ionization_Penalty>
0.21493

> <r_epik_Ionization_Penalty_Charging>
0.214927

> <r_epik_Ionization_Penalty_Neutral>
2.56273e-06

> <r_epik_State_Penalty>
0.205117

> <r_epik_Charging_Adjusted_Penalty>
0.420044

> <i_epik_Tot_Q>
0

> <i_epik_Tot_abs_Q>
0

> <r_epik_Metal_State_Penalty>
0.148888

> <b_epik_Metal_Only>
0

> <s_lp_Force_Field>
OPLS_2005

> <r_lp_Energy>
17.7076

> <b_lp_Chiralities_Consistent>
1

> <s_lp_Variant>
AV-unprocessed.smi:1818-1

> <Gold.Version>
5.8.1

> <Gold.Id.Protein>
6NUR|6NUR_protein|mol2

> <Gold.PLP.Fitness>
40.4226

> <Gold.PLP.PLP>
-34.0195

> <Gold.PLP.part.hbond>
-2.0000

> <Gold.PLP.part.metal>
0.0000

> <Gold.PLP.part.buried>
-4.4527

> <Gold.PLP.part.nonpolar>
-29.4630

> <Gold.PLP.part.repulsive>
0.3725

> <Gold.PLP.ligand.clash>
0.0000

> <Gold.PLP.ligand.torsion>
0.1914

> <Gold.PLP.Chemscore.Hbond>
1.3260

> <Gold.PLP.Chemscore.CHOScore>
0.9310

> <Gold.PLP.Chemscore.Metal>
0.0000

> <Gold.Chemscore.Hbonds>
donor molecule, donor type, donor heavy atom, donor atom, acceptor molecule, acceptor atom, score
      L1  H     4    19       P1  8028  1.00
      P1  H  7989  7998       L1     1  0.45
      L1  C     9    22       P1  8029  0.80

> <Gold.PLP.Chemscore.Internal.Correction>
0.0151

> <Gold.Rescore>
     Score         DG    S(hbond)    S(metal)    S(lipo)     H(rot)  DE(clash)    DE(int)     intcor
     10.27     -11.39       0.96        0.00      59.36       1.65       0.10       1.02       ----

> <Gold.Chemscore.Fitness>
10.2744

> <Gold.Chemscore.DG>
-11.3946

> <Gold.Chemscore.ZeroCoef>
-5.4800

> <Gold.Chemscore.Hbond>
0.9553

> <Gold.Chemscore.Metal>
0.0000

> <Gold.Chemscore.Lipo>
59.3590

> <Gold.Chemscore.Internal_Hbond>
0.0000

> <Gold.Chemscore.DEClash>
0.1045

> <Gold.Chemscore.DEInternal>
1.0157

> <Gold.Chemscore.Rot>
1.6488

> <Gold.Chemscore.Internal.Correction>
   9.000000E+99

> <Gold.Chemscore.Hbonds>
donor molecule, donor type, donor heavy atom, donor atom, acceptor molecule, acceptor atom, score
      L1  H     4    19       P1  8028  0.99
      P1  H  7989  7998       L1     1  0.02

> <Gold.Chemscore.Hbond.Weighted>
-3.1906

> <Gold.Chemscore.Metal.Weighted>
-0.0000

> <Gold.Chemscore.Lipo.Weighted>
-6.9450

> <Gold.Chemscore.Internal_Hbond.Weighted>
0.0000

> <Gold.Chemscore.DEClash.Weighted>
0.1045

> <Gold.Chemscore.DEInternal.Weighted>
1.0157

> <Gold.Chemscore.Rot.Weighted>
4.2210

> <Gold.Chemscore.Internal.Correction.Weighted>
   9.000000E+99

> <Gold.Protein.RotatedTorsions>
[ 6907 6896 6895 6894 ] final  119.60 input  -60.11 | X-H torsion
[ 7974 7965 7964 7962 ] final  134.37 input  175.53 | X-H torsion
[ 8008 7997 7996 7995 ] final -140.83 input   59.86 | X-H torsion
[ 10167 10162 10161 10158 ] final  174.56 input  -65.29 | X-H torsion
[ 10718 10713 10712 10709 ] final  -37.81 input   66.30 | X-H torsion
[ 10763 10752 10751 10750 ] final  110.98 input  -60.55 | X-H torsion
[ 11005 11000 10999 10996 ] final -105.45 input  -57.11 | X-H torsion

> <Gold.Protein.ActiveResidues>
 VAL166  LYS551  ARG553  GLY616  TRP617  ASP618  TYR619  PRO620  LYS621  CYS622 
 ASP623  PHE694  ASN695  SER759  ASP760  ASP761  ALA762  ILE779  LEU786  VAL792 
 PHE793  MET794  SER795  GLU796  ALA797  LYS798  CYS799  TRP800  GLU811  SER814 

> <Gold.Protein.RotatedAtoms>
  152.4460  133.7536  159.6707 H   0  0  0  0  0  0  0  0  0  0  0  0  # atno 6907 bound_to 6896
  150.8359  133.8003  159.3086 H   0  0  0  0  0  0  0  0  0  0  0  0  # atno 6908 bound_to 6896
  151.5643  135.1067  160.0032 H   0  0  0  0  0  0  0  0  0  0  0  0  # atno 6909 bound_to 6896
  144.9771  139.4544  143.5405 H   0  0  0  0  0  0  0  0  0  0  0  0  # atno 7974 bound_to 7965
  155.4678  140.0550  157.2983 H   0  0  0  0  0  0  0  0  0  0  0  0  # atno 8008 bound_to 7997
  154.4711  140.2040  155.9947 H   0  0  0  0  0  0  0  0  0  0  0  0  # atno 8009 bound_to 7997
  156.1057  140.3212  155.8007 H   0  0  0  0  0  0  0  0  0  0  0  0  # atno 8010 bound_to 7997
  139.5146  144.3133  152.0271 H   0  0  0  0  0  0  0  0  0  0  0  0  # atno 10167 bound_to 10162
  156.3109  130.4252  149.8051 H   0  0  0  0  0  0  0  0  0  0  0  0  # atno 10718 bound_to 10713
  153.4568  135.3731  155.2315 H   0  0  0  0  0  0  0  0  0  0  0  0  # atno 10763 bound_to 10752
  154.8757  135.3899  154.3972 H   0  0  0  0  0  0  0  0  0  0  0  0  # atno 10764 bound_to 10752
  153.4540  135.7086  153.6155 H   0  0  0  0  0  0  0  0  0  0  0  0  # atno 10765 bound_to 10752
  141.1053  133.8808  157.1735 H   0  0  0  0  0  0  0  0  0  0  0  0  # atno 11005 bound_to 11000
  146.3398  139.9020  142.8793 LP  0  0  0  0  0  0  0  0  0  0  0  0  # atno 17320 bound_to 7965
  145.2475  141.0032  143.3900 LP  0  0  0  0  0  0  0  0  0  0  0  0  # atno 17321 bound_to 7965
  140.2577  144.4101  150.6197 LP  0  0  0  0  0  0  0  0  0  0  0  0  # atno 17342 bound_to 10162
  140.6180  143.2174  151.6753 LP  0  0  0  0  0  0  0  0  0  0  0  0  # atno 17343 bound_to 10162
  156.5394  130.8293  151.3264 LP  0  0  0  0  0  0  0  0  0  0  0  0  # atno 17370 bound_to 10713
  157.7391  130.9825  150.2291 LP  0  0  0  0  0  0  0  0  0  0  0  0  # atno 17371 bound_to 10713
  139.9920  135.0061  156.9997 LP  0  0  0  0  0  0  0  0  0  0  0  0  # atno 17394 bound_to 11000
  140.4918  134.1185  155.7234 LP  0  0  0  0  0  0  0  0  0  0  0  0  # atno 17395 bound_to 11000

$$$$
