AV-unprocessed.smi:1682|AV-procd|sdf|6746|dock2
  -GOLD-   22720 7503D 1   1.00000     0.00000
 Structure written by MMmdl.
 39 40  0  0  0  0  0  0  0  0  2 V2000
  153.1532  139.6760  154.7380 O   0  0  0  0  0  0  0  0  0  0  0  0
  152.2214  139.0851  155.2845 C   0  0  0  0  0  0  0  0  0  0  0  0
  151.1780  139.7165  155.8440 N   0  0  0  0  0  0  0  0  0  0  0  0
  150.9892  141.1644  155.8752 C   0  0  0  0  0  0  0  0  0  0  0  0
  150.2115  141.6495  157.1162 C   0  0  0  0  0  0  0  0  0  0  0  0
  150.9510  142.6979  157.9295 C   0  0  0  0  0  0  0  0  0  0  0  0
  152.1322  142.3991  158.6439 C   0  0  0  0  0  0  0  0  0  0  0  0
  152.7743  143.4212  159.3729 C   0  0  0  0  0  0  0  0  0  0  0  0
  152.2214  144.7187  159.3749 C   0  0  0  0  0  0  0  0  0  0  0  0
  151.0391  144.9613  158.6461 C   0  0  0  0  0  0  0  0  0  0  0  0
  150.4546  143.9559  157.9579 N   0  3  0  0  0  0  0  0  0  0  0  0
  152.1998  137.5495  155.3354 C   0  0  1  0  0  0  0  0  0  0  0  0
  152.1226  137.0421  156.7887 C   0  0  0  0  0  0  0  0  0  0  0  0
  150.7520  136.3941  156.8813 C   0  0  0  0  0  0  0  0  0  0  0  0
  150.2859  135.9749  157.9393 O   0  0  0  0  0  0  0  0  0  0  0  0
  150.1511  136.3665  155.6872 N   0  0  0  0  0  0  0  0  0  0  0  0
  148.8152  135.8456  155.4003 C   0  0  0  0  0  0  0  0  0  0  0  0
  148.8161  134.3272  155.1459 C   0  0  0  0  0  0  0  0  0  0  0  0
  149.6919  133.9952  154.1977 F   0  0  0  0  0  0  0  0  0  0  0  0
  149.1555  133.6999  156.2711 F   0  0  0  0  0  0  0  0  0  0  0  0
  147.6007  133.9178  154.7822 F   0  0  0  0  0  0  0  0  0  0  0  0
  150.9649  136.9459  154.6305 C   0  0  0  0  0  0  0  0  0  0  0  0
  150.4601  139.1526  156.2762 H   0  0  0  0  0  0  0  0  0  0  0  0
  151.9797  141.6200  155.8681 H   0  0  0  0  0  0  0  0  0  0  0  0
  150.4919  141.4959  154.9624 H   0  0  0  0  0  0  0  0  0  0  0  0
  149.2476  142.0558  156.8075 H   0  0  0  0  0  0  0  0  0  0  0  0
  149.9824  140.8024  157.7637 H   0  0  0  0  0  0  0  0  0  0  0  0
  152.5445  141.4003  158.6304 H   0  0  0  0  0  0  0  0  0  0  0  0
  153.6796  143.2122  159.9241 H   0  0  0  0  0  0  0  0  0  0  0  0
  152.6969  145.5155  159.9282 H   0  0  0  0  0  0  0  0  0  0  0  0
  150.5470  145.9217  158.5931 H   0  0  0  0  0  0  0  0  0  0  0  0
  153.1057  137.1665  154.8622 H   0  0  0  0  0  0  0  0  0  0  0  0
  152.8918  136.2951  156.9863 H   0  0  0  0  0  0  0  0  0  0  0  0
  152.2201  137.8311  157.5361 H   0  0  0  0  0  0  0  0  0  0  0  0
  148.1459  136.0845  156.2282 H   0  0  0  0  0  0  0  0  0  0  0  0
  148.4116  136.3612  154.5277 H   0  0  0  0  0  0  0  0  0  0  0  0
  150.3920  137.6835  154.0658 H   0  0  0  0  0  0  0  0  0  0  0  0
  151.2639  136.1615  153.9340 H   0  0  0  0  0  0  0  0  0  0  0  0
  149.5997  144.1544  157.4376 H   0  0  0  0  0  0  0  0  0  0  0  0
  1  2  2  0  0  0  0
  2  3  1  0  0  0  0
  2 12  1  0  0  0  0
  3  4  1  0  0  0  0
  3 23  1  0  0  0  0
  4  5  1  0  0  0  0
  4 24  1  0  0  0  0
  4 25  1  0  0  0  0
  5  6  1  0  0  0  0
  5 26  1  0  0  0  0
  5 27  1  0  0  0  0
  6 11  1  0  0  0  0
  6  7  2  0  0  0  0
  7  8  1  0  0  0  0
  7 28  1  0  0  0  0
  8  9  2  0  0  0  0
  8 29  1  0  0  0  0
  9 10  1  0  0  0  0
  9 30  1  0  0  0  0
 10 11  2  0  0  0  0
 10 31  1  0  0  0  0
 11 39  1  0  0  0  0
 12 22  1  0  0  0  0
 12 13  1  0  0  0  0
 12 32  1  0  0  0  0
 13 14  1  0  0  0  0
 13 33  1  0  0  0  0
 13 34  1  0  0  0  0
 14 15  2  0  0  0  0
 14 16  1  0  0  0  0
 16 17  1  0  0  0  0
 16 22  1  0  0  0  0
 17 18  1  0  0  0  0
 17 35  1  0  0  0  0
 17 36  1  0  0  0  0
 18 19  1  0  0  0  0
 18 20  1  0  0  0  0
 18 21  1  0  0  0  0
 22 37  1  0  0  0  0
 22 38  1  0  0  0  0
M  CHG  1  11   1
M  END
> <s_m_source_file>
AV-unprocessed.smi

> <i_m_source_file_index>
1682

> <i_lp_mmshare_version>
43012

> <i_f3d_flags>
0

> <s_epik_input>
RkMoRikoRilbQ0gyXU4oW0NIMl0xKUMoPU8pW0NIMl1bQ0BIXTFDKD1PKVtOSF1bQ0gyXVtDSDJdYzJbY0hdW2NIXVtjSF1bY0hdbjI=

> <s_epik_cmdline>
J2VwaWtfcHl0aG9uJywgJy1waCcsICc3LjAnLCAnLXRuJywgJzgnLCAnLW1hJywgJzIwMCcsICctbWV0YWxfYmluZGluZycsICctaW1hZScsICc8aW5maWxlLm1hZT4nLCAnLW9tYWUnLCAnPG91dGZpbGUubWFlPic=

> <r_epik_Ionization_Penalty>
1.88249

> <r_epik_Ionization_Penalty_Charging>
1.88249

> <r_epik_Ionization_Penalty_Neutral>
2.8664e-08

> <r_epik_State_Penalty>
2.00238

> <r_epik_Charging_Adjusted_Penalty>
3.88487

> <i_epik_Tot_Q>
1

> <i_epik_Tot_abs_Q>
1

> <r_epik_Metal_State_Penalty>
2.02677

> <b_epik_Metal_Only>
0

> <s_lp_Force_Field>
OPLS_2005

> <r_lp_Energy>
19.2524

> <b_lp_Chiralities_Consistent>
1

> <s_lp_Variant>
AV-unprocessed.smi:1682-4

> <Gold.Version>
5.8.1

> <Gold.Id.Protein>
6NUR|6NUR_protein|mol2

> <Gold.PLP.Fitness>
49.2727

> <Gold.PLP.PLP>
-39.8984

> <Gold.PLP.part.hbond>
-4.0000

> <Gold.PLP.part.metal>
0.0000

> <Gold.PLP.part.buried>
-4.3599

> <Gold.PLP.part.nonpolar>
-31.9952

> <Gold.PLP.part.repulsive>
0.1693

> <Gold.PLP.ligand.clash>
0.0000

> <Gold.PLP.ligand.torsion>
0.9964

> <Gold.PLP.Chemscore.Hbond>
3.7441

> <Gold.PLP.Chemscore.CHOScore>
0.0000

> <Gold.PLP.Chemscore.Metal>
0.0000

> <Gold.Chemscore.Hbonds>
donor molecule, donor type, donor heavy atom, donor atom, acceptor molecule, acceptor atom, score
      L1  H    11    39       P1  8028  1.76
      P1  H  6896  6908       L1    15  0.59
      P1  H  7989  7998       L1     1  0.08
      P1  H  7997  8009       L1     1  1.00

> <Gold.PLP.Chemscore.Internal.Correction>
0.1348

> <Gold.Rescore>
     Score         DG    S(hbond)    S(metal)    S(lipo)     H(rot)  DE(clash)    DE(int)     intcor
     18.33     -19.82       2.66        0.00      94.69       2.19       0.42       1.07       ----

> <Gold.Chemscore.Fitness>
18.3303

> <Gold.Chemscore.DG>
-19.8233

> <Gold.Chemscore.ZeroCoef>
-5.4800

> <Gold.Chemscore.Hbond>
2.6586

> <Gold.Chemscore.Metal>
0.0000

> <Gold.Chemscore.Lipo>
94.6853

> <Gold.Chemscore.Internal_Hbond>
0.0000

> <Gold.Chemscore.DEClash>
0.4188

> <Gold.Chemscore.DEInternal>
1.0742

> <Gold.Chemscore.Rot>
2.1932

> <Gold.Chemscore.Internal.Correction>
   9.000000E+99

> <Gold.Chemscore.Hbonds>
donor molecule, donor type, donor heavy atom, donor atom, acceptor molecule, acceptor atom, score
      L1  H    11    39       P1  8028  0.22
      P1  H  6896  6908       L1    15  0.58
      P1  H  7997  8009       L1     1  0.99

> <Gold.Chemscore.Hbond.Weighted>
-8.8796

> <Gold.Chemscore.Metal.Weighted>
-0.0000

> <Gold.Chemscore.Lipo.Weighted>
-11.0782

> <Gold.Chemscore.Internal_Hbond.Weighted>
0.0000

> <Gold.Chemscore.DEClash.Weighted>
0.4188

> <Gold.Chemscore.DEInternal.Weighted>
1.0742

> <Gold.Chemscore.Rot.Weighted>
5.6145

> <Gold.Chemscore.Internal.Correction.Weighted>
   9.000000E+99

> <Gold.Protein.RotatedTorsions>
[ 6907 6896 6895 6894 ] final -174.14 input  -60.11 | X-H torsion
[ 7974 7965 7964 7962 ] final   80.63 input  175.53 | X-H torsion
[ 8008 7997 7996 7995 ] final -114.42 input   59.86 | X-H torsion
[ 10167 10162 10161 10158 ] final  -62.51 input  -65.29 | X-H torsion
[ 10718 10713 10712 10709 ] final  -85.53 input   66.30 | X-H torsion
[ 10763 10752 10751 10750 ] final  -52.49 input  -60.55 | X-H torsion
[ 11005 11000 10999 10996 ] final   12.30 input  -57.11 | X-H torsion

> <Gold.Protein.ActiveResidues>
 VAL166  LYS551  ARG553  GLY616  TRP617  ASP618  TYR619  PRO620  LYS621  CYS622 
 ASP623  PHE694  ASN695  SER759  ASP760  ASP761  ALA762  ILE779  LEU786  VAL792 
 PHE793  MET794  SER795  GLU796  ALA797  LYS798  CYS799  TRP800  GLU811  SER814 

> <Gold.Protein.RotatedAtoms>
  151.5675  133.3394  159.2982 H   0  0  0  0  0  0  0  0  0  0  0  0  # atno 6907 bound_to 6896
  150.8386  134.7673  159.6925 H   0  0  0  0  0  0  0  0  0  0  0  0  # atno 6908 bound_to 6896
  152.4458  134.5504  159.9917 H   0  0  0  0  0  0  0  0  0  0  0  0  # atno 6909 bound_to 6896
  145.6486  139.2442  143.1989 H   0  0  0  0  0  0  0  0  0  0  0  0  # atno 7974 bound_to 7965
  155.0361  140.0392  157.2492 H   0  0  0  0  0  0  0  0  0  0  0  0  # atno 8008 bound_to 7997
  154.7256  140.2720  155.6478 H   0  0  0  0  0  0  0  0  0  0  0  0  # atno 8009 bound_to 7997
  156.2828  140.2694  156.1940 H   0  0  0  0  0  0  0  0  0  0  0  0  # atno 8010 bound_to 7997
  140.5934  143.2346  151.6090 H   0  0  0  0  0  0  0  0  0  0  0  0  # atno 10167 bound_to 10162
  155.9996  130.4734  150.4577 H   0  0  0  0  0  0  0  0  0  0  0  0  # atno 10718 bound_to 10713
  154.1436  135.6501  153.4947 H   0  0  0  0  0  0  0  0  0  0  0  0  # atno 10763 bound_to 10752
  153.0158  135.5321  154.6880 H   0  0  0  0  0  0  0  0  0  0  0  0  # atno 10764 bound_to 10752
  154.6148  135.2958  155.0363 H   0  0  0  0  0  0  0  0  0  0  0  0  # atno 10765 bound_to 10752
  140.4935  134.0817  155.7777 H   0  0  0  0  0  0  0  0  0  0  0  0  # atno 11005 bound_to 11000
  146.1222  140.7294  142.9452 LP  0  0  0  0  0  0  0  0  0  0  0  0  # atno 17320 bound_to 7965
  144.7131  140.4110  143.7065 LP  0  0  0  0  0  0  0  0  0  0  0  0  # atno 17321 bound_to 7965
  139.5242  144.3110  152.0992 LP  0  0  0  0  0  0  0  0  0  0  0  0  # atno 17342 bound_to 10162
  140.2278  144.4399  150.6313 LP  0  0  0  0  0  0  0  0  0  0  0  0  # atno 17343 bound_to 10162
  157.2604  131.0565  151.2324 LP  0  0  0  0  0  0  0  0  0  0  0  0  # atno 17370 bound_to 10713
  157.3440  130.7048  149.6399 LP  0  0  0  0  0  0  0  0  0  0  0  0  # atno 17371 bound_to 10713
  141.1472  133.9034  157.2187 LP  0  0  0  0  0  0  0  0  0  0  0  0  # atno 17394 bound_to 11000
  139.9755  135.0115  156.9620 LP  0  0  0  0  0  0  0  0  0  0  0  0  # atno 17395 bound_to 11000

$$$$
