AV-unprocessed.smi:2416|AV-procd|sdf|9546|dock6
  -GOLD-   2272013183D 1   1.00000     0.00000
 Structure written by MMmdl.
 40 41  0  0  0  0  0  0  0  0  1 V2000
  139.3050  141.4246  156.5523 C   0  0  0  0  0  0  0  0  0  0  0  0
  139.3006  140.1340  155.9533 O   0  0  0  0  0  0  0  0  0  0  0  0
  139.4002  140.0702  154.5235 C   0  0  1  0  0  0  0  0  0  0  0  0
  138.2065  140.7782  153.8708 C   0  0  0  0  0  0  0  0  0  0  0  0
  140.8287  140.4285  154.0715 C   0  0  0  0  0  0  0  0  0  0  0  0
  141.2055  138.9760  154.3556 C   0  0  2  0  0  0  0  0  0  0  0  0
  142.1523  138.4448  153.3805 N   0  0  0  0  0  0  0  0  0  0  0  0
  142.4459  137.1451  153.2371 C   0  0  0  0  0  0  0  0  0  0  0  0
  141.9363  136.2557  153.9193 O   0  0  0  0  0  0  0  0  0  0  0  0
  143.3550  136.9573  152.2645 N   0  0  0  0  0  0  0  0  0  0  0  0
  143.8991  135.7322  151.7950 C   0  0  0  0  0  0  0  0  0  0  0  0
  145.1884  135.8310  151.2241 C   0  0  0  0  0  0  0  0  0  0  0  0
  145.8166  134.6728  150.7260 C   0  0  0  0  0  0  0  0  0  0  0  0
  145.1360  133.4454  150.8110 C   0  0  0  0  0  0  0  0  0  0  0  0
  145.6994  132.3053  150.3460 F   0  0  0  0  0  0  0  0  0  0  0  0
  143.8543  133.4328  151.3917 C   0  0  0  0  0  0  0  0  0  0  0  0
  143.2516  134.5421  151.8705 N   0  0  0  0  0  0  0  0  0  0  0  0
  139.7216  138.5950  154.1138 C   0  0  0  0  0  0  0  0  0  0  0  0
  139.1553  137.4959  155.0199 C   0  0  0  0  0  0  0  0  0  0  0  0
  139.3346  138.1937  152.6775 C   0  0  0  0  0  0  0  0  0  0  0  0
  139.3678  141.3130  157.6347 H   0  0  0  0  0  0  0  0  0  0  0  0
  138.3867  141.9713  156.3394 H   0  0  0  0  0  0  0  0  0  0  0  0
  140.1538  142.0290  156.2341 H   0  0  0  0  0  0  0  0  0  0  0  0
  138.2007  140.6497  152.7890 H   0  0  0  0  0  0  0  0  0  0  0  0
  138.2252  141.8535  154.0458 H   0  0  0  0  0  0  0  0  0  0  0  0
  137.2608  140.3911  154.2508 H   0  0  0  0  0  0  0  0  0  0  0  0
  140.8823  140.6956  153.0145 H   0  0  0  0  0  0  0  0  0  0  0  0
  141.3611  141.1550  154.6840 H   0  0  0  0  0  0  0  0  0  0  0  0
  141.5160  138.8361  155.3937 H   0  0  0  0  0  0  0  0  0  0  0  0
  142.6158  139.1122  152.7817 H   0  0  0  0  0  0  0  0  0  0  0  0
  143.6953  137.7882  151.8040 H   0  0  0  0  0  0  0  0  0  0  0  0
  145.6958  136.7833  151.1672 H   0  0  0  0  0  0  0  0  0  0  0  0
  146.8022  134.7270  150.2874 H   0  0  0  0  0  0  0  0  0  0  0  0
  143.2984  132.5108  151.4743 H   0  0  0  0  0  0  0  0  0  0  0  0
  139.4764  136.5045  154.6988 H   0  0  0  0  0  0  0  0  0  0  0  0
  138.0650  137.5047  155.0231 H   0  0  0  0  0  0  0  0  0  0  0  0
  139.4838  137.6092  156.0533 H   0  0  0  0  0  0  0  0  0  0  0  0
  139.7464  137.2210  152.4060 H   0  0  0  0  0  0  0  0  0  0  0  0
  139.6954  138.9087  151.9382 H   0  0  0  0  0  0  0  0  0  0  0  0
  138.2526  138.1280  152.5594 H   0  0  0  0  0  0  0  0  0  0  0  0
  1  2  1  0  0  0  0
  1 21  1  0  0  0  0
  1 22  1  0  0  0  0
  1 23  1  0  0  0  0
  2  3  1  0  0  0  0
  3 18  1  0  0  0  0
  3  4  1  0  0  0  0
  3  5  1  0  0  0  0
  4 24  1  0  0  0  0
  4 25  1  0  0  0  0
  4 26  1  0  0  0  0
  5  6  1  0  0  0  0
  5 27  1  0  0  0  0
  5 28  1  0  0  0  0
  6  7  1  0  0  0  0
  6 18  1  0  0  0  0
  6 29  1  0  0  0  0
  7  8  1  0  0  0  0
  7 30  1  0  0  0  0
  8  9  2  0  0  0  0
  8 10  1  0  0  0  0
 10 11  1  0  0  0  0
 10 31  1  0  0  0  0
 11 17  1  0  0  0  0
 11 12  2  0  0  0  0
 12 13  1  0  0  0  0
 12 32  1  0  0  0  0
 13 14  2  0  0  0  0
 13 33  1  0  0  0  0
 14 15  1  0  0  0  0
 14 16  1  0  0  0  0
 16 17  2  0  0  0  0
 16 34  1  0  0  0  0
 18 19  1  0  0  0  0
 18 20  1  0  0  0  0
 19 35  1  0  0  0  0
 19 36  1  0  0  0  0
 19 37  1  0  0  0  0
 20 38  1  0  0  0  0
 20 39  1  0  0  0  0
 20 40  1  0  0  0  0
M  END
> <s_m_source_file>
AV-unprocessed.smi

> <i_m_source_file_index>
2416

> <i_lp_mmshare_version>
43012

> <i_f3d_flags>
0

> <s_epik_input>
W0NIM11PW0NAQF0xKFtDSDNdKVtDSDJdW0NASF0oQzEoW0NIM10pW0NIM10pW05IXUMoPU8pW05IXWMyW2NIXVtjSF1jKEYpW2NIXW4y

> <s_epik_cmdline>
J2VwaWtfcHl0aG9uJywgJy1waCcsICc3LjAnLCAnLXRuJywgJzgnLCAnLW1hJywgJzIwMCcsICctbWV0YWxfYmluZGluZycsICctaW1hZScsICc8aW5maWxlLm1hZT4nLCAnLW9tYWUnLCAnPG91dGZpbGUubWFlPic=

> <r_lp_tautomer_probability>
1

> <r_epik_Ionization_Penalty>
3.67756e-05

> <r_epik_Ionization_Penalty_Charging>
0

> <r_epik_Ionization_Penalty_Neutral>
3.67756e-05

> <r_epik_State_Penalty>
-0

> <r_epik_Charging_Adjusted_Penalty>
0

> <i_epik_Tot_Q>
0

> <i_epik_Tot_abs_Q>
0

> <r_epik_Metal_State_Penalty>
-0

> <b_epik_Metal_Only>
0

> <s_lp_Force_Field>
OPLS_2005

> <r_lp_Energy>
27.4539

> <b_lp_Chiralities_Consistent>
1

> <s_lp_Variant>
AV-unprocessed.smi:2416-3

> <Gold.Version>
5.8.1

> <Gold.Id.Protein>
6NUR|6NUR_protein|mol2

> <Gold.PLP.Fitness>
35.4852

> <Gold.PLP.PLP>
-30.9972

> <Gold.PLP.part.hbond>
-2.0000

> <Gold.PLP.part.metal>
0.0000

> <Gold.PLP.part.buried>
-3.4491

> <Gold.PLP.part.nonpolar>
-25.0565

> <Gold.PLP.part.repulsive>
0.3359

> <Gold.PLP.ligand.clash>
0.0000

> <Gold.PLP.ligand.torsion>
0.3394

> <Gold.PLP.Chemscore.Hbond>
1.5980

> <Gold.PLP.Chemscore.CHOScore>
0.0000

> <Gold.PLP.Chemscore.Metal>
0.0000

> <Gold.Chemscore.Hbonds>
donor molecule, donor type, donor heavy atom, donor atom, acceptor molecule, acceptor atom, score
      L1  H     7    30       P1 10175  1.00
      L1  H    10    31       P1 10171  0.56

> <Gold.PLP.Chemscore.Internal.Correction>
0.3729

> <Gold.Rescore>
     Score         DG    S(hbond)    S(metal)    S(lipo)     H(rot)  DE(clash)    DE(int)     intcor
     13.94     -15.45       1.68        0.00      65.03       1.27       0.08       1.43       ----

> <Gold.Chemscore.Fitness>
13.9356

> <Gold.Chemscore.DG>
-15.4510

> <Gold.Chemscore.ZeroCoef>
-5.4800

> <Gold.Chemscore.Hbond>
1.6772

> <Gold.Chemscore.Metal>
0.0000

> <Gold.Chemscore.Lipo>
65.0296

> <Gold.Chemscore.Internal_Hbond>
0.0000

> <Gold.Chemscore.DEClash>
0.0838

> <Gold.Chemscore.DEInternal>
1.4316

> <Gold.Chemscore.Rot>
1.2653

> <Gold.Chemscore.Internal.Correction>
   9.000000E+99

> <Gold.Chemscore.Hbonds>
donor molecule, donor type, donor heavy atom, donor atom, acceptor molecule, acceptor atom, score
      L1  H     7    30       P1 10175  0.98
      L1  H    10    31       P1 10171  0.54

> <Gold.Chemscore.Hbond.Weighted>
-5.6018

> <Gold.Chemscore.Metal.Weighted>
-0.0000

> <Gold.Chemscore.Lipo.Weighted>
-7.6085

> <Gold.Chemscore.Internal_Hbond.Weighted>
0.0000

> <Gold.Chemscore.DEClash.Weighted>
0.0838

> <Gold.Chemscore.DEInternal.Weighted>
1.4316

> <Gold.Chemscore.Rot.Weighted>
3.2392

> <Gold.Chemscore.Internal.Correction.Weighted>
   9.000000E+99

> <Gold.Protein.RotatedTorsions>
[ 6907 6896 6895 6894 ] final -101.52 input  -60.11 | X-H torsion
[ 7974 7965 7964 7962 ] final  120.64 input  175.53 | X-H torsion
[ 8008 7997 7996 7995 ] final  158.19 input   59.86 | X-H torsion
[ 10167 10162 10161 10158 ] final  149.81 input  -65.29 | X-H torsion
[ 10718 10713 10712 10709 ] final  124.02 input   66.30 | X-H torsion
[ 10763 10752 10751 10750 ] final  -98.79 input  -60.55 | X-H torsion
[ 11005 11000 10999 10996 ] final   96.56 input  -57.11 | X-H torsion

> <Gold.Protein.ActiveResidues>
 VAL166  LYS551  ARG553  GLY616  TRP617  ASP618  TYR619  PRO620  LYS621  CYS622 
 ASP623  PHE694  ASN695  SER759  ASP760  ASP761  ALA762  ILE779  LEU786  VAL792 
 PHE793  MET794  SER795  GLU796  ALA797  LYS798  CYS799  TRP800  GLU811  SER814 

> <Gold.Protein.RotatedAtoms>
  150.7158  134.0722  159.3868 H   0  0  0  0  0  0  0  0  0  0  0  0  # atno 6907 bound_to 6896
  151.8704  135.0489  160.0488 H   0  0  0  0  0  0  0  0  0  0  0  0  # atno 6908 bound_to 6896
  152.2647  133.5293  159.5439 H   0  0  0  0  0  0  0  0  0  0  0  0  # atno 6909 bound_to 6896
  145.1287  139.3341  143.4676 H   0  0  0  0  0  0  0  0  0  0  0  0  # atno 7974 bound_to 7965
  156.2318  140.1865  156.7222 H   0  0  0  0  0  0  0  0  0  0  0  0  # atno 8008 bound_to 7997
  154.6036  140.0632  156.9429 H   0  0  0  0  0  0  0  0  0  0  0  0  # atno 8009 bound_to 7997
  155.2133  140.3301  155.4328 H   0  0  0  0  0  0  0  0  0  0  0  0  # atno 8010 bound_to 7997
  139.4857  144.5572  151.7296 H   0  0  0  0  0  0  0  0  0  0  0  0  # atno 10167 bound_to 10162
  157.5618  131.1089  150.8524 H   0  0  0  0  0  0  0  0  0  0  0  0  # atno 10718 bound_to 10713
  154.7444  135.4996  153.9178 H   0  0  0  0  0  0  0  0  0  0  0  0  # atno 10763 bound_to 10752
  153.1076  135.6701  153.9566 H   0  0  0  0  0  0  0  0  0  0  0  0  # atno 10764 bound_to 10752
  153.9334  135.3075  155.3424 H   0  0  0  0  0  0  0  0  0  0  0  0  # atno 10765 bound_to 10752
  139.8781  134.8957  156.4176 H   0  0  0  0  0  0  0  0  0  0  0  0  # atno 11005 bound_to 11000
  146.3515  140.1277  142.8598 LP  0  0  0  0  0  0  0  0  0  0  0  0  # atno 17320 bound_to 7965
  145.0659  140.9121  143.4911 LP  0  0  0  0  0  0  0  0  0  0  0  0  # atno 17321 bound_to 7965
  140.5136  144.0988  150.6002 LP  0  0  0  0  0  0  0  0  0  0  0  0  # atno 17342 bound_to 10162
  140.3922  143.2746  152.0047 LP  0  0  0  0  0  0  0  0  0  0  0  0  # atno 17343 bound_to 10162
  156.9020  130.5250  149.5282 LP  0  0  0  0  0  0  0  0  0  0  0  0  # atno 17370 bound_to 10713
  156.0670  130.5711  150.9308 LP  0  0  0  0  0  0  0  0  0  0  0  0  # atno 17371 bound_to 10713
  140.9156  133.7681  155.9844 LP  0  0  0  0  0  0  0  0  0  0  0  0  # atno 17394 bound_to 11000
  140.8497  134.2968  157.5280 LP  0  0  0  0  0  0  0  0  0  0  0  0  # atno 17395 bound_to 11000

$$$$
