AV-unprocessed.smi:3140|AV-procd|sdf|11961|dock6
  -GOLD-   2272017363D 1   1.00000     0.00000
 Structure written by MMmdl.
 37 38  0  0  0  0  0  0  0  0  1 V2000
  147.3710  141.6999  155.6489 C   0  0  0  0  0  0  0  0  0  0  0  0
  148.7226  140.9864  155.8282 C   0  0  1  0  0  0  0  0  0  0  0  0
  148.9901  140.0129  154.6624 C   0  0  0  0  0  0  0  0  0  0  0  0
  150.2184  139.2572  154.8396 N   0  0  0  0  0  0  0  0  0  0  0  0
  150.4184  137.9022  154.6791 C   0  0  0  0  0  0  0  0  0  0  0  0
  151.7316  137.6490  154.9542 C   0  0  0  0  0  0  0  0  0  0  0  0
  152.2623  138.9299  155.2740 C   0  0  0  0  0  0  0  0  0  0  0  0
  151.3554  139.8909  155.2015 N   0  0  0  0  0  0  0  0  0  0  0  0
  149.8028  141.9661  155.8850 N   0  0  0  0  0  0  0  0  0  0  0  0
  150.3624  142.1017  157.2209 C   0  0  0  0  0  0  0  0  0  0  0  0
  151.3839  143.2486  157.2304 C   0  0  0  0  0  0  0  0  0  0  0  0
  151.5732  143.7794  158.5770 N   0  0  0  0  0  0  0  0  0  0  0  0
  151.2634  145.1669  158.8781 C   0  0  0  0  0  0  0  0  0  0  0  0
  151.7776  145.3879  160.3081 C   0  0  0  0  0  0  0  0  0  0  0  0
  152.0410  143.9893  160.8772 C   0  0  0  0  0  0  0  0  0  0  0  0
  151.9846  143.0944  159.6506 C   0  0  0  0  0  0  0  0  0  0  0  0
  152.2841  141.9015  159.6803 O   0  0  0  0  0  0  0  0  0  0  0  0
  146.5607  140.9763  155.5572 H   0  0  0  0  0  0  0  0  0  0  0  0
  147.3630  142.3176  154.7500 H   0  0  0  0  0  0  0  0  0  0  0  0
  147.1297  142.3403  156.4968 H   0  0  0  0  0  0  0  0  0  0  0  0
  148.7040  140.4129  156.7561 H   0  0  0  0  0  0  0  0  0  0  0  0
  148.1731  139.2948  154.5839 H   0  0  0  0  0  0  0  0  0  0  0  0
  149.0251  140.5454  153.7101 H   0  0  0  0  0  0  0  0  0  0  0  0
  149.6170  137.2394  154.3879 H   0  0  0  0  0  0  0  0  0  0  0  0
  152.2362  136.6945  154.9302 H   0  0  0  0  0  0  0  0  0  0  0  0
  153.2734  139.1884  155.5528 H   0  0  0  0  0  0  0  0  0  0  0  0
  149.4838  142.8597  155.5385 H   0  0  0  0  0  0  0  0  0  0  0  0
  149.5713  142.3010  157.9430 H   0  0  0  0  0  0  0  0  0  0  0  0
  150.8464  141.1686  157.5117 H   0  0  0  0  0  0  0  0  0  0  0  0
  152.3423  142.9002  156.8420 H   0  0  0  0  0  0  0  0  0  0  0  0
  151.0573  144.0540  156.5701 H   0  0  0  0  0  0  0  0  0  0  0  0
  151.7388  145.8440  158.1672 H   0  0  0  0  0  0  0  0  0  0  0  0
  150.1841  145.3144  158.8230 H   0  0  0  0  0  0  0  0  0  0  0  0
  152.7064  145.9595  160.2877 H   0  0  0  0  0  0  0  0  0  0  0  0
  151.0622  145.9467  160.9122 H   0  0  0  0  0  0  0  0  0  0  0  0
  153.0084  143.9222  161.3756 H   0  0  0  0  0  0  0  0  0  0  0  0
  151.2621  143.6918  161.5798 H   0  0  0  0  0  0  0  0  0  0  0  0
  1  2  1  0  0  0  0
  1 18  1  0  0  0  0
  1 19  1  0  0  0  0
  1 20  1  0  0  0  0
  2  3  1  0  0  0  0
  2  9  1  0  0  0  0
  2 21  1  0  0  0  0
  3  4  1  0  0  0  0
  3 22  1  0  0  0  0
  3 23  1  0  0  0  0
  4  8  1  0  0  0  0
  4  5  1  0  0  0  0
  5  6  2  0  0  0  0
  5 24  1  0  0  0  0
  6  7  1  0  0  0  0
  6 25  1  0  0  0  0
  7  8  2  0  0  0  0
  7 26  1  0  0  0  0
  9 10  1  0  0  0  0
  9 27  1  0  0  0  0
 10 11  1  0  0  0  0
 10 28  1  0  0  0  0
 10 29  1  0  0  0  0
 11 12  1  0  0  0  0
 11 30  1  0  0  0  0
 11 31  1  0  0  0  0
 12 16  1  0  0  0  0
 12 13  1  0  0  0  0
 13 14  1  0  0  0  0
 13 32  1  0  0  0  0
 13 33  1  0  0  0  0
 14 15  1  0  0  0  0
 14 34  1  0  0  0  0
 14 35  1  0  0  0  0
 15 16  1  0  0  0  0
 15 36  1  0  0  0  0
 15 37  1  0  0  0  0
 16 17  2  0  0  0  0
M  END
> <s_m_source_file>
AV-unprocessed.smi

> <i_m_source_file_index>
3140

> <i_lp_mmshare_version>
43012

> <i_f3d_flags>
0

> <s_epik_input>
bjFbY0hdW2NIXVtjSF1uMVtDSDJdW0NAQEhdKFtDSDNdKVtOSF1bQ0gyXVtDSDJdTjJbQ0gyXVtDSDJdW0NIMl1DMj1P

> <s_epik_cmdline>
J2VwaWtfcHl0aG9uJywgJy1waCcsICc3LjAnLCAnLXRuJywgJzgnLCAnLW1hJywgJzIwMCcsICctbWV0YWxfYmluZGluZycsICctaW1hZScsICc8aW5maWxlLm1hZT4nLCAnLW9tYWUnLCAnPG91dGZpbGUubWFlPic=

> <r_lp_tautomer_probability>
1

> <r_epik_Ionization_Penalty>
2.53587

> <r_epik_Ionization_Penalty_Charging>
0

> <r_epik_Ionization_Penalty_Neutral>
2.53587

> <r_epik_State_Penalty>
2.70334

> <r_epik_Charging_Adjusted_Penalty>
2.70334

> <i_epik_Tot_Q>
0

> <i_epik_Tot_abs_Q>
0

> <r_epik_Metal_State_Penalty>
2.7033

> <b_epik_Metal_Only>
0

> <s_lp_Force_Field>
OPLS_2005

> <r_lp_Energy>
20.5339

> <b_lp_Chiralities_Consistent>
1

> <s_lp_Variant>
AV-unprocessed.smi:3140-4

> <Gold.Version>
5.8.1

> <Gold.Id.Protein>
6NUR|6NUR_protein|mol2

> <Gold.PLP.Fitness>
49.8861

> <Gold.PLP.PLP>
-42.9185

> <Gold.PLP.part.hbond>
-2.0000

> <Gold.PLP.part.metal>
0.0000

> <Gold.PLP.part.buried>
-5.2787

> <Gold.PLP.part.nonpolar>
-37.3250

> <Gold.PLP.part.repulsive>
0.0590

> <Gold.PLP.ligand.clash>
0.0000

> <Gold.PLP.ligand.torsion>
0.9706

> <Gold.PLP.Chemscore.Hbond>
1.9500

> <Gold.PLP.Chemscore.CHOScore>
1.0000

> <Gold.PLP.Chemscore.Metal>
0.0000

> <Gold.Chemscore.Hbonds>
donor molecule, donor type, donor heavy atom, donor atom, acceptor molecule, acceptor atom, score
      L1  H     9    27       P1  8028  1.00
      P1  H  7989  7998       L1     8  0.85
      L1  C     5    24       P1  7948  0.38

> <Gold.PLP.Chemscore.Internal.Correction>
0.0588

> <Gold.Rescore>
     Score         DG    S(hbond)    S(metal)    S(lipo)     H(rot)  DE(clash)    DE(int)     intcor
     12.54     -15.28       0.99        0.00      98.67       1.97       0.39       2.35       ----

> <Gold.Chemscore.Fitness>
12.5419

> <Gold.Chemscore.DG>
-15.2778

> <Gold.Chemscore.ZeroCoef>
-5.4800

> <Gold.Chemscore.Hbond>
0.9885

> <Gold.Chemscore.Metal>
0.0000

> <Gold.Chemscore.Lipo>
98.6745

> <Gold.Chemscore.Internal_Hbond>
0.0000

> <Gold.Chemscore.DEClash>
0.3855

> <Gold.Chemscore.DEInternal>
2.3505

> <Gold.Chemscore.Rot>
1.9722

> <Gold.Chemscore.Internal.Correction>
   9.000000E+99

> <Gold.Chemscore.Hbonds>
donor molecule, donor type, donor heavy atom, donor atom, acceptor molecule, acceptor atom, score
      L1  H     9    27       P1  8028  0.98
      P1  H  7989  7998       L1     8  0.09

> <Gold.Chemscore.Hbond.Weighted>
-3.3017

> <Gold.Chemscore.Metal.Weighted>
-0.0000

> <Gold.Chemscore.Lipo.Weighted>
-11.5449

> <Gold.Chemscore.Internal_Hbond.Weighted>
0.0000

> <Gold.Chemscore.DEClash.Weighted>
0.3855

> <Gold.Chemscore.DEInternal.Weighted>
2.3505

> <Gold.Chemscore.Rot.Weighted>
5.0487

> <Gold.Chemscore.Internal.Correction.Weighted>
   9.000000E+99

> <Gold.Protein.RotatedTorsions>
[ 6907 6896 6895 6894 ] final  -12.10 input  -60.11 | X-H torsion
[ 7974 7965 7964 7962 ] final   68.08 input  175.53 | X-H torsion
[ 8008 7997 7996 7995 ] final   49.35 input   59.86 | X-H torsion
[ 10167 10162 10161 10158 ] final -168.75 input  -65.29 | X-H torsion
[ 10718 10713 10712 10709 ] final   84.60 input   66.30 | X-H torsion
[ 10763 10752 10751 10750 ] final  -70.58 input  -60.55 | X-H torsion
[ 11005 11000 10999 10996 ] final  134.42 input  -57.11 | X-H torsion

> <Gold.Protein.ActiveResidues>
 VAL166  LYS551  ARG553  GLY616  TRP617  ASP618  TYR619  PRO620  LYS621  CYS622 
 ASP623  PHE694  ASN695  SER759  ASP760  ASP761  ALA762  ILE779  LEU786  VAL792 
 PHE793  MET794  SER795  GLU796  ALA797  LYS798  CYS799  TRP800  GLU811  SER814 

> <Gold.Protein.RotatedAtoms>
  151.3758  135.0931  159.9480 H   0  0  0  0  0  0  0  0  0  0  0  0  # atno 6907 bound_to 6896
  152.5122  133.9120  159.7503 H   0  0  0  0  0  0  0  0  0  0  0  0  # atno 6908 bound_to 6896
  150.9543  133.6460  159.2795 H   0  0  0  0  0  0  0  0  0  0  0  0  # atno 6909 bound_to 6896
  145.8069  139.3011  143.1122 H   0  0  0  0  0  0  0  0  0  0  0  0  # atno 7974 bound_to 7965
  155.4007  140.3438  155.4257 H   0  0  0  0  0  0  0  0  0  0  0  0  # atno 8008 bound_to 7997
  156.1505  140.1569  156.8810 H   0  0  0  0  0  0  0  0  0  0  0  0  # atno 8009 bound_to 7997
  154.5048  140.0805  156.7853 H   0  0  0  0  0  0  0  0  0  0  0  0  # atno 8010 bound_to 7997
  139.5965  144.1100  152.1695 H   0  0  0  0  0  0  0  0  0  0  0  0  # atno 10167 bound_to 10162
  157.6901  131.0140  150.2696 H   0  0  0  0  0  0  0  0  0  0  0  0  # atno 10718 bound_to 10713
  154.4197  135.5989  153.6002 H   0  0  0  0  0  0  0  0  0  0  0  0  # atno 10763 bound_to 10752
  152.9793  135.5949  154.3970 H   0  0  0  0  0  0  0  0  0  0  0  0  # atno 10764 bound_to 10752
  154.3794  135.2841  155.2198 H   0  0  0  0  0  0  0  0  0  0  0  0  # atno 10765 bound_to 10752
  139.9914  134.9513  156.9865 H   0  0  0  0  0  0  0  0  0  0  0  0  # atno 11005 bound_to 11000
  145.9819  140.8675  143.0110 LP  0  0  0  0  0  0  0  0  0  0  0  0  # atno 17320 bound_to 7965
  144.6762  140.2092  143.7379 LP  0  0  0  0  0  0  0  0  0  0  0  0  # atno 17321 bound_to 7965
  140.0687  144.5797  150.7208 LP  0  0  0  0  0  0  0  0  0  0  0  0  # atno 17342 bound_to 10162
  140.7216  143.2594  151.4259 LP  0  0  0  0  0  0  0  0  0  0  0  0  # atno 17343 bound_to 10162
  156.3261  130.3793  149.7531 LP  0  0  0  0  0  0  0  0  0  0  0  0  # atno 17370 bound_to 10713
  156.5086  130.8161  151.3160 LP  0  0  0  0  0  0  0  0  0  0  0  0  # atno 17371 bound_to 10713
  140.4901  134.1202  155.7231 LP  0  0  0  0  0  0  0  0  0  0  0  0  # atno 17394 bound_to 11000
  141.1569  133.8866  157.1953 LP  0  0  0  0  0  0  0  0  0  0  0  0  # atno 17395 bound_to 11000

$$$$
