AV-unprocessed.smi:1749|AV-procd|sdf|7049|dock7
  -GOLD-   22720 8263D 1   1.00000     0.00000
 Structure written by MMmdl.
 31 32  0  0  0  0  0  0  0  0  2 V2000
  151.9606  145.3924  159.8708 C   0  0  0  0  0  0  0  0  0  0  0  0
  152.1635  144.1041  159.0608 C   0  0  1  0  0  0  0  0  0  0  0  0
  152.2202  142.8655  159.9753 C   0  0  0  0  0  0  0  0  0  0  0  0
  152.4272  141.5770  159.1641 C   0  0  0  0  0  0  0  0  0  0  0  0
  151.3392  141.4134  158.0924 C   0  0  0  0  0  0  0  0  0  0  0  0
  151.2745  142.6417  157.1668 C   0  0  1  0  0  0  0  0  0  0  0  0
  150.1942  142.4615  156.2012 N   0  0  0  0  0  0  0  0  0  0  0  0
  150.0599  141.4428  155.3292 C   0  0  0  0  0  0  0  0  0  0  0  0
  150.9251  140.5686  155.2961 O   0  0  0  0  0  0  0  0  0  0  0  0
  148.9642  141.4364  154.5246 N   0  5  0  0  0  0  0  0  0  0  0  0
  147.7477  141.8224  154.9521 C   0  0  0  0  0  0  0  0  0  0  0  0
  147.3885  141.7750  156.2450 N   0  0  0  0  0  0  0  0  0  0  0  0
  146.0902  142.2136  156.4673 N   0  0  0  0  0  0  0  0  0  0  0  0
  145.5044  142.5929  155.3320 C   0  0  0  0  0  0  0  0  0  0  0  0
  146.4851  142.4489  153.8888 S   0  0  0  0  0  0  0  0  0  0  0  0
  151.0707  143.9329  157.9872 C   0  0  0  0  0  0  0  0  0  0  0  0
  151.0141  145.3767  160.4117 H   0  0  0  0  0  0  0  0  0  0  0  0
  151.9582  146.2675  159.2203 H   0  0  0  0  0  0  0  0  0  0  0  0
  152.7593  145.5268  160.6005 H   0  0  0  0  0  0  0  0  0  0  0  0
  153.1235  144.1877  158.5492 H   0  0  0  0  0  0  0  0  0  0  0  0
  153.0266  142.9733  160.7013 H   0  0  0  0  0  0  0  0  0  0  0  0
  151.2958  142.7880  160.5496 H   0  0  0  0  0  0  0  0  0  0  0  0
  153.4084  141.5976  158.6880 H   0  0  0  0  0  0  0  0  0  0  0  0
  152.4248  140.7139  159.8302 H   0  0  0  0  0  0  0  0  0  0  0  0
  151.5320  140.5135  157.5071 H   0  0  0  0  0  0  0  0  0  0  0  0
  150.3731  141.2651  158.5779 H   0  0  0  0  0  0  0  0  0  0  0  0
  152.2214  142.7095  156.6278 H   0  0  0  0  0  0  0  0  0  0  0  0
  149.4739  143.1687  156.1962 H   0  0  0  0  0  0  0  0  0  0  0  0
  144.4895  142.9610  155.3441 H   0  0  0  0  0  0  0  0  0  0  0  0
  150.0891  143.9140  158.4635 H   0  0  0  0  0  0  0  0  0  0  0  0
  151.0729  144.7985  157.3234 H   0  0  0  0  0  0  0  0  0  0  0  0
  1  2  1  0  0  0  0
  1 17  1  0  0  0  0
  1 18  1  0  0  0  0
  1 19  1  0  0  0  0
  2 16  1  0  0  0  0
  2  3  1  0  0  0  0
  2 20  1  0  0  0  0
  3  4  1  0  0  0  0
  3 21  1  0  0  0  0
  3 22  1  0  0  0  0
  4  5  1  0  0  0  0
  4 23  1  0  0  0  0
  4 24  1  0  0  0  0
  5  6  1  0  0  0  0
  5 25  1  0  0  0  0
  5 26  1  0  0  0  0
  6  7  1  0  0  0  0
  6 16  1  0  0  0  0
  6 27  1  0  0  0  0
  7  8  1  0  0  0  0
  7 28  1  0  0  0  0
  8  9  2  0  0  0  0
  8 10  1  0  0  0  0
 10 11  1  0  0  0  0
 11 15  1  0  0  0  0
 11 12  2  0  0  0  0
 12 13  1  0  0  0  0
 13 14  2  0  0  0  0
 14 15  1  0  0  0  0
 14 29  1  0  0  0  0
 16 30  1  0  0  0  0
 16 31  1  0  0  0  0
M  CHG  1  10  -1
M  END
> <s_m_source_file>
AV-unprocessed.smi

> <i_m_source_file_index>
1749

> <i_lp_mmshare_version>
43012

> <i_f3d_flags>
0

> <s_epik_input>
W0NIM11bQ0BASF0xW0NIMl1bQ0gyXVtDSDJdW0NASF0oW0NIMl0xKVtOSF1DKD1PKVtOSF1jMm5uW2NIXXMy

> <s_epik_cmdline>
J2VwaWtfcHl0aG9uJywgJy1waCcsICc3LjAnLCAnLXRuJywgJzgnLCAnLW1hJywgJzIwMCcsICctbWV0YWxfYmluZGluZycsICctaW1hZScsICc8aW5maWxlLm1hZT4nLCAnLW9tYWUnLCAnPG91dGZpbGUubWFlPic=

> <r_lp_tautomer_probability>
1

> <r_epik_Ionization_Penalty>
4.55442

> <r_epik_Ionization_Penalty_Charging>
4.5081

> <r_epik_Ionization_Penalty_Neutral>
0.0463156

> <r_epik_State_Penalty>
4.50781

> <r_epik_Charging_Adjusted_Penalty>
9.01591

> <i_epik_Tot_Q>
-1

> <i_epik_Tot_abs_Q>
1

> <r_epik_Metal_State_Penalty>
0.823335

> <b_epik_Metal_Only>
1

> <s_lp_Force_Field>
OPLS_2005

> <r_lp_Energy>
8.86437

> <b_lp_Chiralities_Consistent>
1

> <s_lp_Variant>
AV-unprocessed.smi:1749-6

> <Gold.Version>
5.8.1

> <Gold.Id.Protein>
6NUR|6NUR_protein|mol2

> <Gold.PLP.Fitness>
40.5755

> <Gold.PLP.PLP>
-35.5927

> <Gold.PLP.part.hbond>
-2.2059

> <Gold.PLP.part.metal>
0.0000

> <Gold.PLP.part.buried>
-4.4704

> <Gold.PLP.part.nonpolar>
-28.6934

> <Gold.PLP.part.repulsive>
0.5351

> <Gold.PLP.ligand.clash>
0.0000

> <Gold.PLP.ligand.torsion>
0.4285

> <Gold.PLP.Chemscore.Hbond>
1.9440

> <Gold.PLP.Chemscore.CHOScore>
0.0000

> <Gold.PLP.Chemscore.Metal>
0.0000

> <Gold.Chemscore.Hbonds>
donor molecule, donor type, donor heavy atom, donor atom, acceptor molecule, acceptor atom, score
      L1  H     7    28       P1  8028  0.99
      P1  H  7989  7998       L1     9  0.90

> <Gold.PLP.Chemscore.Internal.Correction>
0.0078

> <Gold.Rescore>
     Score         DG    S(hbond)    S(metal)    S(lipo)     H(rot)  DE(clash)    DE(int)     intcor
     15.29     -18.11       1.53        0.00      86.23       1.00       0.08       2.74       ----

> <Gold.Chemscore.Fitness>
15.2947

> <Gold.Chemscore.DG>
-18.1138

> <Gold.Chemscore.ZeroCoef>
-5.4800

> <Gold.Chemscore.Hbond>
1.5283

> <Gold.Chemscore.Metal>
0.0000

> <Gold.Chemscore.Lipo>
86.2323

> <Gold.Chemscore.Internal_Hbond>
0.0000

> <Gold.Chemscore.DEClash>
0.0758

> <Gold.Chemscore.DEInternal>
2.7433

> <Gold.Chemscore.Rot>
1.0000

> <Gold.Chemscore.Internal.Correction>
   9.000000E+99

> <Gold.Chemscore.Hbonds>
donor molecule, donor type, donor heavy atom, donor atom, acceptor molecule, acceptor atom, score
      L1  H     7    28       P1  8028  0.94
      P1  H  7989  7998       L1     9  0.19

> <Gold.Chemscore.Hbond.Weighted>
-5.1046

> <Gold.Chemscore.Metal.Weighted>
-0.0000

> <Gold.Chemscore.Lipo.Weighted>
-10.0892

> <Gold.Chemscore.Internal_Hbond.Weighted>
0.0000

> <Gold.Chemscore.DEClash.Weighted>
0.0758

> <Gold.Chemscore.DEInternal.Weighted>
2.7433

> <Gold.Chemscore.Rot.Weighted>
2.5600

> <Gold.Chemscore.Internal.Correction.Weighted>
   9.000000E+99

> <Gold.Protein.RotatedTorsions>
[ 6907 6896 6895 6894 ] final  146.69 input  -60.11 | X-H torsion
[ 7974 7965 7964 7962 ] final -155.29 input  175.53 | X-H torsion
[ 8008 7997 7996 7995 ] final -164.39 input   59.86 | X-H torsion
[ 10167 10162 10161 10158 ] final  -43.28 input  -65.29 | X-H torsion
[ 10718 10713 10712 10709 ] final   28.46 input   66.30 | X-H torsion
[ 10763 10752 10751 10750 ] final  -20.63 input  -60.55 | X-H torsion
[ 11005 11000 10999 10996 ] final  150.24 input  -57.11 | X-H torsion

> <Gold.Protein.ActiveResidues>
 VAL166  LYS551  ARG553  GLY616  TRP617  ASP618  TYR619  PRO620  LYS621  CYS622 
 ASP623  PHE694  ASN695  SER759  ASP760  ASP761  ALA762  ILE779  LEU786  VAL792 
 PHE793  MET794  SER795  GLU796  ALA797  LYS798  CYS799  TRP800  GLU811  SER814 

> <Gold.Protein.RotatedAtoms>
  152.1646  133.4604  159.4877 H   0  0  0  0  0  0  0  0  0  0  0  0  # atno 6907 bound_to 6896
  150.6911  134.2029  159.4338 H   0  0  0  0  0  0  0  0  0  0  0  0  # atno 6908 bound_to 6896
  151.9933  134.9967  160.0613 H   0  0  0  0  0  0  0  0  0  0  0  0  # atno 6909 bound_to 6896
  144.7647  140.4269  143.5950 H   0  0  0  0  0  0  0  0  0  0  0  0  # atno 7974 bound_to 7965
  155.8350  140.0939  157.1769 H   0  0  0  0  0  0  0  0  0  0  0  0  # atno 8008 bound_to 7997
  154.3980  140.1412  156.3720 H   0  0  0  0  0  0  0  0  0  0  0  0  # atno 8009 bound_to 7997
  155.8126  140.3449  155.5469 H   0  0  0  0  0  0  0  0  0  0  0  0  # atno 8010 bound_to 7997
  140.6939  143.2991  151.3329 H   0  0  0  0  0  0  0  0  0  0  0  0  # atno 10167 bound_to 10162
  157.2337  130.7036  149.6325 H   0  0  0  0  0  0  0  0  0  0  0  0  # atno 10718 bound_to 10713
  153.6235  135.6992  153.5302 H   0  0  0  0  0  0  0  0  0  0  0  0  # atno 10763 bound_to 10752
  153.2918  135.4155  155.1173 H   0  0  0  0  0  0  0  0  0  0  0  0  # atno 10764 bound_to 10752
  154.8538  135.3627  154.5776 H   0  0  0  0  0  0  0  0  0  0  0  0  # atno 10765 bound_to 10752
  140.1114  134.8921  157.1942 H   0  0  0  0  0  0  0  0  0  0  0  0  # atno 11005 bound_to 11000
  145.6507  139.1564  143.2863 LP  0  0  0  0  0  0  0  0  0  0  0  0  # atno 17320 bound_to 7965
  146.1744  140.6596  142.9218 LP  0  0  0  0  0  0  0  0  0  0  0  0  # atno 17321 bound_to 7965
  139.6373  144.0607  152.2526 LP  0  0  0  0  0  0  0  0  0  0  0  0  # atno 17342 bound_to 10162
  140.0101  144.6230  150.7655 LP  0  0  0  0  0  0  0  0  0  0  0  0  # atno 17343 bound_to 10162
  155.9674  130.4480  150.5604 LP  0  0  0  0  0  0  0  0  0  0  0  0  # atno 17370 bound_to 10713
  157.3451  131.0723  151.1757 LP  0  0  0  0  0  0  0  0  0  0  0  0  # atno 17371 bound_to 10713
  140.3086  134.3050  155.7272 LP  0  0  0  0  0  0  0  0  0  0  0  0  # atno 17394 bound_to 11000
  141.2131  133.7636  156.9744 LP  0  0  0  0  0  0  0  0  0  0  0  0  # atno 17395 bound_to 11000

$$$$
