AV-unprocessed.smi:2520|AV-procd|sdf|9910|dock3
  -GOLD-   2272013543D 1   1.00000     0.00000
 Structure written by MMmdl.
 41 44  0  0  0  0  0  0  0  0  1 V2000
  147.4325  141.7402  159.1857 O   0  0  0  0  0  0  0  0  0  0  0  0
  147.5955  142.7335  158.4790 C   0  0  0  0  0  0  0  0  0  0  0  0
  146.7533  143.7860  158.5511 N   0  0  0  0  0  0  0  0  0  0  0  0
  145.5992  144.0126  159.3564 C   0  0  0  0  0  0  0  0  0  0  0  0
  145.6603  143.4495  160.6492 C   0  0  0  0  0  0  0  0  0  0  0  0
  144.5669  143.6344  161.5126 C   0  0  0  0  0  0  0  0  0  0  0  0
  143.4792  144.3772  161.0235 C   0  0  0  0  0  0  0  0  0  0  0  0
  143.4628  144.9036  159.7801 N   0  0  0  0  0  0  0  0  0  0  0  0
  144.5079  144.7235  158.9656 N   0  0  0  0  0  0  0  0  0  0  0  0
  148.6034  142.8397  157.5990 N   0  0  0  0  0  0  0  0  0  0  0  0
  149.6411  141.8367  157.3949 C   0  0  1  0  0  0  0  0  0  0  0  0
  150.0602  141.7211  155.9202 C   0  0  2  0  0  0  0  0  0  0  0  0
  149.7855  140.4521  155.1610 C   0  0  0  0  0  0  0  0  0  0  0  0
  151.1005  139.6797  155.3007 C   0  0  0  0  0  0  0  0  0  0  0  0
  151.7285  140.2420  156.4508 O   0  0  0  0  0  0  0  0  0  0  0  0
  151.4949  141.6480  156.4218 C   0  0  2  0  0  0  0  0  0  0  0  0
  151.0700  142.3126  157.7482 C   0  0  0  0  0  0  0  0  0  0  0  0
  151.7174  141.7969  159.0307 C   0  0  0  0  0  0  0  0  0  0  0  0
  152.9478  142.6691  159.3062 C   0  0  0  0  0  0  0  0  0  0  0  0
  152.7647  143.9324  158.4591 C   0  0  0  0  0  0  0  0  0  0  0  0
  151.3670  143.8114  157.8516 C   0  0  0  0  0  0  0  0  0  0  0  0
  146.9485  144.5216  157.8877 H   0  0  0  0  0  0  0  0  0  0  0  0
  146.5236  142.8871  160.9741 H   0  0  0  0  0  0  0  0  0  0  0  0
  144.5622  143.2231  162.5111 H   0  0  0  0  0  0  0  0  0  0  0  0
  142.6089  144.5539  161.6378 H   0  0  0  0  0  0  0  0  0  0  0  0
  148.6684  143.6859  157.0510 H   0  0  0  0  0  0  0  0  0  0  0  0
  149.4123  140.8616  157.8315 H   0  0  0  0  0  0  0  0  0  0  0  0
  149.8789  142.6393  155.3577 H   0  0  0  0  0  0  0  0  0  0  0  0
  148.9603  139.8997  155.6116 H   0  0  0  0  0  0  0  0  0  0  0  0
  149.5366  140.6341  154.1151 H   0  0  0  0  0  0  0  0  0  0  0  0
  150.9484  138.6059  155.4106 H   0  0  0  0  0  0  0  0  0  0  0  0
  151.7378  139.8481  154.4316 H   0  0  0  0  0  0  0  0  0  0  0  0
  152.2114  142.1993  155.8109 H   0  0  0  0  0  0  0  0  0  0  0  0
  151.0152  141.8916  159.8601 H   0  0  0  0  0  0  0  0  0  0  0  0
  151.9852  140.7418  158.9717 H   0  0  0  0  0  0  0  0  0  0  0  0
  153.0294  142.9043  160.3678 H   0  0  0  0  0  0  0  0  0  0  0  0
  153.8613  142.1506  159.0129 H   0  0  0  0  0  0  0  0  0  0  0  0
  152.8787  144.8459  159.0435 H   0  0  0  0  0  0  0  0  0  0  0  0
  153.5123  143.9528  157.6652 H   0  0  0  0  0  0  0  0  0  0  0  0
  151.3023  144.3215  156.8898 H   0  0  0  0  0  0  0  0  0  0  0  0
  150.6549  144.2997  158.5179 H   0  0  0  0  0  0  0  0  0  0  0  0
  1  2  2  0  0  0  0
  2  3  1  0  0  0  0
  2 10  1  0  0  0  0
  3  4  1  0  0  0  0
  3 22  1  0  0  0  0
  4  9  1  0  0  0  0
  4  5  2  0  0  0  0
  5  6  1  0  0  0  0
  5 23  1  0  0  0  0
  6  7  2  0  0  0  0
  6 24  1  0  0  0  0
  7  8  1  0  0  0  0
  7 25  1  0  0  0  0
  8  9  2  0  0  0  0
 10 11  1  0  0  0  0
 10 26  1  0  0  0  0
 11 17  1  0  0  0  0
 11 12  1  0  0  0  0
 11 27  1  0  0  0  0
 12 16  1  0  0  0  0
 12 13  1  0  0  0  0
 12 28  1  0  0  0  0
 13 14  1  0  0  0  0
 13 29  1  0  0  0  0
 13 30  1  0  0  0  0
 14 15  1  0  0  0  0
 14 31  1  0  0  0  0
 14 32  1  0  0  0  0
 15 16  1  0  0  0  0
 16 17  1  0  0  0  0
 16 33  1  0  0  0  0
 17 21  1  0  0  0  0
 17 18  1  0  0  0  0
 18 19  1  0  0  0  0
 18 34  1  0  0  0  0
 18 35  1  0  0  0  0
 19 20  1  0  0  0  0
 19 36  1  0  0  0  0
 19 37  1  0  0  0  0
 20 21  1  0  0  0  0
 20 38  1  0  0  0  0
 20 39  1  0  0  0  0
 21 40  1  0  0  0  0
 21 41  1  0  0  0  0
M  END
> <s_m_source_file>
AV-unprocessed.smi

> <i_m_source_file_index>
2520

> <i_lp_mmshare_version>
43012

> <i_f3d_flags>
0

> <s_epik_input>
bjFuW2NIXVtjSF1bY0hdYzFbTkhdQyg9TylbTkhdW0NAQEhdMltDQEBIXShbQ0gyXVtDSDJdTzMpW0NASF0zQzI0W0NIMl1bQ0gyXVtDSDJdW0NIMl00

> <s_epik_cmdline>
J2VwaWtfcHl0aG9uJywgJy1waCcsICc3LjAnLCAnLXRuJywgJzgnLCAnLW1hJywgJzIwMCcsICctbWV0YWxfYmluZGluZycsICctaW1hZScsICc8aW5maWxlLm1hZT4nLCAnLW9tYWUnLCAnPG91dGZpbGUubWFlPic=

> <r_lp_tautomer_probability>
1

> <r_epik_Ionization_Penalty>
0.00552561

> <r_epik_Ionization_Penalty_Charging>
0

> <r_epik_Ionization_Penalty_Neutral>
0.00552561

> <r_epik_State_Penalty>
-0

> <r_epik_Charging_Adjusted_Penalty>
0

> <i_epik_Tot_Q>
0

> <i_epik_Tot_abs_Q>
0

> <r_epik_Metal_State_Penalty>
-0

> <b_epik_Metal_Only>
0

> <s_lp_Force_Field>
OPLS_2005

> <r_lp_Energy>
61.147

> <b_lp_Chiralities_Consistent>
1

> <s_lp_Variant>
AV-unprocessed.smi:2520-4

> <Gold.Version>
5.8.1

> <Gold.Id.Protein>
6NUR|6NUR_protein|mol2

> <Gold.PLP.Fitness>
41.3803

> <Gold.PLP.PLP>
-35.2513

> <Gold.PLP.part.hbond>
-4.3216

> <Gold.PLP.part.metal>
0.0000

> <Gold.PLP.part.buried>
-2.5023

> <Gold.PLP.part.nonpolar>
-28.8142

> <Gold.PLP.part.repulsive>
0.2664

> <Gold.PLP.ligand.clash>
0.0000

> <Gold.PLP.ligand.torsion>
0.4035

> <Gold.PLP.Chemscore.Hbond>
2.2500

> <Gold.PLP.Chemscore.CHOScore>
0.0000

> <Gold.PLP.Chemscore.Metal>
0.0000

> <Gold.Chemscore.Hbonds>
donor molecule, donor type, donor heavy atom, donor atom, acceptor molecule, acceptor atom, score
      L1  H     3    22       P1  8029  1.00
      L1  H    10    26       P1  8028  0.85
      P1  H  6934  6946       L1     1  0.40

> <Gold.PLP.Chemscore.Internal.Correction>
0.1860

> <Gold.Rescore>
     Score         DG    S(hbond)    S(metal)    S(lipo)     H(rot)  DE(clash)    DE(int)     intcor
     17.23     -19.27       1.28        0.00     103.19       1.00       0.36       1.68       ----

> <Gold.Chemscore.Fitness>
17.2342

> <Gold.Chemscore.DG>
-19.2727

> <Gold.Chemscore.ZeroCoef>
-5.4800

> <Gold.Chemscore.Hbond>
1.2814

> <Gold.Chemscore.Metal>
0.0000

> <Gold.Chemscore.Lipo>
103.1871

> <Gold.Chemscore.Internal_Hbond>
0.0000

> <Gold.Chemscore.DEClash>
0.3581

> <Gold.Chemscore.DEInternal>
1.6804

> <Gold.Chemscore.Rot>
1.0000

> <Gold.Chemscore.Internal.Correction>
   9.000000E+99

> <Gold.Chemscore.Hbonds>
donor molecule, donor type, donor heavy atom, donor atom, acceptor molecule, acceptor atom, score
      L1  H     3    22       P1  8029  0.34
      L1  H    10    26       P1  8028  0.15
      P1  H  6934  6946       L1     1  0.40

> <Gold.Chemscore.Hbond.Weighted>
-4.2798

> <Gold.Chemscore.Metal.Weighted>
-0.0000

> <Gold.Chemscore.Lipo.Weighted>
-12.0729

> <Gold.Chemscore.Internal_Hbond.Weighted>
0.0000

> <Gold.Chemscore.DEClash.Weighted>
0.3581

> <Gold.Chemscore.DEInternal.Weighted>
1.6804

> <Gold.Chemscore.Rot.Weighted>
2.5600

> <Gold.Chemscore.Internal.Correction.Weighted>
   9.000000E+99

> <Gold.Protein.RotatedTorsions>
[ 6907 6896 6895 6894 ] final   79.34 input  -60.11 | X-H torsion
[ 7974 7965 7964 7962 ] final   56.05 input  175.53 | X-H torsion
[ 8008 7997 7996 7995 ] final -161.71 input   59.86 | X-H torsion
[ 10167 10162 10161 10158 ] final   38.85 input  -65.29 | X-H torsion
[ 10718 10713 10712 10709 ] final  178.30 input   66.30 | X-H torsion
[ 10763 10752 10751 10750 ] final   -4.63 input  -60.55 | X-H torsion
[ 11005 11000 10999 10996 ] final  -39.54 input  -57.11 | X-H torsion

> <Gold.Protein.ActiveResidues>
 VAL166  LYS551  ARG553  GLY616  TRP617  ASP618  TYR619  PRO620  LYS621  CYS622 
 ASP623  PHE694  ASN695  SER759  ASP760  ASP761  ALA762  ILE779  LEU786  VAL792 
 PHE793  MET794  SER795  GLU796  ALA797  LYS798  CYS799  TRP800  GLU811  SER814 

> <Gold.Protein.RotatedAtoms>
  152.5194  134.3527  159.9256 H   0  0  0  0  0  0  0  0  0  0  0  0  # atno 6907 bound_to 6896
  151.3478  133.3931  159.2685 H   0  0  0  0  0  0  0  0  0  0  0  0  # atno 6908 bound_to 6896
  150.9752  134.9136  159.7869 H   0  0  0  0  0  0  0  0  0  0  0  0  # atno 6909 bound_to 6896
  145.9439  139.3913  143.0347 H   0  0  0  0  0  0  0  0  0  0  0  0  # atno 7974 bound_to 7965
  155.7962  140.0885  157.1982 H   0  0  0  0  0  0  0  0  0  0  0  0  # atno 8008 bound_to 7997
  154.3983  140.1481  156.3279 H   0  0  0  0  0  0  0  0  0  0  0  0  # atno 8009 bound_to 7997
  155.8509  140.3434  155.5695 H   0  0  0  0  0  0  0  0  0  0  0  0  # atno 8010 bound_to 7997
  140.3897  144.1869  150.6131 H   0  0  0  0  0  0  0  0  0  0  0  0  # atno 10167 bound_to 10162
  156.8927  130.9852  151.3047 H   0  0  0  0  0  0  0  0  0  0  0  0  # atno 10718 bound_to 10713
  153.3875  135.7000  153.6519 H   0  0  0  0  0  0  0  0  0  0  0  0  # atno 10763 bound_to 10752
  153.5105  135.3633  155.2585 H   0  0  0  0  0  0  0  0  0  0  0  0  # atno 10764 bound_to 10752
  154.8699  135.4133  154.3186 H   0  0  0  0  0  0  0  0  0  0  0  0  # atno 10765 bound_to 10752
  141.0109  133.6908  156.2201 H   0  0  0  0  0  0  0  0  0  0  0  0  # atno 11005 bound_to 11000
  145.8262  140.9654  143.0873 LP  0  0  0  0  0  0  0  0  0  0  0  0  # atno 17320 bound_to 7965
  144.6784  140.0104  143.7484 LP  0  0  0  0  0  0  0  0  0  0  0  0  # atno 17321 bound_to 7965
  140.4853  143.2365  151.8897 LP  0  0  0  0  0  0  0  0  0  0  0  0  # atno 17342 bound_to 10162
  139.4790  144.5225  151.8781 LP  0  0  0  0  0  0  0  0  0  0  0  0  # atno 17343 bound_to 10162
  157.6074  130.8557  149.8897 LP  0  0  0  0  0  0  0  0  0  0  0  0  # atno 17370 bound_to 10713
  156.0621  130.3698  150.0959 LP  0  0  0  0  0  0  0  0  0  0  0  0  # atno 17371 bound_to 10713
  140.6734  134.4843  157.5588 LP  0  0  0  0  0  0  0  0  0  0  0  0  # atno 17394 bound_to 11000
  139.9089  134.8387  156.1600 LP  0  0  0  0  0  0  0  0  0  0  0  0  # atno 17395 bound_to 11000

$$$$
