AV-unprocessed.smi:2144|AV-procd|sdf|8731|dock9
  -GOLD-   2272011503D 1   1.00000     0.00000
 Structure written by MMmdl.
 40 42  0  0  0  0  0  0  0  0  1 V2000
  151.6558  139.2872  154.7506 O   0  0  0  0  0  0  0  0  0  0  0  0
  150.6596  139.6313  155.6925 C   0  0  0  0  0  0  0  0  0  0  0  0
  151.1347  140.5608  156.7738 C   0  0  0  0  0  0  0  0  0  0  0  0
  151.0155  141.8887  156.6984 N   0  0  0  0  0  0  0  0  0  0  0  0
  151.5624  142.3143  157.8926 C   0  0  0  0  0  0  0  0  0  0  0  0
  151.7292  143.6177  158.4135 C   0  0  0  0  0  0  0  0  0  0  0  0
  152.3226  143.8105  159.6783 C   0  0  0  0  0  0  0  0  0  0  0  0
  152.7568  142.7053  160.4385 C   0  0  0  0  0  0  0  0  0  0  0  0
  152.5995  141.3984  159.9383 C   0  0  0  0  0  0  0  0  0  0  0  0
  152.0064  141.2113  158.6750 C   0  0  0  0  0  0  0  0  0  0  0  0
  151.7103  140.0881  157.9080 N   0  0  0  0  0  0  0  0  0  0  0  0
  151.9688  138.7008  158.2715 C   0  0  0  0  0  0  0  0  0  0  0  0
  150.7425  137.7874  158.0645 C   0  0  1  0  0  0  0  0  0  0  0  0
  151.1478  136.5432  157.5290 O   0  0  0  0  0  0  0  0  0  0  0  0
  149.9779  137.5264  159.3703 C   0  0  0  0  0  0  0  0  0  0  0  0
  149.3968  136.2305  159.3130 O   0  0  0  0  0  0  0  0  0  0  0  0
  148.5531  135.8454  160.3333 C   0  0  0  0  0  0  0  0  0  0  0  0
  148.3189  136.6117  161.5036 C   0  0  0  0  0  0  0  0  0  0  0  0
  147.4429  136.1413  162.5011 C   0  0  0  0  0  0  0  0  0  0  0  0
  146.7915  134.9042  162.3437 C   0  0  0  0  0  0  0  0  0  0  0  0
  147.0164  134.1377  161.1855 C   0  0  0  0  0  0  0  0  0  0  0  0
  147.8920  134.6071  160.1872 C   0  0  0  0  0  0  0  0  0  0  0  0
  148.0993  133.8603  159.0761 F   0  0  0  0  0  0  0  0  0  0  0  0
  151.5976  138.3605  154.5766 H   0  0  0  0  0  0  0  0  0  0  0  0
  149.8291  140.0978  155.1622 H   0  0  0  0  0  0  0  0  0  0  0  0
  150.2851  138.7128  156.1433 H   0  0  0  0  0  0  0  0  0  0  0  0
  151.4000  144.4706  157.8388 H   0  0  0  0  0  0  0  0  0  0  0  0
  152.4453  144.8109  160.0669 H   0  0  0  0  0  0  0  0  0  0  0  0
  153.2110  142.8617  161.4060 H   0  0  0  0  0  0  0  0  0  0  0  0
  152.9323  140.5506  160.5181 H   0  0  0  0  0  0  0  0  0  0  0  0
  152.8117  138.3396  157.6813 H   0  0  0  0  0  0  0  0  0  0  0  0
  152.2977  138.6669  159.3103 H   0  0  0  0  0  0  0  0  0  0  0  0
  150.0614  138.2419  157.3450 H   0  0  0  0  0  0  0  0  0  0  0  0
  150.4495  135.9193  157.6557 H   0  0  0  0  0  0  0  0  0  0  0  0
  150.6689  137.5768  160.2138 H   0  0  0  0  0  0  0  0  0  0  0  0
  149.2097  138.2882  159.5148 H   0  0  0  0  0  0  0  0  0  0  0  0
  148.8004  137.5647  161.6618 H   0  0  0  0  0  0  0  0  0  0  0  0
  147.2716  136.7313  163.3894 H   0  0  0  0  0  0  0  0  0  0  0  0
  146.1210  134.5441  163.1099 H   0  0  0  0  0  0  0  0  0  0  0  0
  146.5170  133.1881  161.0625 H   0  0  0  0  0  0  0  0  0  0  0  0
  1  2  1  0  0  0  0
  1 24  1  0  0  0  0
  2  3  1  0  0  0  0
  2 25  1  0  0  0  0
  2 26  1  0  0  0  0
  3 11  1  0  0  0  0
  3  4  2  0  0  0  0
  4  5  1  0  0  0  0
  5 10  2  0  0  0  0
  5  6  1  0  0  0  0
  6  7  2  0  0  0  0
  6 27  1  0  0  0  0
  7  8  1  0  0  0  0
  7 28  1  0  0  0  0
  8  9  2  0  0  0  0
  8 29  1  0  0  0  0
  9 10  1  0  0  0  0
  9 30  1  0  0  0  0
 10 11  1  0  0  0  0
 11 12  1  0  0  0  0
 12 13  1  0  0  0  0
 12 31  1  0  0  0  0
 12 32  1  0  0  0  0
 13 14  1  0  0  0  0
 13 15  1  0  0  0  0
 13 33  1  0  0  0  0
 14 34  1  0  0  0  0
 15 16  1  0  0  0  0
 15 35  1  0  0  0  0
 15 36  1  0  0  0  0
 16 17  1  0  0  0  0
 17 22  1  0  0  0  0
 17 18  2  0  0  0  0
 18 19  1  0  0  0  0
 18 37  1  0  0  0  0
 19 20  2  0  0  0  0
 19 38  1  0  0  0  0
 20 21  1  0  0  0  0
 20 39  1  0  0  0  0
 21 22  2  0  0  0  0
 21 40  1  0  0  0  0
 22 23  1  0  0  0  0
M  END
> <s_m_source_file>
AV-unprocessed.smi

> <i_m_source_file_index>
2144

> <i_lp_mmshare_version>
43012

> <i_f3d_flags>
0

> <s_epik_input>
W2NIXTFbY0hdW2NIXVtjSF1jKGMxMiluKGMobjIpW0NIMl1bT0hdKVtDSDJdW0NASF0oW09IXSlbQ0gyXU9jM1tjSF1bY0hdW2NIXVtjSF1jM0Y=

> <s_epik_cmdline>
J2VwaWtfcHl0aG9uJywgJy1waCcsICc3LjAnLCAnLXRuJywgJzgnLCAnLW1hJywgJzIwMCcsICctbWV0YWxfYmluZGluZycsICctaW1hZScsICc8aW5maWxlLm1hZT4nLCAnLW9tYWUnLCAnPG91dGZpbGUubWFlPic=

> <r_lp_tautomer_probability>
1

> <r_epik_Ionization_Penalty>
0.0547315

> <r_epik_Ionization_Penalty_Charging>
0

> <r_epik_Ionization_Penalty_Neutral>
0.0547315

> <r_epik_State_Penalty>
0.047032

> <r_epik_Charging_Adjusted_Penalty>
0.047032

> <i_epik_Tot_Q>
0

> <i_epik_Tot_abs_Q>
0

> <r_epik_Metal_State_Penalty>
4.89471e-05

> <b_epik_Metal_Only>
0

> <s_lp_Force_Field>
OPLS_2005

> <r_lp_Energy>
15.6378

> <b_lp_Chiralities_Consistent>
1

> <s_lp_Variant>
AV-unprocessed.smi:2144-2

> <Gold.Version>
5.8.1

> <Gold.Id.Protein>
6NUR|6NUR_protein|mol2

> <Gold.PLP.Fitness>
47.3373

> <Gold.PLP.PLP>
-44.7571

> <Gold.PLP.part.hbond>
-2.0000

> <Gold.PLP.part.metal>
0.0000

> <Gold.PLP.part.buried>
-3.0199

> <Gold.PLP.part.nonpolar>
-40.5783

> <Gold.PLP.part.repulsive>
0.0694

> <Gold.PLP.ligand.clash>
0.0000

> <Gold.PLP.ligand.torsion>
1.5128

> <Gold.PLP.Chemscore.Hbond>
1.8500

> <Gold.PLP.Chemscore.CHOScore>
0.0000

> <Gold.PLP.Chemscore.Metal>
0.0000

> <Gold.Chemscore.Hbonds>
donor molecule, donor type, donor heavy atom, donor atom, acceptor molecule, acceptor atom, score
      P1  H  6896  6909       L1    16  0.84
      P1  H  7989  7998       L1     1  1.00

> <Gold.PLP.Chemscore.Internal.Correction>
0.0557

> <Gold.Rescore>
     Score         DG    S(hbond)    S(metal)    S(lipo)     H(rot)  DE(clash)    DE(int)     intcor
     11.76     -14.56       0.98        0.00     119.96       3.22       0.07       2.74       ----

> <Gold.Chemscore.Fitness>
11.7593

> <Gold.Chemscore.DG>
-14.5595

> <Gold.Chemscore.ZeroCoef>
-5.4800

> <Gold.Chemscore.Hbond>
0.9838

> <Gold.Chemscore.Metal>
0.0000

> <Gold.Chemscore.Lipo>
119.9649

> <Gold.Chemscore.Internal_Hbond>
0.0000

> <Gold.Chemscore.DEClash>
0.0650

> <Gold.Chemscore.DEInternal>
2.7351

> <Gold.Chemscore.Rot>
3.2196

> <Gold.Chemscore.Internal.Correction>
   9.000000E+99

> <Gold.Chemscore.Hbonds>
donor molecule, donor type, donor heavy atom, donor atom, acceptor molecule, acceptor atom, score
      P1  H  6896  6909       L1    16  0.07
      P1  H  7989  7998       L1     1  0.37

> <Gold.Chemscore.Hbond.Weighted>
-3.2858

> <Gold.Chemscore.Metal.Weighted>
-0.0000

> <Gold.Chemscore.Lipo.Weighted>
-14.0359

> <Gold.Chemscore.Internal_Hbond.Weighted>
0.0000

> <Gold.Chemscore.DEClash.Weighted>
0.0650

> <Gold.Chemscore.DEInternal.Weighted>
2.7351

> <Gold.Chemscore.Rot.Weighted>
8.2422

> <Gold.Chemscore.Internal.Correction.Weighted>
   9.000000E+99

> <Gold.Protein.RotatedTorsions>
[ 6907 6896 6895 6894 ] final   78.49 input  -60.11 | X-H torsion
[ 7974 7965 7964 7962 ] final -176.18 input  175.53 | X-H torsion
[ 8008 7997 7996 7995 ] final   26.02 input   59.86 | X-H torsion
[ 10167 10162 10161 10158 ] final -168.08 input  -65.29 | X-H torsion
[ 10718 10713 10712 10709 ] final  141.12 input   66.30 | X-H torsion
[ 10763 10752 10751 10750 ] final  -65.99 input  -60.55 | X-H torsion
[ 11005 11000 10999 10996 ] final   49.92 input  -57.11 | X-H torsion

> <Gold.Protein.ActiveResidues>
 VAL166  LYS551  ARG553  GLY616  TRP617  ASP618  TYR619  PRO620  LYS621  CYS622 
 ASP623  PHE694  ASN695  SER759  ASP760  ASP761  ALA762  ILE779  LEU786  VAL792 
 PHE793  MET794  SER795  GLU796  ALA797  LYS798  CYS799  TRP800  GLU811  SER814 

> <Gold.Protein.RotatedAtoms>
  152.5161  134.3656  159.9299 H   0  0  0  0  0  0  0  0  0  0  0  0  # atno 6907 bound_to 6896
  151.3609  133.3883  159.2697 H   0  0  0  0  0  0  0  0  0  0  0  0  # atno 6908 bound_to 6896
  150.9652  134.9053  159.7813 H   0  0  0  0  0  0  0  0  0  0  0  0  # atno 6909 bound_to 6896
  144.7127  140.1209  143.6405 H   0  0  0  0  0  0  0  0  0  0  0  0  # atno 7974 bound_to 7965
  155.0208  140.3147  155.4794 H   0  0  0  0  0  0  0  0  0  0  0  0  # atno 8008 bound_to 7997
  156.2892  140.2198  156.5268 H   0  0  0  0  0  0  0  0  0  0  0  0  # atno 8009 bound_to 7997
  154.7454  140.0470  157.0835 H   0  0  0  0  0  0  0  0  0  0  0  0  # atno 8010 bound_to 7997
  139.6008  144.1015  152.1740 H   0  0  0  0  0  0  0  0  0  0  0  0  # atno 10167 bound_to 10162
  157.3956  131.1010  151.0603 H   0  0  0  0  0  0  0  0  0  0  0  0  # atno 10718 bound_to 10713
  154.3532  135.6132  153.5653 H   0  0  0  0  0  0  0  0  0  0  0  0  # atno 10763 bound_to 10752
  152.9797  135.5797  154.4719 H   0  0  0  0  0  0  0  0  0  0  0  0  # atno 10764 bound_to 10752
  154.4444  135.2851  155.1802 H   0  0  0  0  0  0  0  0  0  0  0  0  # atno 10765 bound_to 10752
  140.1062  134.5016  155.8718 H   0  0  0  0  0  0  0  0  0  0  0  0  # atno 11005 bound_to 11000
  145.9372  139.2645  143.1290 LP  0  0  0  0  0  0  0  0  0  0  0  0  # atno 17320 bound_to 7965
  145.9461  140.8943  143.0283 LP  0  0  0  0  0  0  0  0  0  0  0  0  # atno 17321 bound_to 7965
  140.0611  144.5856  150.7262 LP  0  0  0  0  0  0  0  0  0  0  0  0  # atno 17342 bound_to 10162
  140.7248  143.2625  151.4158 LP  0  0  0  0  0  0  0  0  0  0  0  0  # atno 17343 bound_to 10162
  157.1621  130.6230  149.5614 LP  0  0  0  0  0  0  0  0  0  0  0  0  # atno 17370 bound_to 10713
  155.9809  130.4813  150.6800 LP  0  0  0  0  0  0  0  0  0  0  0  0  # atno 17371 bound_to 10713
  141.2118  133.6712  156.6615 LP  0  0  0  0  0  0  0  0  0  0  0  0  # atno 17394 bound_to 11000
  140.3153  134.8052  157.4209 LP  0  0  0  0  0  0  0  0  0  0  0  0  # atno 17395 bound_to 11000

$$$$
