AV-unprocessed.smi:193|AV-procd|sdf|1499|dock1
  -GOLD-   2262019323D 1   1.00000     0.00000
 Structure written by MMmdl.
 62 66  0  0  0  0  0  0  0  0  2 V2000
  144.6060  131.7553  150.5502 C   0  0  0  0  0  0  0  0  0  0  0  0
  145.8678  131.5053  151.3923 C   0  0  1  0  0  0  0  0  0  0  0  0
  145.7965  132.3448  152.6848 C   0  0  0  0  0  0  0  0  0  0  0  0
  147.0975  132.6149  153.3011 N   0  0  0  0  0  0  0  0  0  0  0  0
  147.2083  133.6917  154.1236 C   0  0  0  0  0  0  0  0  0  0  0  0
  146.0894  134.4015  154.4293 N   0  0  0  0  0  0  0  0  0  0  0  0
  146.1589  135.4617  155.2394 C   0  0  0  0  0  0  0  0  0  0  0  0
  147.2293  135.9815  155.8417 N   0  0  0  0  0  0  0  0  0  0  0  0
  148.3583  135.2822  155.5336 C   0  0  0  0  0  0  0  0  0  0  0  0
  148.4384  134.1363  154.6914 C   0  0  0  0  0  0  0  0  0  0  0  0
  149.7595  133.7100  154.6049 N   0  0  0  0  0  0  0  0  0  0  0  0
  150.4177  134.5464  155.3602 C   0  0  0  0  0  0  0  0  0  0  0  0
  149.6530  135.5204  155.9601 N   0  0  0  0  0  0  0  0  0  0  0  0
  150.1238  136.5787  156.8408 C   0  0  0  0  0  0  0  0  0  0  0  0
  149.9705  138.0032  156.2525 C   0  0  0  0  0  0  0  0  0  0  0  0
  148.7671  138.5516  156.7632 O   0  0  0  0  0  0  0  0  0  0  0  0
  151.1438  138.8970  156.7022 C   0  0  0  0  0  0  0  0  0  0  0  0
  151.1271  140.2710  156.0095 C   0  0  0  0  0  0  0  0  0  0  0  0
  151.1188  140.1024  154.5973 O   0  0  0  0  0  0  0  0  0  0  0  0
  149.9543  139.4323  154.1301 C   0  0  0  0  0  0  0  0  0  0  0  0
  149.8933  138.0078  154.7097 C   0  0  0  0  0  0  0  0  0  0  0  0
  148.1915  131.6446  153.2836 C   0  0  0  0  0  0  0  0  0  0  0  0
  147.7263  130.1923  153.4537 C   0  0  0  0  0  0  0  0  0  0  0  0
  147.3449  129.5883  152.1551 N   0  3  1  0  0  0  0  0  0  0  0  0
  147.4837  128.1144  152.1775 C   0  0  2  0  0  0  0  0  0  0  0  0
  148.7625  127.6381  152.8272 C   0  0  0  0  0  0  0  0  0  0  0  0
  148.6158  127.5905  151.3213 C   0  0  1  0  0  0  0  0  0  0  0  0
  148.4878  126.2623  150.6078 C   0  0  0  0  0  0  0  0  0  0  0  0
  145.9971  129.9950  151.6877 C   0  0  0  0  0  0  0  0  0  0  0  0
  143.7050  131.4556  151.0868 H   0  0  0  0  0  0  0  0  0  0  0  0
  144.6369  131.1978  149.6135 H   0  0  0  0  0  0  0  0  0  0  0  0
  144.5047  132.8104  150.2941 H   0  0  0  0  0  0  0  0  0  0  0  0
  146.7171  131.8334  150.7908 H   0  0  0  0  0  0  0  0  0  0  0  0
  145.3429  133.3072  152.4418 H   0  0  0  0  0  0  0  0  0  0  0  0
  145.1361  131.8716  153.4126 H   0  0  0  0  0  0  0  0  0  0  0  0
  145.2231  135.9655  155.4332 H   0  0  0  0  0  0  0  0  0  0  0  0
  151.4866  134.4764  155.5025 H   0  0  0  0  0  0  0  0  0  0  0  0
  149.5860  136.4990  157.7868 H   0  0  0  0  0  0  0  0  0  0  0  0
  151.1712  136.3818  157.0733 H   0  0  0  0  0  0  0  0  0  0  0  0
  148.0557  138.2891  156.1994 H   0  0  0  0  0  0  0  0  0  0  0  0
  151.1374  139.0231  157.7857 H   0  0  0  0  0  0  0  0  0  0  0  0
  152.0858  138.4032  156.4592 H   0  0  0  0  0  0  0  0  0  0  0  0
  150.2649  140.8612  156.3232 H   0  0  0  0  0  0  0  0  0  0  0  0
  152.0151  140.8385  156.2891 H   0  0  0  0  0  0  0  0  0  0  0  0
  149.0628  140.0034  154.3936 H   0  0  0  0  0  0  0  0  0  0  0  0
  149.9890  139.3885  153.0415 H   0  0  0  0  0  0  0  0  0  0  0  0
  150.7302  137.4355  154.3077 H   0  0  0  0  0  0  0  0  0  0  0  0
  148.9869  137.5106  154.3625 H   0  0  0  0  0  0  0  0  0  0  0  0
  148.7784  131.7645  152.3723 H   0  0  0  0  0  0  0  0  0  0  0  0
  148.8687  131.8546  154.1118 H   0  0  0  0  0  0  0  0  0  0  0  0
  148.5732  129.6314  153.8517 H   0  0  0  0  0  0  0  0  0  0  0  0
  146.9288  130.0975  154.1924 H   0  0  0  0  0  0  0  0  0  0  0  0
  146.5625  127.5448  152.2909 H   0  0  0  0  0  0  0  0  0  0  0  0
  149.4397  128.3831  153.2413 H   0  0  0  0  0  0  0  0  0  0  0  0
  148.7274  126.6940  153.3673 H   0  0  0  0  0  0  0  0  0  0  0  0
  149.1925  128.3280  150.7653 H   0  0  0  0  0  0  0  0  0  0  0  0
  147.9206  125.5513  151.2096 H   0  0  0  0  0  0  0  0  0  0  0  0
  149.4756  125.8436  150.4147 H   0  0  0  0  0  0  0  0  0  0  0  0
  147.9747  126.3979  149.6556 H   0  0  0  0  0  0  0  0  0  0  0  0
  145.2411  129.6761  152.4073 H   0  0  0  0  0  0  0  0  0  0  0  0
  145.7903  129.4449  150.7686 H   0  0  0  0  0  0  0  0  0  0  0  0
  148.0096  129.9210  151.4712 H   0  0  0  0  0  0  0  0  0  0  0  0
  1  2  1  0  0  0  0
  1 30  1  0  0  0  0
  1 31  1  0  0  0  0
  1 32  1  0  0  0  0
  2 29  1  0  0  0  0
  2  3  1  0  0  0  0
  2 33  1  0  0  0  0
  3  4  1  0  0  0  0
  3 34  1  0  0  0  0
  3 35  1  0  0  0  0
  4  5  1  0  0  0  0
  4 22  1  0  0  0  0
  5 10  1  0  0  0  0
  5  6  2  0  0  0  0
  6  7  1  0  0  0  0
  7  8  2  0  0  0  0
  7 36  1  0  0  0  0
  8  9  1  0  0  0  0
  9 13  1  0  0  0  0
  9 10  2  0  0  0  0
 10 11  1  0  0  0  0
 11 12  2  0  0  0  0
 12 13  1  0  0  0  0
 12 37  1  0  0  0  0
 13 14  1  0  0  0  0
 14 15  1  0  0  0  0
 14 38  1  0  0  0  0
 14 39  1  0  0  0  0
 15 21  1  0  0  0  0
 15 16  1  0  0  0  0
 15 17  1  0  0  0  0
 16 40  1  0  0  0  0
 17 18  1  0  0  0  0
 17 41  1  0  0  0  0
 17 42  1  0  0  0  0
 18 19  1  0  0  0  0
 18 43  1  0  0  0  0
 18 44  1  0  0  0  0
 19 20  1  0  0  0  0
 20 21  1  0  0  0  0
 20 45  1  0  0  0  0
 20 46  1  0  0  0  0
 21 47  1  0  0  0  0
 21 48  1  0  0  0  0
 22 23  1  0  0  0  0
 22 49  1  0  0  0  0
 22 50  1  0  0  0  0
 23 24  1  0  0  0  0
 23 51  1  0  0  0  0
 23 52  1  0  0  0  0
 24 25  1  0  0  0  0
 24 29  1  0  0  0  0
 24 62  1  0  0  0  0
 25 27  1  0  0  0  0
 25 26  1  0  0  0  0
 25 53  1  0  0  0  0
 26 27  1  0  0  0  0
 26 54  1  0  0  0  0
 26 55  1  0  0  0  0
 27 28  1  0  0  0  0
 27 56  1  0  0  0  0
 28 57  1  0  0  0  0
 28 58  1  0  0  0  0
 28 59  1  0  0  0  0
 29 60  1  0  0  0  0
 29 61  1  0  0  0  0
M  CHG  1  24   1
M  END
> <s_m_source_file>
AV-unprocessed.smi

> <i_m_source_file_index>
193

> <i_lp_mmshare_version>
43012

> <i_f3d_flags>
0

> <s_epik_input>
W0NIM11bQ0BASF0xW0NIMl1bQ0BIXTFOKFtDSDJdMilbQ0gyXVtDSDJdTihbQ0gyXVtDQEhdMltDSDNdKWMobltjSF1uMyljKGMzNCluW2NIXW40W0NIMl1DNShbT0hdKVtDSDJdW0NIMl1PW0NIMl1bQ0gyXTU=

> <s_epik_cmdline>
J2VwaWtfcHl0aG9uJywgJy1waCcsICc3LjAnLCAnLXRuJywgJzgnLCAnLW1hJywgJzIwMCcsICctbWV0YWxfYmluZGluZycsICctaW1hZScsICc8aW5maWxlLm1hZT4nLCAnLW9tYWUnLCAnPG91dGZpbGUubWFlPic=

> <r_lp_tautomer_probability>
1

> <r_epik_Ionization_Penalty>
0.0540825

> <r_epik_Ionization_Penalty_Charging>
0.0538476

> <r_epik_Ionization_Penalty_Neutral>
0.000234891

> <r_epik_State_Penalty>
0.0200719

> <r_epik_Charging_Adjusted_Penalty>
0.0739194

> <i_epik_Tot_Q>
1

> <i_epik_Tot_abs_Q>
1

> <r_epik_Metal_State_Penalty>
0.0199414

> <b_epik_Metal_Only>
0

> <s_lp_Force_Field>
OPLS_2005

> <r_lp_Energy>
52.398

> <b_lp_Chiralities_Consistent>
1

> <s_lp_Variant>
AV-unprocessed.smi:193-4

> <Gold.Version>
5.8.1

> <Gold.Id.Protein>
6NUR|6NUR_protein|mol2

> <Gold.PLP.Fitness>
48.0550

> <Gold.PLP.PLP>
-43.9695

> <Gold.PLP.part.hbond>
-2.0000

> <Gold.PLP.part.metal>
0.0000

> <Gold.PLP.part.buried>
-7.2326

> <Gold.PLP.part.nonpolar>
-36.1515

> <Gold.PLP.part.repulsive>
0.2937

> <Gold.PLP.ligand.clash>
0.0000

> <Gold.PLP.ligand.torsion>
1.6535

> <Gold.PLP.Chemscore.Hbond>
2.0000

> <Gold.PLP.Chemscore.CHOScore>
0.0000

> <Gold.PLP.Chemscore.Metal>
0.0000

> <Gold.Chemscore.Hbonds>
donor molecule, donor type, donor heavy atom, donor atom, acceptor molecule, acceptor atom, score
      L1  H    24    62       P1 10747  1.00
      P1  H  7989  7998       L1    19  0.76

> <Gold.PLP.Chemscore.Internal.Correction>
1.3925

> <Gold.Rescore>
     Score         DG    S(hbond)    S(metal)    S(lipo)     H(rot)  DE(clash)    DE(int)     intcor
     16.63     -19.89       1.93        0.00     110.29       1.93       0.16       3.10       ----

> <Gold.Chemscore.Fitness>
16.6343

> <Gold.Chemscore.DG>
-19.8893

> <Gold.Chemscore.ZeroCoef>
-5.4800

> <Gold.Chemscore.Hbond>
1.9292

> <Gold.Chemscore.Metal>
0.0000

> <Gold.Chemscore.Lipo>
110.2916

> <Gold.Chemscore.Internal_Hbond>
0.0000

> <Gold.Chemscore.DEClash>
0.1596

> <Gold.Chemscore.DEInternal>
3.0954

> <Gold.Chemscore.Rot>
1.9290

> <Gold.Chemscore.Internal.Correction>
   9.000000E+99

> <Gold.Chemscore.Hbonds>
donor molecule, donor type, donor heavy atom, donor atom, acceptor molecule, acceptor atom, score
      L1  H    24    62       P1 10747  0.94
      P1  H  7989  7998       L1    19  0.45

> <Gold.Chemscore.Hbond.Weighted>
-6.4435

> <Gold.Chemscore.Metal.Weighted>
-0.0000

> <Gold.Chemscore.Lipo.Weighted>
-12.9041

> <Gold.Chemscore.Internal_Hbond.Weighted>
0.0000

> <Gold.Chemscore.DEClash.Weighted>
0.1596

> <Gold.Chemscore.DEInternal.Weighted>
3.0954

> <Gold.Chemscore.Rot.Weighted>
4.9383

> <Gold.Chemscore.Internal.Correction.Weighted>
   9.000000E+99

> <Gold.Protein.RotatedTorsions>
[ 6907 6896 6895 6894 ] final  134.76 input  -60.11 | X-H torsion
[ 7974 7965 7964 7962 ] final    7.37 input  175.53 | X-H torsion
[ 8008 7997 7996 7995 ] final -161.12 input   59.86 | X-H torsion
[ 10167 10162 10161 10158 ] final  -38.34 input  -65.29 | X-H torsion
[ 10718 10713 10712 10709 ] final  125.30 input   66.30 | X-H torsion
[ 10763 10752 10751 10750 ] final  -76.60 input  -60.55 | X-H torsion
[ 11005 11000 10999 10996 ] final  -49.13 input  -57.11 | X-H torsion

> <Gold.Protein.ActiveResidues>
 VAL166  LYS551  ARG553  GLY616  TRP617  ASP618  TYR619  PRO620  LYS621  CYS622 
 ASP623  PHE694  ASN695  SER759  ASP760  ASP761  ALA762  ILE779  LEU786  VAL792 
 PHE793  MET794  SER795  GLU796  ALA797  LYS798  CYS799  TRP800  GLU811  SER814 

> <Gold.Protein.RotatedAtoms>
  152.3079  133.5722  159.5660 H   0  0  0  0  0  0  0  0  0  0  0  0  # atno 6907 bound_to 6896
  150.7308  134.0196  159.3706 H   0  0  0  0  0  0  0  0  0  0  0  0  # atno 6908 bound_to 6896
  151.8091  135.0686  160.0461 H   0  0  0  0  0  0  0  0  0  0  0  0  # atno 6909 bound_to 6896
  146.2427  140.0093  142.8408 H   0  0  0  0  0  0  0  0  0  0  0  0  # atno 7974 bound_to 7965
  155.7875  140.0873  157.2026 H   0  0  0  0  0  0  0  0  0  0  0  0  # atno 8008 bound_to 7997
  154.3987  140.1496  156.3182 H   0  0  0  0  0  0  0  0  0  0  0  0  # atno 8009 bound_to 7997
  155.8592  140.3431  155.5747 H   0  0  0  0  0  0  0  0  0  0  0  0  # atno 8010 bound_to 7997
  140.7094  143.3283  151.2627 H   0  0  0  0  0  0  0  0  0  0  0  0  # atno 10167 bound_to 10162
  157.5514  131.1094  150.8695 H   0  0  0  0  0  0  0  0  0  0  0  0  # atno 10718 bound_to 10713
  154.5020  135.5792  153.6538 H   0  0  0  0  0  0  0  0  0  0  0  0  # atno 10763 bound_to 10752
  152.9880  135.6138  154.2990 H   0  0  0  0  0  0  0  0  0  0  0  0  # atno 10764 bound_to 10752
  154.2898  135.2849  155.2639 H   0  0  0  0  0  0  0  0  0  0  0  0  # atno 10765 bound_to 10752
  141.0741  133.6670  156.3541 H   0  0  0  0  0  0  0  0  0  0  0  0  # atno 11005 bound_to 11000
  145.1343  140.9535  143.4526 LP  0  0  0  0  0  0  0  0  0  0  0  0  # atno 17320 bound_to 7965
  145.0358  139.3302  143.6002 LP  0  0  0  0  0  0  0  0  0  0  0  0  # atno 17321 bound_to 7965
  139.6758  143.9940  152.2780 LP  0  0  0  0  0  0  0  0  0  0  0  0  # atno 17342 bound_to 10162
  139.9554  144.6593  150.8131 LP  0  0  0  0  0  0  0  0  0  0  0  0  # atno 17343 bound_to 10162
  156.9218  130.5318  149.5279 LP  0  0  0  0  0  0  0  0  0  0  0  0  # atno 17370 bound_to 10713
  156.0580  130.5638  150.9133 LP  0  0  0  0  0  0  0  0  0  0  0  0  # atno 17371 bound_to 10713
  140.5610  134.5934  157.5433 LP  0  0  0  0  0  0  0  0  0  0  0  0  # atno 17394 bound_to 11000
  139.9554  134.7545  156.0354 LP  0  0  0  0  0  0  0  0  0  0  0  0  # atno 17395 bound_to 11000

$$$$
