#       Name:                AV-unprocessed.smi:1874
#       Creating user name   scv26
#       Creation time:       Fri Mar 27 09:33:18 2020


#       File generated by GOLD software.
#

@<TRIPOS>MOLECULE
AV-unprocessed.smi:1874
    53    54     1
SMALL
NO_CHARGES


@<TRIPOS>ATOM
      1 ****        -5.1327   2.4632   3.0399 C.3            1 S1                 0.0000
      2 ****        -5.3312   2.0793   1.5718 C.2            1 S1                 0.0000
      3 ****        -6.4215   1.6152   1.2381 O.2            1 S1                 0.0000
      4 ****        -4.3124   2.2571   0.6966 N.am           1 S1                 0.0000
      5 ****        -2.9653   2.7265   1.0438 C.3            1 S1                 0.0000
      6 ****        -1.9829   1.5482   0.9214 C.3            1 S1                 0.0000
      7 ****        -2.0345   0.9162  -0.4891 C.3            1 S1                 0.0000
      8 ****        -1.2543  -0.3166  -0.5268 N.am           1 S1                 0.0000
      9 ****         0.0757  -0.3880  -0.6859 C.2            1 S1                 0.0000
     10 ****         0.7906   0.6042  -0.8365 O.2            1 S1                 0.0000
     11 ****         0.6756  -1.8023  -0.6851 C.3            1 S1                 0.0000
     12 ****         2.1345  -1.8191  -0.5016 N.am           1 S1                 0.0000
     13 ****         2.8474  -1.9682  -1.6755 N.2            1 S1                 0.0000
     14 ****         4.1398  -1.9693  -1.6826 C.2            1 S1                 0.0000
     15 ****         4.8080  -2.1335  -3.0211 C.3            1 S1                 0.0000
     16 ****         4.8700  -1.8136  -0.4286 C.2            1 S1                 0.0000
     17 ****         6.3909  -1.8165  -0.4988 C.3            1 S1                 0.0000
     18 ****         4.1591  -1.6824   0.7193 C.2            1 S1                 0.0000
     19 ****         4.7864  -1.5304   1.9923 C.1            1 S1                 0.0000
     20 ****         5.3145  -1.4093   3.0153 N.1            1 S1                 0.0000
     21 ****         2.6945  -1.6831   0.7352 C.2            1 S1                 0.0000
     22 ****         2.0186  -1.5671   1.7589 O.2            1 S1                 0.0000
     23 ****        -3.4867   0.6230  -0.9235 C.3            1 S1                 0.0000
     24 ****        -4.3946   1.8474  -0.7099 C.3            1 S1                 0.0000
     25 ****        -4.3063   1.9031   3.4785 H              1 S1                 0.0000
     26 ****        -6.0295   2.2406   3.6192 H              1 S1                 0.0000
     27 ****        -4.9309   3.5302   3.1363 H              1 S1                 0.0000
     28 ****        -2.6758   3.5235   0.3573 H              1 S1                 0.0000
     29 ****        -2.8974   3.1636   2.0387 H              1 S1                 0.0000
     30 ****        -0.9708   1.8867   1.1462 H              1 S1                 0.0000
     31 ****        -2.2309   0.7973   1.6733 H              1 S1                 0.0000
     32 ****        -1.6154   1.6293  -1.2018 H              1 S1                 0.0000
     33 ****        -1.7646  -1.1808  -0.4161 H              1 S1                 0.0000
     34 ****         0.1950  -2.3987   0.0929 H              1 S1                 0.0000
     35 ****         0.4089  -2.2833  -1.6280 H              1 S1                 0.0000
     36 ****         5.5113  -2.9666  -3.0058 H              1 S1                 0.0000
     37 ****         5.3571  -1.2311  -3.2908 H              1 S1                 0.0000
     38 ****         4.0850  -2.3290  -3.8147 H              1 S1                 0.0000
     39 ****         6.8485  -1.5934   0.4644 H              1 S1                 0.0000
     40 ****         6.7465  -1.0674  -1.2070 H              1 S1                 0.0000
     41 ****         6.7545  -2.7931  -0.8192 H              1 S1                 0.0000
     42 ****        -3.5106   0.3205  -1.9710 H              1 S1                 0.0000
     43 ****        -3.8826  -0.2169  -0.3501 H              1 S1                 0.0000
     44 ****        -5.4130   1.6138  -1.0231 H              1 S1                 0.0000
     45 ****        -4.0705   2.6714  -1.3472 H              1 S1                 0.0000
     46 ****        -7.1449   1.4991   1.9187 LP             1 S1                 0.0000
     47 ****        -6.5837   1.3542   0.2865 LP             1 S1                 0.0000
     48 ****         0.3833   1.5174  -0.8441 LP             1 S1                 0.0000
     49 ****         1.7782   0.4962  -0.9511 LP             1 S1                 0.0000
     50 ****         2.3531  -2.0776  -2.5379 LP             1 S1                 0.0000
     51 ****         5.7707  -1.3047   3.8990 LP             1 S1                 0.0000
     52 ****         1.0203  -1.5704   1.7019 LP             1 S1                 0.0000
     53 ****         2.4685  -1.4696   2.6467 LP             1 S1                 0.0000
@<TRIPOS>BOND
    1    1    2 1     
    2    1   25 1     
    3    1   26 1     
    4    1   27 1     
    5    2    3 2     
    6    2    4 am    
    7    4   24 1     
    8    4    5 1     
    9    5    6 1     
   10    5   28 1     
   11    5   29 1     
   12    6    7 1     
   13    6   30 1     
   14    6   31 1     
   15    7    8 1     
   16    7   23 1     
   17    7   32 1     
   18    8    9 am    
   19    8   33 1     
   20    9   10 2     
   21    9   11 1     
   22   11   12 1     
   23   11   34 1     
   24   11   35 1     
   25   12   21 am    
   26   12   13 1     
   27   13   14 2     
   28   14   15 1     
   29   14   16 1     
   30   15   36 1     
   31   15   37 1     
   32   15   38 1     
   33   16   17 1     
   34   16   18 2     
   35   17   39 1     
   36   17   40 1     
   37   17   41 1     
   38   18   19 1     
   39   18   21 1     
   40   19   20 3     
   41   21   22 2     
   42   23   24 1     
   43   23   42 1     
   44   23   43 1     
   45   24   44 1     
   46   24   45 1     
   47    3   46 1     
   48    3   47 1     
   49   10   48 1     
   50   10   49 1     
   51   13   50 1     
   52   20   51 1     
   53   22   52 1     
   54   22   53 1     
@<TRIPOS>SUBSTRUCTURE
      1 S1             1
@<TRIPOS>SET
LONE_PAIRS      STATIC     ATOMS    <user>   **** ""
8 46 47 48 49 50 51 52 53
DONOR_HYDROGENS      STATIC     ATOMS    <user>   **** ""
1 33
ATOM$BLUE        STATIC     ATOMS    COLORGROUP SYSTEM
8 46 47 48 49 50 51 52 53
ATOM$RED        STATIC     ATOMS    COLORGROUP SYSTEM
1 33
