#       Name:                AV-unprocessed.smi:1976
#       Creating user name   scv26
#       Creation time:       Fri Mar 27 10:16:33 2020


#       File generated by GOLD software.
#

@<TRIPOS>MOLECULE
AV-unprocessed.smi:1976
    49    51     1
SMALL
NO_CHARGES


@<TRIPOS>ATOM
      1 ****        -0.2539   1.1929  -1.6609 O.2            1 S1                 0.0000
      2 ****         0.4246   0.6698  -0.7763 C.2            1 S1                 0.0000
      3 ****         1.9090   1.0247  -0.6137 C.3            1 S1                 0.0000
      4 ****         2.2141   2.4067  -1.0195 N.am           1 S1                 0.0000
      5 ****         2.7082   2.5999  -2.3247 C.2            1 S1                 0.0000
      6 ****         3.0272   3.8131  -2.8154 C.2            1 S1                 0.0000
      7 ****         3.4942   3.9990  -4.2509 C.3            1 S1                 0.0000
      8 ****         3.1400   5.1961  -4.7190 F              1 S1                 0.0000
      9 ****         4.8219   3.9066  -4.3106 F              1 S1                 0.0000
     10 ****         2.9770   3.0663  -5.0516 F              1 S1                 0.0000
     11 ****         2.8092   4.9431  -1.9335 C.2            1 S1                 0.0000
     12 ****         2.3242   4.7770  -0.6874 C.2            1 S1                 0.0000
     13 ****         1.9951   3.4495  -0.1636 C.2            1 S1                 0.0000
     14 ****         1.5481   3.2841   0.9720 O.2            1 S1                 0.0000
     15 ****        -0.0634  -0.2446   0.0752 N.am           1 S1                 0.0000
     16 ****        -1.4459  -0.7167   0.0870 C.3            1 S1                 0.0000
     17 ****        -1.7923  -1.6699  -1.0763 C.3            1 S1                 0.0000
     18 ****        -2.6381  -2.7757  -0.4364 C.3            1 S1                 0.0000
     19 ****        -2.0819  -2.8741   0.9183 N.4            1 S1                 1.0000
     20 ****        -2.8136  -3.6687   1.9258 C.3            1 S1                 0.0000
     21 ****        -1.9484  -3.7572   3.2019 C.3            1 S1                 0.0000
     22 ****        -1.4879  -2.3667   3.6968 C.3            1 S1                 0.0000
     23 ****        -0.8429  -1.5399   2.5633 C.3            1 S1                 0.0000
     24 ****        -1.8106  -1.4978   1.3679 C.3            1 S1                 0.0000
     25 ****         2.2175   0.8595   0.4206 H              1 S1                 0.0000
     26 ****         2.4935   0.3157  -1.2014 H              1 S1                 0.0000
     27 ****         2.7984   1.6954  -2.9088 H              1 S1                 0.0000
     28 ****         3.0415   5.9405  -2.2765 H              1 S1                 0.0000
     29 ****         2.1759   5.6421  -0.0578 H              1 S1                 0.0000
     30 ****         0.5605  -0.6265   0.7714 H              1 S1                 0.0000
     31 ****        -2.0985   0.1573   0.0356 H              1 S1                 0.0000
     32 ****        -2.3132  -1.1651  -1.8905 H              1 S1                 0.0000
     33 ****        -0.8828  -2.1079  -1.4907 H              1 S1                 0.0000
     34 ****        -3.6862  -2.4762  -0.3845 H              1 S1                 0.0000
     35 ****        -2.5729  -3.7216  -0.9748 H              1 S1                 0.0000
     36 ****        -3.7784  -3.2068   2.1407 H              1 S1                 0.0000
     37 ****        -3.0119  -4.6674   1.5350 H              1 S1                 0.0000
     38 ****        -2.4978  -4.2717   3.9907 H              1 S1                 0.0000
     39 ****        -1.0688  -4.3680   2.9942 H              1 S1                 0.0000
     40 ****        -2.3481  -1.8249   4.0925 H              1 S1                 0.0000
     41 ****        -0.7880  -2.4768   4.5256 H              1 S1                 0.0000
     42 ****        -0.6251  -0.5306   2.9145 H              1 S1                 0.0000
     43 ****         0.1074  -1.9885   2.2704 H              1 S1                 0.0000
     44 ****        -2.7562  -1.0793   1.7200 H              1 S1                 0.0000
     45 ****        -1.1799  -3.3145   0.8059 H              1 S1                 0.0000
     46 ****         0.1613   1.8567  -2.2829 LP             1 S1                 0.0000
     47 ****        -1.2201   0.9538  -1.7572 LP             1 S1                 0.0000
     48 ****         1.3326   2.3626   1.2952 LP             1 S1                 0.0000
     49 ****         1.4007   4.0712   1.5709 LP             1 S1                 0.0000
@<TRIPOS>BOND
    1    1    2 2     
    2    2    3 1     
    3    2   15 am    
    4    3    4 1     
    5    3   25 1     
    6    3   26 1     
    7    4   13 am    
    8    4    5 1     
    9    5    6 2     
   10    5   27 1     
   11    6    7 1     
   12    6   11 1     
   13    7    8 1     
   14    7    9 1     
   15    7   10 1     
   16   11   12 2     
   17   11   28 1     
   18   12   13 1     
   19   12   29 1     
   20   13   14 2     
   21   15   16 1     
   22   15   30 1     
   23   16   24 1     
   24   16   17 1     
   25   16   31 1     
   26   17   18 1     
   27   17   32 1     
   28   17   33 1     
   29   18   19 1     
   30   18   34 1     
   31   18   35 1     
   32   19   24 1     
   33   19   20 1     
   34   19   45 1     
   35   20   21 1     
   36   20   36 1     
   37   20   37 1     
   38   21   22 1     
   39   21   38 1     
   40   21   39 1     
   41   22   23 1     
   42   22   40 1     
   43   22   41 1     
   44   23   24 1     
   45   23   42 1     
   46   23   43 1     
   47   24   44 1     
   48    1   46 1     
   49    1   47 1     
   50   14   48 1     
   51   14   49 1     
@<TRIPOS>SUBSTRUCTURE
      1 S1             1
@<TRIPOS>SET
LONE_PAIRS      STATIC     ATOMS    <user>   **** ""
4 46 47 48 49
DONOR_HYDROGENS      STATIC     ATOMS    <user>   **** ""
2 30 45
ATOM$BLUE        STATIC     ATOMS    COLORGROUP SYSTEM
4 46 47 48 49
ATOM$RED        STATIC     ATOMS    COLORGROUP SYSTEM
2 30 45
