AV-unprocessed.smi:409|AV-procd|sdf|2505|dock6
  -GOLD-   2262022453D 1   1.00000     0.00000
 Structure written by MMmdl.
 35 36  0  0  0  0  0  0  0  0  1 V2000
  149.6810  141.7962  158.5742 O   0  0  0  0  0  0  0  0  0  0  0  0
  150.2074  142.1474  157.5170 C   0  0  0  0  0  0  0  0  0  0  0  0
  149.6050  141.7383  156.1653 C   0  0  0  0  0  0  0  0  0  0  0  0
  150.3673  140.6758  155.4932 N   0  0  0  0  0  0  0  0  0  0  0  0
  151.6615  140.3797  155.8970 C   0  0  0  0  0  0  0  0  0  0  0  0
  152.4238  139.4237  155.3152 C   0  0  0  0  0  0  0  0  0  0  0  0
  151.9012  138.6380  154.2025 C   0  0  0  0  0  0  0  0  0  0  0  0
  152.5129  137.7507  153.6119 O   0  0  0  0  0  0  0  0  0  0  0  0
  150.5970  138.9669  153.8242 N   0  0  0  0  0  0  0  0  0  0  0  0
  149.8065  139.9520  154.4184 C   0  0  0  0  0  0  0  0  0  0  0  0
  148.6679  140.1647  154.0033 O   0  0  0  0  0  0  0  0  0  0  0  0
  151.3071  142.9145  157.4637 N   0  0  0  0  0  0  0  0  0  0  0  0
  152.0401  143.4217  158.6195 C   0  0  0  0  0  0  0  0  0  0  0  0
  152.5411  142.2585  159.5010 C   0  0  0  0  0  0  0  0  0  0  0  0
  153.2489  142.7749  160.7642 C   0  0  0  0  0  0  0  0  0  0  0  0
  152.3416  143.7219  161.5652 C   0  0  0  0  0  0  0  0  0  0  0  0
  151.8455  144.8847  160.6916 C   0  0  0  0  0  0  0  0  0  0  0  0
  151.1353  144.3699  159.4290 C   0  0  0  0  0  0  0  0  0  0  0  0
  150.1938  138.4510  153.0557 H   0  0  0  0  0  0  0  0  0  0  0  0
  148.5774  141.4151  156.3374 H   0  0  0  0  0  0  0  0  0  0  0  0
  149.5265  142.6124  155.5155 H   0  0  0  0  0  0  0  0  0  0  0  0
  152.0921  140.9400  156.7150 H   0  0  0  0  0  0  0  0  0  0  0  0
  153.4262  139.2404  155.6744 H   0  0  0  0  0  0  0  0  0  0  0  0
  151.6679  143.1604  156.5533 H   0  0  0  0  0  0  0  0  0  0  0  0
  152.9010  143.9947  158.2689 H   0  0  0  0  0  0  0  0  0  0  0  0
  151.7004  141.6265  159.7913 H   0  0  0  0  0  0  0  0  0  0  0  0
  153.2238  141.6227  158.9361 H   0  0  0  0  0  0  0  0  0  0  0  0
  153.5533  141.9349  161.3890 H   0  0  0  0  0  0  0  0  0  0  0  0
  154.1636  143.2971  160.4813 H   0  0  0  0  0  0  0  0  0  0  0  0
  151.4875  143.1671  161.9553 H   0  0  0  0  0  0  0  0  0  0  0  0
  152.8798  144.1097  162.4307 H   0  0  0  0  0  0  0  0  0  0  0  0
  151.1692  145.5186  161.2660 H   0  0  0  0  0  0  0  0  0  0  0  0
  152.6900  145.5128  160.4051 H   0  0  0  0  0  0  0  0  0  0  0  0
  150.8303  145.2148  158.8104 H   0  0  0  0  0  0  0  0  0  0  0  0
  150.2195  143.8517  159.7176 H   0  0  0  0  0  0  0  0  0  0  0  0
  1  2  2  0  0  0  0
  2  3  1  0  0  0  0
  2 12  1  0  0  0  0
  3  4  1  0  0  0  0
  3 20  1  0  0  0  0
  3 21  1  0  0  0  0
  4 10  1  0  0  0  0
  4  5  1  0  0  0  0
  5  6  2  0  0  0  0
  5 22  1  0  0  0  0
  6  7  1  0  0  0  0
  6 23  1  0  0  0  0
  7  8  2  0  0  0  0
  7  9  1  0  0  0  0
  9 19  1  0  0  0  0
  9 10  1  0  0  0  0
 10 11  2  0  0  0  0
 12 13  1  0  0  0  0
 12 24  1  0  0  0  0
 13 18  1  0  0  0  0
 13 14  1  0  0  0  0
 13 25  1  0  0  0  0
 14 15  1  0  0  0  0
 14 26  1  0  0  0  0
 14 27  1  0  0  0  0
 15 16  1  0  0  0  0
 15 28  1  0  0  0  0
 15 29  1  0  0  0  0
 16 17  1  0  0  0  0
 16 30  1  0  0  0  0
 16 31  1  0  0  0  0
 17 18  1  0  0  0  0
 17 32  1  0  0  0  0
 17 33  1  0  0  0  0
 18 34  1  0  0  0  0
 18 35  1  0  0  0  0
M  END
> <s_m_source_file>
AV-unprocessed.smi

> <i_m_source_file_index>
409

> <i_lp_mmshare_version>
43012

> <i_f3d_flags>
0

> <s_epik_input>
W0NIMl0xW0NIMl1bQ0gyXVtDSDJdW0NIMl1bQ0hdMVtOSF1DKD1PKVtDSDJdbjJbY0hdW2NIXWMoPU8pW25IXWMyPU8=

> <s_epik_cmdline>
J2VwaWtfcHl0aG9uJywgJy1waCcsICc3LjAnLCAnLXRuJywgJzgnLCAnLW1hJywgJzIwMCcsICctbWV0YWxfYmluZGluZycsICctaW1hZScsICc8aW5maWxlLm1hZT4nLCAnLW9tYWUnLCAnPG91dGZpbGUubWFlPic=

> <r_lp_tautomer_probability>
0.999537

> <r_epik_Ionization_Penalty>
0.00309578

> <r_epik_Ionization_Penalty_Charging>
0.00309576

> <r_epik_Ionization_Penalty_Neutral>
1.90469e-08

> <r_epik_State_Penalty>
0.00217825

> <r_epik_Charging_Adjusted_Penalty>
0.00527401

> <i_epik_Tot_Q>
0

> <i_epik_Tot_abs_Q>
0

> <r_epik_Metal_State_Penalty>
0.362603

> <b_epik_Metal_Only>
0

> <s_lp_Force_Field>
OPLS_2005

> <r_lp_Energy>
8.21917

> <b_lp_Chiralities_Consistent>
1

> <s_lp_Variant>
AV-unprocessed.smi:409-1

> <Gold.Version>
5.8.1

> <Gold.Id.Protein>
6NUR|6NUR_protein|mol2

> <Gold.PLP.Fitness>
43.9885

> <Gold.PLP.PLP>
-42.2955

> <Gold.PLP.part.hbond>
-1.3938

> <Gold.PLP.part.metal>
0.0000

> <Gold.PLP.part.buried>
-6.2883

> <Gold.PLP.part.nonpolar>
-36.6039

> <Gold.PLP.part.repulsive>
0.7566

> <Gold.PLP.ligand.clash>
0.0000

> <Gold.PLP.ligand.torsion>
0.4039

> <Gold.PLP.Chemscore.Hbond>
0.8320

> <Gold.PLP.Chemscore.CHOScore>
0.0000

> <Gold.PLP.Chemscore.Metal>
0.0000

> <Gold.Chemscore.Hbonds>
donor molecule, donor type, donor heavy atom, donor atom, acceptor molecule, acceptor atom, score
      P1  H 10752 10764       L1     8  0.57

> <Gold.PLP.Chemscore.Internal.Correction>
0.0048

> <Gold.Rescore>
     Score         DG    S(hbond)    S(metal)    S(lipo)     H(rot)  DE(clash)    DE(int)     intcor
     15.26     -16.98       1.75        0.00      85.67       1.70       0.06       1.66       ----

> <Gold.Chemscore.Fitness>
15.2592

> <Gold.Chemscore.DG>
-16.9821

> <Gold.Chemscore.ZeroCoef>
-5.4800

> <Gold.Chemscore.Hbond>
1.7470

> <Gold.Chemscore.Metal>
0.0000

> <Gold.Chemscore.Lipo>
85.6676

> <Gold.Chemscore.Internal_Hbond>
0.0000

> <Gold.Chemscore.DEClash>
0.0640

> <Gold.Chemscore.DEInternal>
1.6589

> <Gold.Chemscore.Rot>
1.7015

> <Gold.Chemscore.Internal.Correction>
   9.000000E+99

> <Gold.Chemscore.Hbonds>
donor molecule, donor type, donor heavy atom, donor atom, acceptor molecule, acceptor atom, score
      P1  H 10752 10764       L1     8  0.57

> <Gold.Chemscore.Hbond.Weighted>
-5.8350

> <Gold.Chemscore.Metal.Weighted>
-0.0000

> <Gold.Chemscore.Lipo.Weighted>
-10.0231

> <Gold.Chemscore.Internal_Hbond.Weighted>
0.0000

> <Gold.Chemscore.DEClash.Weighted>
0.0640

> <Gold.Chemscore.DEInternal.Weighted>
1.6589

> <Gold.Chemscore.Rot.Weighted>
4.3559

> <Gold.Chemscore.Internal.Correction.Weighted>
   9.000000E+99

> <Gold.Protein.RotatedTorsions>
[ 6907 6896 6895 6894 ] final  -82.32 input  -60.11 | X-H torsion
[ 7974 7965 7964 7962 ] final -174.66 input  175.53 | X-H torsion
[ 8008 7997 7996 7995 ] final  -83.54 input   59.86 | X-H torsion
[ 10167 10162 10161 10158 ] final   -3.06 input  -65.29 | X-H torsion
[ 10718 10713 10712 10709 ] final  -22.01 input   66.30 | X-H torsion
[ 10763 10752 10751 10750 ] final  -95.91 input  -60.55 | X-H torsion
[ 11005 11000 10999 10996 ] final -171.60 input  -57.11 | X-H torsion

> <Gold.Protein.ActiveResidues>
 VAL166  LYS551  ARG553  GLY616  TRP617  ASP618  TYR619  PRO620  LYS621  CYS622 
 ASP623  PHE694  ASN695  SER759  ASP760  ASP761  ALA762  ILE779  LEU786  VAL792 
 PHE793  MET794  SER795  GLU796  ALA797  LYS798  CYS799  TRP800  GLU811  SER814 

> <Gold.Protein.RotatedAtoms>
  150.6899  134.3682  159.4980 H   0  0  0  0  0  0  0  0  0  0  0  0  # atno 6907 bound_to 6896
  152.1502  134.8992  160.0557 H   0  0  0  0  0  0  0  0  0  0  0  0  # atno 6908 bound_to 6896
  152.0092  133.3820  159.4250 H   0  0  0  0  0  0  0  0  0  0  0  0  # atno 6909 bound_to 6896
  144.7131  140.1438  143.6389 H   0  0  0  0  0  0  0  0  0  0  0  0  # atno 7974 bound_to 7965
  154.6202  140.0617  156.9605 H   0  0  0  0  0  0  0  0  0  0  0  0  # atno 8008 bound_to 7997
  155.1830  140.3300  155.4353 H   0  0  0  0  0  0  0  0  0  0  0  0  # atno 8009 bound_to 7997
  156.2427  140.1894  156.6925 H   0  0  0  0  0  0  0  0  0  0  0  0  # atno 8010 bound_to 7997
  140.6875  143.6584  150.8288 H   0  0  0  0  0  0  0  0  0  0  0  0  # atno 10167 bound_to 10162
  156.5104  130.4608  149.6651 H   0  0  0  0  0  0  0  0  0  0  0  0  # atno 10718 bound_to 10713
  154.7192  135.5103  153.8785 H   0  0  0  0  0  0  0  0  0  0  0  0  # atno 10763 bound_to 10752
  153.0847  135.6642  153.9982 H   0  0  0  0  0  0  0  0  0  0  0  0  # atno 10764 bound_to 10752
  153.9809  135.3029  155.3399 H   0  0  0  0  0  0  0  0  0  0  0  0  # atno 10765 bound_to 10752
  140.5064  134.5843  157.5005 H   0  0  0  0  0  0  0  0  0  0  0  0  # atno 11005 bound_to 11000
  145.9178  139.2527  143.1399 LP  0  0  0  0  0  0  0  0  0  0  0  0  # atno 17320 bound_to 7965
  145.9651  140.8805  143.0191 LP  0  0  0  0  0  0  0  0  0  0  0  0  # atno 17321 bound_to 7965
  140.0293  143.5461  152.2767 LP  0  0  0  0  0  0  0  0  0  0  0  0  # atno 17342 bound_to 10162
  139.6247  144.7635  151.2663 LP  0  0  0  0  0  0  0  0  0  0  0  0  # atno 17343 bound_to 10162
  156.3246  130.7299  151.2217 LP  0  0  0  0  0  0  0  0  0  0  0  0  # atno 17370 bound_to 10713
  157.7451  131.0446  150.4803 LP  0  0  0  0  0  0  0  0  0  0  0  0  # atno 17371 bound_to 10713
  139.9683  134.7335  156.0092 LP  0  0  0  0  0  0  0  0  0  0  0  0  # atno 17394 bound_to 11000
  141.1408  133.6565  156.3725 LP  0  0  0  0  0  0  0  0  0  0  0  0  # atno 17395 bound_to 11000

$$$$
