#       Name:                AV-unprocessed.smi:72
#       Creating user name   scv26
#       Creation time:       Thu Mar 26 17:07:53 2020


#       File generated by GOLD software.
#

@<TRIPOS>MOLECULE
AV-unprocessed.smi:72
    41    42     1
SMALL
NO_CHARGES


@<TRIPOS>ATOM
      1 ****        -5.0846  -0.1417   0.2237 N.pl3          1 S1                 0.0000
      2 ****        -3.7218  -0.3516   0.2400 C.2            1 S1                 0.0000
      3 ****        -2.9495   0.6213   0.8881 N.2            1 S1                 0.0000
      4 ****        -1.6678   0.4342   0.8974 C.2            1 S1                 0.0000
      5 ****        -1.0658  -0.7203   0.2475 N.am           1 S1                 0.0000
      6 ****         0.4328  -0.9812   0.2486 C.3            1 S1                 0.0000
      7 ****         1.0825  -0.0261   1.0375 O.3            1 S1                 0.0000
      8 ****         1.6076   1.0083   0.2103 C.3            1 S1                 0.0000
      9 ****         2.6679   1.8367   0.9560 C.3            1 S1                 0.0000
     10 ****         2.0407   2.8300   1.7391 O.3            1 S1                 0.0000
     11 ****         2.1084   0.2177  -1.0017 C.3            1 S1                 0.0000
     12 ****         3.3828  -0.3462  -0.7351 O.3            1 S1                 0.0000
     13 ****         1.0192  -0.8417  -1.1744 C.3            1 S1                 0.0000
     14 ****         1.5243  -2.0563  -1.6977 O.3            1 S1                 0.0000
     15 ****        -1.9173  -1.6857  -0.3591 C.2            1 S1                 0.0000
     16 ****        -1.4378  -2.6971  -0.8717 O.2            1 S1                 0.0000
     17 ****        -3.2937  -1.4323  -0.3457 N.2            1 S1                 0.0000
     18 ****         0.5532  -1.9690   0.6971 H              1 S1                 0.0000
     19 ****         0.7959   1.6578  -0.1229 H              1 S1                 0.0000
     20 ****         2.1960   0.8487  -1.8867 H              1 S1                 0.0000
     21 ****         0.2507  -0.4556  -1.8460 H              1 S1                 0.0000
     22 ****        -5.7391  -0.7753  -0.2117 H              1 S1                 0.0000
     23 ****        -5.5290   0.6613   0.6449 H              1 S1                 0.0000
     24 ****        -0.9796   1.1225   1.3880 H              1 S1                 0.0000
     25 ****         3.2999   1.2058   1.5817 H              1 S1                 0.0000
     26 ****         3.3171   2.3451   0.2425 H              1 S1                 0.0000
     27 ****         2.7093   3.3209   2.1921 H              1 S1                 0.0000
     28 ****         3.5858  -0.9561  -1.4282 H              1 S1                 0.0000
     29 ****         0.8120  -2.6750  -1.7566 H              1 S1                 0.0000
     30 ****        -3.3668   1.4200   1.3217 LP             1 S1                 0.0000
     31 ****         1.8302  -0.4623   1.5382 LP             1 S1                 0.0000
     32 ****         0.4312   0.3667   1.6867 LP             1 S1                 0.0000
     33 ****         1.4295   2.3999   2.4035 LP             1 S1                 0.0000
     34 ****         1.5141   3.4421   1.1492 LP             1 S1                 0.0000
     35 ****         3.3645  -0.8248   0.1428 LP             1 S1                 0.0000
     36 ****         4.0736   0.3763  -0.7065 LP             1 S1                 0.0000
     37 ****         2.2344  -2.4155  -1.0921 LP             1 S1                 0.0000
     38 ****         1.9101  -1.8979  -2.6066 LP             1 S1                 0.0000
     39 ****        -0.4483  -2.8413  -0.8623 LP             1 S1                 0.0000
     40 ****        -2.0378  -3.3743  -1.2975 LP             1 S1                 0.0000
     41 ****        -3.9343  -2.0677  -0.7767 LP             1 S1                 0.0000
@<TRIPOS>BOND
    1    1    2 1     
    2    1   22 1     
    3    1   23 1     
    4    2   17 2     
    5    2    3 1     
    6    3    4 2     
    7    4    5 1     
    8    4   24 1     
    9    5    6 1     
   10    5   15 am    
   11    6   18 1     
   12    6   13 1     
   13    6    7 1     
   14    7    8 1     
   15    8   19 1     
   16    8    9 1     
   17    8   11 1     
   18    9   10 1     
   19    9   25 1     
   20    9   26 1     
   21   10   27 1     
   22   11   20 1     
   23   11   12 1     
   24   11   13 1     
   25   12   28 1     
   26   13   21 1     
   27   13   14 1     
   28   14   29 1     
   29   15   16 2     
   30   15   17 1     
   31    3   30 1     
   32    7   31 1     
   33    7   32 1     
   34   10   33 1     
   35   10   34 1     
   36   12   35 1     
   37   12   36 1     
   38   14   37 1     
   39   14   38 1     
   40   16   39 1     
   41   16   40 1     
   42   17   41 1     
@<TRIPOS>SUBSTRUCTURE
      1 S1             1
@<TRIPOS>SET
LONE_PAIRS      STATIC     ATOMS    <user>   **** ""
12 30 31 32 33 34 35 36 37 38 39 40 41
DONOR_HYDROGENS      STATIC     ATOMS    <user>   **** ""
5 22 23 27 28 29
ATOM$BLUE        STATIC     ATOMS    COLORGROUP SYSTEM
12 30 31 32 33 34 35 36 37 38 39 40 41
ATOM$RED        STATIC     ATOMS    COLORGROUP SYSTEM
5 22 23 27 28 29
