AV-unprocessed.smi:2909|AV-procd|sdf|11174|dock8
  -GOLD-   2272016 63D 1   1.00000     0.00000
 Structure written by MMmdl.
 44 45  0  0  0  0  0  0  0  0  1 V2000
  145.9845  144.4500  161.8721 C   0  0  0  0  0  0  0  0  0  0  0  0
  146.6855  143.9396  160.6478 C   0  0  0  0  0  0  0  0  0  0  0  0
  146.1129  143.3134  159.5021 C   0  0  0  0  0  0  0  0  0  0  0  0
  147.1816  143.0471  158.6923 C   0  0  0  0  0  0  0  0  0  0  0  0
  147.2685  142.3935  157.3480 C   0  0  0  0  0  0  0  0  0  0  0  0
  148.7105  142.0449  156.9655 C   0  0  0  0  0  0  0  0  0  0  0  0
  148.9434  141.0136  156.3357 O   0  0  0  0  0  0  0  0  0  0  0  0
  149.6641  142.9190  157.3260 N   0  0  0  0  0  0  0  0  0  0  0  0
  151.0911  142.7970  157.0371 C   0  0  2  0  0  0  0  0  0  0  0  0
  151.6391  141.4818  157.6132 C   0  0  0  0  0  0  0  0  0  0  0  0
  151.6648  141.4821  159.1519 C   0  0  0  0  0  0  0  0  0  0  0  0
  152.4549  142.6791  159.7373 C   0  0  2  0  0  0  0  0  0  0  0  0
  152.4490  142.6830  161.2946 C   0  0  0  0  0  0  0  0  0  0  0  0
  152.5987  144.0968  161.8890 C   0  0  0  0  0  0  0  0  0  0  0  0
  153.5400  141.7754  161.8956 C   0  0  0  0  0  0  0  0  0  0  0  0
  151.9005  143.9977  159.1426 C   0  0  0  0  0  0  0  0  0  0  0  0
  151.8784  143.9916  157.6039 C   0  0  0  0  0  0  0  0  0  0  0  0
  148.2923  143.5126  159.3595 N   0  0  0  0  0  0  0  0  0  0  0  0
  148.0019  144.0572  160.5552 N   0  0  0  0  0  0  0  0  0  0  0  0
  149.2411  143.4665  159.0153 H   0  0  0  0  0  0  0  0  0  0  0  0
  144.9415  144.1339  161.8895 H   0  0  0  0  0  0  0  0  0  0  0  0
  146.0018  145.5393  161.9067 H   0  0  0  0  0  0  0  0  0  0  0  0
  146.4580  144.0790  162.7816 H   0  0  0  0  0  0  0  0  0  0  0  0
  145.0745  143.0894  159.3065 H   0  0  0  0  0  0  0  0  0  0  0  0
  146.8520  143.0468  156.5807 H   0  0  0  0  0  0  0  0  0  0  0  0
  146.6648  141.4850  157.3436 H   0  0  0  0  0  0  0  0  0  0  0  0
  149.3785  143.7383  157.8426 H   0  0  0  0  0  0  0  0  0  0  0  0
  151.2241  142.7703  155.9538 H   0  0  0  0  0  0  0  0  0  0  0  0
  151.0494  140.6387  157.2510 H   0  0  0  0  0  0  0  0  0  0  0  0
  152.6522  141.3233  157.2414 H   0  0  0  0  0  0  0  0  0  0  0  0
  150.6441  141.4909  159.5366 H   0  0  0  0  0  0  0  0  0  0  0  0
  152.1041  140.5387  159.4727 H   0  0  0  0  0  0  0  0  0  0  0  0
  153.4910  142.5820  159.4092 H   0  0  0  0  0  0  0  0  0  0  0  0
  151.4864  142.2941  161.6299 H   0  0  0  0  0  0  0  0  0  0  0  0
  153.4952  144.5919  161.5147 H   0  0  0  0  0  0  0  0  0  0  0  0
  152.6716  144.0605  162.9764 H   0  0  0  0  0  0  0  0  0  0  0  0
  151.7417  144.7296  161.6610 H   0  0  0  0  0  0  0  0  0  0  0  0
  154.5287  142.0429  161.5215 H   0  0  0  0  0  0  0  0  0  0  0  0
  153.3669  140.7233  161.6727 H   0  0  0  0  0  0  0  0  0  0  0  0
  153.5663  141.8581  162.9826 H   0  0  0  0  0  0  0  0  0  0  0  0
  150.8948  144.1798  159.5237 H   0  0  0  0  0  0  0  0  0  0  0  0
  152.5061  144.8460  159.4584 H   0  0  0  0  0  0  0  0  0  0  0  0
  152.9038  143.9505  157.2344 H   0  0  0  0  0  0  0  0  0  0  0  0
  151.4634  144.9297  157.2335 H   0  0  0  0  0  0  0  0  0  0  0  0
  1 21  1  0  0  0  0
  1 22  1  0  0  0  0
  1 23  1  0  0  0  0
  1  2  1  0  0  0  0
  2 19  2  0  0  0  0
  2  3  1  0  0  0  0
  3  4  2  0  0  0  0
  3 24  1  0  0  0  0
  4 18  1  0  0  0  0
  4  5  1  0  0  0  0
  5  6  1  0  0  0  0
  5 25  1  0  0  0  0
  5 26  1  0  0  0  0
  6  7  2  0  0  0  0
  6  8  1  0  0  0  0
  8  9  1  0  0  0  0
  8 27  1  0  0  0  0
  9 17  1  0  0  0  0
  9 10  1  0  0  0  0
  9 28  1  0  0  0  0
 10 11  1  0  0  0  0
 10 29  1  0  0  0  0
 10 30  1  0  0  0  0
 11 12  1  0  0  0  0
 11 31  1  0  0  0  0
 11 32  1  0  0  0  0
 12 13  1  0  0  0  0
 12 16  1  0  0  0  0
 12 33  1  0  0  0  0
 13 14  1  0  0  0  0
 13 15  1  0  0  0  0
 13 34  1  0  0  0  0
 14 35  1  0  0  0  0
 14 36  1  0  0  0  0
 14 37  1  0  0  0  0
 15 38  1  0  0  0  0
 15 39  1  0  0  0  0
 15 40  1  0  0  0  0
 16 17  1  0  0  0  0
 16 41  1  0  0  0  0
 16 42  1  0  0  0  0
 17 43  1  0  0  0  0
 17 44  1  0  0  0  0
 18 19  1  0  0  0  0
 18 20  1  0  0  0  0
M  END
> <s_m_source_file>
AV-unprocessed.smi

> <i_m_source_file_index>
2909

> <i_lp_mmshare_version>
43012

> <i_f3d_flags>
0

> <s_epik_input>
W0NIM11jMVtjSF1jKG5bbkhdMSlbQ0gyXUMoPU8pW05IXVtDQEBIXTJbQ0gyXVtDSDJdW0NAQEhdKFtDSF0oW0NIM10pW0NIM10pW0NIMl1bQ0gyXTI=

> <s_epik_cmdline>
J2VwaWtfcHl0aG9uJywgJy1waCcsICc3LjAnLCAnLXRuJywgJzgnLCAnLW1hJywgJzIwMCcsICctbWV0YWxfYmluZGluZycsICctaW1hZScsICc8aW5maWxlLm1hZT4nLCAnLW9tYWUnLCAnPG91dGZpbGUubWFlPic=

> <r_lp_tautomer_probability>
0.5

> <r_epik_Ionization_Penalty>
0.00013296

> <r_epik_Ionization_Penalty_Charging>
0

> <r_epik_Ionization_Penalty_Neutral>
0.00013296

> <r_epik_State_Penalty>
0.41068

> <r_epik_Charging_Adjusted_Penalty>
0.41068

> <i_epik_Tot_Q>
0

> <i_epik_Tot_abs_Q>
0

> <r_epik_Metal_State_Penalty>
0.41066

> <b_epik_Metal_Only>
0

> <s_lp_Force_Field>
OPLS_2005

> <r_lp_Energy>
9.99393

> <b_lp_Chiralities_Consistent>
1

> <s_lp_Variant>
AV-unprocessed.smi:2909-4

> <Gold.Version>
5.8.1

> <Gold.Id.Protein>
6NUR|6NUR_protein|mol2

> <Gold.PLP.Fitness>
39.5307

> <Gold.PLP.PLP>
-39.3417

> <Gold.PLP.part.hbond>
-2.0000

> <Gold.PLP.part.metal>
0.0000

> <Gold.PLP.part.buried>
-5.0785

> <Gold.PLP.part.nonpolar>
-31.6997

> <Gold.PLP.part.repulsive>
0.4324

> <Gold.PLP.ligand.clash>
0.0000

> <Gold.PLP.ligand.torsion>
1.1163

> <Gold.PLP.Chemscore.Hbond>
0.8000

> <Gold.PLP.Chemscore.CHOScore>
0.0000

> <Gold.PLP.Chemscore.Metal>
0.0000

> <Gold.Chemscore.Hbonds>
donor molecule, donor type, donor heavy atom, donor atom, acceptor molecule, acceptor atom, score
      P1  H  6933  6944       L1    19  0.48

> <Gold.PLP.Chemscore.Internal.Correction>
0.0216

> <Gold.Rescore>
     Score         DG    S(hbond)    S(metal)    S(lipo)     H(rot)  DE(clash)    DE(int)     intcor
     11.10     -15.51       0.00        0.00     118.56       1.50       0.86       3.55       ----

> <Gold.Chemscore.Fitness>
11.1017

> <Gold.Chemscore.DG>
-15.5088

> <Gold.Chemscore.ZeroCoef>
-5.4800

> <Gold.Chemscore.Hbond>
0.0001

> <Gold.Chemscore.Metal>
0.0000

> <Gold.Chemscore.Lipo>
118.5577

> <Gold.Chemscore.Internal_Hbond>
0.0000

> <Gold.Chemscore.DEClash>
0.8577

> <Gold.Chemscore.DEInternal>
3.5493

> <Gold.Chemscore.Rot>
1.5011

> <Gold.Chemscore.Internal.Correction>
   9.000000E+99

> <Gold.Chemscore.Hbond.Weighted>
-0.0004

> <Gold.Chemscore.Metal.Weighted>
-0.0000

> <Gold.Chemscore.Lipo.Weighted>
-13.8712

> <Gold.Chemscore.Internal_Hbond.Weighted>
0.0000

> <Gold.Chemscore.DEClash.Weighted>
0.8577

> <Gold.Chemscore.DEInternal.Weighted>
3.5493

> <Gold.Chemscore.Rot.Weighted>
3.8429

> <Gold.Chemscore.Internal.Correction.Weighted>
   9.000000E+99

> <Gold.Protein.RotatedTorsions>
[ 6907 6896 6895 6894 ] final  156.12 input  -60.11 | X-H torsion
[ 7974 7965 7964 7962 ] final  -15.38 input  175.53 | X-H torsion
[ 8008 7997 7996 7995 ] final  131.19 input   59.86 | X-H torsion
[ 10167 10162 10161 10158 ] final    1.13 input  -65.29 | X-H torsion
[ 10718 10713 10712 10709 ] final  150.88 input   66.30 | X-H torsion
[ 10763 10752 10751 10750 ] final   55.21 input  -60.55 | X-H torsion
[ 11005 11000 10999 10996 ] final   46.83 input  -57.11 | X-H torsion

> <Gold.Protein.ActiveResidues>
 VAL166  LYS551  ARG553  GLY616  TRP617  ASP618  TYR619  PRO620  LYS621  CYS622 
 ASP623  PHE694  ASN695  SER759  ASP760  ASP761  ALA762  ILE779  LEU786  VAL792 
 PHE793  MET794  SER795  GLU796  ALA797  LYS798  CYS799  TRP800  GLU811  SER814 

> <Gold.Protein.RotatedAtoms>
  152.0343  133.3950  159.4309 H   0  0  0  0  0  0  0  0  0  0  0  0  # atno 6907 bound_to 6896
  150.6880  134.3486  159.4908 H   0  0  0  0  0  0  0  0  0  0  0  0  # atno 6908 bound_to 6896
  152.1276  134.9158  160.0611 H   0  0  0  0  0  0  0  0  0  0  0  0  # atno 6909 bound_to 6896
  146.2034  140.3484  142.8415 H   0  0  0  0  0  0  0  0  0  0  0  0  # atno 7974 bound_to 7965
  156.2966  140.2577  156.2886 H   0  0  0  0  0  0  0  0  0  0  0  0  # atno 8008 bound_to 7997
  154.9532  140.0394  157.2173 H   0  0  0  0  0  0  0  0  0  0  0  0  # atno 8009 bound_to 7997
  154.8016  140.2829  155.5922 H   0  0  0  0  0  0  0  0  0  0  0  0  # atno 8010 bound_to 7997
  140.6697  143.7083  150.7897 H   0  0  0  0  0  0  0  0  0  0  0  0  # atno 10167 bound_to 10162
  157.2778  131.0829  151.1553 H   0  0  0  0  0  0  0  0  0  0  0  0  # atno 10718 bound_to 10713
  152.9814  135.5718  154.5029 H   0  0  0  0  0  0  0  0  0  0  0  0  # atno 10763 bound_to 10752
  154.4546  135.2779  155.1759 H   0  0  0  0  0  0  0  0  0  0  0  0  # atno 10764 bound_to 10752
  154.3372  135.6237  153.5632 H   0  0  0  0  0  0  0  0  0  0  0  0  # atno 10765 bound_to 10752
  140.1333  134.4677  155.8504 H   0  0  0  0  0  0  0  0  0  0  0  0  # atno 11005 bound_to 11000
  144.8736  140.7306  143.6031 LP  0  0  0  0  0  0  0  0  0  0  0  0  # atno 17320 bound_to 7965
  145.3403  139.1734  143.4489 LP  0  0  0  0  0  0  0  0  0  0  0  0  # atno 17321 bound_to 7965
  140.0766  143.5009  152.2552 LP  0  0  0  0  0  0  0  0  0  0  0  0  # atno 17342 bound_to 10162
  139.5960  144.7567  151.3286 LP  0  0  0  0  0  0  0  0  0  0  0  0  # atno 17343 bound_to 10162
  157.2999  130.6837  149.6158 LP  0  0  0  0  0  0  0  0  0  0  0  0  # atno 17370 bound_to 10713
  155.9664  130.4395  150.5261 LP  0  0  0  0  0  0  0  0  0  0  0  0  # atno 17371 bound_to 10713
  141.2174  133.6804  156.7110 LP  0  0  0  0  0  0  0  0  0  0  0  0  # atno 17394 bound_to 11000
  140.2814  134.8313  157.3937 LP  0  0  0  0  0  0  0  0  0  0  0  0  # atno 17395 bound_to 11000

$$$$
