AV-unprocessed.smi:3167|AV-procd|sdf|12098|dock5
  -GOLD-   2272017533D 1   1.00000     0.00000
 Structure written by MMmdl.
 37 38  0  0  0  0  0  0  0  0  2 V2000
  142.8017  136.2745  152.5299 C   0  0  0  0  0  0  0  0  0  0  0  0
  143.7636  135.9460  151.3654 C   0  0  1  0  0  0  0  0  0  0  0  0
  145.2313  136.2218  151.7722 C   0  0  0  0  0  0  0  0  0  0  0  0
  145.5115  137.6490  151.8767 N   0  0  0  0  0  0  0  0  0  0  0  0
  146.3199  138.1928  152.7958 C   0  0  0  0  0  0  0  0  0  0  0  0
  146.9148  137.5338  153.6487 O   0  0  0  0  0  0  0  0  0  0  0  0
  146.3891  139.5272  152.6601 N   0  0  0  0  0  0  0  0  0  0  0  0
  147.1422  140.4343  153.4479 C   0  0  0  0  0  0  0  0  0  0  0  0
  148.2769  140.0804  154.2274 C   0  0  0  0  0  0  0  0  0  0  0  0
  148.7780  141.1328  154.8581 N   0  0  0  0  0  0  0  0  0  0  0  0
  147.9735  142.1551  154.4895 N   0  0  0  0  0  0  0  0  0  0  0  0
  146.9640  141.7768  153.6320 C   0  0  0  0  0  0  0  0  0  0  0  0
  143.5995  134.5347  150.9099 N   0  3  0  0  0  0  0  0  0  0  0  0
  144.5455  134.0808  149.8666 C   0  0  0  0  0  0  0  0  0  0  0  0
  144.5196  132.5590  149.9422 C   0  0  0  0  0  0  0  0  0  0  0  0
  144.3874  132.2928  151.4367 C   0  0  0  0  0  0  0  0  0  0  0  0
  143.6361  133.5126  151.9878 C   0  0  0  0  0  0  0  0  0  0  0  0
  148.1241  143.0946  154.8285 H   0  0  0  0  0  0  0  0  0  0  0  0
  142.9195  137.3017  152.8748 H   0  0  0  0  0  0  0  0  0  0  0  0
  142.9772  135.6196  153.3838 H   0  0  0  0  0  0  0  0  0  0  0  0
  141.7564  136.1722  152.2392 H   0  0  0  0  0  0  0  0  0  0  0  0
  143.5092  136.5968  150.5269 H   0  0  0  0  0  0  0  0  0  0  0  0
  145.4479  135.7430  152.7288 H   0  0  0  0  0  0  0  0  0  0  0  0
  145.9267  135.8008  151.0453 H   0  0  0  0  0  0  0  0  0  0  0  0
  145.0601  138.2600  151.2114 H   0  0  0  0  0  0  0  0  0  0  0  0
  145.8456  139.9396  151.9161 H   0  0  0  0  0  0  0  0  0  0  0  0
  148.7440  139.1150  154.3540 H   0  0  0  0  0  0  0  0  0  0  0  0
  146.2387  142.4784  153.2481 H   0  0  0  0  0  0  0  0  0  0  0  0
  144.2679  134.4435  148.8765 H   0  0  0  0  0  0  0  0  0  0  0  0
  145.5493  134.4429  150.0957 H   0  0  0  0  0  0  0  0  0  0  0  0
  143.6433  132.1757  149.4174 H   0  0  0  0  0  0  0  0  0  0  0  0
  145.4047  132.0963  149.5047 H   0  0  0  0  0  0  0  0  0  0  0  0
  143.8762  131.3533  151.6486 H   0  0  0  0  0  0  0  0  0  0  0  0
  145.3790  132.2385  151.8881 H   0  0  0  0  0  0  0  0  0  0  0  0
  144.1448  133.8818  152.8794 H   0  0  0  0  0  0  0  0  0  0  0  0
  142.6150  133.2546  152.2703 H   0  0  0  0  0  0  0  0  0  0  0  0
  142.6819  134.4644  150.4935 H   0  0  0  0  0  0  0  0  0  0  0  0
  1  2  1  0  0  0  0
  1 19  1  0  0  0  0
  1 20  1  0  0  0  0
  1 21  1  0  0  0  0
  2  3  1  0  0  0  0
  2 13  1  0  0  0  0
  2 22  1  0  0  0  0
  3  4  1  0  0  0  0
  3 23  1  0  0  0  0
  3 24  1  0  0  0  0
  4  5  1  0  0  0  0
  4 25  1  0  0  0  0
  5  6  2  0  0  0  0
  5  7  1  0  0  0  0
  7  8  1  0  0  0  0
  7 26  1  0  0  0  0
  8 12  2  0  0  0  0
  8  9  1  0  0  0  0
  9 10  2  0  0  0  0
  9 27  1  0  0  0  0
 10 11  1  0  0  0  0
 11 18  1  0  0  0  0
 11 12  1  0  0  0  0
 12 28  1  0  0  0  0
 13 17  1  0  0  0  0
 13 14  1  0  0  0  0
 13 37  1  0  0  0  0
 14 15  1  0  0  0  0
 14 29  1  0  0  0  0
 14 30  1  0  0  0  0
 15 16  1  0  0  0  0
 15 31  1  0  0  0  0
 15 32  1  0  0  0  0
 16 17  1  0  0  0  0
 16 33  1  0  0  0  0
 16 34  1  0  0  0  0
 17 35  1  0  0  0  0
 17 36  1  0  0  0  0
M  CHG  1  13   1
M  END
> <s_m_source_file>
AV-unprocessed.smi

> <i_m_source_file_index>
3167

> <i_lp_mmshare_version>
43012

> <i_f3d_flags>
0

> <s_epik_input>
W0NIMl0xW0NIMl1bQ0gyXVtDSDJdTjFbQ0BIXShbQ0gzXSlbQ0gyXVtOSF1DKD1PKVtOSF1jMltjSF1uW25IXVtjSF0y

> <s_epik_cmdline>
J2VwaWtfcHl0aG9uJywgJy1waCcsICc3LjAnLCAnLXRuJywgJzgnLCAnLW1hJywgJzIwMCcsICctbWV0YWxfYmluZGluZycsICctaW1hZScsICc8aW5maWxlLm1hZT4nLCAnLW9tYWUnLCAnPG91dGZpbGUubWFlPic=

> <r_lp_tautomer_probability>
0.5

> <r_epik_Ionization_Penalty>
0.000801258

> <r_epik_Ionization_Penalty_Charging>
0.000761583

> <r_epik_Ionization_Penalty_Neutral>
3.96747e-05

> <r_epik_State_Penalty>
0.000487427

> <r_epik_Charging_Adjusted_Penalty>
0.00124901

> <i_epik_Tot_Q>
1

> <i_epik_Tot_abs_Q>
1

> <r_epik_Metal_State_Penalty>
-0

> <b_epik_Metal_Only>
0

> <s_lp_Force_Field>
OPLS_2005

> <r_lp_Energy>
33.9812

> <b_lp_Chiralities_Consistent>
1

> <s_lp_Variant>
AV-unprocessed.smi:3167-2

> <Gold.Version>
5.8.1

> <Gold.Id.Protein>
6NUR|6NUR_protein|mol2

> <Gold.PLP.Fitness>
41.2088

> <Gold.PLP.PLP>
-28.2252

> <Gold.PLP.part.hbond>
-4.0000

> <Gold.PLP.part.metal>
0.0000

> <Gold.PLP.part.buried>
-4.9008

> <Gold.PLP.part.nonpolar>
-22.3506

> <Gold.PLP.part.repulsive>
2.4867

> <Gold.PLP.ligand.clash>
0.0000

> <Gold.PLP.ligand.torsion>
0.4466

> <Gold.PLP.Chemscore.Hbond>
4.6160

> <Gold.PLP.Chemscore.CHOScore>
0.0000

> <Gold.PLP.Chemscore.Metal>
0.0000

> <Gold.Chemscore.Hbonds>
donor molecule, donor type, donor heavy atom, donor atom, acceptor molecule, acceptor atom, score
      L1  H     4    25       P1 10171  1.00
      L1  H     7    26       P1 10175  0.12
      L1  H    11    18       P1  8028  1.00
      L1  H    13    37       P1 10186  2.00

> <Gold.PLP.Chemscore.Internal.Correction>
0.0288

> <Gold.Rescore>
     Score         DG    S(hbond)    S(metal)    S(lipo)     H(rot)  DE(clash)    DE(int)     intcor
     15.46     -18.58       2.96        0.00      63.13       1.63       1.49       1.62       ----

> <Gold.Chemscore.Fitness>
15.4646

> <Gold.Chemscore.DG>
-18.5764

> <Gold.Chemscore.ZeroCoef>
-5.4800

> <Gold.Chemscore.Hbond>
2.9599

> <Gold.Chemscore.Metal>
0.0000

> <Gold.Chemscore.Lipo>
63.1284

> <Gold.Chemscore.Internal_Hbond>
0.0000

> <Gold.Chemscore.DEClash>
1.4933

> <Gold.Chemscore.DEInternal>
1.6184

> <Gold.Chemscore.Rot>
1.6311

> <Gold.Chemscore.Internal.Correction>
   9.000000E+99

> <Gold.Chemscore.Hbonds>
donor molecule, donor type, donor heavy atom, donor atom, acceptor molecule, acceptor atom, score
      L1  H     4    25       P1 10171  0.97
      L1  H     7    26       P1 10175  0.07
      L1  H    11    18       P1  8028  0.95
      L1  H    13    37       P1 10186  0.45

> <Gold.Chemscore.Hbond.Weighted>
-9.8860

> <Gold.Chemscore.Metal.Weighted>
-0.0000

> <Gold.Chemscore.Lipo.Weighted>
-7.3860

> <Gold.Chemscore.Internal_Hbond.Weighted>
0.0000

> <Gold.Chemscore.DEClash.Weighted>
1.4933

> <Gold.Chemscore.DEInternal.Weighted>
1.6184

> <Gold.Chemscore.Rot.Weighted>
4.1757

> <Gold.Chemscore.Internal.Correction.Weighted>
   9.000000E+99

> <Gold.Protein.RotatedTorsions>
[ 6907 6896 6895 6894 ] final  154.64 input  -60.11 | X-H torsion
[ 7974 7965 7964 7962 ] final  109.04 input  175.53 | X-H torsion
[ 8008 7997 7996 7995 ] final  112.42 input   59.86 | X-H torsion
[ 10167 10162 10161 10158 ] final  -98.04 input  -65.29 | X-H torsion
[ 10718 10713 10712 10709 ] final -163.10 input   66.30 | X-H torsion
[ 10763 10752 10751 10750 ] final   46.21 input  -60.55 | X-H torsion
[ 11005 11000 10999 10996 ] final   68.30 input  -57.11 | X-H torsion

> <Gold.Protein.ActiveResidues>
 VAL166  LYS551  ARG553  GLY616  TRP617  ASP618  TYR619  PRO620  LYS621  CYS622 
 ASP623  PHE694  ASN695  SER759  ASP760  ASP761  ALA762  ILE779  LEU786  VAL792 
 PHE793  MET794  SER795  GLU796  ALA797  LYS798  CYS799  TRP800  GLU811  SER814 

> <Gold.Protein.RotatedAtoms>
  152.0556  133.4039  159.4395 H   0  0  0  0  0  0  0  0  0  0  0  0  # atno 6907 bound_to 6896
  150.6868  134.3258  159.4815 H   0  0  0  0  0  0  0  0  0  0  0  0  # atno 6908 bound_to 6896
  152.1073  134.9299  160.0618 H   0  0  0  0  0  0  0  0  0  0  0  0  # atno 6909 bound_to 6896
  145.2730  139.2660  143.3956 H   0  0  0  0  0  0  0  0  0  0  0  0  # atno 7974 bound_to 7965
  156.2191  140.3000  155.9909 H   0  0  0  0  0  0  0  0  0  0  0  0  # atno 8008 bound_to 7997
  155.2529  140.0426  157.3006 H   0  0  0  0  0  0  0  0  0  0  0  0  # atno 8009 bound_to 7997
  154.5813  140.2376  155.8058 H   0  0  0  0  0  0  0  0  0  0  0  0  # atno 8010 bound_to 7997
  140.2771  143.3306  152.0478 H   0  0  0  0  0  0  0  0  0  0  0  0  # atno 10167 bound_to 10162
  156.6199  130.8886  151.2955 H   0  0  0  0  0  0  0  0  0  0  0  0  # atno 10718 bound_to 10713
  152.9814  135.6015  154.3562 H   0  0  0  0  0  0  0  0  0  0  0  0  # atno 10763 bound_to 10752
  154.3248  135.2769  155.2503 H   0  0  0  0  0  0  0  0  0  0  0  0  # atno 10764 bound_to 10752
  154.4654  135.5955  153.6340 H   0  0  0  0  0  0  0  0  0  0  0  0  # atno 10765 bound_to 10752
  139.9720  134.6885  156.0429 H   0  0  0  0  0  0  0  0  0  0  0  0  # atno 11005 bound_to 11000
  146.3240  140.3177  142.8631 LP  0  0  0  0  0  0  0  0  0  0  0  0  # atno 17320 bound_to 7965
  144.9319  140.7984  143.5684 LP  0  0  0  0  0  0  0  0  0  0  0  0  # atno 17321 bound_to 7965
  139.4972  144.6617  151.6450 LP  0  0  0  0  0  0  0  0  0  0  0  0  # atno 17342 bound_to 10162
  140.5842  143.9893  150.6286 LP  0  0  0  0  0  0  0  0  0  0  0  0  # atno 17343 bound_to 10162
  157.7230  130.9584  150.1518 LP  0  0  0  0  0  0  0  0  0  0  0  0  # atno 17370 bound_to 10713
  156.2320  130.3683  149.8434 LP  0  0  0  0  0  0  0  0  0  0  0  0  # atno 17371 bound_to 10713
  141.1399  133.6567  156.3699 LP  0  0  0  0  0  0  0  0  0  0  0  0  # atno 17394 bound_to 11000
  140.5274  134.6245  157.5338 LP  0  0  0  0  0  0  0  0  0  0  0  0  # atno 17395 bound_to 11000

$$$$
