#       Name:                AV-unprocessed.smi:763
#       Creating user name   scv26
#       Creation time:       Fri Mar 27 01:03:53 2020


#       File generated by GOLD software.
#

@<TRIPOS>MOLECULE
AV-unprocessed.smi:763
    51    52     1
SMALL
NO_CHARGES


@<TRIPOS>ATOM
      1 ****        -4.7775   2.4347   0.3354 C.3            1 S1                 0.0000
      2 ****        -3.4459   2.9128   0.2678 O.3            1 S1                 0.0000
      3 ****        -3.0569   3.2505  -1.0535 C.3            1 S1                 0.0000
      4 ****        -1.5969   3.7125  -1.0459 C.3            1 S1                 0.0000
      5 ****        -0.7631   2.5719  -0.8714 O.3            1 S1                 0.0000
      6 ****         0.6090   2.7417  -0.8423 C.ar           1 S1                 0.0000
      7 ****         1.0983   3.9981  -1.0012 N.ar           1 S1                 0.0000
      8 ****         2.4331   4.1762  -0.9745 C.ar           1 S1                 0.0000
      9 ****         3.3425   3.1217  -0.7918 C.ar           1 S1                 0.0000
     10 ****         2.8303   1.8223  -0.6276 C.ar           1 S1                 0.0000
     11 ****         1.4308   1.6026  -0.6484 C.ar           1 S1                 0.0000
     12 ****         0.8761   0.3883  -0.4922 N.pl3          1 S1                -1.0000
     13 ****         1.6579  -0.9940  -0.1808 S.o2           1 S1                 0.0000
     14 ****         2.4562  -1.4280  -1.3382 O.2            1 S1                 0.0000
     15 ****         2.3526  -0.9344   1.1139 O.2            1 S1                 0.0000
     16 ****         0.2149  -2.1795  -0.0251 C.3            1 S1                 0.0000
     17 ****         0.5023  -3.5128  -0.7476 C.3            1 S1                 0.0000
     18 ****         1.5254  -4.3727   0.0141 C.3            1 S1                 0.0000
     19 ****         1.0361  -4.6713   1.4403 C.3            1 S1                 0.0000
     20 ****         0.7309  -3.3792   2.2152 C.3            1 S1                 0.0000
     21 ****        -0.2366  -2.4671   1.4313 C.3            1 S1                 0.0000
     22 ****        -0.4812  -1.2745   2.1488 O.3            1 S1                 0.0000
     23 ****        -5.0284   2.1941   1.3683 H              1 S1                 0.0000
     24 ****        -4.9008   1.5291  -0.2604 H              1 S1                 0.0000
     25 ****        -5.4856   3.1856  -0.0172 H              1 S1                 0.0000
     26 ****        -3.1838   2.4032  -1.7293 H              1 S1                 0.0000
     27 ****        -3.6933   4.0586  -1.4174 H              1 S1                 0.0000
     28 ****        -1.3680   4.1882  -2.0007 H              1 S1                 0.0000
     29 ****        -1.4365   4.4475  -0.2553 H              1 S1                 0.0000
     30 ****         2.7864   5.1886  -1.1029 H              1 S1                 0.0000
     31 ****         4.4067   3.3030  -0.7766 H              1 S1                 0.0000
     32 ****         3.5238   1.0065  -0.4874 H              1 S1                 0.0000
     33 ****        -0.6137  -1.7084  -0.5548 H              1 S1                 0.0000
     34 ****        -0.4281  -4.0741  -0.8418 H              1 S1                 0.0000
     35 ****         0.8403  -3.3346  -1.7684 H              1 S1                 0.0000
     36 ****         1.6928  -5.3074  -0.5213 H              1 S1                 0.0000
     37 ****         2.4890  -3.8637   0.0539 H              1 S1                 0.0000
     38 ****         0.1371  -5.2869   1.3931 H              1 S1                 0.0000
     39 ****         1.7836  -5.2569   1.9758 H              1 S1                 0.0000
     40 ****         0.2946  -3.6318   3.1822 H              1 S1                 0.0000
     41 ****         1.6638  -2.8661   2.4395 H              1 S1                 0.0000
     42 ****        -1.1957  -2.9834   1.3759 H              1 S1                 0.0000
     43 ****        -1.0222  -0.7093   1.6185 H              1 S1                 0.0000
     44 ****        -2.8321   2.2019   0.6111 LP             1 S1                 0.0000
     45 ****        -3.3678   3.7269   0.8431 LP             1 S1                 0.0000
     46 ****        -0.9646   1.9440  -1.6232 LP             1 S1                 0.0000
     47 ****        -1.0242   2.1481  -0.0041 LP             1 S1                 0.0000
     48 ****         0.4816   4.7738  -1.1350 LP             1 S1                 0.0000
     49 ****        -0.1188   0.3335  -0.5768 LP             1 S1                 0.0000
     50 ****         0.3858  -0.8189   2.3505 LP             1 S1                 0.0000
     51 ****        -0.9532  -1.4869   3.0045 LP             1 S1                 0.0000
@<TRIPOS>BOND
    1    1    2 1     
    2    1   23 1     
    3    1   24 1     
    4    1   25 1     
    5    2    3 1     
    6    3    4 1     
    7    3   26 1     
    8    3   27 1     
    9    4    5 1     
   10    4   28 1     
   11    4   29 1     
   12    5    6 1     
   13    6   11 ar    
   14    6    7 ar    
   15    7    8 ar    
   16    8    9 ar    
   17    8   30 1     
   18    9   10 ar    
   19    9   31 1     
   20   10   11 ar    
   21   10   32 1     
   22   11   12 1     
   23   12   13 1     
   24   13   14 2     
   25   13   15 2     
   26   13   16 1     
   27   16   21 1     
   28   16   17 1     
   29   16   33 1     
   30   17   18 1     
   31   17   34 1     
   32   17   35 1     
   33   18   19 1     
   34   18   36 1     
   35   18   37 1     
   36   19   20 1     
   37   19   38 1     
   38   19   39 1     
   39   20   21 1     
   40   20   40 1     
   41   20   41 1     
   42   21   22 1     
   43   21   42 1     
   44   22   43 1     
   45    2   44 1     
   46    2   45 1     
   47    5   46 1     
   48    5   47 1     
   49    7   48 1     
   50   12   49 1     
   51   22   50 1     
   52   22   51 1     
@<TRIPOS>SUBSTRUCTURE
      1 S1             1
@<TRIPOS>SET
LONE_PAIRS      STATIC     ATOMS    <user>   **** ""
10 44 45 46 47 48 49 14 15 50 51
DONOR_HYDROGENS      STATIC     ATOMS    <user>   **** ""
1 43
ATOM$BLUE        STATIC     ATOMS    COLORGROUP SYSTEM
10 44 45 46 47 48 49 14 15 50 51
ATOM$RED        STATIC     ATOMS    COLORGROUP SYSTEM
1 43
