#       Name:                AV-unprocessed.smi:1550
#       Creating user name   scv26
#       Creation time:       Fri Mar 27 06:40:26 2020


#       File generated by GOLD software.
#

@<TRIPOS>MOLECULE
AV-unprocessed.smi:1550
    51    52     1
SMALL
NO_CHARGES


@<TRIPOS>ATOM
      1 ****        -1.4561  -2.5856  -2.3486 C.3            1 S1                 0.0000
      2 ****        -1.0421  -1.7876  -1.1034 C.3            1 S1                 0.0000
      3 ****         0.3820  -1.7524  -1.0726 O.3            1 S1                 0.0000
      4 ****         0.9567  -1.3250   0.1572 C.3            1 S1                 0.0000
      5 ****         2.4841  -1.3734   0.0276 C.3            1 S1                 0.0000
      6 ****         3.1834  -0.6603   1.2014 C.3            1 S1                 0.0000
      7 ****         4.7058  -0.7966   1.0835 C.3            1 S1                 0.0000
      8 ****         5.0835  -2.2739   0.9323 C.3            1 S1                 0.0000
      9 ****         4.2828  -2.9159  -0.2117 C.3            1 S1                 0.0000
     10 ****         2.8876  -2.7413   0.0156 O.3            1 S1                 0.0000
     11 ****        -1.6065  -0.3583  -1.1418 C.2            1 S1                 0.0000
     12 ****        -1.3787   0.3570  -2.1176 O.2            1 S1                 0.0000
     13 ****        -2.3305   0.0098  -0.0664 N.am           1 S1                 0.0000
     14 ****        -2.9090   1.2563   0.2236 C.2            1 S1                 0.0000
     15 ****        -2.5039   2.4374  -0.3123 C.2            1 S1                 0.0000
     16 ****        -3.1317   3.6999   0.0437 C.2            1 S1                 0.0000
     17 ****        -2.6934   5.0277  -0.5539 C.3            1 S1                 0.0000
     18 ****        -3.7094   5.5991  -1.1997 F              1 S1                 0.0000
     19 ****        -2.3009   5.8591   0.4112 F              1 S1                 0.0000
     20 ****        -1.6840   4.8745  -1.4113 F              1 S1                 0.0000
     21 ****        -4.1304   3.6412   0.9428 C.2            1 S1                 0.0000
     22 ****        -4.5450   2.4323   1.5063 N.am           1 S1                 0.0000
     23 ****        -3.9994   1.2307   1.2124 C.2            1 S1                 0.0000
     24 ****        -4.4171   0.2089   1.7561 O.2            1 S1                 0.0000
     25 ****        -5.2998   2.4729   2.1762 H              1 S1                 0.0000
     26 ****        -2.5414  -2.6435  -2.4390 H              1 S1                 0.0000
     27 ****        -1.0754  -3.6060  -2.2967 H              1 S1                 0.0000
     28 ****        -1.0661  -2.1365  -3.2629 H              1 S1                 0.0000
     29 ****        -1.4114  -2.3137  -0.2206 H              1 S1                 0.0000
     30 ****         0.6482  -0.3030   0.3805 H              1 S1                 0.0000
     31 ****         0.6209  -1.9556   0.9819 H              1 S1                 0.0000
     32 ****         2.7738  -0.8951  -0.9101 H              1 S1                 0.0000
     33 ****         2.9056   0.3940   1.2249 H              1 S1                 0.0000
     34 ****         2.8503  -1.0927   2.1459 H              1 S1                 0.0000
     35 ****         5.0573  -0.2370   0.2158 H              1 S1                 0.0000
     36 ****         5.1963  -0.3648   1.9561 H              1 S1                 0.0000
     37 ****         6.1534  -2.3732   0.7471 H              1 S1                 0.0000
     38 ****         4.8758  -2.8029   1.8632 H              1 S1                 0.0000
     39 ****         4.5621  -2.4835  -1.1737 H              1 S1                 0.0000
     40 ****         4.4996  -3.9827  -0.2681 H              1 S1                 0.0000
     41 ****        -2.5161  -0.7109   0.6165 H              1 S1                 0.0000
     42 ****        -1.6803   2.4692  -1.0068 H              1 S1                 0.0000
     43 ****        -4.6786   4.5030   1.2942 H              1 S1                 0.0000
     44 ****         0.6905  -1.1284  -1.7904 LP             1 S1                 0.0000
     45 ****         0.7174  -2.6745  -1.2657 LP             1 S1                 0.0000
     46 ****         2.3864  -3.2136  -0.7095 LP             1 S1                 0.0000
     47 ****         2.6568  -3.1480   0.8996 LP             1 S1                 0.0000
     48 ****        -0.8304   0.0069  -2.8770 LP             1 S1                 0.0000
     49 ****        -1.7421   1.2880  -2.1507 LP             1 S1                 0.0000
     50 ****        -4.0111  -0.6775   1.5339 LP             1 S1                 0.0000
     51 ****        -5.1627   0.2649   2.4202 LP             1 S1                 0.0000
@<TRIPOS>BOND
    1    1    2 1     
    2    1   26 1     
    3    1   27 1     
    4    1   28 1     
    5    2    3 1     
    6    2   11 1     
    7    2   29 1     
    8    3    4 1     
    9    4    5 1     
   10    4   30 1     
   11    4   31 1     
   12    5   10 1     
   13    5    6 1     
   14    5   32 1     
   15    6    7 1     
   16    6   33 1     
   17    6   34 1     
   18    7    8 1     
   19    7   35 1     
   20    7   36 1     
   21    8    9 1     
   22    8   37 1     
   23    8   38 1     
   24    9   10 1     
   25    9   39 1     
   26    9   40 1     
   27   11   12 2     
   28   11   13 am    
   29   13   14 1     
   30   13   41 1     
   31   14   23 1     
   32   14   15 2     
   33   15   16 1     
   34   15   42 1     
   35   16   17 1     
   36   16   21 2     
   37   17   18 1     
   38   17   19 1     
   39   17   20 1     
   40   21   22 1     
   41   21   43 1     
   42   22   25 1     
   43   22   23 am    
   44   23   24 2     
   45    3   44 1     
   46    3   45 1     
   47   10   46 1     
   48   10   47 1     
   49   12   48 1     
   50   12   49 1     
   51   24   50 1     
   52   24   51 1     
@<TRIPOS>SUBSTRUCTURE
      1 S1             1
@<TRIPOS>SET
LONE_PAIRS      STATIC     ATOMS    <user>   **** ""
8 44 45 46 47 48 49 50 51
DONOR_HYDROGENS      STATIC     ATOMS    <user>   **** ""
2 41 25
ATOM$BLUE        STATIC     ATOMS    COLORGROUP SYSTEM
8 44 45 46 47 48 49 50 51
ATOM$RED        STATIC     ATOMS    COLORGROUP SYSTEM
2 41 25
