#       Name:                AV-unprocessed.smi:101
#       Creating user name   scv26
#       Creation time:       Thu Mar 26 17:45:12 2020


#       File generated by GOLD software.
#

@<TRIPOS>MOLECULE
AV-unprocessed.smi:101
    56    58     1
SMALL
NO_CHARGES


@<TRIPOS>ATOM
      1 ****        -1.6867   3.5653   2.7673 C.3            1 S1                 0.0000
      2 ****        -2.5572   2.6195   1.9584 C.2            1 S1                 0.0000
      3 ****        -2.1126   1.4165   1.5334 C.2            1 S1                 0.0000
      4 ****        -2.9087   0.5574   0.7966 N.am           1 S1                 0.0000
      5 ****        -2.3576  -0.7779   0.3405 C.3            1 S1                 0.0000
      6 ****        -1.0295  -0.5835  -0.0389 O.3            1 S1                 0.0000
      7 ****        -0.2261  -1.6423   0.4590 C.3            1 S1                 0.0000
      8 ****         1.2130  -1.1494   0.6482 C.3            1 S1                 0.0000
      9 ****         1.8245  -0.9917  -0.6214 O.3            1 S1                 0.0000
     10 ****         3.0576  -0.4570  -0.7136 C.2            1 S1                 0.0000
     11 ****         3.7199  -0.0972   0.2620 O.2            1 S1                 0.0000
     12 ****         3.5380  -0.3444  -2.1210 C.ar           1 S1                 0.0000
     13 ****         4.8214   0.1946  -2.3740 C.ar           1 S1                 0.0000
     14 ****         5.3015   0.3150  -3.6925 C.ar           1 S1                 0.0000
     15 ****         4.5045  -0.1022  -4.7744 C.ar           1 S1                 0.0000
     16 ****         3.2261  -0.6399  -4.5363 C.ar           1 S1                 0.0000
     17 ****         2.7440  -0.7610  -3.2183 C.ar           1 S1                 0.0000
     18 ****        -0.9107  -2.0342   1.7697 C.3            1 S1                 0.0000
     19 ****        -0.6232  -3.3804   2.0922 O.3            1 S1                 0.0000
     20 ****        -2.3888  -1.8550   1.4489 C.3            1 S1                 0.0000
     21 ****        -3.1149  -1.4888   2.6085 O.3            1 S1                 0.0000
     22 ****        -4.2427   0.9291   0.4835 C.2            1 S1                 0.0000
     23 ****        -4.9377   0.1329  -0.1476 O.2            1 S1                 0.0000
     24 ****        -4.6979   2.1441   0.9037 N.pl3          1 S1                -1.0000
     25 ****        -3.9306   3.0138   1.6224 C.2            1 S1                 0.0000
     26 ****        -4.3550   4.1077   1.9935 O.2            1 S1                 0.0000
     27 ****        -0.6937   3.1466   2.9323 H              1 S1                 0.0000
     28 ****        -2.1378   3.7594   3.7407 H              1 S1                 0.0000
     29 ****        -1.5696   4.5155   2.2456 H              1 S1                 0.0000
     30 ****        -1.1052   1.1148   1.7800 H              1 S1                 0.0000
     31 ****        -2.9174  -1.0725  -0.5475 H              1 S1                 0.0000
     32 ****        -0.2674  -2.4718  -0.2499 H              1 S1                 0.0000
     33 ****         1.2220  -0.2093   1.2019 H              1 S1                 0.0000
     34 ****         1.7836  -1.8779   1.2255 H              1 S1                 0.0000
     35 ****         5.4517   0.5220  -1.5596 H              1 S1                 0.0000
     36 ****         6.2828   0.7286  -3.8734 H              1 S1                 0.0000
     37 ****         4.8728  -0.0094  -5.7855 H              1 S1                 0.0000
     38 ****         2.6127  -0.9594  -5.3659 H              1 S1                 0.0000
     39 ****         1.7579  -1.1768  -3.0709 H              1 S1                 0.0000
     40 ****        -0.6002  -1.3665   2.5754 H              1 S1                 0.0000
     41 ****        -0.9373  -3.9302   1.3907 H              1 S1                 0.0000
     42 ****        -2.8107  -2.7642   1.0176 H              1 S1                 0.0000
     43 ****        -2.8128  -0.6401   2.8942 H              1 S1                 0.0000
     44 ****        -0.7019   0.2849   0.3333 LP             1 S1                 0.0000
     45 ****        -0.9693  -0.5623  -1.0369 LP             1 S1                 0.0000
     46 ****         3.3459  -0.1960   1.1841 LP             1 S1                 0.0000
     47 ****         4.6310   0.2935   0.1312 LP             1 S1                 0.0000
     48 ****        -1.0813  -3.6280   2.9459 LP             1 S1                 0.0000
     49 ****         0.3642  -3.4987   2.1973 LP             1 S1                 0.0000
     50 ****        -2.9603  -2.1630   3.3307 LP             1 S1                 0.0000
     51 ****        -4.0912  -1.4458   2.3961 LP             1 S1                 0.0000
     52 ****        -4.5592  -0.7498  -0.4262 LP             1 S1                 0.0000
     53 ****        -5.8809   0.3687  -0.3817 LP             1 S1                 0.0000
     54 ****        -5.6347   2.4091   0.6751 LP             1 S1                 0.0000
     55 ****        -3.7655   4.7204   2.5198 LP             1 S1                 0.0000
     56 ****        -5.2895   4.3839   1.7687 LP             1 S1                 0.0000
@<TRIPOS>BOND
    1    1    2 1     
    2    1   27 1     
    3    1   28 1     
    4    1   29 1     
    5    2   25 1     
    6    2    3 2     
    7    3    4 1     
    8    3   30 1     
    9    4    5 1     
   10    4   22 am    
   11    5   20 1     
   12    5    6 1     
   13    5   31 1     
   14    6    7 1     
   15    7    8 1     
   16    7   18 1     
   17    7   32 1     
   18    8    9 1     
   19    8   33 1     
   20    8   34 1     
   21    9   10 1     
   22   10   11 2     
   23   10   12 1     
   24   12   17 ar    
   25   12   13 ar    
   26   13   14 ar    
   27   13   35 1     
   28   14   15 ar    
   29   14   36 1     
   30   15   16 ar    
   31   15   37 1     
   32   16   17 ar    
   33   16   38 1     
   34   17   39 1     
   35   18   19 1     
   36   18   20 1     
   37   18   40 1     
   38   19   41 1     
   39   20   21 1     
   40   20   42 1     
   41   21   43 1     
   42   22   23 2     
   43   22   24 1     
   44   24   25 1     
   45   25   26 2     
   46    6   44 1     
   47    6   45 1     
   48   11   46 1     
   49   11   47 1     
   50   19   48 1     
   51   19   49 1     
   52   21   50 1     
   53   21   51 1     
   54   23   52 1     
   55   23   53 1     
   56   24   54 1     
   57   26   55 1     
   58   26   56 1     
@<TRIPOS>SUBSTRUCTURE
      1 S1             1
@<TRIPOS>SET
LONE_PAIRS      STATIC     ATOMS    <user>   **** ""
13 44 45 46 47 48 49 50 51 52 53 54 55 56
DONOR_HYDROGENS      STATIC     ATOMS    <user>   **** ""
2 41 43
ATOM$BLUE        STATIC     ATOMS    COLORGROUP SYSTEM
13 44 45 46 47 48 49 50 51 52 53 54 55 56
ATOM$RED        STATIC     ATOMS    COLORGROUP SYSTEM
2 41 43
