AV-unprocessed.smi:1978|AV-procd|sdf|7993|dock3
  -GOLD-   2272010173D 1   1.00000     0.00000
 Structure written by MMmdl.
 45 46  0  0  0  0  0  0  0  0  2 V2000
  137.1460  141.6502  153.9580 C   0  0  0  0  0  0  0  0  0  0  0  0
  138.1933  140.6325  153.6600 C   0  0  0  0  0  0  0  0  0  0  0  0
  139.5569  140.6928  153.5922 C   0  0  0  0  0  0  0  0  0  0  0  0
  139.9198  139.3609  153.2582 C   0  0  0  0  0  0  0  0  0  0  0  0
  141.2798  138.9982  153.0829 N   0  0  0  0  0  0  0  0  0  0  0  0
  141.8160  137.7695  153.1754 C   0  0  0  0  0  0  0  0  0  0  0  0
  141.1989  136.7448  153.4679 O   0  0  0  0  0  0  0  0  0  0  0  0
  143.1295  137.7852  152.9048 N   0  0  0  0  0  0  0  0  0  0  0  0
  143.9948  136.6082  152.9174 C   0  0  0  0  0  0  0  0  0  0  0  0
  145.3874  136.8601  152.2683 C   0  0  1  0  0  0  0  0  0  0  0  0
  146.1920  137.8407  153.1609 C   0  0  0  0  0  0  0  0  0  0  0  0
  146.1193  135.5708  152.0102 N   0  3  1  0  0  0  0  0  0  0  0  0
  146.2843  134.7142  153.2250 C   0  0  0  0  0  0  0  0  0  0  0  0
  147.2454  133.5416  152.9683 C   0  0  0  0  0  0  0  0  0  0  0  0
  146.7851  132.6898  151.7841 C   0  0  0  0  0  0  0  0  0  0  0  0
  146.5898  133.5842  150.5549 C   0  0  0  0  0  0  0  0  0  0  0  0
  145.6367  134.7646  150.8381 C   0  0  1  0  0  0  0  0  0  0  0  0
  144.1678  134.3001  150.9712 C   0  0  0  0  0  0  0  0  0  0  0  0
  138.8726  138.5598  153.1349 N   0  0  0  0  0  0  0  0  0  0  0  0
  137.7608  139.3706  153.3917 O   0  0  0  0  0  0  0  0  0  0  0  0
  137.5963  142.5996  154.2480 H   0  0  0  0  0  0  0  0  0  0  0  0
  136.5042  141.3176  154.7738 H   0  0  0  0  0  0  0  0  0  0  0  0
  136.5192  141.8262  153.0837 H   0  0  0  0  0  0  0  0  0  0  0  0
  140.1889  141.5534  153.7540 H   0  0  0  0  0  0  0  0  0  0  0  0
  141.9072  139.7536  152.8495 H   0  0  0  0  0  0  0  0  0  0  0  0
  143.5608  138.6687  152.6749 H   0  0  0  0  0  0  0  0  0  0  0  0
  144.1215  136.2951  153.9542 H   0  0  0  0  0  0  0  0  0  0  0  0
  143.4378  135.8132  152.4265 H   0  0  0  0  0  0  0  0  0  0  0  0
  145.2352  137.3428  151.3021 H   0  0  0  0  0  0  0  0  0  0  0  0
  145.6322  138.7500  153.3772 H   0  0  0  0  0  0  0  0  0  0  0  0
  147.1121  138.1823  152.6895 H   0  0  0  0  0  0  0  0  0  0  0  0
  146.4514  137.3835  154.1163 H   0  0  0  0  0  0  0  0  0  0  0  0
  146.6988  135.2713  154.0600 H   0  0  0  0  0  0  0  0  0  0  0  0
  145.3141  134.3475  153.5611 H   0  0  0  0  0  0  0  0  0  0  0  0
  148.2464  133.9282  152.7725 H   0  0  0  0  0  0  0  0  0  0  0  0
  147.3238  132.9216  153.8620 H   0  0  0  0  0  0  0  0  0  0  0  0
  147.5204  131.9134  151.5710 H   0  0  0  0  0  0  0  0  0  0  0  0
  145.8561  132.1759  152.0324 H   0  0  0  0  0  0  0  0  0  0  0  0
  147.5594  133.9742  150.2415 H   0  0  0  0  0  0  0  0  0  0  0  0
  146.2198  132.9909  149.7180 H   0  0  0  0  0  0  0  0  0  0  0  0
  145.7030  135.3826  149.9441 H   0  0  0  0  0  0  0  0  0  0  0  0
  143.8560  133.7587  150.0776 H   0  0  0  0  0  0  0  0  0  0  0  0
  143.4795  135.1356  151.0902 H   0  0  0  0  0  0  0  0  0  0  0  0
  144.0162  133.6326  151.8182 H   0  0  0  0  0  0  0  0  0  0  0  0
  147.0549  135.8537  151.7557 H   0  0  0  0  0  0  0  0  0  0  0  0
  1  2  1  0  0  0  0
  1 21  1  0  0  0  0
  1 22  1  0  0  0  0
  1 23  1  0  0  0  0
  2 20  1  0  0  0  0
  2  3  2  0  0  0  0
  3  4  1  0  0  0  0
  3 24  1  0  0  0  0
  4  5  1  0  0  0  0
  4 19  2  0  0  0  0
  5  6  1  0  0  0  0
  5 25  1  0  0  0  0
  6  7  2  0  0  0  0
  6  8  1  0  0  0  0
  8  9  1  0  0  0  0
  8 26  1  0  0  0  0
  9 10  1  0  0  0  0
  9 27  1  0  0  0  0
  9 28  1  0  0  0  0
 10 11  1  0  0  0  0
 10 12  1  0  0  0  0
 10 29  1  0  0  0  0
 11 30  1  0  0  0  0
 11 31  1  0  0  0  0
 11 32  1  0  0  0  0
 12 17  1  0  0  0  0
 12 13  1  0  0  0  0
 12 45  1  0  0  0  0
 13 14  1  0  0  0  0
 13 33  1  0  0  0  0
 13 34  1  0  0  0  0
 14 15  1  0  0  0  0
 14 35  1  0  0  0  0
 14 36  1  0  0  0  0
 15 16  1  0  0  0  0
 15 37  1  0  0  0  0
 15 38  1  0  0  0  0
 16 17  1  0  0  0  0
 16 39  1  0  0  0  0
 16 40  1  0  0  0  0
 17 18  1  0  0  0  0
 17 41  1  0  0  0  0
 18 42  1  0  0  0  0
 18 43  1  0  0  0  0
 18 44  1  0  0  0  0
 19 20  1  0  0  0  0
M  CHG  1  12   1
M  END
> <s_m_source_file>
AV-unprocessed.smi

> <i_m_source_file_index>
1978

> <i_lp_mmshare_version>
43012

> <i_f3d_flags>
0

> <s_epik_input>
W0NIM11jMVtjSF1jKG5vMSlbTkhdQyg9TylbTkhdW0NIMl1bQ0BIXShbQ0gzXSlOMltDSDJdW0NIMl1bQ0gyXVtDSDJdW0NASF0yW0NIM10=

> <s_epik_cmdline>
J2VwaWtfcHl0aG9uJywgJy1waCcsICc3LjAnLCAnLXRuJywgJzgnLCAnLW1hJywgJzIwMCcsICctbWV0YWxfYmluZGluZycsICctaW1hZScsICc8aW5maWxlLm1hZT4nLCAnLW9tYWUnLCAnPG91dGZpbGUubWFlPic=

> <r_epik_Ionization_Penalty>
0.00265971

> <r_epik_Ionization_Penalty_Charging>
0.00262393

> <r_epik_Ionization_Penalty_Neutral>
3.57846e-05

> <r_epik_State_Penalty>
0.00182566

> <r_epik_Charging_Adjusted_Penalty>
0.00444959

> <i_epik_Tot_Q>
1

> <i_epik_Tot_abs_Q>
1

> <r_epik_Metal_State_Penalty>
0.0216344

> <b_epik_Metal_Only>
0

> <s_lp_Force_Field>
OPLS_2005

> <r_lp_Energy>
22.9601

> <b_lp_Chiralities_Consistent>
1

> <s_lp_Variant>
AV-unprocessed.smi:1978-2

> <Gold.Version>
5.8.1

> <Gold.Id.Protein>
6NUR|6NUR_protein|mol2

> <Gold.PLP.Fitness>
41.8907

> <Gold.PLP.PLP>
-30.5935

> <Gold.PLP.part.hbond>
-4.0000

> <Gold.PLP.part.metal>
0.0000

> <Gold.PLP.part.buried>
-1.4322

> <Gold.PLP.part.nonpolar>
-24.1911

> <Gold.PLP.part.repulsive>
0.3316

> <Gold.PLP.ligand.clash>
0.0000

> <Gold.PLP.ligand.torsion>
0.3981

> <Gold.PLP.Chemscore.Hbond>
4.0000

> <Gold.PLP.Chemscore.CHOScore>
0.0000

> <Gold.PLP.Chemscore.Metal>
0.0000

> <Gold.Chemscore.Hbonds>
donor molecule, donor type, donor heavy atom, donor atom, acceptor molecule, acceptor atom, score
      L1  H     5    25       P1 10175  1.00
      L1  H     8    26       P1 10175  1.00
      L1  H    12    45       P1  7948  2.00

> <Gold.PLP.Chemscore.Internal.Correction>
0.0933

> <Gold.Rescore>
     Score         DG    S(hbond)    S(metal)    S(lipo)     H(rot)  DE(clash)    DE(int)     intcor
     15.59     -17.29       2.73        0.00      56.84       1.55       0.05       1.65       ----

> <Gold.Chemscore.Fitness>
15.5940

> <Gold.Chemscore.DG>
-17.2949

> <Gold.Chemscore.ZeroCoef>
-5.4800

> <Gold.Chemscore.Hbond>
2.7323

> <Gold.Chemscore.Metal>
0.0000

> <Gold.Chemscore.Lipo>
56.8395

> <Gold.Chemscore.Internal_Hbond>
0.0000

> <Gold.Chemscore.DEClash>
0.0503

> <Gold.Chemscore.DEInternal>
1.6506

> <Gold.Chemscore.Rot>
1.5474

> <Gold.Chemscore.Internal.Correction>
   9.000000E+99

> <Gold.Chemscore.Hbonds>
donor molecule, donor type, donor heavy atom, donor atom, acceptor molecule, acceptor atom, score
      L1  H     5    25       P1 10175  0.34
      L1  H     8    26       P1 10175  0.99
      L1  H    12    45       P1  7948  1.00

> <Gold.Chemscore.Hbond.Weighted>
-9.1260

> <Gold.Chemscore.Metal.Weighted>
-0.0000

> <Gold.Chemscore.Lipo.Weighted>
-6.6502

> <Gold.Chemscore.Internal_Hbond.Weighted>
0.0000

> <Gold.Chemscore.DEClash.Weighted>
0.0503

> <Gold.Chemscore.DEInternal.Weighted>
1.6506

> <Gold.Chemscore.Rot.Weighted>
3.9612

> <Gold.Chemscore.Internal.Correction.Weighted>
   9.000000E+99

> <Gold.Protein.RotatedTorsions>
[ 6907 6896 6895 6894 ] final  -87.09 input  -60.11 | X-H torsion
[ 7974 7965 7964 7962 ] final -103.67 input  175.53 | X-H torsion
[ 8008 7997 7996 7995 ] final    4.71 input   59.86 | X-H torsion
[ 10167 10162 10161 10158 ] final  159.51 input  -65.29 | X-H torsion
[ 10718 10713 10712 10709 ] final  143.16 input   66.30 | X-H torsion
[ 10763 10752 10751 10750 ] final  -65.50 input  -60.55 | X-H torsion
[ 11005 11000 10999 10996 ] final -105.10 input  -57.11 | X-H torsion

> <Gold.Protein.ActiveResidues>
 VAL166  LYS551  ARG553  GLY616  TRP617  ASP618  TYR619  PRO620  LYS621  CYS622 
 ASP623  PHE694  ASN695  SER759  ASP760  ASP761  ALA762  ILE779  LEU786  VAL792 
 PHE793  MET794  SER795  GLU796  ALA797  LYS798  CYS799  TRP800  GLU811  SER814 

> <Gold.Protein.RotatedAtoms>
  150.6866  134.2949  159.4681 H   0  0  0  0  0  0  0  0  0  0  0  0  # atno 6907 bound_to 6896
  152.0851  134.9442  160.0582 H   0  0  0  0  0  0  0  0  0  0  0  0  # atno 6908 bound_to 6896
  152.0780  133.4104  159.4525 H   0  0  0  0  0  0  0  0  0  0  0  0  # atno 6909 bound_to 6896
  145.2529  140.9244  143.3085 H   0  0  0  0  0  0  0  0  0  0  0  0  # atno 7974 bound_to 7965
  154.7193  140.2708  155.6556 H   0  0  0  0  0  0  0  0  0  0  0  0  # atno 8008 bound_to 7997
  156.2819  140.2737  156.1784 H   0  0  0  0  0  0  0  0  0  0  0  0  # atno 8009 bound_to 7997
  155.0529  140.0371  157.2540 H   0  0  0  0  0  0  0  0  0  0  0  0  # atno 8010 bound_to 7997
  139.4833  144.4723  151.8559 H   0  0  0  0  0  0  0  0  0  0  0  0  # atno 10167 bound_to 10162
  157.3721  131.0980  151.0818 H   0  0  0  0  0  0  0  0  0  0  0  0  # atno 10718 bound_to 10713
  154.3460  135.6146  153.5619 H   0  0  0  0  0  0  0  0  0  0  0  0  # atno 10763 bound_to 10752
  152.9801  135.5781  154.4798 H   0  0  0  0  0  0  0  0  0  0  0  0  # atno 10764 bound_to 10752
  154.4511  135.2853  155.1757 H   0  0  0  0  0  0  0  0  0  0  0  0  # atno 10765 bound_to 10752
  141.1069  133.8779  157.1693 H   0  0  0  0  0  0  0  0  0  0  0  0  # atno 11005 bound_to 11000
  144.9487  139.4107  143.6413 LP  0  0  0  0  0  0  0  0  0  0  0  0  # atno 17320 bound_to 7965
  146.3297  139.8483  142.8877 LP  0  0  0  0  0  0  0  0  0  0  0  0  # atno 17321 bound_to 7965
  140.4193  144.2265  150.5887 LP  0  0  0  0  0  0  0  0  0  0  0  0  # atno 17342 bound_to 10162
  140.4890  143.2354  151.8846 LP  0  0  0  0  0  0  0  0  0  0  0  0  # atno 17343 bound_to 10162
  157.1918  130.6355  149.5707 LP  0  0  0  0  0  0  0  0  0  0  0  0  # atno 17370 bound_to 10713
  155.9758  130.4719  150.6482 LP  0  0  0  0  0  0  0  0  0  0  0  0  # atno 17371 bound_to 10713
  139.9944  135.0052  157.0049 LP  0  0  0  0  0  0  0  0  0  0  0  0  # atno 17394 bound_to 11000
  140.4878  134.1224  155.7227 LP  0  0  0  0  0  0  0  0  0  0  0  0  # atno 17395 bound_to 11000

$$$$
