AV-unprocessed.smi:1831|AV-procd|sdf|7460|dock4
  -GOLD-   22720 9153D 1   1.00000     0.00000
 Structure written by MMmdl.
 40 41  0  0  0  0  0  0  0  0  3 V2000
  151.4526  140.9141  159.1493 C   0  0  0  0  0  0  0  0  0  0  0  0
  151.3168  140.2820  157.8068 C   0  0  0  0  0  0  0  0  0  0  0  0
  151.0407  140.9828  156.7045 N   0  0  0  0  0  0  0  0  0  0  0  0
  150.9667  140.1772  155.5774 N   0  0  0  0  0  0  0  0  0  0  0  0
  151.1948  138.8831  155.8408 C   0  0  0  0  0  0  0  0  0  0  0  0
  151.1705  137.9375  154.8872 N   0  5  0  0  0  0  0  0  0  0  0  0
  151.0370  136.6381  155.2319 C   0  0  0  0  0  0  0  0  0  0  0  0
  151.6442  136.0553  156.1326 O   0  0  0  0  0  0  0  0  0  0  0  0
  150.1098  135.9859  154.5160 N   0  0  0  0  0  0  0  0  0  0  0  0
  149.6456  134.6163  154.7363 C   0  0  0  0  0  0  0  0  0  0  0  0
  148.1252  134.5221  155.0220 C   0  0  2  0  0  0  0  0  0  0  0  0
  147.4342  133.3510  154.3076 C   0  0  0  0  0  0  0  0  0  0  0  0
  146.6474  133.9695  153.1416 C   0  0  0  0  0  0  0  0  0  0  0  0
  146.9059  135.4270  153.1699 N   0  3  1  0  0  0  0  0  0  0  0  0
  145.8276  136.2850  152.6066 C   0  0  0  0  0  0  0  0  0  0  0  0
  145.4258  135.8199  151.1943 C   0  0  0  0  0  0  0  0  0  0  0  0
  146.2537  137.7641  152.5616 C   0  0  0  0  0  0  0  0  0  0  0  0
  147.3260  135.7424  154.5511 C   0  0  0  0  0  0  0  0  0  0  0  0
  151.5061  138.5564  157.5452 S   0  0  0  0  0  0  0  0  0  0  0  0
  152.3250  141.5674  159.1677 H   0  0  0  0  0  0  0  0  0  0  0  0
  151.5709  140.1508  159.9185 H   0  0  0  0  0  0  0  0  0  0  0  0
  150.5652  141.5046  159.3777 H   0  0  0  0  0  0  0  0  0  0  0  0
  149.6556  136.5026  153.7769 H   0  0  0  0  0  0  0  0  0  0  0  0
  149.8752  134.0491  153.8339 H   0  0  0  0  0  0  0  0  0  0  0  0
  150.2120  134.1390  155.5374 H   0  0  0  0  0  0  0  0  0  0  0  0
  148.0067  134.4148  156.1010 H   0  0  0  0  0  0  0  0  0  0  0  0
  148.1447  132.5976  153.9652 H   0  0  0  0  0  0  0  0  0  0  0  0
  146.7450  132.8506  154.9890 H   0  0  0  0  0  0  0  0  0  0  0  0
  146.9551  133.5519  152.1823 H   0  0  0  0  0  0  0  0  0  0  0  0
  145.5832  133.7673  153.2712 H   0  0  0  0  0  0  0  0  0  0  0  0
  144.9531  136.2024  153.2537 H   0  0  0  0  0  0  0  0  0  0  0  0
  144.6655  136.4750  150.7679 H   0  0  0  0  0  0  0  0  0  0  0  0
  145.0089  134.8129  151.1984 H   0  0  0  0  0  0  0  0  0  0  0  0
  146.2809  135.8234  150.5177 H   0  0  0  0  0  0  0  0  0  0  0  0
  145.4868  138.3779  152.0881 H   0  0  0  0  0  0  0  0  0  0  0  0
  147.1767  137.8937  151.9951 H   0  0  0  0  0  0  0  0  0  0  0  0
  146.4126  138.1733  153.5592 H   0  0  0  0  0  0  0  0  0  0  0  0
  146.4387  135.8615  155.1753 H   0  0  0  0  0  0  0  0  0  0  0  0
  147.9010  136.6660  154.6145 H   0  0  0  0  0  0  0  0  0  0  0  0
  147.7279  135.5713  152.5987 H   0  0  0  0  0  0  0  0  0  0  0  0
  1  2  1  0  0  0  0
  1 20  1  0  0  0  0
  1 21  1  0  0  0  0
  1 22  1  0  0  0  0
  2 19  1  0  0  0  0
  2  3  2  0  0  0  0
  3  4  1  0  0  0  0
  4  5  2  0  0  0  0
  5  6  1  0  0  0  0
  5 19  1  0  0  0  0
  6  7  1  0  0  0  0
  7  8  2  0  0  0  0
  7  9  1  0  0  0  0
  9 10  1  0  0  0  0
  9 23  1  0  0  0  0
 10 11  1  0  0  0  0
 10 24  1  0  0  0  0
 10 25  1  0  0  0  0
 11 18  1  0  0  0  0
 11 12  1  0  0  0  0
 11 26  1  0  0  0  0
 12 13  1  0  0  0  0
 12 27  1  0  0  0  0
 12 28  1  0  0  0  0
 13 14  1  0  0  0  0
 13 29  1  0  0  0  0
 13 30  1  0  0  0  0
 14 15  1  0  0  0  0
 14 18  1  0  0  0  0
 14 40  1  0  0  0  0
 15 16  1  0  0  0  0
 15 17  1  0  0  0  0
 15 31  1  0  0  0  0
 16 32  1  0  0  0  0
 16 33  1  0  0  0  0
 16 34  1  0  0  0  0
 17 35  1  0  0  0  0
 17 36  1  0  0  0  0
 17 37  1  0  0  0  0
 18 38  1  0  0  0  0
 18 39  1  0  0  0  0
M  CHG  1   6  -1
M  CHG  1  14   1
M  END
> <s_m_source_file>
AV-unprocessed.smi

> <i_m_source_file_index>
1831

> <i_lp_mmshare_version>
43012

> <i_f3d_flags>
0

> <s_epik_input>
W0NIM11jMW5uYyhzMSlbTkhdQyg9TylbTkhdW0NIMl1bQ0BASF0yW0NIMl1bQ0gyXU4oW0NIMl0yKVtDSF0oW0NIM10pW0NIM10=

> <s_epik_cmdline>
J2VwaWtfcHl0aG9uJywgJy1waCcsICc3LjAnLCAnLXRuJywgJzgnLCAnLW1hJywgJzIwMCcsICctbWV0YWxfYmluZGluZycsICctaW1hZScsICc8aW5maWxlLm1hZT4nLCAnLW9tYWUnLCAnPG91dGZpbGUubWFlPic=

> <r_lp_tautomer_probability>
1

> <r_epik_Ionization_Penalty>
4.24531

> <r_epik_Ionization_Penalty_Charging>
4.11954

> <r_epik_Ionization_Penalty_Neutral>
0.125766

> <r_epik_State_Penalty>
4.11879

> <r_epik_Charging_Adjusted_Penalty>
8.23833

> <i_epik_Tot_Q>
0

> <i_epik_Tot_abs_Q>
2

> <r_epik_Metal_State_Penalty>
0.659341

> <b_epik_Metal_Only>
1

> <s_lp_Force_Field>
OPLS_2005

> <r_lp_Energy>
22.0545

> <b_lp_Chiralities_Consistent>
1

> <s_lp_Variant>
AV-unprocessed.smi:1831-5

> <Gold.Version>
5.8.1

> <Gold.Id.Protein>
6NUR|6NUR_protein|mol2

> <Gold.PLP.Fitness>
37.9420

> <Gold.PLP.PLP>
-25.5317

> <Gold.PLP.part.hbond>
-5.1260

> <Gold.PLP.part.metal>
0.0000

> <Gold.PLP.part.buried>
-0.6293

> <Gold.PLP.part.nonpolar>
-19.5943

> <Gold.PLP.part.repulsive>
0.3908

> <Gold.PLP.ligand.clash>
0.0000

> <Gold.PLP.ligand.torsion>
1.0649

> <Gold.PLP.Chemscore.Hbond>
4.8000

> <Gold.PLP.Chemscore.CHOScore>
0.0000

> <Gold.PLP.Chemscore.Metal>
0.0000

> <Gold.Chemscore.Hbonds>
donor molecule, donor type, donor heavy atom, donor atom, acceptor molecule, acceptor atom, score
      L1  H     9    23       P1  7948  0.78
      L1  H    14    40       P1  7948  2.00
      P1  H  7989  7998       L1     4  0.36
      P1  H 10752 10763       L1     8  0.90

> <Gold.PLP.Chemscore.Internal.Correction>
0.1400

> <Gold.Rescore>
     Score         DG    S(hbond)    S(metal)    S(lipo)     H(rot)  DE(clash)    DE(int)     intcor
     16.34     -18.18       3.41        0.00      44.31       1.51       0.01       1.84       ----

> <Gold.Chemscore.Fitness>
16.3378

> <Gold.Chemscore.DG>
-18.1849

> <Gold.Chemscore.ZeroCoef>
-5.4800

> <Gold.Chemscore.Hbond>
3.4113

> <Gold.Chemscore.Metal>
0.0000

> <Gold.Chemscore.Lipo>
44.3131

> <Gold.Chemscore.Internal_Hbond>
0.0000

> <Gold.Chemscore.DEClash>
0.0075

> <Gold.Chemscore.DEInternal>
1.8396

> <Gold.Chemscore.Rot>
1.5131

> <Gold.Chemscore.Internal.Correction>
   9.000000E+99

> <Gold.Chemscore.Hbonds>
donor molecule, donor type, donor heavy atom, donor atom, acceptor molecule, acceptor atom, score
      L1  H     9    23       P1  7948  0.44
      L1  H    14    40       P1  7948  0.96
      P1  H  7989  7998       L1     4  0.31
      P1  H 10752 10763       L1     8  0.18

> <Gold.Chemscore.Hbond.Weighted>
-11.3937

> <Gold.Chemscore.Metal.Weighted>
-0.0000

> <Gold.Chemscore.Lipo.Weighted>
-5.1846

> <Gold.Chemscore.Internal_Hbond.Weighted>
0.0000

> <Gold.Chemscore.DEClash.Weighted>
0.0075

> <Gold.Chemscore.DEInternal.Weighted>
1.8396

> <Gold.Chemscore.Rot.Weighted>
3.8735

> <Gold.Chemscore.Internal.Correction.Weighted>
   9.000000E+99

> <Gold.Protein.RotatedTorsions>
[ 6907 6896 6895 6894 ] final   42.91 input  -60.11 | X-H torsion
[ 7974 7965 7964 7962 ] final -176.54 input  175.53 | X-H torsion
[ 8008 7997 7996 7995 ] final   59.64 input   59.86 | X-H torsion
[ 10167 10162 10161 10158 ] final -132.12 input  -65.29 | X-H torsion
[ 10718 10713 10712 10709 ] final  -87.55 input   66.30 | X-H torsion
[ 10763 10752 10751 10750 ] final   93.00 input  -60.55 | X-H torsion
[ 11005 11000 10999 10996 ] final  -68.78 input  -57.11 | X-H torsion

> <Gold.Protein.ActiveResidues>
 VAL166  LYS551  ARG553  GLY616  TRP617  ASP618  TYR619  PRO620  LYS621  CYS622 
 ASP623  PHE694  ASN695  SER759  ASP760  ASP761  ALA762  ILE779  LEU786  VAL792 
 PHE793  MET794  SER795  GLU796  ALA797  LYS798  CYS799  TRP800  GLU811  SER814 

> <Gold.Protein.RotatedAtoms>
  152.2137  134.8478  160.0494 H   0  0  0  0  0  0  0  0  0  0  0  0  # atno 6907 bound_to 6896
  151.9287  133.3600  159.3931 H   0  0  0  0  0  0  0  0  0  0  0  0  # atno 6908 bound_to 6896
  150.6982  134.4485  159.5369 H   0  0  0  0  0  0  0  0  0  0  0  0  # atno 6909 bound_to 6896
  144.7127  140.1155  143.6408 H   0  0  0  0  0  0  0  0  0  0  0  0  # atno 7974 bound_to 7965
  155.5695  140.3489  155.4511 H   0  0  0  0  0  0  0  0  0  0  0  0  # atno 8008 bound_to 7997
  156.0455  140.1305  157.0134 H   0  0  0  0  0  0  0  0  0  0  0  0  # atno 8009 bound_to 7997
  154.4410  140.1015  156.6284 H   0  0  0  0  0  0  0  0  0  0  0  0  # atno 8010 bound_to 7997
  139.9118  143.6485  152.2573 H   0  0  0  0  0  0  0  0  0  0  0  0  # atno 10167 bound_to 10162
  155.9985  130.4804  150.4884 H   0  0  0  0  0  0  0  0  0  0  0  0  # atno 10718 bound_to 10713
  153.2254  135.4341  155.0536 H   0  0  0  0  0  0  0  0  0  0  0  0  # atno 10763 bound_to 10752
  154.8271  135.3366  154.6866 H   0  0  0  0  0  0  0  0  0  0  0  0  # atno 10764 bound_to 10752
  153.7295  135.7012  153.5049 H   0  0  0  0  0  0  0  0  0  0  0  0  # atno 10765 bound_to 10752
  141.1540  133.6749  156.6499 H   0  0  0  0  0  0  0  0  0  0  0  0  # atno 11005 bound_to 11000
  145.9417  139.2673  143.1265 LP  0  0  0  0  0  0  0  0  0  0  0  0  # atno 17320 bound_to 7965
  145.9416  140.8975  143.0304 LP  0  0  0  0  0  0  0  0  0  0  0  0  # atno 17321 bound_to 7965
  139.6936  144.7644  151.1396 LP  0  0  0  0  0  0  0  0  0  0  0  0  # atno 17342 bound_to 10162
  140.7683  143.5555  150.9157 LP  0  0  0  0  0  0  0  0  0  0  0  0  # atno 17343 bound_to 10162
  157.2881  131.0621  151.2152 LP  0  0  0  0  0  0  0  0  0  0  0  0  # atno 17370 bound_to 10713
  157.3174  130.6920  149.6250 LP  0  0  0  0  0  0  0  0  0  0  0  0  # atno 17371 bound_to 10713
  140.3328  134.7914  157.4339 LP  0  0  0  0  0  0  0  0  0  0  0  0  # atno 17394 bound_to 11000
  140.1002  134.5483  155.8360 LP  0  0  0  0  0  0  0  0  0  0  0  0  # atno 17395 bound_to 11000

$$$$
