AV-unprocessed.smi:2056|AV-procd|sdf|8338|dock5
  -GOLD-   2272011 03D 1   1.00000     0.00000
 Structure written by MMmdl.
 34 34  0  0  0  0  0  0  0  0  1 V2000
  152.4668  143.2101  160.1719 C   0  0  0  0  0  0  0  0  0  0  0  0
  151.7842  144.2776  159.2901 C   0  0  0  0  0  0  0  0  0  0  0  0
  151.6304  145.5676  160.1193 C   0  0  0  0  0  0  0  0  0  0  0  0
  152.6864  144.5869  158.0765 C   0  0  0  0  0  0  0  0  0  0  0  0
  150.3649  143.8162  158.8509 C   0  0  0  0  0  0  0  0  0  0  0  0
  150.3050  142.5011  158.0602 C   0  0  0  0  0  0  0  0  0  0  0  0
  150.5690  141.4387  158.6234 O   0  0  0  0  0  0  0  0  0  0  0  0
  149.9818  142.6170  156.7584 N   0  0  0  0  0  0  0  0  0  0  0  0
  149.8416  141.5894  155.7899 C   0  0  0  0  0  0  0  0  0  0  0  0
  150.5511  140.4555  155.7833 N   0  0  0  0  0  0  0  0  0  0  0  0
  150.2125  139.6245  154.7098 C   0  0  0  0  0  0  0  0  0  0  0  0
  150.9081  138.3059  154.5336 C   0  0  0  0  0  0  0  0  0  0  0  0
  150.2863  137.2515  155.4514 C   0  0  0  0  0  0  0  0  0  0  0  0
  149.6518  136.2311  154.8676 N   0  0  0  0  0  0  0  0  0  0  0  0
  150.3745  137.3567  156.6728 O   0  0  0  0  0  0  0  0  0  0  0  0
  149.2232  140.1481  153.9119 C   0  0  0  0  0  0  0  0  0  0  0  0
  148.6923  141.7125  154.4676 S   0  0  0  0  0  0  0  0  0  0  0  0
  153.4276  143.5636  160.5477 H   0  0  0  0  0  0  0  0  0  0  0  0
  152.6590  142.2886  159.6213 H   0  0  0  0  0  0  0  0  0  0  0  0
  151.8513  142.9558  161.0354 H   0  0  0  0  0  0  0  0  0  0  0  0
  151.0140  145.4016  161.0037 H   0  0  0  0  0  0  0  0  0  0  0  0
  151.1607  146.3610  159.5366 H   0  0  0  0  0  0  0  0  0  0  0  0
  152.5963  145.9413  160.4612 H   0  0  0  0  0  0  0  0  0  0  0  0
  153.6414  145.0085  158.3922 H   0  0  0  0  0  0  0  0  0  0  0  0
  152.2164  145.3069  157.4057 H   0  0  0  0  0  0  0  0  0  0  0  0
  152.9128  143.6927  157.4955 H   0  0  0  0  0  0  0  0  0  0  0  0
  149.7220  143.7261  159.7282 H   0  0  0  0  0  0  0  0  0  0  0  0
  149.9057  144.5897  158.2336 H   0  0  0  0  0  0  0  0  0  0  0  0
  149.7964  143.5523  156.4272 H   0  0  0  0  0  0  0  0  0  0  0  0
  150.8377  137.9649  153.4996 H   0  0  0  0  0  0  0  0  0  0  0  0
  151.9726  138.4000  154.7523 H   0  0  0  0  0  0  0  0  0  0  0  0
  149.2235  135.5122  155.4324 H   0  0  0  0  0  0  0  0  0  0  0  0
  149.6012  136.1847  153.8601 H   0  0  0  0  0  0  0  0  0  0  0  0
  148.7798  139.7111  153.0295 H   0  0  0  0  0  0  0  0  0  0  0  0
  1  2  1  0  0  0  0
  1 18  1  0  0  0  0
  1 19  1  0  0  0  0
  1 20  1  0  0  0  0
  2  3  1  0  0  0  0
  2  4  1  0  0  0  0
  2  5  1  0  0  0  0
  3 21  1  0  0  0  0
  3 22  1  0  0  0  0
  3 23  1  0  0  0  0
  4 24  1  0  0  0  0
  4 25  1  0  0  0  0
  4 26  1  0  0  0  0
  5  6  1  0  0  0  0
  5 27  1  0  0  0  0
  5 28  1  0  0  0  0
  6  7  2  0  0  0  0
  6  8  1  0  0  0  0
  8  9  1  0  0  0  0
  8 29  1  0  0  0  0
  9 17  1  0  0  0  0
  9 10  2  0  0  0  0
 10 11  1  0  0  0  0
 11 12  1  0  0  0  0
 11 16  2  0  0  0  0
 12 13  1  0  0  0  0
 12 30  1  0  0  0  0
 12 31  1  0  0  0  0
 13 14  1  0  0  0  0
 13 15  2  0  0  0  0
 14 32  1  0  0  0  0
 14 33  1  0  0  0  0
 16 17  1  0  0  0  0
 16 34  1  0  0  0  0
M  END
> <s_m_source_file>
AV-unprocessed.smi

> <i_m_source_file_index>
2056

> <i_lp_mmshare_version>
43012

> <i_f3d_flags>
0

> <s_epik_input>
W0NIM11DKFtDSDNdKShbQ0gzXSlbQ0gyXUMoPU8pW05IXWMxbmMoW2NIXXMxKVtDSDJdQyg9TylbTkgyXQ==

> <s_epik_cmdline>
J2VwaWtfcHl0aG9uJywgJy1waCcsICc3LjAnLCAnLXRuJywgJzgnLCAnLW1hJywgJzIwMCcsICctbWV0YWxfYmluZGluZycsICctaW1hZScsICc8aW5maWxlLm1hZT4nLCAnLW9tYWUnLCAnPG91dGZpbGUubWFlPic=

> <r_lp_tautomer_probability>
1

> <r_epik_Ionization_Penalty>
0.000211791

> <r_epik_Ionization_Penalty_Charging>
0

> <r_epik_Ionization_Penalty_Neutral>
0.000211791

> <r_epik_State_Penalty>
-0

> <r_epik_Charging_Adjusted_Penalty>
0

> <i_epik_Tot_Q>
0

> <i_epik_Tot_abs_Q>
0

> <r_epik_Metal_State_Penalty>
0.129621

> <b_epik_Metal_Only>
0

> <s_lp_Force_Field>
OPLS_2005

> <r_lp_Energy>
3.85365

> <b_lp_Chiralities_Consistent>
1

> <s_lp_Variant>
AV-unprocessed.smi:2056-1

> <Gold.Version>
5.8.1

> <Gold.Id.Protein>
6NUR|6NUR_protein|mol2

> <Gold.PLP.Fitness>
45.5749

> <Gold.PLP.PLP>
-38.4606

> <Gold.PLP.part.hbond>
-2.0000

> <Gold.PLP.part.metal>
0.0000

> <Gold.PLP.part.buried>
-0.4221

> <Gold.PLP.part.nonpolar>
-35.4047

> <Gold.PLP.part.repulsive>
0.1281

> <Gold.PLP.ligand.clash>
0.0000

> <Gold.PLP.ligand.torsion>
0.6385

> <Gold.PLP.Chemscore.Hbond>
2.0000

> <Gold.PLP.Chemscore.CHOScore>
0.7884

> <Gold.PLP.Chemscore.Metal>
0.0000

> <Gold.Chemscore.Hbonds>
donor molecule, donor type, donor heavy atom, donor atom, acceptor molecule, acceptor atom, score
      L1  H     8    29       P1  8028  1.00
      L1  H    14    33       P1  7948  0.91
      L1  C    16    34       P1  7957  0.82

> <Gold.PLP.Chemscore.Internal.Correction>
0.0262

> <Gold.Rescore>
     Score         DG    S(hbond)    S(metal)    S(lipo)     H(rot)  DE(clash)    DE(int)     intcor
     14.71     -16.49       1.94        0.00      86.79       2.20       0.19       1.59       ----

> <Gold.Chemscore.Fitness>
14.7118

> <Gold.Chemscore.DG>
-16.4903

> <Gold.Chemscore.ZeroCoef>
-5.4800

> <Gold.Chemscore.Hbond>
1.9419

> <Gold.Chemscore.Metal>
0.0000

> <Gold.Chemscore.Lipo>
86.7861

> <Gold.Chemscore.Internal_Hbond>
0.0000

> <Gold.Chemscore.DEClash>
0.1933

> <Gold.Chemscore.DEInternal>
1.5852

> <Gold.Chemscore.Rot>
2.1991

> <Gold.Chemscore.Internal.Correction>
   9.000000E+99

> <Gold.Chemscore.Hbonds>
donor molecule, donor type, donor heavy atom, donor atom, acceptor molecule, acceptor atom, score
      L1  H     8    29       P1  8028  0.98
      L1  H    14    33       P1  7948  0.48

> <Gold.Chemscore.Hbond.Weighted>
-6.4860

> <Gold.Chemscore.Metal.Weighted>
-0.0000

> <Gold.Chemscore.Lipo.Weighted>
-10.1540

> <Gold.Chemscore.Internal_Hbond.Weighted>
0.0000

> <Gold.Chemscore.DEClash.Weighted>
0.1933

> <Gold.Chemscore.DEInternal.Weighted>
1.5852

> <Gold.Chemscore.Rot.Weighted>
5.6297

> <Gold.Chemscore.Internal.Correction.Weighted>
   9.000000E+99

> <Gold.Protein.RotatedTorsions>
[ 6907 6896 6895 6894 ] final -157.16 input  -60.11 | X-H torsion
[ 7974 7965 7964 7962 ] final  115.94 input  175.53 | X-H torsion
[ 8008 7997 7996 7995 ] final  -17.62 input   59.86 | X-H torsion
[ 10167 10162 10161 10158 ] final   44.78 input  -65.29 | X-H torsion
[ 10718 10713 10712 10709 ] final  -70.95 input   66.30 | X-H torsion
[ 10763 10752 10751 10750 ] final  -28.61 input  -60.55 | X-H torsion
[ 11005 11000 10999 10996 ] final   35.31 input  -57.11 | X-H torsion

> <Gold.Protein.ActiveResidues>
 VAL166  LYS551  ARG553  GLY616  TRP617  ASP618  TYR619  PRO620  LYS621  CYS622 
 ASP623  PHE694  ASN695  SER759  ASP760  ASP761  ALA762  ILE779  LEU786  VAL792 
 PHE793  MET794  SER795  GLU796  ALA797  LYS798  CYS799  TRP800  GLU811  SER814 

> <Gold.Protein.RotatedAtoms>
  151.2986  133.4133  159.2637 H   0  0  0  0  0  0  0  0  0  0  0  0  # atno 6907 bound_to 6896
  151.0215  134.9473  159.8072 H   0  0  0  0  0  0  0  0  0  0  0  0  # atno 6908 bound_to 6896
  152.5325  134.2949  159.9109 H   0  0  0  0  0  0  0  0  0  0  0  0  # atno 6909 bound_to 6896
  145.1858  139.3026  143.4394 H   0  0  0  0  0  0  0  0  0  0  0  0  # atno 7974 bound_to 7965
  154.4965  140.2138  155.9436 H   0  0  0  0  0  0  0  0  0  0  0  0  # atno 8008 bound_to 7997
  156.1377  140.3185  155.8415 H   0  0  0  0  0  0  0  0  0  0  0  0  # atno 8009 bound_to 7997
  155.4178  140.0495  157.3018 H   0  0  0  0  0  0  0  0  0  0  0  0  # atno 8010 bound_to 7997
  140.3309  144.2590  150.6168 H   0  0  0  0  0  0  0  0  0  0  0  0  # atno 10167 bound_to 10162
  156.0384  130.4341  150.2371 H   0  0  0  0  0  0  0  0  0  0  0  0  # atno 10718 bound_to 10713
  153.7511  135.6926  153.4945 H   0  0  0  0  0  0  0  0  0  0  0  0  # atno 10763 bound_to 10752
  153.2002  135.4439  155.0256 H   0  0  0  0  0  0  0  0  0  0  0  0  # atno 10764 bound_to 10752
  154.8187  135.3411  154.7032 H   0  0  0  0  0  0  0  0  0  0  0  0  # atno 10765 bound_to 10752
  140.2440  134.3381  155.7915 H   0  0  0  0  0  0  0  0  0  0  0  0  # atno 11005 bound_to 11000
  146.3445  140.2054  142.8589 LP  0  0  0  0  0  0  0  0  0  0  0  0  # atno 17320 bound_to 7965
  145.0090  140.8698  143.5235 LP  0  0  0  0  0  0  0  0  0  0  0  0  # atno 17321 bound_to 7965
  140.5398  143.2226  151.8103 LP  0  0  0  0  0  0  0  0  0  0  0  0  # atno 17342 bound_to 10162
  139.4857  144.4614  151.9536 LP  0  0  0  0  0  0  0  0  0  0  0  0  # atno 17343 bound_to 10162
  157.0468  131.0051  151.3266 LP  0  0  0  0  0  0  0  0  0  0  0  0  # atno 17370 bound_to 10713
  157.5169  130.7973  149.7766 LP  0  0  0  0  0  0  0  0  0  0  0  0  # atno 17371 bound_to 10713
  141.2208  133.7315  156.8931 LP  0  0  0  0  0  0  0  0  0  0  0  0  # atno 17394 bound_to 11000
  140.1624  134.9156  157.2732 LP  0  0  0  0  0  0  0  0  0  0  0  0  # atno 17395 bound_to 11000

$$$$
