AV-unprocessed.smi:2855|AV-procd|sdf|10980|dock2
  -GOLD-   2272015433D 1   1.00000     0.00000
 Structure written by MMmdl.
 47 48  0  0  0  0  0  0  0  0  1 V2000
  151.7688  145.1493  158.8135 C   0  0  0  0  0  0  0  0  0  0  0  0
  152.2760  143.7138  158.6153 C   0  0  1  0  0  0  0  0  0  0  0  0
  152.5915  143.0368  159.9598 C   0  0  0  0  0  0  0  0  0  0  0  0
  153.1079  141.6032  159.7622 C   0  0  0  0  0  0  0  0  0  0  0  0
  152.1086  140.7337  158.9630 C   0  0  2  0  0  0  0  0  0  0  0  0
  152.5588  139.2479  158.8203 C   0  0  0  0  0  0  0  0  0  0  0  0
  153.6406  139.0615  157.7424 C   0  0  0  0  0  0  0  0  0  0  0  0
  151.4002  138.2569  158.6046 C   0  0  0  0  0  0  0  0  0  0  0  0
  151.7778  141.4228  157.6108 C   0  0  1  0  0  0  0  0  0  0  0  0
  150.7731  140.6607  156.8728 N   0  0  0  0  0  0  0  0  0  0  0  0
  150.9588  140.0671  155.6842 C   0  0  0  0  0  0  0  0  0  0  0  0
  152.0062  140.1494  155.0413 O   0  0  0  0  0  0  0  0  0  0  0  0
  149.7685  139.2695  155.1343 C   0  0  0  0  0  0  0  0  0  0  0  0
  148.5680  140.0986  154.9540 N   0  0  0  0  0  0  0  0  0  0  0  0
  148.0925  140.3799  153.6810 C   0  0  0  0  0  0  0  0  0  0  0  0
  146.9861  141.1246  153.4464 C   0  0  0  0  0  0  0  0  0  0  0  0
  146.2208  141.6812  154.5569 C   0  0  0  0  0  0  0  0  0  0  0  0
  145.2070  142.3671  154.4464 O   0  0  0  0  0  0  0  0  0  0  0  0
  146.7306  141.3759  155.8217 N   0  0  0  0  0  0  0  0  0  0  0  0
  147.8698  140.6088  156.0708 C   0  0  0  0  0  0  0  0  0  0  0  0
  148.2321  140.3968  157.2278 O   0  0  0  0  0  0  0  0  0  0  0  0
  151.2705  142.8634  157.8200 C   0  0  0  0  0  0  0  0  0  0  0  0
  146.2320  141.7378  156.6217 H   0  0  0  0  0  0  0  0  0  0  0  0
  150.8383  145.1669  159.3819 H   0  0  0  0  0  0  0  0  0  0  0  0
  151.5834  145.6362  157.8557 H   0  0  0  0  0  0  0  0  0  0  0  0
  152.5001  145.7523  159.3527 H   0  0  0  0  0  0  0  0  0  0  0  0
  153.2010  143.7691  158.0394 H   0  0  0  0  0  0  0  0  0  0  0  0
  153.3360  143.6188  160.5042 H   0  0  0  0  0  0  0  0  0  0  0  0
  151.6975  143.0191  160.5848 H   0  0  0  0  0  0  0  0  0  0  0  0
  154.0683  141.6411  159.2478 H   0  0  0  0  0  0  0  0  0  0  0  0
  153.2995  141.1672  160.7418 H   0  0  0  0  0  0  0  0  0  0  0  0
  151.1803  140.7176  159.5368 H   0  0  0  0  0  0  0  0  0  0  0  0
  153.0390  138.9592  159.7555 H   0  0  0  0  0  0  0  0  0  0  0  0
  153.2490  139.2258  156.7387 H   0  0  0  0  0  0  0  0  0  0  0  0
  154.0439  138.0488  157.7689 H   0  0  0  0  0  0  0  0  0  0  0  0
  154.4739  139.7478  157.8946 H   0  0  0  0  0  0  0  0  0  0  0  0
  150.8799  138.4396  157.6648 H   0  0  0  0  0  0  0  0  0  0  0  0
  150.6691  138.3058  159.4110 H   0  0  0  0  0  0  0  0  0  0  0  0
  151.7707  137.2318  158.5752 H   0  0  0  0  0  0  0  0  0  0  0  0
  152.6970  141.4799  157.0258 H   0  0  0  0  0  0  0  0  0  0  0  0
  149.8748  140.5470  157.3199 H   0  0  0  0  0  0  0  0  0  0  0  0
  150.0363  138.7961  154.1872 H   0  0  0  0  0  0  0  0  0  0  0  0
  149.5676  138.4470  155.8223 H   0  0  0  0  0  0  0  0  0  0  0  0
  148.6246  139.9850  152.8271 H   0  0  0  0  0  0  0  0  0  0  0  0
  146.6641  141.3079  152.4314 H   0  0  0  0  0  0  0  0  0  0  0  0
  150.3128  142.8444  158.3428 H   0  0  0  0  0  0  0  0  0  0  0  0
  151.0831  143.3303  156.8520 H   0  0  0  0  0  0  0  0  0  0  0  0
  1  2  1  0  0  0  0
  1 24  1  0  0  0  0
  1 25  1  0  0  0  0
  1 26  1  0  0  0  0
  2 22  1  0  0  0  0
  2  3  1  0  0  0  0
  2 27  1  0  0  0  0
  3  4  1  0  0  0  0
  3 28  1  0  0  0  0
  3 29  1  0  0  0  0
  4  5  1  0  0  0  0
  4 30  1  0  0  0  0
  4 31  1  0  0  0  0
  5  6  1  0  0  0  0
  5  9  1  0  0  0  0
  5 32  1  0  0  0  0
  6  7  1  0  0  0  0
  6  8  1  0  0  0  0
  6 33  1  0  0  0  0
  7 34  1  0  0  0  0
  7 35  1  0  0  0  0
  7 36  1  0  0  0  0
  8 37  1  0  0  0  0
  8 38  1  0  0  0  0
  8 39  1  0  0  0  0
  9 10  1  0  0  0  0
  9 22  1  0  0  0  0
  9 40  1  0  0  0  0
 10 11  1  0  0  0  0
 10 41  1  0  0  0  0
 11 12  2  0  0  0  0
 11 13  1  0  0  0  0
 13 14  1  0  0  0  0
 13 42  1  0  0  0  0
 13 43  1  0  0  0  0
 14 20  1  0  0  0  0
 14 15  1  0  0  0  0
 15 16  2  0  0  0  0
 15 44  1  0  0  0  0
 16 17  1  0  0  0  0
 16 45  1  0  0  0  0
 17 18  2  0  0  0  0
 17 19  1  0  0  0  0
 19 23  1  0  0  0  0
 19 20  1  0  0  0  0
 20 21  2  0  0  0  0
 22 46  1  0  0  0  0
 22 47  1  0  0  0  0
M  END
> <s_m_source_file>
AV-unprocessed.smi

> <i_m_source_file_index>
2855

> <i_lp_mmshare_version>
43012

> <i_f3d_flags>
0

> <s_epik_input>
W0NIM11bQ0BASF0xW0NIMl1bQ0gyXVtDQEBIXShbQ0hdKFtDSDNdKVtDSDNdKVtDQEhdKFtDSDJdMSlbTkhdQyg9TylbQ0gyXW4yW2NIXVtjSF1jKD1PKVtuSF1jMj1P

> <s_epik_cmdline>
J2VwaWtfcHl0aG9uJywgJy1waCcsICc3LjAnLCAnLXRuJywgJzgnLCAnLW1hJywgJzIwMCcsICctbWV0YWxfYmluZGluZycsICctaW1hZScsICc8aW5maWxlLm1hZT4nLCAnLW9tYWUnLCAnPG91dGZpbGUubWFlPic=

> <r_lp_tautomer_probability>
0.999537

> <r_epik_Ionization_Penalty>
0.00306256

> <r_epik_Ionization_Penalty_Charging>
0.00306254

> <r_epik_Ionization_Penalty_Neutral>
2.0223e-08

> <r_epik_State_Penalty>
0.0021533

> <r_epik_Charging_Adjusted_Penalty>
0.00521583

> <i_epik_Tot_Q>
0

> <i_epik_Tot_abs_Q>
0

> <r_epik_Metal_State_Penalty>
0.362116

> <b_epik_Metal_Only>
0

> <s_lp_Force_Field>
OPLS_2005

> <r_lp_Energy>
14.1485

> <b_lp_Chiralities_Consistent>
1

> <s_lp_Variant>
AV-unprocessed.smi:2855-4

> <Gold.Version>
5.8.1

> <Gold.Id.Protein>
6NUR|6NUR_protein|mol2

> <Gold.PLP.Fitness>
47.9326

> <Gold.PLP.PLP>
-42.7160

> <Gold.PLP.part.hbond>
-1.2864

> <Gold.PLP.part.metal>
0.0000

> <Gold.PLP.part.buried>
-6.2029

> <Gold.PLP.part.nonpolar>
-35.2734

> <Gold.PLP.part.repulsive>
0.3575

> <Gold.PLP.ligand.clash>
0.0000

> <Gold.PLP.ligand.torsion>
0.4176

> <Gold.PLP.Chemscore.Hbond>
1.0000

> <Gold.PLP.Chemscore.CHOScore>
0.9956

> <Gold.PLP.Chemscore.Metal>
0.0000

> <Gold.Chemscore.Hbonds>
donor molecule, donor type, donor heavy atom, donor atom, acceptor molecule, acceptor atom, score
      P1  H  7989  7998       L1    12  0.78
      L1  C    15    44       P1  7957  0.76

> <Gold.PLP.Chemscore.Internal.Correction>
0.0649

> <Gold.Rescore>
     Score         DG    S(hbond)    S(metal)    S(lipo)     H(rot)  DE(clash)    DE(int)     intcor
     14.31     -16.63       0.99        0.00     107.70       1.85       0.15       2.17       ----

> <Gold.Chemscore.Fitness>
14.3078

> <Gold.Chemscore.DG>
-16.6335

> <Gold.Chemscore.ZeroCoef>
-5.4800

> <Gold.Chemscore.Hbond>
0.9875

> <Gold.Chemscore.Metal>
0.0000

> <Gold.Chemscore.Lipo>
107.7022

> <Gold.Chemscore.Internal_Hbond>
0.0000

> <Gold.Chemscore.DEClash>
0.1515

> <Gold.Chemscore.DEInternal>
2.1742

> <Gold.Chemscore.Rot>
1.8539

> <Gold.Chemscore.Internal.Correction>
   9.000000E+99

> <Gold.Chemscore.Hbonds>
donor molecule, donor type, donor heavy atom, donor atom, acceptor molecule, acceptor atom, score
      P1  H  7989  7998       L1    12  0.54

> <Gold.Chemscore.Hbond.Weighted>
-3.2983

> <Gold.Chemscore.Metal.Weighted>
-0.0000

> <Gold.Chemscore.Lipo.Weighted>
-12.6012

> <Gold.Chemscore.Internal_Hbond.Weighted>
0.0000

> <Gold.Chemscore.DEClash.Weighted>
0.1515

> <Gold.Chemscore.DEInternal.Weighted>
2.1742

> <Gold.Chemscore.Rot.Weighted>
4.7460

> <Gold.Chemscore.Internal.Correction.Weighted>
   9.000000E+99

> <Gold.Protein.RotatedTorsions>
[ 6907 6896 6895 6894 ] final   -3.32 input  -60.11 | X-H torsion
[ 7974 7965 7964 7962 ] final  -99.02 input  175.53 | X-H torsion
[ 8008 7997 7996 7995 ] final   93.41 input   59.86 | X-H torsion
[ 10167 10162 10161 10158 ] final   83.89 input  -65.29 | X-H torsion
[ 10718 10713 10712 10709 ] final -128.94 input   66.30 | X-H torsion
[ 10763 10752 10751 10750 ] final  -27.62 input  -60.55 | X-H torsion
[ 11005 11000 10999 10996 ] final   34.84 input  -57.11 | X-H torsion

> <Gold.Protein.ActiveResidues>
 VAL166  LYS551  ARG553  GLY616  TRP617  ASP618  TYR619  PRO620  LYS621  CYS622 
 ASP623  PHE694  ASN695  SER759  ASP760  ASP761  ALA762  ILE779  LEU786  VAL792 
 PHE793  MET794  SER795  GLU796  ALA797  LYS798  CYS799  TRP800  GLU811  SER814 

> <Gold.Protein.RotatedAtoms>
  151.5157  135.1066  159.9865 H   0  0  0  0  0  0  0  0  0  0  0  0  # atno 6907 bound_to 6896
  152.4642  133.7883  159.6899 H   0  0  0  0  0  0  0  0  0  0  0  0  # atno 6908 bound_to 6896
  150.8618  133.7568  159.3015 H   0  0  0  0  0  0  0  0  0  0  0  0  # atno 6909 bound_to 6896
  145.3130  140.9404  143.2758 H   0  0  0  0  0  0  0  0  0  0  0  0  # atno 7974 bound_to 7965
  156.0465  140.3313  155.7302 H   0  0  0  0  0  0  0  0  0  0  0  0  # atno 8008 bound_to 7997
  155.5666  140.0624  157.2834 H   0  0  0  0  0  0  0  0  0  0  0  0  # atno 8009 bound_to 7997
  154.4416  140.1868  156.0825 H   0  0  0  0  0  0  0  0  0  0  0  0  # atno 8010 bound_to 7997
  139.9137  144.6256  150.8510 H   0  0  0  0  0  0  0  0  0  0  0  0  # atno 10167 bound_to 10162
  156.1999  130.6850  151.0526 H   0  0  0  0  0  0  0  0  0  0  0  0  # atno 10718 bound_to 10713
  153.7350  135.6936  153.4980 H   0  0  0  0  0  0  0  0  0  0  0  0  # atno 10763 bound_to 10752
  153.2109  135.4403  155.0377 H   0  0  0  0  0  0  0  0  0  0  0  0  # atno 10764 bound_to 10752
  154.8240  135.3436  154.6878 H   0  0  0  0  0  0  0  0  0  0  0  0  # atno 10765 bound_to 10752
  140.2487  134.3329  155.7898 H   0  0  0  0  0  0  0  0  0  0  0  0  # atno 11005 bound_to 11000
  144.9000  139.4662  143.6637 LP  0  0  0  0  0  0  0  0  0  0  0  0  # atno 17320 bound_to 7965
  146.3111  139.7749  142.9019 LP  0  0  0  0  0  0  0  0  0  0  0  0  # atno 17321 bound_to 7965
  140.7679  143.3347  151.2335 LP  0  0  0  0  0  0  0  0  0  0  0  0  # atno 17342 bound_to 10162
  139.6920  143.9676  152.2864 LP  0  0  0  0  0  0  0  0  0  0  0  0  # atno 17343 bound_to 10162
  157.6979  131.0787  150.6911 LP  0  0  0  0  0  0  0  0  0  0  0  0  # atno 17370 bound_to 10713
  156.6968  130.4611  149.5584 LP  0  0  0  0  0  0  0  0  0  0  0  0  # atno 17371 bound_to 10713
  141.2203  133.7341  156.9002 LP  0  0  0  0  0  0  0  0  0  0  0  0  # atno 17394 bound_to 11000
  140.1580  134.9185  157.2678 LP  0  0  0  0  0  0  0  0  0  0  0  0  # atno 17395 bound_to 11000

$$$$
