AV-unprocessed.smi:2176|AV-procd|sdf|8847|dock2
  -GOLD-   2272012 43D 1   1.00000     0.00000
 Structure written by MMmdl.
 28 29  0  0  0  0  0  0  0  0  2 V2000
  150.4754  140.8041  158.2612 O   0  0  0  0  0  0  0  0  0  0  0  0
  150.2686  141.6766  157.4167 C   0  0  0  0  0  0  0  0  0  0  0  0
  150.5589  141.4081  155.9344 C   0  0  0  0  0  0  0  0  0  0  0  0
  150.7936  139.9820  155.6588 N   0  0  0  0  0  0  0  0  0  0  0  0
  149.9477  139.3434  154.7350 C   0  0  0  0  0  0  0  0  0  0  0  0
  150.0945  138.0427  154.4187 C   0  0  0  0  0  0  0  0  0  0  0  0
  151.1652  137.2920  155.0627 C   0  0  0  0  0  0  0  0  0  0  0  0
  151.3108  136.1021  154.7897 O   0  0  0  0  0  0  0  0  0  0  0  0
  151.9625  137.9573  155.9488 N   0  5  0  0  0  0  0  0  0  0  0  0
  151.8032  139.2815  156.2589 C   0  0  0  0  0  0  0  0  0  0  0  0
  152.5358  139.8632  157.0601 O   0  0  0  0  0  0  0  0  0  0  0  0
  149.8139  142.9003  157.7204 N   0  0  0  0  0  0  0  0  0  0  0  0
  149.4656  143.3439  159.0619 C   0  0  0  0  0  0  0  0  0  0  0  0
  150.5245  144.2047  159.7180 C   0  0  0  0  0  0  0  0  0  0  0  0
  151.4526  145.0528  158.8805 C   0  0  0  0  0  0  0  0  0  0  0  0
  151.9883  143.8462  159.6143 C   0  0  0  0  0  0  0  0  0  0  0  0
  149.7404  141.7811  155.3153 H   0  0  0  0  0  0  0  0  0  0  0  0
  151.4278  142.0009  155.6464 H   0  0  0  0  0  0  0  0  0  0  0  0
  149.1851  139.9718  154.2989 H   0  0  0  0  0  0  0  0  0  0  0  0
  149.4386  137.5677  153.7041 H   0  0  0  0  0  0  0  0  0  0  0  0
  149.6736  143.5575  156.9667 H   0  0  0  0  0  0  0  0  0  0  0  0
  148.5246  143.8966  159.0364 H   0  0  0  0  0  0  0  0  0  0  0  0
  149.2992  142.4655  159.6868 H   0  0  0  0  0  0  0  0  0  0  0  0
  150.2051  144.6506  160.6584 H   0  0  0  0  0  0  0  0  0  0  0  0
  151.3655  144.9833  157.7980 H   0  0  0  0  0  0  0  0  0  0  0  0
  151.7211  146.0346  159.2649 H   0  0  0  0  0  0  0  0  0  0  0  0
  152.6097  144.0221  160.4898 H   0  0  0  0  0  0  0  0  0  0  0  0
  152.2555  142.9740  159.0208 H   0  0  0  0  0  0  0  0  0  0  0  0
  1  2  2  0  0  0  0
  2  3  1  0  0  0  0
  2 12  1  0  0  0  0
  3  4  1  0  0  0  0
  3 17  1  0  0  0  0
  3 18  1  0  0  0  0
  4 10  1  0  0  0  0
  4  5  1  0  0  0  0
  5  6  2  0  0  0  0
  5 19  1  0  0  0  0
  6  7  1  0  0  0  0
  6 20  1  0  0  0  0
  7  8  2  0  0  0  0
  7  9  1  0  0  0  0
  9 10  1  0  0  0  0
 10 11  2  0  0  0  0
 12 13  1  0  0  0  0
 12 21  1  0  0  0  0
 13 14  1  0  0  0  0
 13 22  1  0  0  0  0
 13 23  1  0  0  0  0
 14 16  1  0  0  0  0
 14 15  1  0  0  0  0
 14 24  1  0  0  0  0
 15 16  1  0  0  0  0
 15 25  1  0  0  0  0
 15 26  1  0  0  0  0
 16 27  1  0  0  0  0
 16 28  1  0  0  0  0
M  CHG  1   9  -1
M  END
> <s_m_source_file>
AV-unprocessed.smi

> <i_m_source_file_index>
2176

> <i_lp_mmshare_version>
43012

> <i_f3d_flags>
0

> <s_epik_input>
W0NIMl0xW0NIMl1bQ0hdMVtDSDJdW05IXUMoPU8pW0NIMl1uMltjSF1bY0hdYyg9TylbbkhdYzI9Tw==

> <s_epik_cmdline>
J2VwaWtfcHl0aG9uJywgJy1waCcsICc3LjAnLCAnLXRuJywgJzgnLCAnLW1hJywgJzIwMCcsICctbWV0YWxfYmluZGluZycsICctaW1hZScsICc8aW5maWxlLm1hZT4nLCAnLW9tYWUnLCAnPG91dGZpbGUubWFlPic=

> <r_lp_tautomer_probability>
0.999537

> <r_epik_Ionization_Penalty>
3.07884

> <r_epik_Ionization_Penalty_Charging>
2.64713e-08

> <r_epik_Ionization_Penalty_Neutral>
3.07884

> <r_epik_State_Penalty>
3.07787

> <r_epik_Charging_Adjusted_Penalty>
3.07787

> <i_epik_Tot_Q>
-1

> <i_epik_Tot_abs_Q>
1

> <r_epik_Metal_State_Penalty>
0.459857

> <b_epik_Metal_Only>
1

> <s_lp_Force_Field>
OPLS_2005

> <r_lp_Energy>
21.5126

> <b_lp_Chiralities_Consistent>
1

> <s_lp_Variant>
AV-unprocessed.smi:2176-2

> <Gold.Version>
5.8.1

> <Gold.Id.Protein>
6NUR|6NUR_protein|mol2

> <Gold.PLP.Fitness>
42.6941

> <Gold.PLP.PLP>
-34.6754

> <Gold.PLP.part.hbond>
-3.0000

> <Gold.PLP.part.metal>
0.0000

> <Gold.PLP.part.buried>
-3.4299

> <Gold.PLP.part.nonpolar>
-27.5627

> <Gold.PLP.part.repulsive>
0.1841

> <Gold.PLP.ligand.clash>
0.0000

> <Gold.PLP.ligand.torsion>
0.5332

> <Gold.PLP.Chemscore.Hbond>
2.8480

> <Gold.PLP.Chemscore.CHOScore>
0.0000

> <Gold.PLP.Chemscore.Metal>
0.0000

> <Gold.Chemscore.Hbonds>
donor molecule, donor type, donor heavy atom, donor atom, acceptor molecule, acceptor atom, score
      L1  H    12    21       P1  8028  1.00
      P1  H  7997  8009       L1    11  1.00
      P1  H 10752 10764       L1     8  1.00

> <Gold.PLP.Chemscore.Internal.Correction>
0.5411

> <Gold.Rescore>
     Score         DG    S(hbond)    S(metal)    S(lipo)     H(rot)  DE(clash)    DE(int)     intcor
     12.42     -17.06       2.82        0.00      62.13       1.99       0.01       4.63       ----

> <Gold.Chemscore.Fitness>
12.4161

> <Gold.Chemscore.DG>
-17.0618

> <Gold.Chemscore.ZeroCoef>
-5.4800

> <Gold.Chemscore.Hbond>
2.8160

> <Gold.Chemscore.Metal>
0.0000

> <Gold.Chemscore.Lipo>
62.1318

> <Gold.Chemscore.Internal_Hbond>
0.0000

> <Gold.Chemscore.DEClash>
0.0135

> <Gold.Chemscore.DEInternal>
4.6322

> <Gold.Chemscore.Rot>
1.9895

> <Gold.Chemscore.Internal.Correction>
   9.000000E+99

> <Gold.Chemscore.Hbonds>
donor molecule, donor type, donor heavy atom, donor atom, acceptor molecule, acceptor atom, score
      L1  H    12    21       P1  8028  0.97
      P1  H  7997  8009       L1    11  0.96
      P1  H 10752 10764       L1     8  0.93

> <Gold.Chemscore.Hbond.Weighted>
-9.4055

> <Gold.Chemscore.Metal.Weighted>
-0.0000

> <Gold.Chemscore.Lipo.Weighted>
-7.2694

> <Gold.Chemscore.Internal_Hbond.Weighted>
0.0000

> <Gold.Chemscore.DEClash.Weighted>
0.0135

> <Gold.Chemscore.DEInternal.Weighted>
4.6322

> <Gold.Chemscore.Rot.Weighted>
5.0931

> <Gold.Chemscore.Internal.Correction.Weighted>
   9.000000E+99

> <Gold.Protein.RotatedTorsions>
[ 6907 6896 6895 6894 ] final    7.29 input  -60.11 | X-H torsion
[ 7974 7965 7964 7962 ] final  -75.86 input  175.53 | X-H torsion
[ 8008 7997 7996 7995 ] final -179.48 input   59.86 | X-H torsion
[ 10167 10162 10161 10158 ] final   82.41 input  -65.29 | X-H torsion
[ 10718 10713 10712 10709 ] final   -0.29 input   66.30 | X-H torsion
[ 10763 10752 10751 10750 ] final  -59.67 input  -60.55 | X-H torsion
[ 11005 11000 10999 10996 ] final  -82.44 input  -57.11 | X-H torsion

> <Gold.Protein.ActiveResidues>
 VAL166  LYS551  ARG553  GLY616  TRP617  ASP618  TYR619  PRO620  LYS621  CYS622 
 ASP623  PHE694  ASN695  SER759  ASP760  ASP761  ALA762  ILE779  LEU786  VAL792 
 PHE793  MET794  SER795  GLU796  ALA797  LYS798  CYS799  TRP800  GLU811  SER814 

> <Gold.Protein.RotatedAtoms>
  151.6874  135.0952  160.0227 H   0  0  0  0  0  0  0  0  0  0  0  0  # atno 6907 bound_to 6896
  152.3799  133.6527  159.6161 H   0  0  0  0  0  0  0  0  0  0  0  0  # atno 6908 bound_to 6896
  150.7738  133.9048  159.3393 H   0  0  0  0  0  0  0  0  0  0  0  0  # atno 6909 bound_to 6896
  145.6205  140.9364  143.1141 H   0  0  0  0  0  0  0  0  0  0  0  0  # atno 7974 bound_to 7965
  156.0309  140.1282  157.0259 H   0  0  0  0  0  0  0  0  0  0  0  0  # atno 8008 bound_to 7997
  154.4350  140.1049  156.6169 H   0  0  0  0  0  0  0  0  0  0  0  0  # atno 8009 bound_to 7997
  155.5808  140.3468  155.4542 H   0  0  0  0  0  0  0  0  0  0  0  0  # atno 8010 bound_to 7997
  139.9291  144.6164  150.8363 H   0  0  0  0  0  0  0  0  0  0  0  0  # atno 10167 bound_to 10162
  156.8226  130.5461  149.5695 H   0  0  0  0  0  0  0  0  0  0  0  0  # atno 10718 bound_to 10713
  154.2573  135.6315  153.5262 H   0  0  0  0  0  0  0  0  0  0  0  0  # atno 10763 bound_to 10752
  152.9902  135.5579  154.5742 H   0  0  0  0  0  0  0  0  0  0  0  0  # atno 10764 bound_to 10752
  154.5283  135.2887  155.1177 H   0  0  0  0  0  0  0  0  0  0  0  0  # atno 10765 bound_to 10752
  141.1663  133.7245  156.8573 H   0  0  0  0  0  0  0  0  0  0  0  0  # atno 11005 bound_to 11000
  144.7233  139.7958  143.7374 LP  0  0  0  0  0  0  0  0  0  0  0  0  # atno 17320 bound_to 7965
  146.1435  139.4498  143.0094 LP  0  0  0  0  0  0  0  0  0  0  0  0  # atno 17321 bound_to 7965
  140.7642  143.3243  151.2551 LP  0  0  0  0  0  0  0  0  0  0  0  0  # atno 17342 bound_to 10162
  139.6797  143.9875  152.2801 LP  0  0  0  0  0  0  0  0  0  0  0  0  # atno 17343 bound_to 10162
  156.0980  130.5947  150.9846 LP  0  0  0  0  0  0  0  0  0  0  0  0  # atno 17370 bound_to 10713
  157.6449  131.0905  150.8175 LP  0  0  0  0  0  0  0  0  0  0  0  0  # atno 17371 bound_to 10713
  140.1874  134.8990  157.3020 LP  0  0  0  0  0  0  0  0  0  0  0  0  # atno 17394 bound_to 11000
  140.2328  134.3888  155.7514 LP  0  0  0  0  0  0  0  0  0  0  0  0  # atno 17395 bound_to 11000

$$$$
