#       Name:                AV-unprocessed.smi:1619
#       Creating user name   scv26
#       Creation time:       Fri Mar 27 07:15:00 2020


#       File generated by GOLD software.
#

@<TRIPOS>MOLECULE
AV-unprocessed.smi:1619
    47    49     1
SMALL
NO_CHARGES


@<TRIPOS>ATOM
      1 ****        -2.9935   4.5672   2.3587 C.3            1 S1                 0.0000
      2 ****        -2.6648   3.3978   1.4476 C.ar           1 S1                 0.0000
      3 ****        -3.0369   3.4622   0.0857 C.ar           1 S1                 0.0000
      4 ****        -2.7494   2.3966  -0.7948 C.ar           1 S1                 0.0000
      5 ****        -3.0161   2.2480  -2.1452 N.2            1 S1                 0.0000
      6 ****        -2.5037   1.0453  -2.3892 C.2            1 S1                 0.0000
      7 ****        -1.9325   0.3973  -1.3554 N.pl3          1 S1                 0.0000
      8 ****        -1.3099  -0.9141  -1.3732 C.3            1 S1                 0.0000
      9 ****         0.2280  -0.8330  -1.3331 C.3            1 S1                 0.0000
     10 ****         0.6909  -0.1499  -2.4827 O.3            1 S1                 0.0000
     11 ****         0.8775  -2.2291  -1.2846 C.3            1 S1                 0.0000
     12 ****         2.3425  -2.1594  -1.0677 N.4            1 S1                 1.0000
     13 ****         2.7659  -1.6735   0.2687 C.3            1 S1                 0.0000
     14 ****         3.9252  -2.5706   0.7235 C.3            1 S1                 0.0000
     15 ****         4.3547  -3.3147  -0.5369 C.3            1 S1                 0.0000
     16 ****         3.0530  -3.4281  -1.3232 C.3            1 S1                 0.0000
     17 ****        -2.0747   1.2554  -0.2708 C.ar           1 S1                 0.0000
     18 ****        -1.7012   1.1782   1.0825 C.ar           1 S1                 0.0000
     19 ****        -1.9954   2.2523   1.9483 C.ar           1 S1                 0.0000
     20 ****        -1.5870   2.1606   3.4080 C.3            1 S1                 0.0000
     21 ****        -3.4788   5.3753   1.8105 H              1 S1                 0.0000
     22 ****        -2.0857   4.9685   2.8098 H              1 S1                 0.0000
     23 ****        -3.6674   4.2516   3.1555 H              1 S1                 0.0000
     24 ****        -3.5479   4.3341  -0.2954 H              1 S1                 0.0000
     25 ****        -2.5432   0.6116  -3.3778 H              1 S1                 0.0000
     26 ****        -1.6803  -1.4730  -0.5129 H              1 S1                 0.0000
     27 ****        -1.6448  -1.4516  -2.2619 H              1 S1                 0.0000
     28 ****         0.5243  -0.2576  -0.4554 H              1 S1                 0.0000
     29 ****         0.3624  -0.5911  -3.2515 H              1 S1                 0.0000
     30 ****         0.4306  -2.8289  -0.4899 H              1 S1                 0.0000
     31 ****         0.6767  -2.7558  -2.2192 H              1 S1                 0.0000
     32 ****         3.0845  -0.6345   0.1783 H              1 S1                 0.0000
     33 ****         1.9528  -1.7073   0.9956 H              1 S1                 0.0000
     34 ****         4.7414  -2.0063   1.1759 H              1 S1                 0.0000
     35 ****         3.5659  -3.2859   1.4647 H              1 S1                 0.0000
     36 ****         5.0763  -2.7164  -1.0949 H              1 S1                 0.0000
     37 ****         4.8096  -4.2827  -0.3251 H              1 S1                 0.0000
     38 ****         2.4653  -4.2641  -0.9395 H              1 S1                 0.0000
     39 ****         3.2179  -3.5908  -2.3889 H              1 S1                 0.0000
     40 ****        -1.1921   0.2998   1.4504 H              1 S1                 0.0000
     41 ****        -1.0998   1.2098   3.6262 H              1 S1                 0.0000
     42 ****        -2.4602   2.2449   4.0552 H              1 S1                 0.0000
     43 ****        -0.8895   2.9597   3.6604 H              1 S1                 0.0000
     44 ****         2.7091  -1.4970  -1.7369 H              1 S1                 0.0000
     45 ****        -3.4735   2.8788  -2.7720 LP             1 S1                 0.0000
     46 ****         1.6908  -0.1521  -2.4952 LP             1 S1                 0.0000
     47 ****         0.3598   0.7936  -2.4692 LP             1 S1                 0.0000
@<TRIPOS>BOND
    1    1    2 1     
    2    1   21 1     
    3    1   22 1     
    4    1   23 1     
    5    2   19 ar    
    6    2    3 ar    
    7    3    4 ar    
    8    3   24 1     
    9    4   17 ar    
   10    4    5 1     
   11    5    6 2     
   12    6    7 1     
   13    6   25 1     
   14    7    8 1     
   15    7   17 1     
   16    8    9 1     
   17    8   26 1     
   18    8   27 1     
   19    9   10 1     
   20    9   11 1     
   21    9   28 1     
   22   10   29 1     
   23   11   12 1     
   24   11   30 1     
   25   11   31 1     
   26   12   16 1     
   27   12   13 1     
   28   12   44 1     
   29   13   14 1     
   30   13   32 1     
   31   13   33 1     
   32   14   15 1     
   33   14   34 1     
   34   14   35 1     
   35   15   16 1     
   36   15   36 1     
   37   15   37 1     
   38   16   38 1     
   39   16   39 1     
   40   17   18 ar    
   41   18   19 ar    
   42   18   40 1     
   43   19   20 1     
   44   20   41 1     
   45   20   42 1     
   46   20   43 1     
   47    5   45 1     
   48   10   46 1     
   49   10   47 1     
@<TRIPOS>SUBSTRUCTURE
      1 S1             1
@<TRIPOS>SET
LONE_PAIRS      STATIC     ATOMS    <user>   **** ""
3 45 46 47
DONOR_HYDROGENS      STATIC     ATOMS    <user>   **** ""
2 29 44
ATOM$BLUE        STATIC     ATOMS    COLORGROUP SYSTEM
3 45 46 47
ATOM$RED        STATIC     ATOMS    COLORGROUP SYSTEM
2 29 44
