AV-unprocessed.smi:1240|AV-procd|sdf|5212|dock3
  -GOLD-   22720 4303D 1   1.00000     0.00000
 Structure written by MMmdl.
 48 50  0  0  0  0  0  0  0  0  4 V2000
  147.3060  131.4824  152.8417 O   0  0  0  0  0  0  0  0  0  0  0  0
  147.8848  132.5744  152.8792 C   0  0  0  0  0  0  0  0  0  0  0  0
  149.0878  132.8561  153.4463 N   0  5  0  0  0  0  0  0  0  0  0  0
  149.3677  134.0424  154.2548 C   0  0  0  0  0  0  0  0  0  0  0  0
  150.6407  133.8247  155.1474 C   0  0  1  0  0  0  0  0  0  0  0  0
  150.9488  134.9897  156.1460 C   0  0  2  0  0  0  0  0  0  0  0  0
  149.8564  135.3464  157.1498 C   0  0  0  0  0  0  0  0  0  0  0  0
  150.2445  136.7549  157.5873 C   0  0  0  0  0  0  0  0  0  0  0  0
  150.9189  137.3348  156.4771 O   0  0  0  0  0  0  0  0  0  0  0  0
  151.1113  136.3549  155.4646 C   0  0  0  0  0  0  0  0  0  0  0  0
  150.6631  132.5115  155.8844 N   0  3  0  0  0  0  0  0  0  0  0  0
  151.9680  132.0271  156.4177 C   0  0  0  0  0  0  0  0  0  0  0  0
  151.8367  130.5607  156.8596 C   0  0  0  0  0  0  0  0  0  0  0  0
  150.7977  130.4416  157.8248 O   0  0  0  0  0  0  0  0  0  0  0  0
  149.5311  130.8248  157.3013 C   0  0  0  0  0  0  0  0  0  0  0  0
  149.5710  132.3004  156.8719 C   0  0  0  0  0  0  0  0  0  0  0  0
  147.3374  133.6537  152.2923 N   0  0  0  0  0  0  0  0  0  0  0  0
  146.1055  133.7603  151.5927 C   0  0  0  0  0  0  0  0  0  0  0  0
  145.6381  135.0557  151.2807 C   0  0  0  0  0  0  0  0  0  0  0  0
  144.4122  135.2067  150.6016 C   0  0  0  0  0  0  0  0  0  0  0  0
  143.6893  134.1159  150.2681 N   0  3  0  0  0  0  0  0  0  0  0  0
  144.0860  132.8590  150.5626 C   0  0  0  0  0  0  0  0  0  0  0  0
  145.3036  132.6456  151.2399 C   0  0  0  0  0  0  0  0  0  0  0  0
  149.5082  134.9329  153.6413 H   0  0  0  0  0  0  0  0  0  0  0  0
  148.5216  134.2707  154.9032 H   0  0  0  0  0  0  0  0  0  0  0  0
  151.4970  133.7740  154.4724 H   0  0  0  0  0  0  0  0  0  0  0  0
  151.8638  134.7825  156.7048 H   0  0  0  0  0  0  0  0  0  0  0  0
  148.8813  135.3637  156.6605 H   0  0  0  0  0  0  0  0  0  0  0  0
  149.8002  134.6581  157.9939 H   0  0  0  0  0  0  0  0  0  0  0  0
  149.3804  137.3493  157.8844 H   0  0  0  0  0  0  0  0  0  0  0  0
  150.9357  136.7160  158.4300 H   0  0  0  0  0  0  0  0  0  0  0  0
  152.0858  136.4751  154.9905 H   0  0  0  0  0  0  0  0  0  0  0  0
  150.3461  136.4973  154.7002 H   0  0  0  0  0  0  0  0  0  0  0  0
  152.7471  132.1068  155.6603 H   0  0  0  0  0  0  0  0  0  0  0  0
  152.2838  132.6306  157.2697 H   0  0  0  0  0  0  0  0  0  0  0  0
  151.6324  129.9135  156.0052 H   0  0  0  0  0  0  0  0  0  0  0  0
  152.7714  130.2172  157.3027 H   0  0  0  0  0  0  0  0  0  0  0  0
  149.2619  130.1822  156.4614 H   0  0  0  0  0  0  0  0  0  0  0  0
  148.7720  130.6783  158.0699 H   0  0  0  0  0  0  0  0  0  0  0  0
  149.7218  132.9297  157.7495 H   0  0  0  0  0  0  0  0  0  0  0  0
  148.6107  132.5793  156.4366 H   0  0  0  0  0  0  0  0  0  0  0  0
  147.9187  134.4788  152.2811 H   0  0  0  0  0  0  0  0  0  0  0  0
  146.2173  135.9270  151.5509 H   0  0  0  0  0  0  0  0  0  0  0  0
  143.9912  136.1604  150.3188 H   0  0  0  0  0  0  0  0  0  0  0  0
  143.4198  132.0663  150.2552 H   0  0  0  0  0  0  0  0  0  0  0  0
  145.5966  131.6363  151.4869 H   0  0  0  0  0  0  0  0  0  0  0  0
  150.4428  131.8502  155.1542 H   0  0  0  0  0  0  0  0  0  0  0  0
  142.8041  134.2468  149.7782 H   0  0  0  0  0  0  0  0  0  0  0  0
  1  2  2  0  0  0  0
  2  3  1  0  0  0  0
  2 17  1  0  0  0  0
  3  4  1  0  0  0  0
  4  5  1  0  0  0  0
  4 24  1  0  0  0  0
  4 25  1  0  0  0  0
  5  6  1  0  0  0  0
  5 11  1  0  0  0  0
  5 26  1  0  0  0  0
  6 10  1  0  0  0  0
  6  7  1  0  0  0  0
  6 27  1  0  0  0  0
  7  8  1  0  0  0  0
  7 28  1  0  0  0  0
  7 29  1  0  0  0  0
  8  9  1  0  0  0  0
  8 30  1  0  0  0  0
  8 31  1  0  0  0  0
  9 10  1  0  0  0  0
 10 32  1  0  0  0  0
 10 33  1  0  0  0  0
 11 16  1  0  0  0  0
 11 12  1  0  0  0  0
 11 47  1  0  0  0  0
 12 13  1  0  0  0  0
 12 34  1  0  0  0  0
 12 35  1  0  0  0  0
 13 14  1  0  0  0  0
 13 36  1  0  0  0  0
 13 37  1  0  0  0  0
 14 15  1  0  0  0  0
 15 16  1  0  0  0  0
 15 38  1  0  0  0  0
 15 39  1  0  0  0  0
 16 40  1  0  0  0  0
 16 41  1  0  0  0  0
 17 18  1  0  0  0  0
 17 42  1  0  0  0  0
 18 23  1  0  0  0  0
 18 19  2  0  0  0  0
 19 20  1  0  0  0  0
 19 43  1  0  0  0  0
 20 21  2  0  0  0  0
 20 44  1  0  0  0  0
 21 22  1  0  0  0  0
 21 48  1  0  0  0  0
 22 23  2  0  0  0  0
 22 45  1  0  0  0  0
 23 46  1  0  0  0  0
M  CHG  1   3  -1
M  CHG  1  11   1
M  CHG  1  21   1
M  END
> <s_m_source_file>
AV-unprocessed.smi

> <i_m_source_file_index>
1240

> <i_lp_mmshare_version>
43012

> <i_f3d_flags>
0

> <s_epik_input>
W2NIXTFbY0hdbltjSF1bY0hdYzFbTkhdQyg9TylbTkhdW0NIMl1bQ0BIXShbQ0BASF0yW0NIMl1bQ0gyXU9bQ0gyXTIpTjNbQ0gyXVtDSDJdT1tDSDJdW0NIMl0z

> <s_epik_cmdline>
J2VwaWtfcHl0aG9uJywgJy1waCcsICc3LjAnLCAnLXRuJywgJzgnLCAnLW1hJywgJzIwMCcsICctbWV0YWxfYmluZGluZycsICctaW1hZScsICc8aW5maWxlLm1hZT4nLCAnLW9tYWUnLCAnPG91dGZpbGUubWFlPic=

> <r_epik_Ionization_Penalty>
8.41087

> <r_epik_Ionization_Penalty_Charging>
8.41087

> <r_epik_Ionization_Penalty_Neutral>
3.12936e-06

> <r_epik_State_Penalty>
8.81894

> <r_epik_Charging_Adjusted_Penalty>
17.2298

> <i_epik_Tot_Q>
1

> <i_epik_Tot_abs_Q>
3

> <r_epik_Metal_State_Penalty>
4.82983

> <b_epik_Metal_Only>
1

> <s_lp_Force_Field>
OPLS_2005

> <r_lp_Energy>
48.6891

> <b_lp_Chiralities_Consistent>
1

> <s_lp_Variant>
AV-unprocessed.smi:1240-18

> <Gold.Version>
5.8.1

> <Gold.Id.Protein>
6NUR|6NUR_protein|mol2

> <Gold.PLP.Fitness>
39.2057

> <Gold.PLP.PLP>
-31.1405

> <Gold.PLP.part.hbond>
-2.0000

> <Gold.PLP.part.metal>
0.0000

> <Gold.PLP.part.buried>
-6.8682

> <Gold.PLP.part.nonpolar>
-23.1716

> <Gold.PLP.part.repulsive>
0.3817

> <Gold.PLP.ligand.clash>
0.0000

> <Gold.PLP.ligand.torsion>
0.7318

> <Gold.PLP.Chemscore.Hbond>
2.9840

> <Gold.PLP.Chemscore.CHOScore>
0.0000

> <Gold.PLP.Chemscore.Metal>
0.0000

> <Gold.Chemscore.Hbonds>
donor molecule, donor type, donor heavy atom, donor atom, acceptor molecule, acceptor atom, score
      L1  H    17    42       P1  7948  1.00
      L1  H    21    48       P1 10186  2.00

> <Gold.PLP.Chemscore.Internal.Correction>
0.5768

> <Gold.Rescore>
     Score         DG    S(hbond)    S(metal)    S(lipo)     H(rot)  DE(clash)    DE(int)     intcor
     13.08     -15.29       1.73        0.00      71.54       1.70       0.02       2.18       ----

> <Gold.Chemscore.Fitness>
13.0811

> <Gold.Chemscore.DG>
-15.2856

> <Gold.Chemscore.ZeroCoef>
-5.4800

> <Gold.Chemscore.Hbond>
1.7345

> <Gold.Chemscore.Metal>
0.0000

> <Gold.Chemscore.Lipo>
71.5376

> <Gold.Chemscore.Internal_Hbond>
0.0000

> <Gold.Chemscore.DEClash>
0.0217

> <Gold.Chemscore.DEInternal>
2.1827

> <Gold.Chemscore.Rot>
1.7021

> <Gold.Chemscore.Internal.Correction>
   9.000000E+99

> <Gold.Chemscore.Hbonds>
donor molecule, donor type, donor heavy atom, donor atom, acceptor molecule, acceptor atom, score
      L1  H    17    42       P1  7948  0.32
      L1  H    21    48       P1 10186  0.99

> <Gold.Chemscore.Hbond.Weighted>
-5.7932

> <Gold.Chemscore.Metal.Weighted>
-0.0000

> <Gold.Chemscore.Lipo.Weighted>
-8.3699

> <Gold.Chemscore.Internal_Hbond.Weighted>
0.0000

> <Gold.Chemscore.DEClash.Weighted>
0.0217

> <Gold.Chemscore.DEInternal.Weighted>
2.1827

> <Gold.Chemscore.Rot.Weighted>
4.3575

> <Gold.Chemscore.Internal.Correction.Weighted>
   9.000000E+99

> <Gold.Protein.RotatedTorsions>
[ 6907 6896 6895 6894 ] final  -67.28 input  -60.11 | X-H torsion
[ 7974 7965 7964 7962 ] final  -94.85 input  175.53 | X-H torsion
[ 8008 7997 7996 7995 ] final  153.62 input   59.86 | X-H torsion
[ 10167 10162 10161 10158 ] final  138.08 input  -65.29 | X-H torsion
[ 10718 10713 10712 10709 ] final    3.48 input   66.30 | X-H torsion
[ 10763 10752 10751 10750 ] final  138.84 input  -60.55 | X-H torsion
[ 11005 11000 10999 10996 ] final -156.88 input  -57.11 | X-H torsion

> <Gold.Protein.ActiveResidues>
 VAL166  LYS551  ARG553  GLY616  TRP617  ASP618  TYR619  PRO620  LYS621  CYS622 
 ASP623  PHE694  ASN695  SER759  ASP760  ASP761  ALA762  ILE779  LEU786  VAL792 
 PHE793  MET794  SER795  GLU796  ALA797  LYS798  CYS799  TRP800  GLU811  SER814 

> <Gold.Protein.RotatedAtoms>
  150.7418  134.5903  159.5983 H   0  0  0  0  0  0  0  0  0  0  0  0  # atno 6907 bound_to 6896
  152.3292  134.7278  160.0303 H   0  0  0  0  0  0  0  0  0  0  0  0  # atno 6908 bound_to 6896
  151.7767  133.3310  159.3496 H   0  0  0  0  0  0  0  0  0  0  0  0  # atno 6909 bound_to 6896
  145.3679  140.9501  143.2464 H   0  0  0  0  0  0  0  0  0  0  0  0  # atno 7974 bound_to 7965
  156.2572  140.1989  156.6518 H   0  0  0  0  0  0  0  0  0  0  0  0  # atno 8008 bound_to 7997
  154.6531  140.0569  157.0003 H   0  0  0  0  0  0  0  0  0  0  0  0  # atno 8009 bound_to 7997
  155.1389  140.3240  155.4459 H   0  0  0  0  0  0  0  0  0  0  0  0  # atno 8010 bound_to 7997
  139.5122  144.6374  151.5661 H   0  0  0  0  0  0  0  0  0  0  0  0  # atno 10167 bound_to 10162
  156.8785  130.5645  149.5654 H   0  0  0  0  0  0  0  0  0  0  0  0  # atno 10718 bound_to 10713
  153.8962  135.3027  155.3448 H   0  0  0  0  0  0  0  0  0  0  0  0  # atno 10763 bound_to 10752
  154.7693  135.4894  153.9619 H   0  0  0  0  0  0  0  0  0  0  0  0  # atno 10764 bound_to 10752
  153.1270  135.6795  153.9340 H   0  0  0  0  0  0  0  0  0  0  0  0  # atno 10765 bound_to 10752
  140.6707  134.4250  157.5231 H   0  0  0  0  0  0  0  0  0  0  0  0  # atno 11005 bound_to 11000
  144.8598  139.5194  143.6817 LP  0  0  0  0  0  0  0  0  0  0  0  0  # atno 17320 bound_to 7965
  146.2898  139.7108  142.9169 LP  0  0  0  0  0  0  0  0  0  0  0  0  # atno 17321 bound_to 7965
  140.6127  143.9405  150.6465 LP  0  0  0  0  0  0  0  0  0  0  0  0  # atno 17342 bound_to 10162
  140.2653  143.3494  152.1286 LP  0  0  0  0  0  0  0  0  0  0  0  0  # atno 17343 bound_to 10162
  156.0689  130.5726  150.9345 LP  0  0  0  0  0  0  0  0  0  0  0  0  # atno 17370 bound_to 10713
  157.6154  131.0933  150.8720 LP  0  0  0  0  0  0  0  0  0  0  0  0  # atno 17371 bound_to 10713
  139.8982  134.8618  156.2010 LP  0  0  0  0  0  0  0  0  0  0  0  0  # atno 17394 bound_to 11000
  141.0394  133.6946  156.1571 LP  0  0  0  0  0  0  0  0  0  0  0  0  # atno 17395 bound_to 11000

$$$$
