AV-unprocessed.smi:1473|AV-procd|sdf|5970|dock9
  -GOLD-   22720 6 63D 1   1.00000     0.00000
 Structure written by MMmdl.
 33 34  0  0  0  0  0  0  0  0  2 V2000
  146.0668  140.6666  153.8095 N   0  5  0  0  0  0  0  0  0  0  0  0
  146.2533  141.9156  154.8121 S   0  0  0  0  0  0  0  0  0  0  0  0
  145.6729  143.1710  154.3106 O   0  0  0  0  0  0  0  0  0  0  0  0
  146.0483  141.5713  156.2273 O   0  0  0  0  0  0  0  0  0  0  0  0
  147.9540  142.0662  154.6092 N   0  0  0  0  0  0  0  0  0  0  0  0
  148.7745  140.9166  154.2426 C   0  0  0  0  0  0  0  0  0  0  0  0
  149.9614  140.7486  155.1673 C   0  0  0  0  0  0  0  0  0  0  0  0
  150.8558  139.6726  154.9995 C   0  0  0  0  0  0  0  0  0  0  0  0
  151.9351  139.5529  155.8962 C   0  0  0  0  0  0  0  0  0  0  0  0
  152.1550  140.4162  156.9108 N   0  0  0  0  0  0  0  0  0  0  0  0
  151.2904  141.4468  157.0750 C   0  0  0  0  0  0  0  0  0  0  0  0
  151.5091  142.3389  158.1344 N   0  0  0  0  0  0  0  0  0  0  0  0
  152.6101  141.9480  159.0062 C   0  0  0  0  0  0  0  0  0  0  0  0
  152.6985  142.9084  160.2045 C   0  0  0  0  0  0  0  0  0  0  0  0
  152.8302  144.2470  159.7338 O   0  0  0  0  0  0  0  0  0  0  0  0
  151.7149  144.6477  158.9425 C   0  0  0  0  0  0  0  0  0  0  0  0
  151.5986  143.7311  157.7119 C   0  0  0  0  0  0  0  0  0  0  0  0
  150.1819  141.6519  156.2269 C   0  0  0  0  0  0  0  0  0  0  0  0
  145.1185  140.7092  153.4170 H   0  0  0  0  0  0  0  0  0  0  0  0
  148.4042  142.8041  155.1497 H   0  0  0  0  0  0  0  0  0  0  0  0
  148.1642  140.0135  154.2791 H   0  0  0  0  0  0  0  0  0  0  0  0
  149.1098  141.0312  153.2113 H   0  0  0  0  0  0  0  0  0  0  0  0
  150.7173  138.9536  154.2053 H   0  0  0  0  0  0  0  0  0  0  0  0
  152.6398  138.7405  155.7976 H   0  0  0  0  0  0  0  0  0  0  0  0
  152.4597  140.9254  159.3548 H   0  0  0  0  0  0  0  0  0  0  0  0
  153.5481  141.9656  158.4493 H   0  0  0  0  0  0  0  0  0  0  0  0
  151.8160  142.8205  160.8403 H   0  0  0  0  0  0  0  0  0  0  0  0
  153.5622  142.6611  160.8215 H   0  0  0  0  0  0  0  0  0  0  0  0
  150.8024  144.6149  159.5399 H   0  0  0  0  0  0  0  0  0  0  0  0
  151.8541  145.6825  158.6294 H   0  0  0  0  0  0  0  0  0  0  0  0
  152.4679  143.8662  157.0668 H   0  0  0  0  0  0  0  0  0  0  0  0
  150.7170  143.9977  157.1276 H   0  0  0  0  0  0  0  0  0  0  0  0
  149.5097  142.4823  156.3894 H   0  0  0  0  0  0  0  0  0  0  0  0
  1  2  1  0  0  0  0
  1 19  1  0  0  0  0
  2  3  2  0  0  0  0
  2  4  2  0  0  0  0
  2  5  1  0  0  0  0
  5  6  1  0  0  0  0
  5 20  1  0  0  0  0
  6  7  1  0  0  0  0
  6 21  1  0  0  0  0
  6 22  1  0  0  0  0
  7 18  1  0  0  0  0
  7  8  2  0  0  0  0
  8  9  1  0  0  0  0
  8 23  1  0  0  0  0
  9 10  2  0  0  0  0
  9 24  1  0  0  0  0
 10 11  1  0  0  0  0
 11 12  1  0  0  0  0
 11 18  2  0  0  0  0
 12 17  1  0  0  0  0
 12 13  1  0  0  0  0
 13 14  1  0  0  0  0
 13 25  1  0  0  0  0
 13 26  1  0  0  0  0
 14 15  1  0  0  0  0
 14 27  1  0  0  0  0
 14 28  1  0  0  0  0
 15 16  1  0  0  0  0
 16 17  1  0  0  0  0
 16 29  1  0  0  0  0
 16 30  1  0  0  0  0
 17 31  1  0  0  0  0
 17 32  1  0  0  0  0
 18 33  1  0  0  0  0
M  CHG  1   1  -1
M  END
> <s_m_source_file>
AV-unprocessed.smi

> <i_m_source_file_index>
1473

> <i_lp_mmshare_version>
43012

> <i_f3d_flags>
0

> <s_epik_input>
W05IMl1TKD1PKSg9TylbTkhdW0NIMl1jMVtjSF1bY0hdbmMoW2NIXTEpTjJbQ0gyXVtDSDJdT1tDSDJdW0NIMl0y

> <s_epik_cmdline>
J2VwaWtfcHl0aG9uJywgJy1waCcsICc3LjAnLCAnLXRuJywgJzgnLCAnLW1hJywgJzIwMCcsICctbWV0YWxfYmluZGluZycsICctaW1hZScsICc8aW5maWxlLm1hZT4nLCAnLW9tYWUnLCAnPG91dGZpbGUubWFlPic=

> <r_lp_tautomer_probability>
1

> <r_epik_Ionization_Penalty>
2.7939

> <r_epik_Ionization_Penalty_Charging>
2.75358

> <r_epik_Ionization_Penalty_Neutral>
0.0403146

> <r_epik_State_Penalty>
2.98411

> <r_epik_Charging_Adjusted_Penalty>
5.73769

> <i_epik_Tot_Q>
-1

> <i_epik_Tot_abs_Q>
1

> <r_epik_Metal_State_Penalty>
0.875881

> <b_epik_Metal_Only>
1

> <s_lp_Force_Field>
OPLS_2005

> <r_lp_Energy>
15.423

> <b_lp_Chiralities_Consistent>
1

> <s_lp_Variant>
AV-unprocessed.smi:1473-5

> <Gold.Version>
5.8.1

> <Gold.Id.Protein>
6NUR|6NUR_protein|mol2

> <Gold.PLP.Fitness>
43.0488

> <Gold.PLP.PLP>
-36.8479

> <Gold.PLP.part.hbond>
-2.4146

> <Gold.PLP.part.metal>
0.0000

> <Gold.PLP.part.buried>
-0.6287

> <Gold.PLP.part.nonpolar>
-32.8668

> <Gold.PLP.part.repulsive>
0.5613

> <Gold.PLP.ligand.clash>
0.0000

> <Gold.PLP.ligand.torsion>
0.6741

> <Gold.PLP.Chemscore.Hbond>
2.1281

> <Gold.PLP.Chemscore.CHOScore>
0.0000

> <Gold.PLP.Chemscore.Metal>
0.0000

> <Gold.Chemscore.Hbonds>
donor molecule, donor type, donor heavy atom, donor atom, acceptor molecule, acceptor atom, score
      L1  H     1    19       P1 10175  1.00
      L1  H     5    20       P1  8028  1.00
      P1  H  7997  8009       L1    10  0.18

> <Gold.PLP.Chemscore.Internal.Correction>
1.1647

> <Gold.Rescore>
     Score         DG    S(hbond)    S(metal)    S(lipo)     H(rot)  DE(clash)    DE(int)     intcor
     15.90     -16.66       1.98        0.00      80.30       1.88       0.03       0.73       ----

> <Gold.Chemscore.Fitness>
15.8974

> <Gold.Chemscore.DG>
-16.6649

> <Gold.Chemscore.ZeroCoef>
-5.4800

> <Gold.Chemscore.Hbond>
1.9780

> <Gold.Chemscore.Metal>
0.0000

> <Gold.Chemscore.Lipo>
80.2984

> <Gold.Chemscore.Internal_Hbond>
0.0000

> <Gold.Chemscore.DEClash>
0.0332

> <Gold.Chemscore.DEInternal>
0.7343

> <Gold.Chemscore.Rot>
1.8814

> <Gold.Chemscore.Internal.Correction>
   9.000000E+99

> <Gold.Chemscore.Hbonds>
donor molecule, donor type, donor heavy atom, donor atom, acceptor molecule, acceptor atom, score
      L1  H     1    19       P1 10175  0.91
      L1  H     5    20       P1  8028  0.93
      P1  H  7997  8009       L1    10  0.01

> <Gold.Chemscore.Hbond.Weighted>
-6.6065

> <Gold.Chemscore.Metal.Weighted>
-0.0000

> <Gold.Chemscore.Lipo.Weighted>
-9.3949

> <Gold.Chemscore.Internal_Hbond.Weighted>
0.0000

> <Gold.Chemscore.DEClash.Weighted>
0.0332

> <Gold.Chemscore.DEInternal.Weighted>
0.7343

> <Gold.Chemscore.Rot.Weighted>
4.8165

> <Gold.Chemscore.Internal.Correction.Weighted>
   9.000000E+99

> <Gold.Protein.RotatedTorsions>
[ 6907 6896 6895 6894 ] final   -8.56 input  -60.11 | X-H torsion
[ 7974 7965 7964 7962 ] final   49.46 input  175.53 | X-H torsion
[ 8008 7997 7996 7995 ] final  173.10 input   59.86 | X-H torsion
[ 10167 10162 10161 10158 ] final    8.09 input  -65.29 | X-H torsion
[ 10718 10713 10712 10709 ] final  131.19 input   66.30 | X-H torsion
[ 10763 10752 10751 10750 ] final  -58.10 input  -60.55 | X-H torsion
[ 11005 11000 10999 10996 ] final  118.71 input  -57.11 | X-H torsion

> <Gold.Protein.ActiveResidues>
 VAL166  LYS551  ARG553  GLY616  TRP617  ASP618  TYR619  PRO620  LYS621  CYS622 
 ASP623  PHE694  ASN695  SER759  ASP760  ASP761  ALA762  ILE779  LEU786  VAL792 
 PHE793  MET794  SER795  GLU796  ALA797  LYS798  CYS799  TRP800  GLU811  SER814 

> <Gold.Protein.RotatedAtoms>
  151.4318  135.1010  159.9644 H   0  0  0  0  0  0  0  0  0  0  0  0  # atno 6907 bound_to 6896
  152.4953  133.8611  159.7261 H   0  0  0  0  0  0  0  0  0  0  0  0  # atno 6908 bound_to 6896
  150.9150  133.6892  159.2873 H   0  0  0  0  0  0  0  0  0  0  0  0  # atno 6909 bound_to 6896
  146.0107  139.4540  142.9958 H   0  0  0  0  0  0  0  0  0  0  0  0  # atno 7974 bound_to 7965
  156.1109  140.1468  156.9340 H   0  0  0  0  0  0  0  0  0  0  0  0  # atno 8008 bound_to 7997
  154.4766  140.0892  156.7320 H   0  0  0  0  0  0  0  0  0  0  0  0  # atno 8009 bound_to 7997
  155.4598  140.3438  155.4313 H   0  0  0  0  0  0  0  0  0  0  0  0  # atno 8010 bound_to 7997
  140.6334  143.7942  150.7326 H   0  0  0  0  0  0  0  0  0  0  0  0  # atno 10167 bound_to 10162
  157.4991  131.1093  150.9451 H   0  0  0  0  0  0  0  0  0  0  0  0  # atno 10718 bound_to 10713
  154.2328  135.6357  153.5181 H   0  0  0  0  0  0  0  0  0  0  0  0  # atno 10763 bound_to 10752
  152.9945  135.5523  154.5994 H   0  0  0  0  0  0  0  0  0  0  0  0  # atno 10764 bound_to 10752
  154.5481  135.2899  155.1008 H   0  0  0  0  0  0  0  0  0  0  0  0  # atno 10765 bound_to 10752
  139.9119  134.9622  156.7545 H   0  0  0  0  0  0  0  0  0  0  0  0  # atno 11005 bound_to 11000
  145.7347  141.0030  143.1333 LP  0  0  0  0  0  0  0  0  0  0  0  0  # atno 17320 bound_to 7965
  144.6952  139.9026  143.7459 LP  0  0  0  0  0  0  0  0  0  0  0  0  # atno 17321 bound_to 7965
  140.1558  143.4318  152.2101 LP  0  0  0  0  0  0  0  0  0  0  0  0  # atno 17342 bound_to 10162
  139.5546  144.7363  151.4332 LP  0  0  0  0  0  0  0  0  0  0  0  0  # atno 17343 bound_to 10162
  157.0128  130.5643  149.5322 LP  0  0  0  0  0  0  0  0  0  0  0  0  # atno 17370 bound_to 10713
  156.0218  130.5313  150.8298 LP  0  0  0  0  0  0  0  0  0  0  0  0  # atno 17371 bound_to 10713
  140.6747  133.9528  155.7876 LP  0  0  0  0  0  0  0  0  0  0  0  0  # atno 17394 bound_to 11000
  141.0553  134.0426  157.3731 LP  0  0  0  0  0  0  0  0  0  0  0  0  # atno 17395 bound_to 11000

$$$$
