AV-unprocessed.smi:3043|AV-procd|sdf|11603|dock8
  -GOLD-   2272016583D 1   1.00000     0.00000
 Structure written by MMmdl.
 44 45  0  0  0  0  0  0  0  0  2 V2000
  150.9549  141.2982  156.6350 C   0  0  0  0  0  0  0  0  0  0  0  0
  151.5921  140.0393  156.0425 C   0  0  0  0  0  0  0  0  0  0  0  0
  152.6622  139.6563  156.5150 O   0  0  0  0  0  0  0  0  0  0  0  0
  150.9647  139.3907  155.0318 N   0  0  0  0  0  0  0  0  0  0  0  0
  151.4728  138.1397  154.4562 C   0  0  0  0  0  0  0  0  0  0  0  0
  150.5260  136.9909  154.8476 C   0  0  0  0  0  0  0  0  0  0  0  0
  149.0768  137.2748  154.3932 C   0  0  0  0  0  0  0  0  0  0  0  0
  148.1197  136.1641  154.8624 C   0  0  0  0  0  0  0  0  0  0  0  0
  148.2119  134.9691  153.9959 N   0  3  0  0  0  0  0  0  0  0  0  0
  146.9209  134.4353  153.5071 C   0  0  2  0  0  0  0  0  0  0  0  0
  145.9915  134.0797  154.6843 C   0  0  0  0  0  0  0  0  0  0  0  0
  147.1916  133.2333  152.5788 C   0  0  0  0  0  0  0  0  0  0  0  0
  146.0739  132.9278  151.7034 N   0  0  0  0  0  0  0  0  0  0  0  0
  145.9911  131.9576  150.7269 C   0  0  0  0  0  0  0  0  0  0  0  0
  144.7489  132.0499  150.1673 C   0  0  0  0  0  0  0  0  0  0  0  0
  144.1350  133.1176  150.8802 C   0  0  0  0  0  0  0  0  0  0  0  0
  144.9304  133.6398  151.8000 N   0  0  0  0  0  0  0  0  0  0  0  0
  148.6300  138.6785  154.8662 C   0  0  0  0  0  0  0  0  0  0  0  0
  149.6577  139.7539  154.4702 C   0  0  0  0  0  0  0  0  0  0  0  0
  149.9587  141.0835  157.0228 H   0  0  0  0  0  0  0  0  0  0  0  0
  150.8830  142.0857  155.8842 H   0  0  0  0  0  0  0  0  0  0  0  0
  151.5564  141.6797  157.4605 H   0  0  0  0  0  0  0  0  0  0  0  0
  151.5216  138.2347  153.3704 H   0  0  0  0  0  0  0  0  0  0  0  0
  152.4887  137.9074  154.7785 H   0  0  0  0  0  0  0  0  0  0  0  0
  150.8811  136.0581  154.4082 H   0  0  0  0  0  0  0  0  0  0  0  0
  150.5550  136.8525  155.9296 H   0  0  0  0  0  0  0  0  0  0  0  0
  149.0789  137.2766  153.3017 H   0  0  0  0  0  0  0  0  0  0  0  0
  148.3676  135.8835  155.8859 H   0  0  0  0  0  0  0  0  0  0  0  0
  147.0926  136.5319  154.8741 H   0  0  0  0  0  0  0  0  0  0  0  0
  148.7595  135.2309  153.1885 H   0  0  0  0  0  0  0  0  0  0  0  0
  146.4401  135.2110  152.9089 H   0  0  0  0  0  0  0  0  0  0  0  0
  145.0184  133.7336  154.3351 H   0  0  0  0  0  0  0  0  0  0  0  0
  145.8032  134.9377  155.3287 H   0  0  0  0  0  0  0  0  0  0  0  0
  146.4212  133.2894  155.3006 H   0  0  0  0  0  0  0  0  0  0  0  0
  148.0627  133.4314  151.9525 H   0  0  0  0  0  0  0  0  0  0  0  0
  147.4303  132.3456  153.1677 H   0  0  0  0  0  0  0  0  0  0  0  0
  146.8136  131.2910  150.5125 H   0  0  0  0  0  0  0  0  0  0  0  0
  144.3398  131.4459  149.3708 H   0  0  0  0  0  0  0  0  0  0  0  0
  143.1425  133.5256  150.7578 H   0  0  0  0  0  0  0  0  0  0  0  0
  147.6587  138.9314  154.4405 H   0  0  0  0  0  0  0  0  0  0  0  0
  148.5034  138.6829  155.9500 H   0  0  0  0  0  0  0  0  0  0  0  0
  149.3050  140.7354  154.7834 H   0  0  0  0  0  0  0  0  0  0  0  0
  149.7388  139.8093  153.3837 H   0  0  0  0  0  0  0  0  0  0  0  0
  148.7009  134.2355  154.4889 H   0  0  0  0  0  0  0  0  0  0  0  0
  1  2  1  0  0  0  0
  1 20  1  0  0  0  0
  1 21  1  0  0  0  0
  1 22  1  0  0  0  0
  2  3  2  0  0  0  0
  2  4  1  0  0  0  0
  4 19  1  0  0  0  0
  4  5  1  0  0  0  0
  5  6  1  0  0  0  0
  5 23  1  0  0  0  0
  5 24  1  0  0  0  0
  6  7  1  0  0  0  0
  6 25  1  0  0  0  0
  6 26  1  0  0  0  0
  7  8  1  0  0  0  0
  7 18  1  0  0  0  0
  7 27  1  0  0  0  0
  8  9  1  0  0  0  0
  8 28  1  0  0  0  0
  8 29  1  0  0  0  0
  9 10  1  0  0  0  0
  9 30  1  0  0  0  0
  9 44  1  0  0  0  0
 10 11  1  0  0  0  0
 10 12  1  0  0  0  0
 10 31  1  0  0  0  0
 11 32  1  0  0  0  0
 11 33  1  0  0  0  0
 11 34  1  0  0  0  0
 12 13  1  0  0  0  0
 12 35  1  0  0  0  0
 12 36  1  0  0  0  0
 13 17  1  0  0  0  0
 13 14  1  0  0  0  0
 14 15  2  0  0  0  0
 14 37  1  0  0  0  0
 15 16  1  0  0  0  0
 15 38  1  0  0  0  0
 16 17  2  0  0  0  0
 16 39  1  0  0  0  0
 18 19  1  0  0  0  0
 18 40  1  0  0  0  0
 18 41  1  0  0  0  0
 19 42  1  0  0  0  0
 19 43  1  0  0  0  0
M  CHG  1   9   1
M  END
> <s_m_source_file>
AV-unprocessed.smi

> <i_m_source_file_index>
3043

> <i_lp_mmshare_version>
43012

> <i_f3d_flags>
0

> <s_epik_input>
W0NIM11DKD1PKU4xW0NIMl1bQ0gyXVtDSF0oW0NIMl1bQ0gyXTEpW0NIMl1bTkhdW0NASF0oW0NIM10pW0NIMl1uMltjSF1bY0hdW2NIXW4y

> <s_epik_cmdline>
J2VwaWtfcHl0aG9uJywgJy1waCcsICc3LjAnLCAnLXRuJywgJzgnLCAnLW1hJywgJzIwMCcsICctbWV0YWxfYmluZGluZycsICctaW1hZScsICc8aW5maWxlLm1hZT4nLCAnLW9tYWUnLCAnPG91dGZpbGUubWFlPic=

> <r_lp_tautomer_probability>
1

> <r_epik_Ionization_Penalty>
0.00300549

> <r_epik_Ionization_Penalty_Charging>
0.00299781

> <r_epik_Ionization_Penalty_Neutral>
7.6831e-06

> <r_epik_State_Penalty>
0.00210473

> <r_epik_Charging_Adjusted_Penalty>
0.00510254

> <i_epik_Tot_Q>
1

> <i_epik_Tot_abs_Q>
1

> <r_epik_Metal_State_Penalty>
-0

> <b_epik_Metal_Only>
0

> <s_lp_Force_Field>
OPLS_2005

> <r_lp_Energy>
29.3743

> <b_lp_Chiralities_Consistent>
1

> <s_lp_Variant>
AV-unprocessed.smi:3043-1

> <Gold.Version>
5.8.1

> <Gold.Id.Protein>
6NUR|6NUR_protein|mol2

> <Gold.PLP.Fitness>
44.8871

> <Gold.PLP.PLP>
-31.2883

> <Gold.PLP.part.hbond>
-2.0000

> <Gold.PLP.part.metal>
0.0000

> <Gold.PLP.part.buried>
0.3955

> <Gold.PLP.part.nonpolar>
-29.2889

> <Gold.PLP.part.repulsive>
0.0968

> <Gold.PLP.ligand.clash>
0.0000

> <Gold.PLP.ligand.torsion>
0.7225

> <Gold.PLP.Chemscore.Hbond>
3.0000

> <Gold.PLP.Chemscore.CHOScore>
2.0000

> <Gold.PLP.Chemscore.Metal>
0.0000

> <Gold.Chemscore.Hbonds>
donor molecule, donor type, donor heavy atom, donor atom, acceptor molecule, acceptor atom, score
      L1  H     9    30       P1  7948  2.00
      P1  H  7997  8008       L1     3  1.00
      L1  C    14    37       P1 10747  1.00
      L1  C    16    39       P1 10186  0.80

> <Gold.PLP.Chemscore.Internal.Correction>
0.0439

> <Gold.Rescore>
     Score         DG    S(hbond)    S(metal)    S(lipo)     H(rot)  DE(clash)    DE(int)     intcor
     14.28     -15.73       1.98        0.00      69.28       1.74       0.40       1.05       ----

> <Gold.Chemscore.Fitness>
14.2831

> <Gold.Chemscore.DG>
-15.7338

> <Gold.Chemscore.ZeroCoef>
-5.4800

> <Gold.Chemscore.Hbond>
1.9784

> <Gold.Chemscore.Metal>
0.0000

> <Gold.Chemscore.Lipo>
69.2804

> <Gold.Chemscore.Internal_Hbond>
0.0000

> <Gold.Chemscore.DEClash>
0.4020

> <Gold.Chemscore.DEInternal>
1.0487

> <Gold.Chemscore.Rot>
1.7422

> <Gold.Chemscore.Internal.Correction>
   9.000000E+99

> <Gold.Chemscore.Hbonds>
donor molecule, donor type, donor heavy atom, donor atom, acceptor molecule, acceptor atom, score
      L1  H     9    30       P1  7948  0.61
      P1  H  7997  8008       L1     3  1.00

> <Gold.Chemscore.Hbond.Weighted>
-6.6079

> <Gold.Chemscore.Metal.Weighted>
-0.0000

> <Gold.Chemscore.Lipo.Weighted>
-8.1058

> <Gold.Chemscore.Internal_Hbond.Weighted>
0.0000

> <Gold.Chemscore.DEClash.Weighted>
0.4020

> <Gold.Chemscore.DEInternal.Weighted>
1.0487

> <Gold.Chemscore.Rot.Weighted>
4.4600

> <Gold.Chemscore.Internal.Correction.Weighted>
   9.000000E+99

> <Gold.Protein.RotatedTorsions>
[ 6907 6896 6895 6894 ] final -103.68 input  -60.11 | X-H torsion
[ 7974 7965 7964 7962 ] final -110.43 input  175.53 | X-H torsion
[ 8008 7997 7996 7995 ] final  -43.58 input   59.86 | X-H torsion
[ 10167 10162 10161 10158 ] final  168.80 input  -65.29 | X-H torsion
[ 10718 10713 10712 10709 ] final  -93.66 input   66.30 | X-H torsion
[ 10763 10752 10751 10750 ] final -141.74 input  -60.55 | X-H torsion
[ 11005 11000 10999 10996 ] final -133.50 input  -57.11 | X-H torsion

> <Gold.Protein.ActiveResidues>
 VAL166  LYS551  ARG553  GLY616  TRP617  ASP618  TYR619  PRO620  LYS621  CYS622 
 ASP623  PHE694  ASN695  SER759  ASP760  ASP761  ALA762  ILE779  LEU786  VAL792 
 PHE793  MET794  SER795  GLU796  ALA797  LYS798  CYS799  TRP800  GLU811  SER814 

> <Gold.Protein.RotatedAtoms>
  150.7252  134.0392  159.3759 H   0  0  0  0  0  0  0  0  0  0  0  0  # atno 6907 bound_to 6896
  151.8365  135.0602  160.0452 H   0  0  0  0  0  0  0  0  0  0  0  0  # atno 6908 bound_to 6896
  152.2895  133.5511  159.5585 H   0  0  0  0  0  0  0  0  0  0  0  0  # atno 6909 bound_to 6896
  145.1683  140.8913  143.3550 H   0  0  0  0  0  0  0  0  0  0  0  0  # atno 7974 bound_to 7965
  154.3997  140.1444  156.3543 H   0  0  0  0  0  0  0  0  0  0  0  0  # atno 8008 bound_to 7997
  155.8240  140.3468  155.5510 H   0  0  0  0  0  0  0  0  0  0  0  0  # atno 8009 bound_to 7997
  155.8258  140.0905  157.1812 H   0  0  0  0  0  0  0  0  0  0  0  0  # atno 8010 bound_to 7997
  139.4976  144.3775  151.9658 H   0  0  0  0  0  0  0  0  0  0  0  0  # atno 10167 bound_to 10162
  156.0016  130.5036  150.5810 H   0  0  0  0  0  0  0  0  0  0  0  0  # atno 10718 bound_to 10713
  154.8534  135.3516  154.5916 H   0  0  0  0  0  0  0  0  0  0  0  0  # atno 10763 bound_to 10752
  153.6526  135.6993  153.5208 H   0  0  0  0  0  0  0  0  0  0  0  0  # atno 10764 bound_to 10752
  153.2882  135.4243  155.1100 H   0  0  0  0  0  0  0  0  0  0  0  0  # atno 10765 bound_to 10752
  140.9075  134.1611  157.4415 H   0  0  0  0  0  0  0  0  0  0  0  0  # atno 11005 bound_to 11000
  145.0259  139.3383  143.6049 LP  0  0  0  0  0  0  0  0  0  0  0  0  # atno 17320 bound_to 7965
  146.3472  139.9578  142.8721 LP  0  0  0  0  0  0  0  0  0  0  0  0  # atno 17321 bound_to 7965
  140.3212  144.3426  150.6009 LP  0  0  0  0  0  0  0  0  0  0  0  0  # atno 17342 bound_to 10162
  140.5721  143.2180  151.7580 LP  0  0  0  0  0  0  0  0  0  0  0  0  # atno 17343 bound_to 10162
  157.3690  131.0762  151.1573 LP  0  0  0  0  0  0  0  0  0  0  0  0  # atno 17370 bound_to 10713
  157.2333  130.6535  149.5859 LP  0  0  0  0  0  0  0  0  0  0  0  0  # atno 17371 bound_to 10713
  139.8752  134.9922  156.5587 LP  0  0  0  0  0  0  0  0  0  0  0  0  # atno 17394 bound_to 11000
  140.8153  133.8397  155.8846 LP  0  0  0  0  0  0  0  0  0  0  0  0  # atno 17395 bound_to 11000

$$$$
