#       Name:                AV-unprocessed.smi:2592
#       Creating user name   scv26
#       Creation time:       Fri Mar 27 14:17:13 2020


#       File generated by GOLD software.
#

@<TRIPOS>MOLECULE
AV-unprocessed.smi:2592
    48    49     1
SMALL
NO_CHARGES


@<TRIPOS>ATOM
      1 ****        -4.5166   4.3836  -0.5080 C.3            1 S1                 0.0000
      2 ****        -4.5266   2.9862  -1.0475 C.2            1 S1                 0.0000
      3 ****        -3.3248   2.2801  -1.1529 N.2            1 S1                 0.0000
      4 ****        -3.5001   1.0532  -1.6536 C.2            1 S1                 0.0000
      5 ****        -2.4526   0.1203  -1.8727 N.am           1 S1                 0.0000
      6 ****        -1.1398   0.2746  -1.6261 C.2            1 S1                 0.0000
      7 ****        -0.6180   1.2821  -1.1472 O.2            1 S1                 0.0000
      8 ****        -0.4469  -0.8221  -1.9665 N.am           1 S1                 0.0000
      9 ****         0.9987  -0.9689  -1.8364 C.3            1 S1                 0.0000
     10 ****         1.4149  -1.2646  -0.3855 C.3            1 S1                 0.0000
     11 ****         2.9381  -1.4169  -0.2368 C.3            1 S1                 0.0000
     12 ****         3.3427  -1.7775   1.1453 N.4            1 S1                 1.0000
     13 ****         4.6925  -2.3893   1.1958 C.3            1 S1                 0.0000
     14 ****         5.0524  -2.7896   2.6367 C.3            1 S1                 0.0000
     15 ****         4.9694  -1.6505   3.4836 O.3            1 S1                 0.0000
     16 ****         3.6554  -1.1081   3.5159 C.3            1 S1                 0.0000
     17 ****         3.2515  -0.6487   2.1049 C.3            1 S1                 0.0000
     18 ****        -5.1729   0.6793  -2.0303 S.3            1 S1                 0.0000
     19 ****        -5.6231   2.2716  -1.4723 C.2            1 S1                 0.0000
     20 ****        -7.0479   2.7159  -1.4963 C.3            1 S1                 0.0000
     21 ****        -4.9380   4.4184   0.4967 H              1 S1                 0.0000
     22 ****        -5.1038   5.0532  -1.1368 H              1 S1                 0.0000
     23 ****        -3.5054   4.7882  -0.4555 H              1 S1                 0.0000
     24 ****        -2.7367  -0.7648  -2.2659 H              1 S1                 0.0000
     25 ****        -0.9524  -1.6045  -2.3562 H              1 S1                 0.0000
     26 ****         1.3153  -1.7833  -2.4884 H              1 S1                 0.0000
     27 ****         1.4962  -0.0685  -2.2011 H              1 S1                 0.0000
     28 ****         1.0562  -0.4615   0.2578 H              1 S1                 0.0000
     29 ****         0.9223  -2.1767  -0.0461 H              1 S1                 0.0000
     30 ****         3.2669  -2.2030  -0.9183 H              1 S1                 0.0000
     31 ****         3.4506  -0.5051  -0.5476 H              1 S1                 0.0000
     32 ****         4.7246  -3.2706   0.5541 H              1 S1                 0.0000
     33 ****         5.4293  -1.6832   0.8093 H              1 S1                 0.0000
     34 ****         4.3911  -3.5777   3.0005 H              1 S1                 0.0000
     35 ****         6.0680  -3.1837   2.6742 H              1 S1                 0.0000
     36 ****         2.9519  -1.8481   3.9014 H              1 S1                 0.0000
     37 ****         3.6385  -0.2637   4.2051 H              1 S1                 0.0000
     38 ****         3.9030   0.1637   1.7787 H              1 S1                 0.0000
     39 ****         2.2375  -0.2519   2.1363 H              1 S1                 0.0000
     40 ****        -7.2230   3.4018  -2.3252 H              1 S1                 0.0000
     41 ****        -7.3112   3.2288  -0.5711 H              1 S1                 0.0000
     42 ****        -7.7235   1.8681  -1.6109 H              1 S1                 0.0000
     43 ****         2.6979  -2.4883   1.4603 H              1 S1                 0.0000
     44 ****        -2.4356   2.6505  -0.8844 LP             1 S1                 0.0000
     45 ****        -1.1826   2.0722  -0.9085 LP             1 S1                 0.0000
     46 ****         0.3702   1.3101  -0.9971 LP             1 S1                 0.0000
     47 ****         5.5997  -0.9508   3.1470 LP             1 S1                 0.0000
     48 ****         5.2318  -1.9173   4.4109 LP             1 S1                 0.0000
@<TRIPOS>BOND
    1    1    2 1     
    2    1   21 1     
    3    1   22 1     
    4    1   23 1     
    5    2   19 2     
    6    2    3 1     
    7    3    4 2     
    8    4    5 1     
    9    4   18 1     
   10    5    6 am    
   11    5   24 1     
   12    6    7 2     
   13    6    8 am    
   14    8    9 1     
   15    8   25 1     
   16    9   10 1     
   17    9   26 1     
   18    9   27 1     
   19   10   11 1     
   20   10   28 1     
   21   10   29 1     
   22   11   12 1     
   23   11   30 1     
   24   11   31 1     
   25   12   17 1     
   26   12   13 1     
   27   12   43 1     
   28   13   14 1     
   29   13   32 1     
   30   13   33 1     
   31   14   15 1     
   32   14   34 1     
   33   14   35 1     
   34   15   16 1     
   35   16   17 1     
   36   16   36 1     
   37   16   37 1     
   38   17   38 1     
   39   17   39 1     
   40   18   19 1     
   41   19   20 1     
   42   20   40 1     
   43   20   41 1     
   44   20   42 1     
   45    3   44 1     
   46    7   45 1     
   47    7   46 1     
   48   15   47 1     
   49   15   48 1     
@<TRIPOS>SUBSTRUCTURE
      1 S1             1
@<TRIPOS>SET
LONE_PAIRS      STATIC     ATOMS    <user>   **** ""
5 44 45 46 47 48
DONOR_HYDROGENS      STATIC     ATOMS    <user>   **** ""
3 24 25 43
ATOM$BLUE        STATIC     ATOMS    COLORGROUP SYSTEM
5 44 45 46 47 48
ATOM$RED        STATIC     ATOMS    COLORGROUP SYSTEM
3 24 25 43
