#       Name:                AV-unprocessed.smi:1505
#       Creating user name   scv26
#       Creation time:       Fri Mar 27 06:19:43 2020


#       File generated by GOLD software.
#

@<TRIPOS>MOLECULE
AV-unprocessed.smi:1505
    49    50     1
SMALL
NO_CHARGES


@<TRIPOS>ATOM
      1 ****        -4.6049   0.1732   1.2244 C.3            1 S1                 0.0000
      2 ****        -4.4334   0.3537  -0.2855 C.2            1 S1                 0.0000
      3 ****        -5.2820  -0.1417  -1.0272 O.2            1 S1                 0.0000
      4 ****        -3.3633   1.0405  -0.7530 N.am           1 S1                 0.0000
      5 ****        -2.2832   1.5937   0.0724 C.3            1 S1                 0.0000
      6 ****        -1.0122   0.7573  -0.1524 C.3            1 S1                 0.0000
      7 ****        -0.6293   0.7041  -1.6522 C.3            1 S1                 0.0000
      8 ****         0.4483  -0.2556  -1.8700 N.am           1 S1                 0.0000
      9 ****         1.7304  -0.0530  -1.5382 C.2            1 S1                 0.0000
     10 ****         2.1671   1.0101  -1.0956 O.2            1 S1                 0.0000
     11 ****         2.4640  -1.1663  -1.6840 N.am           1 S1                 0.0000
     12 ****         3.8309  -1.3406  -1.1959 C.3            1 S1                 0.0000
     13 ****         3.8695  -2.0621   0.1674 C.3            1 S1                 0.0000
     14 ****         2.9934  -1.4074   1.2044 C.2            1 S1                 0.0000
     15 ****         1.7364  -1.8623   1.6968 C.2            1 S1                 0.0000
     16 ****         1.1922  -1.0295   2.5685 N.2            1 S1                 0.0000
     17 ****         2.0819  -0.0209   2.6680 N.pl3          1 S1                 0.0000
     18 ****         1.7970   1.0961   3.5422 C.3            1 S1                 0.0000
     19 ****         3.1830  -0.2261   1.8647 C.2            1 S1                 0.0000
     20 ****        -1.8424   0.3285  -2.5306 C.3            1 S1                 0.0000
     21 ****        -3.0748   1.1841  -2.1846 C.3            1 S1                 0.0000
     22 ****        -3.7416  -0.3357   1.6545 H              1 S1                 0.0000
     23 ****        -5.4874  -0.4296   1.4413 H              1 S1                 0.0000
     24 ****        -4.7311   1.1376   1.7168 H              1 S1                 0.0000
     25 ****        -2.1025   2.6290  -0.2204 H              1 S1                 0.0000
     26 ****        -2.5192   1.6314   1.1348 H              1 S1                 0.0000
     27 ****        -0.1919   1.1710   0.4357 H              1 S1                 0.0000
     28 ****        -1.1786  -0.2534   0.2241 H              1 S1                 0.0000
     29 ****        -0.2899   1.6954  -1.9587 H              1 S1                 0.0000
     30 ****         0.1851  -1.1632  -2.2249 H              1 S1                 0.0000
     31 ****         2.0117  -1.9846  -2.0646 H              1 S1                 0.0000
     32 ****         4.3921  -1.9152  -1.9329 H              1 S1                 0.0000
     33 ****         4.3348  -0.3756  -1.1184 H              1 S1                 0.0000
     34 ****         3.5657  -3.0993   0.0216 H              1 S1                 0.0000
     35 ****         4.9023  -2.1092   0.5137 H              1 S1                 0.0000
     36 ****         1.1975  -2.7600   1.4321 H              1 S1                 0.0000
     37 ****         2.6170   1.8140   3.5112 H              1 S1                 0.0000
     38 ****         1.6738   0.7422   4.5661 H              1 S1                 0.0000
     39 ****         0.8805   1.5912   3.2197 H              1 S1                 0.0000
     40 ****         3.9919   0.4877   1.8121 H              1 S1                 0.0000
     41 ****        -1.5918   0.4460  -3.5855 H              1 S1                 0.0000
     42 ****        -2.0909  -0.7245  -2.3876 H              1 S1                 0.0000
     43 ****        -3.9162   0.8957  -2.8161 H              1 S1                 0.0000
     44 ****        -2.8799   2.2331  -2.4121 H              1 S1                 0.0000
     45 ****        -6.0542  -0.6440  -0.6382 LP             1 S1                 0.0000
     46 ****        -5.1991  -0.0418  -2.0188 LP             1 S1                 0.0000
     47 ****         1.5519   1.7876  -0.9649 LP             1 S1                 0.0000
     48 ****         3.1368   1.0958  -0.8671 LP             1 S1                 0.0000
     49 ****         0.3187  -1.1259   3.0457 LP             1 S1                 0.0000
@<TRIPOS>BOND
    1    1    2 1     
    2    1   22 1     
    3    1   23 1     
    4    1   24 1     
    5    2    3 2     
    6    2    4 am    
    7    4   21 1     
    8    4    5 1     
    9    5    6 1     
   10    5   25 1     
   11    5   26 1     
   12    6    7 1     
   13    6   27 1     
   14    6   28 1     
   15    7    8 1     
   16    7   20 1     
   17    7   29 1     
   18    8    9 am    
   19    8   30 1     
   20    9   10 2     
   21    9   11 am    
   22   11   12 1     
   23   11   31 1     
   24   12   13 1     
   25   12   32 1     
   26   12   33 1     
   27   13   14 1     
   28   13   34 1     
   29   13   35 1     
   30   14   19 2     
   31   14   15 1     
   32   15   16 2     
   33   15   36 1     
   34   16   17 1     
   35   17   18 1     
   36   17   19 1     
   37   18   37 1     
   38   18   38 1     
   39   18   39 1     
   40   19   40 1     
   41   20   21 1     
   42   20   41 1     
   43   20   42 1     
   44   21   43 1     
   45   21   44 1     
   46    3   45 1     
   47    3   46 1     
   48   10   47 1     
   49   10   48 1     
   50   16   49 1     
@<TRIPOS>SUBSTRUCTURE
      1 S1             1
@<TRIPOS>SET
LONE_PAIRS      STATIC     ATOMS    <user>   **** ""
5 45 46 47 48 49
DONOR_HYDROGENS      STATIC     ATOMS    <user>   **** ""
2 30 31
ATOM$BLUE        STATIC     ATOMS    COLORGROUP SYSTEM
5 45 46 47 48 49
ATOM$RED        STATIC     ATOMS    COLORGROUP SYSTEM
2 30 31
