AV-unprocessed.smi:1982|AV-procd|sdf|8027|dock1
  -GOLD-   2272010223D 1   1.00000     0.00000
 Structure written by MMmdl.
 36 37  0  0  0  0  0  0  0  0  1 V2000
  153.1792  142.5689  162.7028 C   0  0  0  0  0  0  0  0  0  0  0  0
  152.4807  142.7631  161.3450 C   0  0  1  0  0  0  0  0  0  0  0  0
  152.1339  144.2533  161.1458 C   0  0  0  0  0  0  0  0  0  0  0  0
  151.4193  144.5085  159.8121 C   0  0  0  0  0  0  0  0  0  0  0  0
  152.2592  143.9968  158.6334 C   0  0  0  0  0  0  0  0  0  0  0  0
  152.6218  142.5079  158.7933 C   0  0  2  0  0  0  0  0  0  0  0  0
  151.4357  141.6672  158.6376 N   0  0  0  0  0  0  0  0  0  0  0  0
  151.1868  140.8323  157.6170 C   0  0  0  0  0  0  0  0  0  0  0  0
  151.9198  140.7180  156.6353 O   0  0  0  0  0  0  0  0  0  0  0  0
  149.9141  139.9910  157.7252 C   0  0  0  0  0  0  0  0  0  0  0  0
  150.2277  138.5739  157.7633 N   0  0  0  0  0  0  0  0  0  0  0  0
  149.9265  137.6331  158.6605 C   0  0  0  0  0  0  0  0  0  0  0  0
  150.3879  136.4461  158.2976 N   0  0  0  0  0  0  0  0  0  0  0  0
  151.0120  136.7070  157.0890 N   0  0  0  0  0  0  0  0  0  0  0  0
  150.9207  137.9679  156.7667 N   0  0  0  0  0  0  0  0  0  0  0  0
  153.3196  142.2288  160.1501 C   0  0  2  0  0  0  0  0  0  0  0  0
  153.6864  140.7365  160.2907 C   0  0  0  0  0  0  0  0  0  0  0  0
  154.1616  143.0414  162.7151 H   0  0  0  0  0  0  0  0  0  0  0  0
  153.3098  141.5142  162.9434 H   0  0  0  0  0  0  0  0  0  0  0  0
  152.5918  143.0059  163.5107 H   0  0  0  0  0  0  0  0  0  0  0  0
  151.5429  142.2067  161.3815 H   0  0  0  0  0  0  0  0  0  0  0  0
  151.5024  144.6018  161.9637 H   0  0  0  0  0  0  0  0  0  0  0  0
  153.0454  144.8514  161.1865 H   0  0  0  0  0  0  0  0  0  0  0  0
  150.4448  144.0187  159.8163 H   0  0  0  0  0  0  0  0  0  0  0  0
  151.2263  145.5749  159.6932 H   0  0  0  0  0  0  0  0  0  0  0  0
  151.7275  144.1610  157.6953 H   0  0  0  0  0  0  0  0  0  0  0  0
  153.1765  144.5830  158.5675 H   0  0  0  0  0  0  0  0  0  0  0  0
  153.3295  142.2513  158.0026 H   0  0  0  0  0  0  0  0  0  0  0  0
  150.7672  141.6929  159.3942 H   0  0  0  0  0  0  0  0  0  0  0  0
  149.3622  140.2681  158.6247 H   0  0  0  0  0  0  0  0  0  0  0  0
  149.2622  140.1820  156.8719 H   0  0  0  0  0  0  0  0  0  0  0  0
  149.3685  137.8159  159.5671 H   0  0  0  0  0  0  0  0  0  0  0  0
  154.2595  142.7831  160.1395 H   0  0  0  0  0  0  0  0  0  0  0  0
  152.8031  140.1151  160.4432 H   0  0  0  0  0  0  0  0  0  0  0  0
  154.3610  140.5658  161.1292 H   0  0  0  0  0  0  0  0  0  0  0  0
  154.1954  140.3737  159.3972 H   0  0  0  0  0  0  0  0  0  0  0  0
  1  2  1  0  0  0  0
  1 18  1  0  0  0  0
  1 19  1  0  0  0  0
  1 20  1  0  0  0  0
  2 16  1  0  0  0  0
  2  3  1  0  0  0  0
  2 21  1  0  0  0  0
  3  4  1  0  0  0  0
  3 22  1  0  0  0  0
  3 23  1  0  0  0  0
  4  5  1  0  0  0  0
  4 24  1  0  0  0  0
  4 25  1  0  0  0  0
  5  6  1  0  0  0  0
  5 26  1  0  0  0  0
  5 27  1  0  0  0  0
  6  7  1  0  0  0  0
  6 16  1  0  0  0  0
  6 28  1  0  0  0  0
  7  8  1  0  0  0  0
  7 29  1  0  0  0  0
  8  9  2  0  0  0  0
  8 10  1  0  0  0  0
 10 11  1  0  0  0  0
 10 30  1  0  0  0  0
 10 31  1  0  0  0  0
 11 15  1  0  0  0  0
 11 12  1  0  0  0  0
 12 13  2  0  0  0  0
 12 32  1  0  0  0  0
 13 14  1  0  0  0  0
 14 15  2  0  0  0  0
 16 17  1  0  0  0  0
 16 33  1  0  0  0  0
 17 34  1  0  0  0  0
 17 35  1  0  0  0  0
 17 36  1  0  0  0  0
M  END
> <s_m_source_file>
AV-unprocessed.smi

> <i_m_source_file_index>
1982

> <i_lp_mmshare_version>
43012

> <i_f3d_flags>
0

> <s_epik_input>
W0NIM11bQ0BASF0xW0NIMl1bQ0gyXVtDSDJdW0NASF0oW0NASF0xW0NIM10pW05IXUMoPU8pW0NIMl1uMltjSF1ubm4y

> <s_epik_cmdline>
J2VwaWtfcHl0aG9uJywgJy1waCcsICc3LjAnLCAnLXRuJywgJzgnLCAnLW1hJywgJzIwMCcsICctbWV0YWxfYmluZGluZycsICctaW1hZScsICc8aW5maWxlLm1hZT4nLCAnLW9tYWUnLCAnPG91dGZpbGUubWFlPic=

> <r_lp_tautomer_probability>
1

> <r_epik_Ionization_Penalty>
5.03816e-07

> <r_epik_Ionization_Penalty_Charging>
0

> <r_epik_Ionization_Penalty_Neutral>
5.03816e-07

> <r_epik_State_Penalty>
-0

> <r_epik_Charging_Adjusted_Penalty>
0

> <i_epik_Tot_Q>
0

> <i_epik_Tot_abs_Q>
0

> <r_epik_Metal_State_Penalty>
-0

> <b_epik_Metal_Only>
0

> <s_lp_Force_Field>
OPLS_2005

> <r_lp_Energy>
12.4214

> <b_lp_Chiralities_Consistent>
1

> <s_lp_Variant>
AV-unprocessed.smi:1982-8

> <Gold.Version>
5.8.1

> <Gold.Id.Protein>
6NUR|6NUR_protein|mol2

> <Gold.PLP.Fitness>
42.4985

> <Gold.PLP.PLP>
-39.6109

> <Gold.PLP.part.hbond>
-2.0513

> <Gold.PLP.part.metal>
0.0000

> <Gold.PLP.part.buried>
-4.6054

> <Gold.PLP.part.nonpolar>
-32.1851

> <Gold.PLP.part.repulsive>
0.1150

> <Gold.PLP.ligand.clash>
0.0000

> <Gold.PLP.ligand.torsion>
0.0629

> <Gold.PLP.Chemscore.Hbond>
1.0000

> <Gold.PLP.Chemscore.CHOScore>
0.0000

> <Gold.PLP.Chemscore.Metal>
0.0000

> <Gold.Chemscore.Hbonds>
donor molecule, donor type, donor heavy atom, donor atom, acceptor molecule, acceptor atom, score
      P1  H  6896  6908       L1    13  0.66

> <Gold.PLP.Chemscore.Internal.Correction>
0.0135

> <Gold.Rescore>
     Score         DG    S(hbond)    S(metal)    S(lipo)     H(rot)  DE(clash)    DE(int)     intcor
     14.29     -14.80       0.92        0.00      95.13       1.91       0.01       0.50       ----

> <Gold.Chemscore.Fitness>
14.2885

> <Gold.Chemscore.DG>
-14.8035

> <Gold.Chemscore.ZeroCoef>
-5.4800

> <Gold.Chemscore.Hbond>
0.9198

> <Gold.Chemscore.Metal>
0.0000

> <Gold.Chemscore.Lipo>
95.1286

> <Gold.Chemscore.Internal_Hbond>
0.0000

> <Gold.Chemscore.DEClash>
0.0149

> <Gold.Chemscore.DEInternal>
0.5001

> <Gold.Chemscore.Rot>
1.9058

> <Gold.Chemscore.Internal.Correction>
   9.000000E+99

> <Gold.Chemscore.Hbonds>
donor molecule, donor type, donor heavy atom, donor atom, acceptor molecule, acceptor atom, score
      P1  H  6896  6908       L1    13  0.63

> <Gold.Chemscore.Hbond.Weighted>
-3.0722

> <Gold.Chemscore.Metal.Weighted>
-0.0000

> <Gold.Chemscore.Lipo.Weighted>
-11.1300

> <Gold.Chemscore.Internal_Hbond.Weighted>
0.0000

> <Gold.Chemscore.DEClash.Weighted>
0.0149

> <Gold.Chemscore.DEInternal.Weighted>
0.5001

> <Gold.Chemscore.Rot.Weighted>
4.8788

> <Gold.Chemscore.Internal.Correction.Weighted>
   9.000000E+99

> <Gold.Protein.RotatedTorsions>
[ 6907 6896 6895 6894 ] final -166.75 input  -60.11 | X-H torsion
[ 7974 7965 7964 7962 ] final  143.46 input  175.53 | X-H torsion
[ 8008 7997 7996 7995 ] final    9.94 input   59.86 | X-H torsion
[ 10167 10162 10161 10158 ] final  -53.90 input  -65.29 | X-H torsion
[ 10718 10713 10712 10709 ] final  -46.67 input   66.30 | X-H torsion
[ 10763 10752 10751 10750 ] final -154.76 input  -60.55 | X-H torsion
[ 11005 11000 10999 10996 ] final   95.45 input  -57.11 | X-H torsion

> <Gold.Protein.ActiveResidues>
 VAL166  LYS551  ARG553  GLY616  TRP617  ASP618  TYR619  PRO620  LYS621  CYS622 
 ASP623  PHE694  ASN695  SER759  ASP760  ASP761  ALA762  ILE779  LEU786  VAL792 
 PHE793  MET794  SER795  GLU796  ALA797  LYS798  CYS799  TRP800  GLU811  SER814 

> <Gold.Protein.RotatedAtoms>
  151.4486  133.3623  159.2791 H   0  0  0  0  0  0  0  0  0  0  0  0  # atno 6907 bound_to 6896
  150.9107  134.8525  159.7434 H   0  0  0  0  0  0  0  0  0  0  0  0  # atno 6908 bound_to 6896
  152.4930  134.4416  159.9597 H   0  0  0  0  0  0  0  0  0  0  0  0  # atno 6909 bound_to 6896
  144.8919  139.5547  143.5794 H   0  0  0  0  0  0  0  0  0  0  0  0  # atno 7974 bound_to 7965
  154.7867  140.2828  155.6022 H   0  0  0  0  0  0  0  0  0  0  0  0  # atno 8008 bound_to 7997
  156.2958  140.2612  156.2634 H   0  0  0  0  0  0  0  0  0  0  0  0  # atno 8009 bound_to 7997
  154.9719  140.0376  157.2228 H   0  0  0  0  0  0  0  0  0  0  0  0  # atno 8010 bound_to 7997
  140.6460  143.2535  151.4858 H   0  0  0  0  0  0  0  0  0  0  0  0  # atno 10167 bound_to 10162
  156.2160  130.4163  149.9053 H   0  0  0  0  0  0  0  0  0  0  0  0  # atno 10718 bound_to 10713
  154.7836  135.3183  154.7936 H   0  0  0  0  0  0  0  0  0  0  0  0  # atno 10763 bound_to 10752
  153.8641  135.6850  153.4784 H   0  0  0  0  0  0  0  0  0  0  0  0  # atno 10764 bound_to 10752
  153.1480  135.4711  154.9533 H   0  0  0  0  0  0  0  0  0  0  0  0  # atno 10765 bound_to 10752
  139.8789  134.8899  156.4012 H   0  0  0  0  0  0  0  0  0  0  0  0  # atno 11005 bound_to 11000
  146.3058  139.7577  142.9057 LP  0  0  0  0  0  0  0  0  0  0  0  0  # atno 17320 bound_to 7965
  145.3769  141.0352  143.3200 LP  0  0  0  0  0  0  0  0  0  0  0  0  # atno 17321 bound_to 7965
  139.5671  144.2017  152.1781 LP  0  0  0  0  0  0  0  0  0  0  0  0  # atno 17342 bound_to 10162
  140.1302  144.5295  150.6807 LP  0  0  0  0  0  0  0  0  0  0  0  0  # atno 17343 bound_to 10162
  156.6715  130.8822  151.3563 LP  0  0  0  0  0  0  0  0  0  0  0  0  # atno 17370 bound_to 10713
  157.7063  130.9389  150.0943 LP  0  0  0  0  0  0  0  0  0  0  0  0  # atno 17371 bound_to 10713
  140.9265  133.7609  155.9971 LP  0  0  0  0  0  0  0  0  0  0  0  0  # atno 17394 bound_to 11000
  140.8380  134.3100  157.5324 LP  0  0  0  0  0  0  0  0  0  0  0  0  # atno 17395 bound_to 11000

$$$$
