#       Name:                AV-unprocessed.smi:2922
#       Creating user name   scv26
#       Creation time:       Fri Mar 27 16:09:25 2020


#       File generated by GOLD software.
#

@<TRIPOS>MOLECULE
AV-unprocessed.smi:2922
    36    37     1
SMALL
NO_CHARGES


@<TRIPOS>ATOM
      1 ****        -2.4124   0.9887  -0.7977 N.am           1 S1                 0.0000
      2 ****        -2.9221   0.2086   0.1602 C.2            1 S1                 0.0000
      3 ****        -4.1135  -0.0940   0.1840 O.2            1 S1                 0.0000
      4 ****        -1.9657  -0.2826   1.2617 C.3            1 S1                 0.0000
      5 ****        -2.1702  -1.7594   1.6561 C.3            1 S1                 0.0000
      6 ****        -0.8206  -2.4040   1.3879 C.3            1 S1                 0.0000
      7 ****        -0.2145  -1.4897   0.3302 C.3            1 S1                 0.0000
      8 ****         1.3156  -1.5859   0.2274 C.3            1 S1                 0.0000
      9 ****         1.8305  -0.8698  -0.9320 N.pl3          1 S1                 0.0000
     10 ****         2.0237   0.4989  -0.9856 C.ar           1 S1                 0.0000
     11 ****         1.9973   1.1929   0.1591 N.ar           1 S1                 0.0000
     12 ****         2.1796   2.5286   0.0742 C.ar           1 S1                 0.0000
     13 ****         2.3923   3.1655  -1.1644 C.ar           1 S1                 0.0000
     14 ****         2.6231   4.8711  -1.2807 Cl             1 S1                 0.0000
     15 ****         2.4061   2.3357  -2.3032 C.ar           1 S1                 0.0000
     16 ****         2.2211   1.0003  -2.2080 N.ar           1 S1                 0.0000
     17 ****        -0.6158  -0.2117   0.8024 O.3            1 S1                 0.0000
     18 ****        -3.0064   1.3285  -1.5401 H              1 S1                 0.0000
     19 ****        -1.4322   1.2312  -0.7748 H              1 S1                 0.0000
     20 ****        -2.0713   0.3697   2.1291 H              1 S1                 0.0000
     21 ****        -2.4643  -1.8668   2.7006 H              1 S1                 0.0000
     22 ****        -2.9355  -2.2466   1.0501 H              1 S1                 0.0000
     23 ****        -0.2146  -2.3826   2.2950 H              1 S1                 0.0000
     24 ****        -0.9019  -3.4402   1.0584 H              1 S1                 0.0000
     25 ****        -0.6798  -1.6886  -0.6374 H              1 S1                 0.0000
     26 ****         1.7919  -1.2356   1.1439 H              1 S1                 0.0000
     27 ****         1.6025  -2.6312   0.1117 H              1 S1                 0.0000
     28 ****         1.8381  -1.3606  -1.8144 H              1 S1                 0.0000
     29 ****         2.1544   3.0886   0.9974 H              1 S1                 0.0000
     30 ****         2.5634   2.7416  -3.2915 H              1 S1                 0.0000
     31 ****        -4.7299   0.2456  -0.5264 LP             1 S1                 0.0000
     32 ****        -4.4661  -0.6798   0.9138 LP             1 S1                 0.0000
     33 ****         1.8490   0.7417   1.0392 LP             1 S1                 0.0000
     34 ****         2.2316   0.4131  -3.0174 LP             1 S1                 0.0000
     35 ****        -0.0206   0.0684   1.5556 LP             1 S1                 0.0000
     36 ****        -0.5498   0.4549   0.0599 LP             1 S1                 0.0000
@<TRIPOS>BOND
    1    1    2 am    
    2    1   18 1     
    3    1   19 1     
    4    2    3 2     
    5    2    4 1     
    6    4   17 1     
    7    4    5 1     
    8    4   20 1     
    9    5    6 1     
   10    5   21 1     
   11    5   22 1     
   12    6    7 1     
   13    6   23 1     
   14    6   24 1     
   15    7    8 1     
   16    7   17 1     
   17    7   25 1     
   18    8    9 1     
   19    8   26 1     
   20    8   27 1     
   21    9   10 1     
   22    9   28 1     
   23   10   16 ar    
   24   10   11 ar    
   25   11   12 ar    
   26   12   13 ar    
   27   12   29 1     
   28   13   14 1     
   29   13   15 ar    
   30   15   16 ar    
   31   15   30 1     
   32    3   31 1     
   33    3   32 1     
   34   11   33 1     
   35   16   34 1     
   36   17   35 1     
   37   17   36 1     
@<TRIPOS>SUBSTRUCTURE
      1 S1             1
@<TRIPOS>SET
LONE_PAIRS      STATIC     ATOMS    <user>   **** ""
6 31 32 33 34 35 36
DONOR_HYDROGENS      STATIC     ATOMS    <user>   **** ""
3 18 19 28
ATOM$BLUE        STATIC     ATOMS    COLORGROUP SYSTEM
6 31 32 33 34 35 36
ATOM$RED        STATIC     ATOMS    COLORGROUP SYSTEM
3 18 19 28
