AV-unprocessed.smi:2863|AV-procd|sdf|11012|dock8
  -GOLD-   2272015473D 1   1.00000     0.00000
 Structure written by MMmdl.
 42 43  0  0  0  0  0  0  0  0  1 V2000
  144.5354  143.1794  157.1869 C   0  0  0  0  0  0  0  0  0  0  0  0
  145.1087  143.1385  155.8127 C   0  0  0  0  0  0  0  0  0  0  0  0
  145.9400  142.2281  155.3100 N   0  0  0  0  0  0  0  0  0  0  0  0
  146.1707  142.6418  154.0053 C   0  0  0  0  0  0  0  0  0  0  0  0
  147.0574  141.8768  153.0712 C   0  0  0  0  0  0  0  0  0  0  0  0
  148.2011  141.1682  153.8145 C   0  0  0  0  0  0  0  0  0  0  0  0
  148.8243  142.0396  154.8036 N   0  0  0  0  0  0  0  0  0  0  0  0
  149.9527  141.7594  155.4704 C   0  0  0  0  0  0  0  0  0  0  0  0
  150.6058  140.7269  155.3173 O   0  0  0  0  0  0  0  0  0  0  0  0
  150.2835  142.7403  156.3219 N   0  0  0  0  0  0  0  0  0  0  0  0
  151.4511  142.7375  157.1981 C   0  0  0  0  0  0  0  0  0  0  0  0
  151.3045  141.6207  158.2491 C   0  0  0  0  0  0  0  0  0  0  0  0
  152.4845  141.6163  159.2344 C   0  0  0  0  0  0  0  0  0  0  0  0
  152.6499  142.9860  159.9111 C   0  0  0  0  0  0  0  0  0  0  0  0
  152.8015  144.1045  158.8680 C   0  0  0  0  0  0  0  0  0  0  0  0
  151.6241  144.1110  157.8795 C   0  0  0  0  0  0  0  0  0  0  0  0
  145.4527  143.7900  153.7878 C   0  0  0  0  0  0  0  0  0  0  0  0
  145.2897  144.6796  152.6023 C   0  0  0  0  0  0  0  0  0  0  0  0
  144.7750  144.1188  154.9308 O   0  0  0  0  0  0  0  0  0  0  0  0
  144.8787  142.3229  157.7677 H   0  0  0  0  0  0  0  0  0  0  0  0
  143.4468  143.1561  157.1371 H   0  0  0  0  0  0  0  0  0  0  0  0
  144.8456  144.0936  157.6929 H   0  0  0  0  0  0  0  0  0  0  0  0
  146.4659  141.1453  152.5195 H   0  0  0  0  0  0  0  0  0  0  0  0
  147.4729  142.5509  152.3212 H   0  0  0  0  0  0  0  0  0  0  0  0
  147.8190  140.2885  154.3332 H   0  0  0  0  0  0  0  0  0  0  0  0
  148.9514  140.8099  153.1072 H   0  0  0  0  0  0  0  0  0  0  0  0
  148.3597  142.9149  154.9970 H   0  0  0  0  0  0  0  0  0  0  0  0
  149.6809  143.5487  156.3721 H   0  0  0  0  0  0  0  0  0  0  0  0
  152.3411  142.5253  156.6021 H   0  0  0  0  0  0  0  0  0  0  0  0
  150.3737  141.7530  158.8028 H   0  0  0  0  0  0  0  0  0  0  0  0
  151.2356  140.6501  157.7564 H   0  0  0  0  0  0  0  0  0  0  0  0
  152.3352  140.8438  159.9895 H   0  0  0  0  0  0  0  0  0  0  0  0
  153.4018  141.3571  158.7044 H   0  0  0  0  0  0  0  0  0  0  0  0
  151.7840  143.1891  160.5423 H   0  0  0  0  0  0  0  0  0  0  0  0
  153.5178  142.9725  160.5711 H   0  0  0  0  0  0  0  0  0  0  0  0
  152.8730  145.0713  159.3671 H   0  0  0  0  0  0  0  0  0  0  0  0
  153.7355  143.9693  158.3212 H   0  0  0  0  0  0  0  0  0  0  0  0
  151.7835  144.8869  157.1297 H   0  0  0  0  0  0  0  0  0  0  0  0
  150.7089  144.3783  158.4097 H   0  0  0  0  0  0  0  0  0  0  0  0
  145.4102  144.1177  151.6758 H   0  0  0  0  0  0  0  0  0  0  0  0
  146.0330  145.4768  152.6138 H   0  0  0  0  0  0  0  0  0  0  0  0
  144.3003  145.1372  152.5914 H   0  0  0  0  0  0  0  0  0  0  0  0
  1  2  1  0  0  0  0
  1 20  1  0  0  0  0
  1 21  1  0  0  0  0
  1 22  1  0  0  0  0
  2 19  1  0  0  0  0
  2  3  2  0  0  0  0
  3  4  1  0  0  0  0
  4  5  1  0  0  0  0
  4 17  2  0  0  0  0
  5  6  1  0  0  0  0
  5 23  1  0  0  0  0
  5 24  1  0  0  0  0
  6  7  1  0  0  0  0
  6 25  1  0  0  0  0
  6 26  1  0  0  0  0
  7  8  1  0  0  0  0
  7 27  1  0  0  0  0
  8  9  2  0  0  0  0
  8 10  1  0  0  0  0
 10 11  1  0  0  0  0
 10 28  1  0  0  0  0
 11 16  1  0  0  0  0
 11 12  1  0  0  0  0
 11 29  1  0  0  0  0
 12 13  1  0  0  0  0
 12 30  1  0  0  0  0
 12 31  1  0  0  0  0
 13 14  1  0  0  0  0
 13 32  1  0  0  0  0
 13 33  1  0  0  0  0
 14 15  1  0  0  0  0
 14 34  1  0  0  0  0
 14 35  1  0  0  0  0
 15 16  1  0  0  0  0
 15 36  1  0  0  0  0
 15 37  1  0  0  0  0
 16 38  1  0  0  0  0
 16 39  1  0  0  0  0
 17 18  1  0  0  0  0
 17 19  1  0  0  0  0
 18 40  1  0  0  0  0
 18 41  1  0  0  0  0
 18 42  1  0  0  0  0
M  END
> <s_m_source_file>
AV-unprocessed.smi

> <i_m_source_file_index>
2863

> <i_lp_mmshare_version>
43012

> <i_f3d_flags>
0

> <s_epik_input>
W0NIM11jMW5jKGMobzEpW0NIM10pW0NIMl1bQ0gyXVtOSF1DKD1PKVtOSF1bQ0hdMltDSDJdW0NIMl1bQ0gyXVtDSDJdW0NIMl0y

> <s_epik_cmdline>
J2VwaWtfcHl0aG9uJywgJy1waCcsICc3LjAnLCAnLXRuJywgJzgnLCAnLW1hJywgJzIwMCcsICctbWV0YWxfYmluZGluZycsICctaW1hZScsICc8aW5maWxlLm1hZT4nLCAnLW9tYWUnLCAnPG91dGZpbGUubWFlPic=

> <r_lp_tautomer_probability>
1

> <r_epik_Ionization_Penalty>
0.000108106

> <r_epik_Ionization_Penalty_Charging>
0

> <r_epik_Ionization_Penalty_Neutral>
0.000108106

> <r_epik_State_Penalty>
-0

> <r_epik_Charging_Adjusted_Penalty>
0

> <i_epik_Tot_Q>
0

> <i_epik_Tot_abs_Q>
0

> <r_epik_Metal_State_Penalty>
-0

> <b_epik_Metal_Only>
0

> <s_lp_Force_Field>
OPLS_2005

> <r_lp_Energy>
1.15326

> <b_lp_Chiralities_Consistent>
1

> <s_lp_Variant>
AV-unprocessed.smi:2863-1

> <Gold.Version>
5.8.1

> <Gold.Id.Protein>
6NUR|6NUR_protein|mol2

> <Gold.PLP.Fitness>
49.4219

> <Gold.PLP.PLP>
-42.8452

> <Gold.PLP.part.hbond>
-2.9634

> <Gold.PLP.part.metal>
0.0000

> <Gold.PLP.part.buried>
-5.6293

> <Gold.PLP.part.nonpolar>
-33.3803

> <Gold.PLP.part.repulsive>
0.6992

> <Gold.PLP.ligand.clash>
0.0000

> <Gold.PLP.ligand.torsion>
0.5270

> <Gold.PLP.Chemscore.Hbond>
2.5402

> <Gold.PLP.Chemscore.CHOScore>
0.0000

> <Gold.PLP.Chemscore.Metal>
0.0000

> <Gold.Chemscore.Hbonds>
donor molecule, donor type, donor heavy atom, donor atom, acceptor molecule, acceptor atom, score
      L1  H     7    27       P1  8028  0.75
      L1  H    10    28       P1  8028  1.00
      P1  H  7989  7998       L1     9  0.74

> <Gold.PLP.Chemscore.Internal.Correction>
0.0101

> <Gold.Rescore>
     Score         DG    S(hbond)    S(metal)    S(lipo)     H(rot)  DE(clash)    DE(int)     intcor
     18.96     -20.70       2.11        0.00     105.13       1.61       1.23       0.51       ----

> <Gold.Chemscore.Fitness>
18.9574

> <Gold.Chemscore.DG>
-20.6958

> <Gold.Chemscore.ZeroCoef>
-5.4800

> <Gold.Chemscore.Hbond>
2.1092

> <Gold.Chemscore.Metal>
0.0000

> <Gold.Chemscore.Lipo>
105.1305

> <Gold.Chemscore.Internal_Hbond>
0.0000

> <Gold.Chemscore.DEClash>
1.2268

> <Gold.Chemscore.DEInternal>
0.5116

> <Gold.Chemscore.Rot>
1.6130

> <Gold.Chemscore.Internal.Correction>
   9.000000E+99

> <Gold.Chemscore.Hbonds>
donor molecule, donor type, donor heavy atom, donor atom, acceptor molecule, acceptor atom, score
      L1  H     7    27       P1  8028  0.74
      L1  H    10    28       P1  8028  0.93
      P1  H  7989  7998       L1     9  0.43

> <Gold.Chemscore.Hbond.Weighted>
-7.0448

> <Gold.Chemscore.Metal.Weighted>
-0.0000

> <Gold.Chemscore.Lipo.Weighted>
-12.3003

> <Gold.Chemscore.Internal_Hbond.Weighted>
0.0000

> <Gold.Chemscore.DEClash.Weighted>
1.2268

> <Gold.Chemscore.DEInternal.Weighted>
0.5116

> <Gold.Chemscore.Rot.Weighted>
4.1293

> <Gold.Chemscore.Internal.Correction.Weighted>
   9.000000E+99

> <Gold.Protein.RotatedTorsions>
[ 6907 6896 6895 6894 ] final   34.17 input  -60.11 | X-H torsion
[ 7974 7965 7964 7962 ] final  -27.79 input  175.53 | X-H torsion
[ 8008 7997 7996 7995 ] final  125.42 input   59.86 | X-H torsion
[ 10167 10162 10161 10158 ] final   90.13 input  -65.29 | X-H torsion
[ 10718 10713 10712 10709 ] final  108.36 input   66.30 | X-H torsion
[ 10763 10752 10751 10750 ] final -144.84 input  -60.55 | X-H torsion
[ 11005 11000 10999 10996 ] final  -22.36 input  -57.11 | X-H torsion

> <Gold.Protein.ActiveResidues>
 VAL166  LYS551  ARG553  GLY616  TRP617  ASP618  TYR619  PRO620  LYS621  CYS622 
 ASP623  PHE694  ASN695  SER759  ASP760  ASP761  ALA762  ILE779  LEU786  VAL792 
 PHE793  MET794  SER795  GLU796  ALA797  LYS798  CYS799  TRP800  GLU811  SER814 

> <Gold.Protein.RotatedAtoms>
  152.0986  134.9357  160.0569 H   0  0  0  0  0  0  0  0  0  0  0  0  # atno 6907 bound_to 6896
  152.0580  133.4044  159.4414 H   0  0  0  0  0  0  0  0  0  0  0  0  # atno 6908 bound_to 6896
  150.6839  134.3152  159.4807 H   0  0  0  0  0  0  0  0  0  0  0  0  # atno 6909 bound_to 6896
  146.1333  140.5199  142.8684 H   0  0  0  0  0  0  0  0  0  0  0  0  # atno 7974 bound_to 7965
  156.2833  140.2717  156.1946 H   0  0  0  0  0  0  0  0  0  0  0  0  # atno 8008 bound_to 7997
  155.0424  140.0386  157.2532 H   0  0  0  0  0  0  0  0  0  0  0  0  # atno 8009 bound_to 7997
  154.7263  140.2698  155.6501 H   0  0  0  0  0  0  0  0  0  0  0  0  # atno 8010 bound_to 7997
  139.8504  144.6596  150.9177 H   0  0  0  0  0  0  0  0  0  0  0  0  # atno 10167 bound_to 10162
  157.6589  131.0892  150.6293 H   0  0  0  0  0  0  0  0  0  0  0  0  # atno 10718 bound_to 10713
  154.8410  135.3429  154.6410 H   0  0  0  0  0  0  0  0  0  0  0  0  # atno 10763 bound_to 10752
  153.7021  135.6969  153.5065 H   0  0  0  0  0  0  0  0  0  0  0  0  # atno 10764 bound_to 10752
  153.2515  135.4352  155.0757 H   0  0  0  0  0  0  0  0  0  0  0  0  # atno 10765 bound_to 10752
  140.8649  133.7762  156.0118 H   0  0  0  0  0  0  0  0  0  0  0  0  # atno 11005 bound_to 11000
  144.7713  140.5644  143.6668 LP  0  0  0  0  0  0  0  0  0  0  0  0  # atno 17320 bound_to 7965
  145.5212  139.1476  143.3551 LP  0  0  0  0  0  0  0  0  0  0  0  0  # atno 17321 bound_to 7965
  140.7788  143.3832  151.1439 LP  0  0  0  0  0  0  0  0  0  0  0  0  # atno 17342 bound_to 10162
  139.7471  143.8835  152.3066 LP  0  0  0  0  0  0  0  0  0  0  0  0  # atno 17343 bound_to 10162
  156.6597  130.4509  149.5691 LP  0  0  0  0  0  0  0  0  0  0  0  0  # atno 17370 bound_to 10713
  156.2076  130.6659  151.1235 LP  0  0  0  0  0  0  0  0  0  0  0  0  # atno 17371 bound_to 10713
  140.8640  134.2806  157.5221 LP  0  0  0  0  0  0  0  0  0  0  0  0  # atno 17394 bound_to 11000
  139.8709  134.9533  156.4141 LP  0  0  0  0  0  0  0  0  0  0  0  0  # atno 17395 bound_to 11000

$$$$
