AV-unprocessed.smi:2021|AV-procd|sdf|8184|dock8
  -GOLD-   2272010433D 1   1.00000     0.00000
 Structure written by MMmdl.
 41 42  0  0  0  0  0  0  0  0  3 V2000
  152.5451  144.1703  157.6687 C   0  0  0  0  0  0  0  0  0  0  0  0
  151.2982  144.4679  158.5186 C   0  0  0  0  0  0  0  0  0  0  0  0
  151.7059  145.0317  159.8879 C   0  0  0  0  0  0  0  0  0  0  0  0
  150.4071  143.2188  158.6914 C   0  0  0  0  0  0  0  0  0  0  0  0
  149.6350  142.8764  157.4696 N   0  3  2  0  0  0  0  0  0  0  0  0
  148.1821  142.6967  157.7115 C   0  0  0  0  0  0  0  0  0  0  0  0
  147.4550  142.3776  156.3949 C   0  0  0  0  0  0  0  0  0  0  0  0
  148.0352  141.2256  155.7975 O   0  0  0  0  0  0  0  0  0  0  0  0
  149.4067  141.4210  155.4665 C   0  0  2  0  0  0  0  0  0  0  0  0
  149.9200  140.1661  154.7484 C   0  0  0  0  0  0  0  0  0  0  0  0
  150.3264  139.1514  155.7106 N   0  0  0  0  0  0  0  0  0  0  0  0
  151.5937  138.8570  156.0257 C   0  0  0  0  0  0  0  0  0  0  0  0
  152.5176  139.4723  155.4888 O   0  0  0  0  0  0  0  0  0  0  0  0
  151.7110  137.8695  156.9416 N   0  5  0  0  0  0  0  0  0  0  0  0
  152.9199  137.3529  157.2185 C   0  0  0  0  0  0  0  0  0  0  0  0
  154.0208  137.6905  156.5277 N   0  0  0  0  0  0  0  0  0  0  0  0
  155.1653  137.0436  156.9740 N   0  0  0  0  0  0  0  0  0  0  0  0
  154.8950  136.2235  157.9894 C   0  0  0  0  0  0  0  0  0  0  0  0
  153.2180  136.1635  158.4897 S   0  0  0  0  0  0  0  0  0  0  0  0
  150.1896  141.6966  156.7645 C   0  0  0  0  0  0  0  0  0  0  0  0
  153.1570  143.3896  158.1216 H   0  0  0  0  0  0  0  0  0  0  0  0
  153.1680  145.0592  157.5629 H   0  0  0  0  0  0  0  0  0  0  0  0
  152.2760  143.8428  156.6642 H   0  0  0  0  0  0  0  0  0  0  0  0
  150.7276  145.2488  158.0165 H   0  0  0  0  0  0  0  0  0  0  0  0
  152.2974  144.3114  160.4544 H   0  0  0  0  0  0  0  0  0  0  0  0
  150.8301  145.2863  160.4857 H   0  0  0  0  0  0  0  0  0  0  0  0
  152.3018  145.9386  159.7794 H   0  0  0  0  0  0  0  0  0  0  0  0
  151.0485  142.3777  158.9603 H   0  0  0  0  0  0  0  0  0  0  0  0
  149.7162  143.3508  159.5257 H   0  0  0  0  0  0  0  0  0  0  0  0
  148.0265  141.8871  158.4262 H   0  0  0  0  0  0  0  0  0  0  0  0
  147.7509  143.5964  158.1486 H   0  0  0  0  0  0  0  0  0  0  0  0
  146.3998  142.1820  156.5865 H   0  0  0  0  0  0  0  0  0  0  0  0
  147.5024  143.2234  155.7070 H   0  0  0  0  0  0  0  0  0  0  0  0
  149.5023  142.2777  154.7959 H   0  0  0  0  0  0  0  0  0  0  0  0
  149.1327  139.7554  154.1142 H   0  0  0  0  0  0  0  0  0  0  0  0
  150.7610  140.4150  154.0992 H   0  0  0  0  0  0  0  0  0  0  0  0
  149.5955  138.6315  156.1739 H   0  0  0  0  0  0  0  0  0  0  0  0
  155.6871  135.6481  158.4445 H   0  0  0  0  0  0  0  0  0  0  0  0
  151.2396  141.8727  156.5264 H   0  0  0  0  0  0  0  0  0  0  0  0
  150.1510  140.8267  157.4224 H   0  0  0  0  0  0  0  0  0  0  0  0
  149.7369  143.6565  156.8360 H   0  0  0  0  0  0  0  0  0  0  0  0
  1  2  1  0  0  0  0
  1 21  1  0  0  0  0
  1 22  1  0  0  0  0
  1 23  1  0  0  0  0
  2  3  1  0  0  0  0
  2  4  1  0  0  0  0
  2 24  1  0  0  0  0
  3 25  1  0  0  0  0
  3 26  1  0  0  0  0
  3 27  1  0  0  0  0
  4  5  1  0  0  0  0
  4 28  1  0  0  0  0
  4 29  1  0  0  0  0
  5 20  1  0  0  0  0
  5  6  1  0  0  0  0
  5 41  1  0  0  0  0
  6  7  1  0  0  0  0
  6 30  1  0  0  0  0
  6 31  1  0  0  0  0
  7  8  1  0  0  0  0
  7 32  1  0  0  0  0
  7 33  1  0  0  0  0
  8  9  1  0  0  0  0
  9 10  1  0  0  0  0
  9 20  1  0  0  0  0
  9 34  1  0  0  0  0
 10 11  1  0  0  0  0
 10 35  1  0  0  0  0
 10 36  1  0  0  0  0
 11 12  1  0  0  0  0
 11 37  1  0  0  0  0
 12 13  2  0  0  0  0
 12 14  1  0  0  0  0
 14 15  1  0  0  0  0
 15 19  1  0  0  0  0
 15 16  2  0  0  0  0
 16 17  1  0  0  0  0
 17 18  2  0  0  0  0
 18 19  1  0  0  0  0
 18 38  1  0  0  0  0
 20 39  1  0  0  0  0
 20 40  1  0  0  0  0
M  CHG  1   5   1
M  CHG  1  14  -1
M  END
> <s_m_source_file>
AV-unprocessed.smi

> <i_m_source_file_index>
2021

> <i_lp_mmshare_version>
43012

> <i_f3d_flags>
0

> <s_epik_input>
W0NIM11bQ0hdKFtDSDNdKVtDSDJdTjFbQ0gyXVtDSDJdT1tDQEhdKFtDSDJdMSlbQ0gyXVtOSF1DKD1PKVtOSF1jMm5uW2NIXXMy

> <s_epik_cmdline>
J2VwaWtfcHl0aG9uJywgJy1waCcsICc3LjAnLCAnLXRuJywgJzgnLCAnLW1hJywgJzIwMCcsICctbWV0YWxfYmluZGluZycsICctaW1hZScsICc8aW5maWxlLm1hZT4nLCAnLW9tYWUnLCAnPG91dGZpbGUubWFlPic=

> <r_lp_tautomer_probability>
1

> <r_epik_Ionization_Penalty>
3.15762

> <r_epik_Ionization_Penalty_Charging>
3.12229

> <r_epik_Ionization_Penalty_Neutral>
0.0353298

> <r_epik_State_Penalty>
3.11266

> <r_epik_Charging_Adjusted_Penalty>
6.23495

> <i_epik_Tot_Q>
0

> <i_epik_Tot_abs_Q>
2

> <r_epik_Metal_State_Penalty>
0.541462

> <b_epik_Metal_Only>
1

> <s_lp_Force_Field>
OPLS_2005

> <r_lp_Energy>
10.6965

> <b_lp_Chiralities_Consistent>
1

> <s_lp_Variant>
AV-unprocessed.smi:2021-10

> <Gold.Version>
5.8.1

> <Gold.Id.Protein>
6NUR|6NUR_protein|mol2

> <Gold.PLP.Fitness>
40.9119

> <Gold.PLP.PLP>
-32.8929

> <Gold.PLP.part.hbond>
-4.7331

> <Gold.PLP.part.metal>
0.0000

> <Gold.PLP.part.buried>
-3.7606

> <Gold.PLP.part.nonpolar>
-24.5265

> <Gold.PLP.part.repulsive>
0.1918

> <Gold.PLP.ligand.clash>
0.0000

> <Gold.PLP.ligand.torsion>
1.2036

> <Gold.PLP.Chemscore.Hbond>
3.4391

> <Gold.PLP.Chemscore.CHOScore>
0.0000

> <Gold.PLP.Chemscore.Metal>
0.0000

> <Gold.Chemscore.Hbonds>
donor molecule, donor type, donor heavy atom, donor atom, acceptor molecule, acceptor atom, score
      L1  H     5    41       P1  8028  1.82
      P1  H  7997  8010       L1    13  0.91

> <Gold.PLP.Chemscore.Internal.Correction>
0.1089

> <Gold.Rescore>
     Score         DG    S(hbond)    S(metal)    S(lipo)     H(rot)  DE(clash)    DE(int)     intcor
     12.48     -15.64       1.92        0.00      72.53       1.85       0.22       2.94       ----

> <Gold.Chemscore.Fitness>
12.4801

> <Gold.Chemscore.DG>
-15.6422

> <Gold.Chemscore.ZeroCoef>
-5.4800

> <Gold.Chemscore.Hbond>
1.9173

> <Gold.Chemscore.Metal>
0.0000

> <Gold.Chemscore.Lipo>
72.5270

> <Gold.Chemscore.Internal_Hbond>
0.0000

> <Gold.Chemscore.DEClash>
0.2231

> <Gold.Chemscore.DEInternal>
2.9390

> <Gold.Chemscore.Rot>
1.8466

> <Gold.Chemscore.Internal.Correction>
   9.000000E+99

> <Gold.Chemscore.Hbonds>
donor molecule, donor type, donor heavy atom, donor atom, acceptor molecule, acceptor atom, score
      L1  H     5    41       P1  8028  0.87
      P1  H  7997  8010       L1    13  0.87

> <Gold.Chemscore.Hbond.Weighted>
-6.4038

> <Gold.Chemscore.Metal.Weighted>
-0.0000

> <Gold.Chemscore.Lipo.Weighted>
-8.4857

> <Gold.Chemscore.Internal_Hbond.Weighted>
0.0000

> <Gold.Chemscore.DEClash.Weighted>
0.2231

> <Gold.Chemscore.DEInternal.Weighted>
2.9390

> <Gold.Chemscore.Rot.Weighted>
4.7272

> <Gold.Chemscore.Internal.Correction.Weighted>
   9.000000E+99

> <Gold.Protein.RotatedTorsions>
[ 6907 6896 6895 6894 ] final -159.63 input  -60.11 | X-H torsion
[ 7974 7965 7964 7962 ] final   35.45 input  175.53 | X-H torsion
[ 8008 7997 7996 7995 ] final   87.75 input   59.86 | X-H torsion
[ 10167 10162 10161 10158 ] final  -20.31 input  -65.29 | X-H torsion
[ 10718 10713 10712 10709 ] final   95.82 input   66.30 | X-H torsion
[ 10763 10752 10751 10750 ] final -132.56 input  -60.55 | X-H torsion
[ 11005 11000 10999 10996 ] final -149.97 input  -57.11 | X-H torsion

> <Gold.Protein.ActiveResidues>
 VAL166  LYS551  ARG553  GLY616  TRP617  ASP618  TYR619  PRO620  LYS621  CYS622 
 ASP623  PHE694  ASN695  SER759  ASP760  ASP761  ALA762  ILE779  LEU786  VAL792 
 PHE793  MET794  SER795  GLU796  ALA797  LYS798  CYS799  TRP800  GLU811  SER814 

> <Gold.Protein.RotatedAtoms>
  151.3365  133.3979  159.2667 H   0  0  0  0  0  0  0  0  0  0  0  0  # atno 6907 bound_to 6896
  150.9913  134.9247  159.7911 H   0  0  0  0  0  0  0  0  0  0  0  0  # atno 6908 bound_to 6896
  152.5248  134.3330  159.9242 H   0  0  0  0  0  0  0  0  0  0  0  0  # atno 6909 bound_to 6896
  146.1282  139.6141  142.9244 H   0  0  0  0  0  0  0  0  0  0  0  0  # atno 7974 bound_to 7965
  155.9792  140.3379  155.6647 H   0  0  0  0  0  0  0  0  0  0  0  0  # atno 8008 bound_to 7997
  155.6571  140.0712  157.2585 H   0  0  0  0  0  0  0  0  0  0  0  0  # atno 8009 bound_to 7997
  154.4187  140.1715  156.1724 H   0  0  0  0  0  0  0  0  0  0  0  0  # atno 8010 bound_to 7997
  140.7275  143.4735  151.0215 H   0  0  0  0  0  0  0  0  0  0  0  0  # atno 10167 bound_to 10162
  157.6934  131.0558  150.4398 H   0  0  0  0  0  0  0  0  0  0  0  0  # atno 10718 bound_to 10713
  154.8742  135.3794  154.4429 H   0  0  0  0  0  0  0  0  0  0  0  0  # atno 10763 bound_to 10752
  153.5112  135.7029  153.5785 H   0  0  0  0  0  0  0  0  0  0  0  0  # atno 10764 bound_to 10752
  153.4074  135.3933  155.1994 H   0  0  0  0  0  0  0  0  0  0  0  0  # atno 10765 bound_to 10752
  140.7451  134.3470  157.5139 H   0  0  0  0  0  0  0  0  0  0  0  0  # atno 11005 bound_to 11000
  145.5318  141.0426  143.2378 LP  0  0  0  0  0  0  0  0  0  0  0  0  # atno 17320 bound_to 7965
  144.7664  139.6836  143.7213 LP  0  0  0  0  0  0  0  0  0  0  0  0  # atno 17321 bound_to 7965
  139.8428  143.7541  152.3180 LP  0  0  0  0  0  0  0  0  0  0  0  0  # atno 17342 bound_to 10162
  139.7696  144.7481  151.0244 LP  0  0  0  0  0  0  0  0  0  0  0  0  # atno 17343 bound_to 10162
  156.4757  130.4062  149.6491 LP  0  0  0  0  0  0  0  0  0  0  0  0  # atno 17370 bound_to 10713
  156.3555  130.7454  151.2419 LP  0  0  0  0  0  0  0  0  0  0  0  0  # atno 17371 bound_to 10713
  139.8798  134.9106  156.3017 LP  0  0  0  0  0  0  0  0  0  0  0  0  # atno 17394 bound_to 11000
  140.9801  133.7272  156.0660 LP  0  0  0  0  0  0  0  0  0  0  0  0  # atno 17395 bound_to 11000

$$$$
