AV-unprocessed.smi:2445|AV-procd|sdf|9634|dock4
  -GOLD-   2272013263D 1   1.00000     0.00000
 Structure written by MMmdl.
 40 41  0  0  0  0  0  0  0  0  1 V2000
  143.8058  132.5427  150.0618 C   0  0  0  0  0  0  0  0  0  0  0  0
  144.9563  132.8816  150.9476 C   0  0  0  0  0  0  0  0  0  0  0  0
  145.7382  134.0095  150.9149 C   0  0  0  0  0  0  0  0  0  0  0  0
  146.7430  134.0278  151.8846 N   0  0  0  0  0  0  0  0  0  0  0  0
  146.7350  132.9331  152.6507 C   0  0  0  0  0  0  0  0  0  0  0  0
  147.7007  132.6925  153.7684 C   0  0  1  0  0  0  0  0  0  0  0  0
  149.1229  132.4328  153.2419 C   0  0  0  0  0  0  0  0  0  0  0  0
  147.6133  133.8007  154.8403 C   0  0  0  0  0  0  0  0  0  0  0  0
  148.1580  135.0748  154.3822 N   0  0  0  0  0  0  0  0  0  0  0  0
  148.3540  136.1497  155.1574 C   0  0  0  0  0  0  0  0  0  0  0  0
  148.0799  136.1944  156.3568 O   0  0  0  0  0  0  0  0  0  0  0  0
  148.8954  137.1643  154.4702 N   0  0  0  0  0  0  0  0  0  0  0  0
  149.2643  138.4575  155.0374 C   0  0  2  0  0  0  0  0  0  0  0  0
  148.3583  139.5649  154.5404 C   0  0  0  0  0  0  0  0  0  0  0  0
  149.2310  140.8040  154.7183 C   0  0  0  0  0  0  0  0  0  0  0  0
  150.5811  140.3604  154.6184 O   0  0  0  0  0  0  0  0  0  0  0  0
  150.6315  138.9397  154.5380 C   0  0  1  0  0  0  0  0  0  0  0  0
  151.8269  138.4066  155.3369 C   0  0  0  0  0  0  0  0  0  0  0  0
  145.4647  131.7955  152.2140 S   0  0  0  0  0  0  0  0  0  0  0  0
  143.6293  133.3297  149.3279 H   0  0  0  0  0  0  0  0  0  0  0  0
  142.8935  132.4153  150.6448 H   0  0  0  0  0  0  0  0  0  0  0  0
  143.9947  131.6150  149.5214 H   0  0  0  0  0  0  0  0  0  0  0  0
  145.6503  134.8464  150.2380 H   0  0  0  0  0  0  0  0  0  0  0  0
  147.3796  131.7652  154.2447 H   0  0  0  0  0  0  0  0  0  0  0  0
  149.1281  131.6138  152.5221 H   0  0  0  0  0  0  0  0  0  0  0  0
  149.8061  132.1609  154.0467 H   0  0  0  0  0  0  0  0  0  0  0  0
  149.5281  133.3149  152.7454 H   0  0  0  0  0  0  0  0  0  0  0  0
  146.5729  133.9650  155.1223 H   0  0  0  0  0  0  0  0  0  0  0  0
  148.1321  133.4893  155.7488 H   0  0  0  0  0  0  0  0  0  0  0  0
  148.4154  135.1353  153.4079 H   0  0  0  0  0  0  0  0  0  0  0  0
  149.0835  137.0278  153.4878 H   0  0  0  0  0  0  0  0  0  0  0  0
  149.2387  138.4413  156.1290 H   0  0  0  0  0  0  0  0  0  0  0  0
  148.1305  139.4275  153.4819 H   0  0  0  0  0  0  0  0  0  0  0  0
  147.4162  139.6269  155.0856 H   0  0  0  0  0  0  0  0  0  0  0  0
  149.0100  141.5746  153.9796 H   0  0  0  0  0  0  0  0  0  0  0  0
  149.0831  141.2344  155.7095 H   0  0  0  0  0  0  0  0  0  0  0  0
  150.7501  138.6825  153.4838 H   0  0  0  0  0  0  0  0  0  0  0  0
  151.8958  137.3211  155.2661 H   0  0  0  0  0  0  0  0  0  0  0  0
  151.7458  138.6697  156.3916 H   0  0  0  0  0  0  0  0  0  0  0  0
  152.7618  138.8219  154.9602 H   0  0  0  0  0  0  0  0  0  0  0  0
  1  2  1  0  0  0  0
  1 20  1  0  0  0  0
  1 21  1  0  0  0  0
  1 22  1  0  0  0  0
  2 19  1  0  0  0  0
  2  3  2  0  0  0  0
  3  4  1  0  0  0  0
  3 23  1  0  0  0  0
  4  5  2  0  0  0  0
  5  6  1  0  0  0  0
  5 19  1  0  0  0  0
  6  7  1  0  0  0  0
  6  8  1  0  0  0  0
  6 24  1  0  0  0  0
  7 25  1  0  0  0  0
  7 26  1  0  0  0  0
  7 27  1  0  0  0  0
  8  9  1  0  0  0  0
  8 28  1  0  0  0  0
  8 29  1  0  0  0  0
  9 10  1  0  0  0  0
  9 30  1  0  0  0  0
 10 11  2  0  0  0  0
 10 12  1  0  0  0  0
 12 13  1  0  0  0  0
 12 31  1  0  0  0  0
 13 17  1  0  0  0  0
 13 14  1  0  0  0  0
 13 32  1  0  0  0  0
 14 15  1  0  0  0  0
 14 33  1  0  0  0  0
 14 34  1  0  0  0  0
 15 16  1  0  0  0  0
 15 35  1  0  0  0  0
 15 36  1  0  0  0  0
 16 17  1  0  0  0  0
 17 18  1  0  0  0  0
 17 37  1  0  0  0  0
 18 38  1  0  0  0  0
 18 39  1  0  0  0  0
 18 40  1  0  0  0  0
M  END
> <s_m_source_file>
AV-unprocessed.smi

> <i_m_source_file_index>
2445

> <i_lp_mmshare_version>
43012

> <i_f3d_flags>
0

> <s_epik_input>
W0NIM11jMVtjSF1uYyhzMSlbQ0BIXShbQ0gzXSlbQ0gyXVtOSF1DKD1PKVtOSF1bQ0BASF0yW0NIMl1bQ0gyXU9bQ0BIXTJbQ0gzXQ==

> <s_epik_cmdline>
J2VwaWtfcHl0aG9uJywgJy1waCcsICc3LjAnLCAnLXRuJywgJzgnLCAnLW1hJywgJzIwMCcsICctbWV0YWxfYmluZGluZycsICctaW1hZScsICc8aW5maWxlLm1hZT4nLCAnLW9tYWUnLCAnPG91dGZpbGUubWFlPic=

> <r_epik_Ionization_Penalty>
0.000649483

> <r_epik_Ionization_Penalty_Charging>
0

> <r_epik_Ionization_Penalty_Neutral>
0.000649483

> <r_epik_State_Penalty>
0.000379895

> <r_epik_Charging_Adjusted_Penalty>
0.000379895

> <i_epik_Tot_Q>
0

> <i_epik_Tot_abs_Q>
0

> <r_epik_Metal_State_Penalty>
-0

> <b_epik_Metal_Only>
0

> <s_lp_Force_Field>
OPLS_2005

> <r_lp_Energy>
5.33919

> <b_lp_Chiralities_Consistent>
1

> <s_lp_Variant>
AV-unprocessed.smi:2445-2

> <Gold.Version>
5.8.1

> <Gold.Id.Protein>
6NUR|6NUR_protein|mol2

> <Gold.PLP.Fitness>
43.4240

> <Gold.PLP.PLP>
-31.9928

> <Gold.PLP.part.hbond>
-2.7637

> <Gold.PLP.part.metal>
0.0000

> <Gold.PLP.part.buried>
-4.6864

> <Gold.PLP.part.nonpolar>
-25.0323

> <Gold.PLP.part.repulsive>
0.8403

> <Gold.PLP.ligand.clash>
0.0000

> <Gold.PLP.ligand.torsion>
0.3034

> <Gold.PLP.Chemscore.Hbond>
2.9680

> <Gold.PLP.Chemscore.CHOScore>
1.0000

> <Gold.PLP.Chemscore.Metal>
0.0000

> <Gold.Chemscore.Hbonds>
donor molecule, donor type, donor heavy atom, donor atom, acceptor molecule, acceptor atom, score
      L1  H     9    30       P1  7948  1.00
      L1  H    12    31       P1  7948  1.00
      P1  H  7989  7998       L1    16  1.00
      L1  C     3    23       P1  7921  0.67

> <Gold.PLP.Chemscore.Internal.Correction>
0.1340

> <Gold.Rescore>
     Score         DG    S(hbond)    S(metal)    S(lipo)     H(rot)  DE(clash)    DE(int)     intcor
     19.48     -19.69       2.56        0.00      81.91       1.53       0.03       0.18       ----

> <Gold.Chemscore.Fitness>
19.4798

> <Gold.Chemscore.DG>
-19.6912

> <Gold.Chemscore.ZeroCoef>
-5.4800

> <Gold.Chemscore.Hbond>
2.5602

> <Gold.Chemscore.Metal>
0.0000

> <Gold.Chemscore.Lipo>
81.9086

> <Gold.Chemscore.Internal_Hbond>
0.0000

> <Gold.Chemscore.DEClash>
0.0345

> <Gold.Chemscore.DEInternal>
0.1769

> <Gold.Chemscore.Rot>
1.5325

> <Gold.Chemscore.Internal.Correction>
   9.000000E+99

> <Gold.Chemscore.Hbonds>
donor molecule, donor type, donor heavy atom, donor atom, acceptor molecule, acceptor atom, score
      L1  H     9    30       P1  7948  0.88
      L1  H    12    31       P1  7948  0.99
      P1  H  7989  7998       L1    16  0.49

> <Gold.Chemscore.Hbond.Weighted>
-8.5512

> <Gold.Chemscore.Metal.Weighted>
-0.0000

> <Gold.Chemscore.Lipo.Weighted>
-9.5833

> <Gold.Chemscore.Internal_Hbond.Weighted>
0.0000

> <Gold.Chemscore.DEClash.Weighted>
0.0345

> <Gold.Chemscore.DEInternal.Weighted>
0.1769

> <Gold.Chemscore.Rot.Weighted>
3.9233

> <Gold.Chemscore.Internal.Correction.Weighted>
   9.000000E+99

> <Gold.Protein.RotatedTorsions>
[ 6907 6896 6895 6894 ] final  -93.76 input  -60.11 | X-H torsion
[ 7974 7965 7964 7962 ] final   14.09 input  175.53 | X-H torsion
[ 8008 7997 7996 7995 ] final  167.27 input   59.86 | X-H torsion
[ 10167 10162 10161 10158 ] final -115.90 input  -65.29 | X-H torsion
[ 10718 10713 10712 10709 ] final   24.58 input   66.30 | X-H torsion
[ 10763 10752 10751 10750 ] final  166.58 input  -60.55 | X-H torsion
[ 11005 11000 10999 10996 ] final  -34.52 input  -57.11 | X-H torsion

> <Gold.Protein.ActiveResidues>
 VAL166  LYS551  ARG553  GLY616  TRP617  ASP618  TYR619  PRO620  LYS621  CYS622 
 ASP623  PHE694  ASN695  SER759  ASP760  ASP761  ALA762  ILE779  LEU786  VAL792 
 PHE793  MET794  SER795  GLU796  ALA797  LYS798  CYS799  TRP800  GLU811  SER814 

> <Gold.Protein.RotatedAtoms>
  150.6928  134.1917  159.4287 H   0  0  0  0  0  0  0  0  0  0  0  0  # atno 6907 bound_to 6896
  151.9888  134.9988  160.0570 H   0  0  0  0  0  0  0  0  0  0  0  0  # atno 6908 bound_to 6896
  152.1687  133.4594  159.4935 H   0  0  0  0  0  0  0  0  0  0  0  0  # atno 6909 bound_to 6896
  146.2313  139.9092  142.8527 H   0  0  0  0  0  0  0  0  0  0  0  0  # atno 7974 bound_to 7965
  156.1648  140.1621  156.8550 H   0  0  0  0  0  0  0  0  0  0  0  0  # atno 8008 bound_to 7997
  154.5197  140.0781  156.8183 H   0  0  0  0  0  0  0  0  0  0  0  0  # atno 8009 bound_to 7997
  155.3634  140.3396  155.4243 H   0  0  0  0  0  0  0  0  0  0  0  0  # atno 8010 bound_to 7997
  140.0850  143.4752  152.1903 H   0  0  0  0  0  0  0  0  0  0  0  0  # atno 10167 bound_to 10162
  157.1817  130.6806  149.6115 H   0  0  0  0  0  0  0  0  0  0  0  0  # atno 10718 bound_to 10713
  154.3412  135.2754  155.2422 H   0  0  0  0  0  0  0  0  0  0  0  0  # atno 10763 bound_to 10752
  154.4691  135.5887  153.6313 H   0  0  0  0  0  0  0  0  0  0  0  0  # atno 10764 bound_to 10752
  152.9857  135.6084  154.3613 H   0  0  0  0  0  0  0  0  0  0  0  0  # atno 10765 bound_to 10752
  140.9723  133.7103  156.1544 H   0  0  0  0  0  0  0  0  0  0  0  0  # atno 11005 bound_to 11000
  145.2247  140.9949  143.4025 LP  0  0  0  0  0  0  0  0  0  0  0  0  # atno 17320 bound_to 7965
  144.9581  139.4010  143.6369 LP  0  0  0  0  0  0  0  0  0  0  0  0  # atno 17321 bound_to 7965
  139.5757  144.7486  151.3771 LP  0  0  0  0  0  0  0  0  0  0  0  0  # atno 17342 bound_to 10162
  140.7058  143.7517  150.7479 LP  0  0  0  0  0  0  0  0  0  0  0  0  # atno 17343 bound_to 10162
  155.9723  130.4644  150.6218 LP  0  0  0  0  0  0  0  0  0  0  0  0  # atno 17370 bound_to 10713
  157.3946  131.0801  151.1363 LP  0  0  0  0  0  0  0  0  0  0  0  0  # atno 17371 bound_to 10713
  140.7311  134.4254  157.5566 LP  0  0  0  0  0  0  0  0  0  0  0  0  # atno 17394 bound_to 11000
  139.8917  134.8774  156.2308 LP  0  0  0  0  0  0  0  0  0  0  0  0  # atno 17395 bound_to 11000

$$$$
