AV-unprocessed.smi:463|AV-procd|sdf|2635|dock2
  -GOLD-   2262023 43D 1   1.00000     0.00000
 Structure written by MMmdl.
 43 45  0  0  0  0  0  0  0  0  2 V2000
  152.8086  143.6550  162.4033 C   0  0  0  0  0  0  0  0  0  0  0  0
  152.9623  142.5309  161.3995 C   0  0  0  0  0  0  0  0  0  0  0  0
  153.8759  141.4844  161.6342 C   0  0  0  0  0  0  0  0  0  0  0  0
  154.0102  140.4455  160.6947 C   0  0  0  0  0  0  0  0  0  0  0  0
  153.2346  140.4480  159.5193 C   0  0  0  0  0  0  0  0  0  0  0  0
  152.3129  141.4964  159.2712 C   0  0  0  0  0  0  0  0  0  0  0  0
  151.5169  141.5793  158.1488 O   0  0  0  0  0  0  0  0  0  0  0  0
  151.3265  140.4056  157.3721 C   0  0  0  0  0  0  0  0  0  0  0  0
  151.4626  140.7765  155.8910 C   0  0  0  0  0  0  0  0  0  0  0  0
  150.5330  140.0135  155.0476 N   0  0  0  0  0  0  0  0  0  0  0  0
  150.6603  138.7725  154.4954 C   0  0  0  0  0  0  0  0  0  0  0  0
  151.8317  137.8523  154.6147 C   0  0  0  0  0  0  0  0  0  0  0  0
  153.1564  138.6265  154.6372 C   0  0  0  0  0  0  0  0  0  0  0  0
  153.6399  138.7124  155.9601 O   0  0  0  0  0  0  0  0  0  0  0  0
  149.5195  138.5257  153.7912 N   0  3  0  0  0  0  0  0  0  0  0  0
  148.6495  139.6110  153.9054 C   0  0  0  0  0  0  0  0  0  0  0  0
  147.3805  139.8216  153.3747 C   0  0  0  0  0  0  0  0  0  0  0  0
  146.7580  141.0471  153.6910 C   0  0  0  0  0  0  0  0  0  0  0  0
  147.3951  142.0058  154.5056 C   0  0  0  0  0  0  0  0  0  0  0  0
  148.6824  141.7817  155.0369 C   0  0  0  0  0  0  0  0  0  0  0  0
  149.2921  140.5690  154.7167 C   0  0  0  0  0  0  0  0  0  0  0  0
  152.1873  142.5304  160.2220 C   0  0  0  0  0  0  0  0  0  0  0  0
  153.4654  143.5152  163.2625 H   0  0  0  0  0  0  0  0  0  0  0  0
  151.7809  143.7011  162.7645 H   0  0  0  0  0  0  0  0  0  0  0  0
  153.0537  144.6110  161.9399 H   0  0  0  0  0  0  0  0  0  0  0  0
  154.4755  141.4733  162.5327 H   0  0  0  0  0  0  0  0  0  0  0  0
  154.7105  139.6435  160.8766 H   0  0  0  0  0  0  0  0  0  0  0  0
  153.3657  139.6330  158.8242 H   0  0  0  0  0  0  0  0  0  0  0  0
  152.0766  139.6566  157.6320 H   0  0  0  0  0  0  0  0  0  0  0  0
  150.3391  139.9819  157.5624 H   0  0  0  0  0  0  0  0  0  0  0  0
  151.2986  141.8428  155.7336 H   0  0  0  0  0  0  0  0  0  0  0  0
  152.4748  140.5665  155.5443 H   0  0  0  0  0  0  0  0  0  0  0  0
  151.7250  137.2543  155.5205 H   0  0  0  0  0  0  0  0  0  0  0  0
  151.8182  137.1542  153.7767 H   0  0  0  0  0  0  0  0  0  0  0  0
  153.9036  138.1271  154.0197 H   0  0  0  0  0  0  0  0  0  0  0  0
  153.0255  139.6337  154.2407 H   0  0  0  0  0  0  0  0  0  0  0  0
  153.0877  138.1868  156.5190 H   0  0  0  0  0  0  0  0  0  0  0  0
  146.8897  139.0882  152.7516 H   0  0  0  0  0  0  0  0  0  0  0  0
  145.7718  141.2558  153.3020 H   0  0  0  0  0  0  0  0  0  0  0  0
  146.8860  142.9326  154.7279 H   0  0  0  0  0  0  0  0  0  0  0  0
  149.1605  142.5222  155.6612 H   0  0  0  0  0  0  0  0  0  0  0  0
  151.4879  143.3345  160.0431 H   0  0  0  0  0  0  0  0  0  0  0  0
  149.3503  137.6737  153.2721 H   0  0  0  0  0  0  0  0  0  0  0  0
  1  2  1  0  0  0  0
  1 23  1  0  0  0  0
  1 24  1  0  0  0  0
  1 25  1  0  0  0  0
  2 22  1  0  0  0  0
  2  3  2  0  0  0  0
  3  4  1  0  0  0  0
  3 26  1  0  0  0  0
  4  5  2  0  0  0  0
  4 27  1  0  0  0  0
  5  6  1  0  0  0  0
  5 28  1  0  0  0  0
  6  7  1  0  0  0  0
  6 22  2  0  0  0  0
  7  8  1  0  0  0  0
  8  9  1  0  0  0  0
  8 29  1  0  0  0  0
  8 30  1  0  0  0  0
  9 10  1  0  0  0  0
  9 31  1  0  0  0  0
  9 32  1  0  0  0  0
 10 21  1  0  0  0  0
 10 11  1  0  0  0  0
 11 12  1  0  0  0  0
 11 15  2  0  0  0  0
 12 13  1  0  0  0  0
 12 33  1  0  0  0  0
 12 34  1  0  0  0  0
 13 14  1  0  0  0  0
 13 35  1  0  0  0  0
 13 36  1  0  0  0  0
 14 37  1  0  0  0  0
 15 16  1  0  0  0  0
 15 43  1  0  0  0  0
 16 21  2  0  0  0  0
 16 17  1  0  0  0  0
 17 18  2  0  0  0  0
 17 38  1  0  0  0  0
 18 19  1  0  0  0  0
 18 39  1  0  0  0  0
 19 20  2  0  0  0  0
 19 40  1  0  0  0  0
 20 21  1  0  0  0  0
 20 41  1  0  0  0  0
 22 42  1  0  0  0  0
M  CHG  1  15   1
M  END
> <s_m_source_file>
AV-unprocessed.smi

> <i_m_source_file_index>
463

> <i_lp_mmshare_version>
43012

> <i_f3d_flags>
0

> <s_epik_input>
W0NIM11jMVtjSF1bY0hdW2NIXWMoW2NIXTEpT1tDSDJdW0NIMl1uKGMobjIpW0NIMl1bQ0gyXVtPSF0pYyhjMjMpW2NIXVtjSF1bY0hdW2NIXTM=

> <s_epik_cmdline>
J2VwaWtfcHl0aG9uJywgJy1waCcsICc3LjAnLCAnLXRuJywgJzgnLCAnLW1hJywgJzIwMCcsICctbWV0YWxfYmluZGluZycsICctaW1hZScsICc8aW5maWxlLm1hZT4nLCAnLW9tYWUnLCAnPG91dGZpbGUubWFlPic=

> <r_lp_tautomer_probability>
1

> <r_epik_Ionization_Penalty>
0.724134

> <r_epik_Ionization_Penalty_Charging>
0.724134

> <r_epik_Ionization_Penalty_Neutral>
5.89567e-08

> <r_epik_State_Penalty>
0.748825

> <r_epik_Charging_Adjusted_Penalty>
1.47296

> <i_epik_Tot_Q>
1

> <i_epik_Tot_abs_Q>
1

> <r_epik_Metal_State_Penalty>
4.64506

> <b_epik_Metal_Only>
0

> <s_lp_Force_Field>
OPLS_2005

> <r_lp_Energy>
21.9502

> <b_lp_Chiralities_Consistent>
1

> <s_lp_Variant>
AV-unprocessed.smi:463-2

> <Gold.Version>
5.8.1

> <Gold.Id.Protein>
6NUR|6NUR_protein|mol2

> <Gold.PLP.Fitness>
57.6135

> <Gold.PLP.PLP>
-52.6938

> <Gold.PLP.part.hbond>
-2.7885

> <Gold.PLP.part.metal>
0.0000

> <Gold.PLP.part.buried>
-0.5768

> <Gold.PLP.part.nonpolar>
-49.7576

> <Gold.PLP.part.repulsive>
0.0657

> <Gold.PLP.ligand.clash>
0.0000

> <Gold.PLP.ligand.torsion>
1.7904

> <Gold.PLP.Chemscore.Hbond>
2.8000

> <Gold.PLP.Chemscore.CHOScore>
0.0000

> <Gold.PLP.Chemscore.Metal>
0.0000

> <Gold.Chemscore.Hbonds>
donor molecule, donor type, donor heavy atom, donor atom, acceptor molecule, acceptor atom, score
      L1  H    15    43       P1  7948  2.00
      P1  H  7997  8009       L1    14  0.80

> <Gold.PLP.Chemscore.Internal.Correction>
0.1006

> <Gold.Rescore>
     Score         DG    S(hbond)    S(metal)    S(lipo)     H(rot)  DE(clash)    DE(int)     intcor
     19.01     -20.85       1.66        0.00     135.67       2.36       0.13       1.71       ----

> <Gold.Chemscore.Fitness>
19.0149

> <Gold.Chemscore.DG>
-20.8511

> <Gold.Chemscore.ZeroCoef>
-5.4800

> <Gold.Chemscore.Hbond>
1.6623

> <Gold.Chemscore.Metal>
0.0000

> <Gold.Chemscore.Lipo>
135.6657

> <Gold.Chemscore.Internal_Hbond>
0.0000

> <Gold.Chemscore.DEClash>
0.1259

> <Gold.Chemscore.DEInternal>
1.7102

> <Gold.Chemscore.Rot>
2.3648

> <Gold.Chemscore.Internal.Correction>
   9.000000E+99

> <Gold.Chemscore.Hbonds>
donor molecule, donor type, donor heavy atom, donor atom, acceptor molecule, acceptor atom, score
      L1  H    15    43       P1  7948  0.91
      P1  H  7997  8009       L1    14  0.64

> <Gold.Chemscore.Hbond.Weighted>
-5.5522

> <Gold.Chemscore.Metal.Weighted>
-0.0000

> <Gold.Chemscore.Lipo.Weighted>
-15.8729

> <Gold.Chemscore.Internal_Hbond.Weighted>
0.0000

> <Gold.Chemscore.DEClash.Weighted>
0.1259

> <Gold.Chemscore.DEInternal.Weighted>
1.7102

> <Gold.Chemscore.Rot.Weighted>
6.0540

> <Gold.Chemscore.Internal.Correction.Weighted>
   9.000000E+99

> <Gold.Protein.RotatedTorsions>
[ 6907 6896 6895 6894 ] final -139.31 input  -60.11 | X-H torsion
[ 7974 7965 7964 7962 ] final  112.02 input  175.53 | X-H torsion
[ 8008 7997 7996 7995 ] final -157.54 input   59.86 | X-H torsion
[ 10167 10162 10161 10158 ] final  -55.50 input  -65.29 | X-H torsion
[ 10718 10713 10712 10709 ] final  177.82 input   66.30 | X-H torsion
[ 10763 10752 10751 10750 ] final  -32.34 input  -60.55 | X-H torsion
[ 11005 11000 10999 10996 ] final  -29.97 input  -57.11 | X-H torsion

> <Gold.Protein.ActiveResidues>
 VAL166  LYS551  ARG553  GLY616  TRP617  ASP618  TYR619  PRO620  LYS621  CYS622 
 ASP623  PHE694  ASN695  SER759  ASP760  ASP761  ALA762  ILE779  LEU786  VAL792 
 PHE793  MET794  SER795  GLU796  ALA797  LYS798  CYS799  TRP800  GLU811  SER814 

> <Gold.Protein.RotatedAtoms>
  151.0461  133.5664  159.2646 H   0  0  0  0  0  0  0  0  0  0  0  0  # atno 6907 bound_to 6896
  151.2692  135.0678  159.9137 H   0  0  0  0  0  0  0  0  0  0  0  0  # atno 6908 bound_to 6896
  152.5373  134.0194  159.8028 H   0  0  0  0  0  0  0  0  0  0  0  0  # atno 6909 bound_to 6896
  145.2348  139.2804  143.4149 H   0  0  0  0  0  0  0  0  0  0  0  0  # atno 7974 bound_to 7965
  155.7339  140.0805  157.2276 H   0  0  0  0  0  0  0  0  0  0  0  0  # atno 8008 bound_to 7997
  154.4029  140.1590  156.2595 H   0  0  0  0  0  0  0  0  0  0  0  0  # atno 8009 bound_to 7997
  155.9083  140.3405  155.6082 H   0  0  0  0  0  0  0  0  0  0  0  0  # atno 8010 bound_to 7997
  140.6371  143.2488  151.5089 H   0  0  0  0  0  0  0  0  0  0  0  0  # atno 10167 bound_to 10162
  156.8997  130.9875  151.3037 H   0  0  0  0  0  0  0  0  0  0  0  0  # atno 10718 bound_to 10713
  153.8122  135.6881  153.4839 H   0  0  0  0  0  0  0  0  0  0  0  0  # atno 10763 bound_to 10752
  153.1621  135.4575  154.9785 H   0  0  0  0  0  0  0  0  0  0  0  0  # atno 10764 bound_to 10752
  154.7963  135.3320  154.7601 H   0  0  0  0  0  0  0  0  0  0  0  0  # atno 10765 bound_to 10752
  140.9342  133.7319  156.0980 H   0  0  0  0  0  0  0  0  0  0  0  0  # atno 11005 bound_to 11000
  146.3344  140.2694  142.8605 LP  0  0  0  0  0  0  0  0  0  0  0  0  # atno 17320 bound_to 7965
  144.9643  140.8306  143.5494 LP  0  0  0  0  0  0  0  0  0  0  0  0  # atno 17321 bound_to 7965
  139.5581  144.2225  152.1646 LP  0  0  0  0  0  0  0  0  0  0  0  0  # atno 17342 bound_to 10162
  140.1485  144.5137  150.6701 LP  0  0  0  0  0  0  0  0  0  0  0  0  # atno 17343 bound_to 10162
  157.6033  130.8529  149.8836 LP  0  0  0  0  0  0  0  0  0  0  0  0  # atno 17370 bound_to 10713
  156.0588  130.3703  150.1030 LP  0  0  0  0  0  0  0  0  0  0  0  0  # atno 17371 bound_to 10713
  140.7822  134.3713  157.5485 LP  0  0  0  0  0  0  0  0  0  0  0  0  # atno 17394 bound_to 11000
  139.8804  134.9088  156.2977 LP  0  0  0  0  0  0  0  0  0  0  0  0  # atno 17395 bound_to 11000

$$$$
