AV-unprocessed.smi:290|AV-procd|sdf|2246|dock10
  -GOLD-   2262022133D 1   1.00000     0.00000
 Structure written by MMmdl.
 59 62  0  0  0  0  0  0  0  0  2 V2000
  153.3229  141.6629  159.4855 C   0  0  0  0  0  0  0  0  0  0  0  0
  152.2067  142.7183  159.5347 C   0  0  1  0  0  0  0  0  0  0  0  0
  152.8077  143.9518  159.9238 O   0  0  0  0  0  0  0  0  0  0  0  0
  152.1234  145.0206  159.2946 C   0  0  0  0  0  0  0  0  0  0  0  0
  151.8425  144.4598  157.9092 C   0  0  0  0  0  0  0  0  0  0  0  0
  151.4643  143.0106  158.1998 C   0  0  2  0  0  0  0  0  0  0  0  0
  150.0715  142.9724  158.4646 O   0  0  0  0  0  0  0  0  0  0  0  0
  151.7514  142.0405  157.0234 C   0  0  0  0  0  0  0  0  0  0  0  0
  151.0488  140.7710  157.1350 N   0  0  0  0  0  0  0  0  0  0  0  0
  151.1641  139.8540  158.1550 C   0  0  0  0  0  0  0  0  0  0  0  0
  150.4245  138.7864  158.0297 N   0  0  0  0  0  0  0  0  0  0  0  0
  149.7526  138.9759  156.8275 C   0  0  0  0  0  0  0  0  0  0  0  0
  148.8024  138.2108  156.0916 C   0  0  0  0  0  0  0  0  0  0  0  0
  148.3275  137.0140  156.5298 N   0  0  0  0  0  0  0  0  0  0  0  0
  146.9515  136.6861  156.1580 C   0  0  0  0  0  0  0  0  0  0  0  0
  146.9721  135.2412  155.6409 C   0  0  0  0  0  0  0  0  0  0  0  0
  148.4577  134.9849  155.3506 C   0  0  2  0  0  0  0  0  0  0  0  0
  148.8598  133.5507  155.2809 N   0  3  2  0  0  0  0  0  0  0  0  0
  150.3155  133.3422  155.4831 C   0  0  0  0  0  0  0  0  0  0  0  0
  148.3282  132.8002  154.1062 C   0  0  0  0  0  0  0  0  0  0  0  0
  148.2034  131.2714  154.2958 C   0  0  0  0  0  0  0  0  0  0  0  0
  147.5042  130.6669  153.2293 O   0  0  0  0  0  0  0  0  0  0  0  0
  149.1349  135.7963  156.4716 C   0  0  2  0  0  0  0  0  0  0  0  0
  149.1329  135.1080  157.8533 C   0  0  0  0  0  0  0  0  0  0  0  0
  148.3697  138.7290  154.9114 N   0  0  0  0  0  0  0  0  0  0  0  0
  148.8238  139.9096  154.4809 C   0  0  0  0  0  0  0  0  0  0  0  0
  149.7001  140.7284  155.0642 N   0  0  0  0  0  0  0  0  0  0  0  0
  150.1431  140.2163  156.2474 C   0  0  0  0  0  0  0  0  0  0  0  0
  148.7077  135.4579  154.3993 H   0  0  0  0  0  0  0  0  0  0  0  0
  150.1730  135.9910  156.2057 H   0  0  0  0  0  0  0  0  0  0  0  0
  152.9344  140.6834  159.2070 H   0  0  0  0  0  0  0  0  0  0  0  0
  153.7964  141.5590  160.4621 H   0  0  0  0  0  0  0  0  0  0  0  0
  154.1018  141.9382  158.7739 H   0  0  0  0  0  0  0  0  0  0  0  0
  151.4962  142.4327  160.3128 H   0  0  0  0  0  0  0  0  0  0  0  0
  151.1968  145.2339  159.8298 H   0  0  0  0  0  0  0  0  0  0  0  0
  152.7275  145.9275  159.2695 H   0  0  0  0  0  0  0  0  0  0  0  0
  151.0793  145.0171  157.3642 H   0  0  0  0  0  0  0  0  0  0  0  0
  152.7628  144.4973  157.3254 H   0  0  0  0  0  0  0  0  0  0  0  0
  149.8383  143.7499  158.9484 H   0  0  0  0  0  0  0  0  0  0  0  0
  151.4671  142.4940  156.0736 H   0  0  0  0  0  0  0  0  0  0  0  0
  152.8197  141.8301  156.9571 H   0  0  0  0  0  0  0  0  0  0  0  0
  151.8152  140.0057  159.0038 H   0  0  0  0  0  0  0  0  0  0  0  0
  146.2840  136.7944  157.0136 H   0  0  0  0  0  0  0  0  0  0  0  0
  146.5943  137.3501  155.3694 H   0  0  0  0  0  0  0  0  0  0  0  0
  146.6093  134.5659  156.4167 H   0  0  0  0  0  0  0  0  0  0  0  0
  146.3343  135.1140  154.7665 H   0  0  0  0  0  0  0  0  0  0  0  0
  150.9046  133.9021  154.7567 H   0  0  0  0  0  0  0  0  0  0  0  0
  150.5734  132.2864  155.3936 H   0  0  0  0  0  0  0  0  0  0  0  0
  150.6282  133.6638  156.4757 H   0  0  0  0  0  0  0  0  0  0  0  0
  147.3326  133.1972  153.9045 H   0  0  0  0  0  0  0  0  0  0  0  0
  148.9050  133.0272  153.2093 H   0  0  0  0  0  0  0  0  0  0  0  0
  149.1684  130.7850  154.4322 H   0  0  0  0  0  0  0  0  0  0  0  0
  147.6320  131.0725  155.2029 H   0  0  0  0  0  0  0  0  0  0  0  0
  147.9752  130.8338  152.4264 H   0  0  0  0  0  0  0  0  0  0  0  0
  149.7101  134.1839  157.8492 H   0  0  0  0  0  0  0  0  0  0  0  0
  148.1266  134.8666  158.1953 H   0  0  0  0  0  0  0  0  0  0  0  0
  149.5810  135.7601  158.6037 H   0  0  0  0  0  0  0  0  0  0  0  0
  148.4273  140.2471  153.5345 H   0  0  0  0  0  0  0  0  0  0  0  0
  148.4155  133.1185  156.0783 H   0  0  0  0  0  0  0  0  0  0  0  0
  1  2  1  0  0  0  0
  1 31  1  0  0  0  0
  1 32  1  0  0  0  0
  1 33  1  0  0  0  0
  2  6  1  0  0  0  0
  2  3  1  0  0  0  0
  2 34  1  0  0  0  0
  3  4  1  0  0  0  0
  4  5  1  0  0  0  0
  4 35  1  0  0  0  0
  4 36  1  0  0  0  0
  5  6  1  0  0  0  0
  5 37  1  0  0  0  0
  5 38  1  0  0  0  0
  6  7  1  0  0  0  0
  6  8  1  0  0  0  0
  7 39  1  0  0  0  0
  8  9  1  0  0  0  0
  8 40  1  0  0  0  0
  8 41  1  0  0  0  0
  9 28  1  0  0  0  0
  9 10  1  0  0  0  0
 10 11  2  0  0  0  0
 10 42  1  0  0  0  0
 11 12  1  0  0  0  0
 12 28  2  0  0  0  0
 12 13  1  0  0  0  0
 13 14  1  0  0  0  0
 13 25  2  0  0  0  0
 14 23  1  0  0  0  0
 14 15  1  0  0  0  0
 15 16  1  0  0  0  0
 15 43  1  0  0  0  0
 15 44  1  0  0  0  0
 16 17  1  0  0  0  0
 16 45  1  0  0  0  0
 16 46  1  0  0  0  0
 17 29  1  0  0  0  0
 17 18  1  0  0  0  0
 17 23  1  0  0  0  0
 18 19  1  0  0  0  0
 18 20  1  0  0  0  0
 18 59  1  0  0  0  0
 19 47  1  0  0  0  0
 19 48  1  0  0  0  0
 19 49  1  0  0  0  0
 20 21  1  0  0  0  0
 20 50  1  0  0  0  0
 20 51  1  0  0  0  0
 21 22  1  0  0  0  0
 21 52  1  0  0  0  0
 21 53  1  0  0  0  0
 22 54  1  0  0  0  0
 23 30  1  0  0  0  0
 23 24  1  0  0  0  0
 24 55  1  0  0  0  0
 24 56  1  0  0  0  0
 24 57  1  0  0  0  0
 25 26  1  0  0  0  0
 26 27  2  0  0  0  0
 26 58  1  0  0  0  0
 27 28  1  0  0  0  0
M  CHG  1  18   1
M  END
> <s_m_source_file>
AV-unprocessed.smi

> <i_m_source_file_index>
290

> <i_lp_mmshare_version>
43012

> <i_f3d_flags>
0

> <s_epik_input>
W0NIMl0xW0NIMl1PW0NAQEhdKFtDSDNdKVtDQEBdMShbT0hdKVtDSDJdbihbY0hdbjIpYyhjMjMpbltjSF1uYzNONFtDSDJdW0NIMl1bQ0BIXShbQ0BIXTRbQ0gzXSlOKFtDSDNdKVtDSDJdW0NIMl1bT0hd

> <s_epik_cmdline>
J2VwaWtfcHl0aG9uJywgJy1waCcsICc3LjAnLCAnLXRuJywgJzgnLCAnLW1hJywgJzIwMCcsICctbWV0YWxfYmluZGluZycsICctaW1hZScsICc8aW5maWxlLm1hZT4nLCAnLW9tYWUnLCAnPG91dGZpbGUubWFlPic=

> <r_lp_tautomer_probability>
1

> <r_epik_Ionization_Penalty>
0.0036983

> <r_epik_Ionization_Penalty_Charging>
0.0032725

> <r_epik_Ionization_Penalty_Neutral>
0.000425798

> <r_epik_State_Penalty>
-0

> <r_epik_Charging_Adjusted_Penalty>
0.0032725

> <i_epik_Tot_Q>
1

> <i_epik_Tot_abs_Q>
1

> <r_epik_Metal_State_Penalty>
-0

> <b_epik_Metal_Only>
0

> <s_lp_Force_Field>
OPLS_2005

> <r_lp_Energy>
63.8525

> <b_lp_Chiralities_Consistent>
1

> <s_lp_Variant>
AV-unprocessed.smi:290-32

> <Gold.Version>
5.8.1

> <Gold.Id.Protein>
6NUR|6NUR_protein|mol2

> <Gold.PLP.Fitness>
44.7468

> <Gold.PLP.PLP>
-38.0416

> <Gold.PLP.part.hbond>
-2.3128

> <Gold.PLP.part.metal>
0.0000

> <Gold.PLP.part.buried>
-6.3665

> <Gold.PLP.part.nonpolar>
-30.5653

> <Gold.PLP.part.repulsive>
0.3097

> <Gold.PLP.ligand.clash>
0.0000

> <Gold.PLP.ligand.torsion>
1.1792

> <Gold.PLP.Chemscore.Hbond>
1.8560

> <Gold.PLP.Chemscore.CHOScore>
1.0000

> <Gold.PLP.Chemscore.Metal>
0.0000

> <Gold.Chemscore.Hbonds>
donor molecule, donor type, donor heavy atom, donor atom, acceptor molecule, acceptor atom, score
      L1  H    22    54       P1 10747  0.18
      L1  C    26    58       P1  7957  0.64

> <Gold.PLP.Chemscore.Internal.Correction>
0.4956

> <Gold.Rescore>
     Score         DG    S(hbond)    S(metal)    S(lipo)     H(rot)  DE(clash)    DE(int)     intcor
      8.62     -11.45       1.24        0.00      95.81       3.67       1.54       1.28       ----

> <Gold.Chemscore.Fitness>
8.6248

> <Gold.Chemscore.DG>
-11.4463

> <Gold.Chemscore.ZeroCoef>
-5.4800

> <Gold.Chemscore.Hbond>
1.2399

> <Gold.Chemscore.Metal>
0.0000

> <Gold.Chemscore.Lipo>
95.8081

> <Gold.Chemscore.Internal_Hbond>
0.0000

> <Gold.Chemscore.DEClash>
1.5401

> <Gold.Chemscore.DEInternal>
1.2815

> <Gold.Chemscore.Rot>
3.6658

> <Gold.Chemscore.Internal.Correction>
   9.000000E+99

> <Gold.Chemscore.Hbonds>
donor molecule, donor type, donor heavy atom, donor atom, acceptor molecule, acceptor atom, score
      L1  H    22    54       P1 10747  0.19
      P1  H  7989  7998       L1    27  0.01

> <Gold.Chemscore.Hbond.Weighted>
-4.1412

> <Gold.Chemscore.Metal.Weighted>
-0.0000

> <Gold.Chemscore.Lipo.Weighted>
-11.2095

> <Gold.Chemscore.Internal_Hbond.Weighted>
0.0000

> <Gold.Chemscore.DEClash.Weighted>
1.5401

> <Gold.Chemscore.DEInternal.Weighted>
1.2815

> <Gold.Chemscore.Rot.Weighted>
9.3844

> <Gold.Chemscore.Internal.Correction.Weighted>
   9.000000E+99

> <Gold.Protein.RotatedTorsions>
[ 6907 6896 6895 6894 ] final -141.84 input  -60.11 | X-H torsion
[ 7974 7965 7964 7962 ] final  112.16 input  175.53 | X-H torsion
[ 8008 7997 7996 7995 ] final -135.32 input   59.86 | X-H torsion
[ 10167 10162 10161 10158 ] final   51.54 input  -65.29 | X-H torsion
[ 10718 10713 10712 10709 ] final -139.03 input   66.30 | X-H torsion
[ 10763 10752 10751 10750 ] final    9.81 input  -60.55 | X-H torsion
[ 11005 11000 10999 10996 ] final  -57.31 input  -57.11 | X-H torsion

> <Gold.Protein.ActiveResidues>
 VAL166  LYS551  ARG553  GLY616  TRP617  ASP618  TYR619  PRO620  LYS621  CYS622 
 ASP623  PHE694  ASN695  SER759  ASP760  ASP761  ALA762  ILE779  LEU786  VAL792 
 PHE793  MET794  SER795  GLU796  ALA797  LYS798  CYS799  TRP800  GLU811  SER814 

> <Gold.Protein.RotatedAtoms>
  151.0791  133.5405  159.2621 H   0  0  0  0  0  0  0  0  0  0  0  0  # atno 6907 bound_to 6896
  151.2315  135.0555  159.8999 H   0  0  0  0  0  0  0  0  0  0  0  0  # atno 6908 bound_to 6896
  152.5421  134.0579  159.8192 H   0  0  0  0  0  0  0  0  0  0  0  0  # atno 6909 bound_to 6896
  145.2330  139.2811  143.4158 H   0  0  0  0  0  0  0  0  0  0  0  0  # atno 7974 bound_to 7965
  155.3767  140.0491  157.3044 H   0  0  0  0  0  0  0  0  0  0  0  0  # atno 8008 bound_to 7997
  154.5102  140.2189  155.9133 H   0  0  0  0  0  0  0  0  0  0  0  0  # atno 8009 bound_to 7997
  156.1574  140.3123  155.8755 H   0  0  0  0  0  0  0  0  0  0  0  0  # atno 8010 bound_to 7997
  140.2608  144.3375  150.6318 H   0  0  0  0  0  0  0  0  0  0  0  0  # atno 10167 bound_to 10162
  156.3061  130.7456  151.1520 H   0  0  0  0  0  0  0  0  0  0  0  0  # atno 10718 bound_to 10713
  153.2099  135.6867  153.8126 H   0  0  0  0  0  0  0  0  0  0  0  0  # atno 10763 bound_to 10752
  153.7363  135.3245  155.3296 H   0  0  0  0  0  0  0  0  0  0  0  0  # atno 10764 bound_to 10752
  154.8216  135.4647  154.0902 H   0  0  0  0  0  0  0  0  0  0  0  0  # atno 10765 bound_to 10752
  141.1159  133.6610  156.4751 H   0  0  0  0  0  0  0  0  0  0  0  0  # atno 11005 bound_to 11000
  146.3348  140.2671  142.8604 LP  0  0  0  0  0  0  0  0  0  0  0  0  # atno 17320 bound_to 7965
  144.9659  140.8321  143.5485 LP  0  0  0  0  0  0  0  0  0  0  0  0  # atno 17321 bound_to 7965
  140.5967  143.2167  151.7150 LP  0  0  0  0  0  0  0  0  0  0  0  0  # atno 17342 bound_to 10162
  139.5017  144.3856  152.0332 LP  0  0  0  0  0  0  0  0  0  0  0  0  # atno 17343 bound_to 10162
  157.7380  131.0546  150.5323 LP  0  0  0  0  0  0  0  0  0  0  0  0  # atno 17370 bound_to 10713
  156.5456  130.4219  149.6132 LP  0  0  0  0  0  0  0  0  0  0  0  0  # atno 17371 bound_to 10713
  140.4647  134.6809  157.5101 LP  0  0  0  0  0  0  0  0  0  0  0  0  # atno 17394 bound_to 11000
  140.0081  134.6732  155.9423 LP  0  0  0  0  0  0  0  0  0  0  0  0  # atno 17395 bound_to 11000

$$$$
