AV-unprocessed.smi:2017|AV-procd|sdf|8167|dock2
  -GOLD-   2272010413D 1   1.00000     0.00000
 Structure written by MMmdl.
 45 46  0  0  0  0  0  0  0  0  1 V2000
  150.9049  136.3469  155.1924 O   0  0  0  0  0  0  0  0  0  0  0  0
  150.9918  137.5545  155.4209 C   0  0  0  0  0  0  0  0  0  0  0  0
  150.8321  138.5883  154.2964 C   0  0  0  0  0  0  0  0  0  0  0  0
  149.8495  139.6385  154.6033 N   0  0  0  0  0  0  0  0  0  0  0  0
  148.5497  139.5388  154.1273 C   0  0  0  0  0  0  0  0  0  0  0  0
  147.5900  140.4601  154.3800 C   0  0  0  0  0  0  0  0  0  0  0  0
  147.8899  141.6353  155.1908 C   0  0  0  0  0  0  0  0  0  0  0  0
  147.0901  142.5243  155.4741 O   0  0  0  0  0  0  0  0  0  0  0  0
  149.2070  141.6984  155.6533 N   0  0  0  0  0  0  0  0  0  0  0  0
  150.2003  140.7516  155.3981 C   0  0  0  0  0  0  0  0  0  0  0  0
  151.3307  140.9015  155.8604 O   0  0  0  0  0  0  0  0  0  0  0  0
  151.2412  138.0522  156.6417 N   0  0  0  0  0  0  0  0  0  0  0  0
  151.4358  137.2571  157.8483 C   0  0  0  0  0  0  0  0  0  0  0  0
  151.5770  138.1434  159.0982 C   0  0  0  0  0  0  0  0  0  0  0  0
  152.3866  139.4171  158.8291 C   0  0  0  0  0  0  0  0  0  0  0  0
  151.4931  140.5062  158.6478 O   0  0  0  0  0  0  0  0  0  0  0  0
  152.1260  141.7748  158.5506 C   0  0  0  0  0  0  0  0  0  0  0  0
  152.7145  142.1919  159.9148 C   0  0  0  0  0  0  0  0  0  0  0  0
  153.2858  143.6184  159.8655 C   0  0  0  0  0  0  0  0  0  0  0  0
  152.2289  144.6280  159.3901 C   0  0  0  0  0  0  0  0  0  0  0  0
  151.6362  144.2147  158.0336 C   0  0  0  0  0  0  0  0  0  0  0  0
  151.0646  142.7888  158.0885 C   0  0  0  0  0  0  0  0  0  0  0  0
  149.4604  142.4934  156.2218 H   0  0  0  0  0  0  0  0  0  0  0  0
  151.8053  139.0307  154.0742 H   0  0  0  0  0  0  0  0  0  0  0  0
  150.5425  138.0615  153.3858 H   0  0  0  0  0  0  0  0  0  0  0  0
  148.2814  138.6820  153.5258 H   0  0  0  0  0  0  0  0  0  0  0  0
  146.5948  140.3263  153.9811 H   0  0  0  0  0  0  0  0  0  0  0  0
  151.2985  139.0552  156.7427 H   0  0  0  0  0  0  0  0  0  0  0  0
  150.5758  136.5958  157.9556 H   0  0  0  0  0  0  0  0  0  0  0  0
  152.3093  136.6129  157.7345 H   0  0  0  0  0  0  0  0  0  0  0  0
  150.5867  138.4281  159.4553 H   0  0  0  0  0  0  0  0  0  0  0  0
  152.0439  137.5788  159.9061 H   0  0  0  0  0  0  0  0  0  0  0  0
  153.0744  139.5999  159.6548 H   0  0  0  0  0  0  0  0  0  0  0  0
  152.9874  139.2874  157.9279 H   0  0  0  0  0  0  0  0  0  0  0  0
  152.9175  141.7424  157.7995 H   0  0  0  0  0  0  0  0  0  0  0  0
  151.9380  142.1381  160.6791 H   0  0  0  0  0  0  0  0  0  0  0  0
  153.4985  141.5015  160.2247 H   0  0  0  0  0  0  0  0  0  0  0  0
  153.6558  143.9043  160.8504 H   0  0  0  0  0  0  0  0  0  0  0  0
  154.1442  143.6439  159.1932 H   0  0  0  0  0  0  0  0  0  0  0  0
  151.4313  144.6972  160.1308 H   0  0  0  0  0  0  0  0  0  0  0  0
  152.6701  145.6222  159.3164 H   0  0  0  0  0  0  0  0  0  0  0  0
  150.8559  144.9171  157.7394 H   0  0  0  0  0  0  0  0  0  0  0  0
  152.4083  144.2697  157.2650 H   0  0  0  0  0  0  0  0  0  0  0  0
  150.6836  142.5057  157.1067 H   0  0  0  0  0  0  0  0  0  0  0  0
  150.2123  142.7651  158.7689 H   0  0  0  0  0  0  0  0  0  0  0  0
  1  2  2  0  0  0  0
  2  3  1  0  0  0  0
  2 12  1  0  0  0  0
  3  4  1  0  0  0  0
  3 24  1  0  0  0  0
  3 25  1  0  0  0  0
  4 10  1  0  0  0  0
  4  5  1  0  0  0  0
  5  6  2  0  0  0  0
  5 26  1  0  0  0  0
  6  7  1  0  0  0  0
  6 27  1  0  0  0  0
  7  8  2  0  0  0  0
  7  9  1  0  0  0  0
  9 23  1  0  0  0  0
  9 10  1  0  0  0  0
 10 11  2  0  0  0  0
 12 13  1  0  0  0  0
 12 28  1  0  0  0  0
 13 14  1  0  0  0  0
 13 29  1  0  0  0  0
 13 30  1  0  0  0  0
 14 15  1  0  0  0  0
 14 31  1  0  0  0  0
 14 32  1  0  0  0  0
 15 16  1  0  0  0  0
 15 33  1  0  0  0  0
 15 34  1  0  0  0  0
 16 17  1  0  0  0  0
 17 22  1  0  0  0  0
 17 18  1  0  0  0  0
 17 35  1  0  0  0  0
 18 19  1  0  0  0  0
 18 36  1  0  0  0  0
 18 37  1  0  0  0  0
 19 20  1  0  0  0  0
 19 38  1  0  0  0  0
 19 39  1  0  0  0  0
 20 21  1  0  0  0  0
 20 40  1  0  0  0  0
 20 41  1  0  0  0  0
 21 22  1  0  0  0  0
 21 42  1  0  0  0  0
 21 43  1  0  0  0  0
 22 44  1  0  0  0  0
 22 45  1  0  0  0  0
M  END
> <s_m_source_file>
AV-unprocessed.smi

> <i_m_source_file_index>
2017

> <i_lp_mmshare_version>
43012

> <i_f3d_flags>
0

> <s_epik_input>
Tz1jMVtuSF1jKD1PKVtjSF1bY0hdbjFbQ0gyXUMoPU8pW05IXVtDSDJdW0NIMl1bQ0gyXU9bQ0hdMltDSDJdW0NIMl1bQ0gyXVtDSDJdW0NIMl0y

> <s_epik_cmdline>
J2VwaWtfcHl0aG9uJywgJy1waCcsICc3LjAnLCAnLXRuJywgJzgnLCAnLW1hJywgJzIwMCcsICctbWV0YWxfYmluZGluZycsICctaW1hZScsICc8aW5maWxlLm1hZT4nLCAnLW9tYWUnLCAnPG91dGZpbGUubWFlPic=

> <r_lp_tautomer_probability>
0.999537

> <r_epik_Ionization_Penalty>
0.003299

> <r_epik_Ionization_Penalty_Charging>
0.00329898

> <r_epik_Ionization_Penalty_Neutral>
1.92812e-08

> <r_epik_State_Penalty>
0.00233129

> <r_epik_Charging_Adjusted_Penalty>
0.00563027

> <i_epik_Tot_Q>
0

> <i_epik_Tot_abs_Q>
0

> <r_epik_Metal_State_Penalty>
0.365405

> <b_epik_Metal_Only>
0

> <s_lp_Force_Field>
OPLS_2005

> <r_lp_Energy>
10.1374

> <b_lp_Chiralities_Consistent>
1

> <s_lp_Variant>
AV-unprocessed.smi:2017-1

> <Gold.Version>
5.8.1

> <Gold.Id.Protein>
6NUR|6NUR_protein|mol2

> <Gold.PLP.Fitness>
46.9222

> <Gold.PLP.PLP>
-42.4786

> <Gold.PLP.part.hbond>
-2.0000

> <Gold.PLP.part.metal>
0.0000

> <Gold.PLP.part.buried>
-2.4004

> <Gold.PLP.part.nonpolar>
-38.3741

> <Gold.PLP.part.repulsive>
0.4529

> <Gold.PLP.ligand.clash>
0.0000

> <Gold.PLP.ligand.torsion>
0.8456

> <Gold.PLP.Chemscore.Hbond>
1.0000

> <Gold.PLP.Chemscore.CHOScore>
1.0000

> <Gold.PLP.Chemscore.Metal>
0.0000

> <Gold.Chemscore.Hbonds>
donor molecule, donor type, donor heavy atom, donor atom, acceptor molecule, acceptor atom, score
      L1  H     9    23       P1  8028  0.08
      P1  H 10752 10765       L1     1  0.31

> <Gold.PLP.Chemscore.Internal.Correction>
0.1349

> <Gold.Rescore>
     Score         DG    S(hbond)    S(metal)    S(lipo)     H(rot)  DE(clash)    DE(int)     intcor
     12.60     -13.64       0.97        0.00     102.05       2.74       0.16       0.88       ----

> <Gold.Chemscore.Fitness>
12.5951

> <Gold.Chemscore.DG>
-13.6370

> <Gold.Chemscore.ZeroCoef>
-5.4800

> <Gold.Chemscore.Hbond>
0.9663

> <Gold.Chemscore.Metal>
0.0000

> <Gold.Chemscore.Lipo>
102.0460

> <Gold.Chemscore.Internal_Hbond>
0.0000

> <Gold.Chemscore.DEClash>
0.1628

> <Gold.Chemscore.DEInternal>
0.8791

> <Gold.Chemscore.Rot>
2.7382

> <Gold.Chemscore.Internal.Correction>
   9.000000E+99

> <Gold.Chemscore.Hbonds>
donor molecule, donor type, donor heavy atom, donor atom, acceptor molecule, acceptor atom, score
      L1  H     9    23       P1  8028  0.08
      P1  H 10752 10765       L1     1  0.20

> <Gold.Chemscore.Hbond.Weighted>
-3.2275

> <Gold.Chemscore.Metal.Weighted>
-0.0000

> <Gold.Chemscore.Lipo.Weighted>
-11.9394

> <Gold.Chemscore.Internal_Hbond.Weighted>
0.0000

> <Gold.Chemscore.DEClash.Weighted>
0.1628

> <Gold.Chemscore.DEInternal.Weighted>
0.8791

> <Gold.Chemscore.Rot.Weighted>
7.0098

> <Gold.Chemscore.Internal.Correction.Weighted>
   9.000000E+99

> <Gold.Protein.RotatedTorsions>
[ 6907 6896 6895 6894 ] final  101.20 input  -60.11 | X-H torsion
[ 7974 7965 7964 7962 ] final   74.00 input  175.53 | X-H torsion
[ 8008 7997 7996 7995 ] final   74.53 input   59.86 | X-H torsion
[ 10167 10162 10161 10158 ] final   -2.59 input  -65.29 | X-H torsion
[ 10718 10713 10712 10709 ] final    4.25 input   66.30 | X-H torsion
[ 10763 10752 10751 10750 ] final -159.98 input  -60.55 | X-H torsion
[ 11005 11000 10999 10996 ] final  161.90 input  -57.11 | X-H torsion

> <Gold.Protein.ActiveResidues>
 VAL166  LYS551  ARG553  GLY616  TRP617  ASP618  TYR619  PRO620  LYS621  CYS622 
 ASP623  PHE694  ASN695  SER759  ASP760  ASP761  ALA762  ILE779  LEU786  VAL792 
 PHE793  MET794  SER795  GLU796  ALA797  LYS798  CYS799  TRP800  GLU811  SER814 

> <Gold.Protein.RotatedAtoms>
  152.5355  134.0161  159.7960 H   0  0  0  0  0  0  0  0  0  0  0  0  # atno 6907 bound_to 6896
  151.0355  133.5744  159.2663 H   0  0  0  0  0  0  0  0  0  0  0  0  # atno 6908 bound_to 6896
  151.2733  135.0698  159.9196 H   0  0  0  0  0  0  0  0  0  0  0  0  # atno 6909 bound_to 6896
  145.7338  139.2694  143.1526 H   0  0  0  0  0  0  0  0  0  0  0  0  # atno 7974 bound_to 7965
  155.7998  140.3476  155.5396 H   0  0  0  0  0  0  0  0  0  0  0  0  # atno 8008 bound_to 7997
  155.8550  140.0962  157.1671 H   0  0  0  0  0  0  0  0  0  0  0  0  # atno 8009 bound_to 7997
  154.4009  140.1369  156.3878 H   0  0  0  0  0  0  0  0  0  0  0  0  # atno 8010 bound_to 7997
  140.6857  143.6639  150.8242 H   0  0  0  0  0  0  0  0  0  0  0  0  # atno 10167 bound_to 10162
  156.8898  130.5683  149.5650 H   0  0  0  0  0  0  0  0  0  0  0  0  # atno 10718 bound_to 10713
  154.7429  135.3073  154.8697 H   0  0  0  0  0  0  0  0  0  0  0  0  # atno 10763 bound_to 10752
  153.9506  135.6764  153.4748 H   0  0  0  0  0  0  0  0  0  0  0  0  # atno 10764 bound_to 10752
  153.1027  135.4904  154.8820 H   0  0  0  0  0  0  0  0  0  0  0  0  # atno 10765 bound_to 10752
  140.2204  134.8201  157.3214 H   0  0  0  0  0  0  0  0  0  0  0  0  # atno 11005 bound_to 11000
  146.0513  140.8067  142.9780 LP  0  0  0  0  0  0  0  0  0  0  0  0  # atno 17320 bound_to 7965
  144.6886  140.3056  143.7256 LP  0  0  0  0  0  0  0  0  0  0  0  0  # atno 17321 bound_to 7965
  140.0346  143.5408  152.2745 LP  0  0  0  0  0  0  0  0  0  0  0  0  # atno 17342 bound_to 10162
  139.6213  144.7629  151.2733 LP  0  0  0  0  0  0  0  0  0  0  0  0  # atno 17343 bound_to 10162
  156.0635  130.5683  150.9241 LP  0  0  0  0  0  0  0  0  0  0  0  0  # atno 17370 bound_to 10713
  157.6091  131.0937  150.8827 LP  0  0  0  0  0  0  0  0  0  0  0  0  # atno 17371 bound_to 10713
  140.1856  134.4435  155.7746 LP  0  0  0  0  0  0  0  0  0  0  0  0  # atno 17394 bound_to 11000
  141.2223  133.7003  156.7941 LP  0  0  0  0  0  0  0  0  0  0  0  0  # atno 17395 bound_to 11000

$$$$
