AV-unprocessed.smi:1752|AV-procd|sdf|7058|dock7
  -GOLD-   22720 8273D 1   1.00000     0.00000
 Structure written by MMmdl.
 43 44  0  0  0  0  0  0  0  0  2 V2000
  153.0563  139.0081  158.4631 C   0  0  0  0  0  0  0  0  0  0  0  0
  152.2126  140.1972  157.9739 C   0  0  2  0  0  0  0  0  0  0  0  0
  151.8725  141.2101  159.0857 C   0  0  0  0  0  0  0  0  0  0  0  0
  151.9563  142.5886  158.6377 N   0  0  0  0  0  0  0  0  0  0  0  0
  152.7071  143.6164  159.1685 C   0  0  0  0  0  0  0  0  0  0  0  0
  152.4630  144.7290  158.4156 C   0  0  0  0  0  0  0  0  0  0  0  0
  151.5394  144.2755  157.4326 C   0  0  0  0  0  0  0  0  0  0  0  0
  151.2398  142.9935  157.5667 N   0  0  0  0  0  0  0  0  0  0  0  0
  150.9705  139.6984  157.3889 N   0  0  0  0  0  0  0  0  0  0  0  0
  150.5973  139.7989  156.1006 C   0  0  0  0  0  0  0  0  0  0  0  0
  151.3116  140.3140  155.2396 O   0  0  0  0  0  0  0  0  0  0  0  0
  149.3984  139.2283  155.8198 N   0  0  0  0  0  0  0  0  0  0  0  0
  148.3470  138.9786  156.8317 C   0  0  0  0  0  0  0  0  0  0  0  0
  146.9034  139.0672  156.2825 C   0  0  0  0  0  0  0  0  0  0  0  0
  146.5307  140.4156  155.6286 C   0  0  0  0  0  0  0  0  0  0  0  0
  147.5780  141.0015  154.7488 N   0  3  2  0  0  0  0  0  0  0  0  0
  147.1171  142.2522  154.1066 C   0  0  0  0  0  0  0  0  0  0  0  0
  148.1941  140.0627  153.7725 C   0  0  0  0  0  0  0  0  0  0  0  0
  149.0238  138.9318  154.4264 C   0  0  0  0  0  0  0  0  0  0  0  0
  154.0205  139.3342  158.8536 H   0  0  0  0  0  0  0  0  0  0  0  0
  153.2579  138.3105  157.6495 H   0  0  0  0  0  0  0  0  0  0  0  0
  152.5456  138.4587  159.2547 H   0  0  0  0  0  0  0  0  0  0  0  0
  152.7977  140.7218  157.2168 H   0  0  0  0  0  0  0  0  0  0  0  0
  150.8601  141.0372  159.4534 H   0  0  0  0  0  0  0  0  0  0  0  0
  152.5398  141.0747  159.9393 H   0  0  0  0  0  0  0  0  0  0  0  0
  153.3430  143.4723  160.0295 H   0  0  0  0  0  0  0  0  0  0  0  0
  152.8800  145.7165  158.5468 H   0  0  0  0  0  0  0  0  0  0  0  0
  151.0810  144.8362  156.6313 H   0  0  0  0  0  0  0  0  0  0  0  0
  150.3359  139.2329  158.0213 H   0  0  0  0  0  0  0  0  0  0  0  0
  148.5138  137.9924  157.2664 H   0  0  0  0  0  0  0  0  0  0  0  0
  148.4192  139.6958  157.6512 H   0  0  0  0  0  0  0  0  0  0  0  0
  146.7046  138.2534  155.5859 H   0  0  0  0  0  0  0  0  0  0  0  0
  146.2104  138.8850  157.1046 H   0  0  0  0  0  0  0  0  0  0  0  0
  145.6050  140.2941  155.0643 H   0  0  0  0  0  0  0  0  0  0  0  0
  146.3192  141.1401  156.4162 H   0  0  0  0  0  0  0  0  0  0  0  0
  146.3175  142.0519  153.3921 H   0  0  0  0  0  0  0  0  0  0  0  0
  147.9353  142.7415  153.5771 H   0  0  0  0  0  0  0  0  0  0  0  0
  146.7421  142.9540  154.8526 H   0  0  0  0  0  0  0  0  0  0  0  0
  147.4305  139.6482  153.1128 H   0  0  0  0  0  0  0  0  0  0  0  0
  148.8680  140.6380  153.1361 H   0  0  0  0  0  0  0  0  0  0  0  0
  149.9041  138.7283  153.8140 H   0  0  0  0  0  0  0  0  0  0  0  0
  148.4777  137.9894  154.3920 H   0  0  0  0  0  0  0  0  0  0  0  0
  148.3315  141.2730  155.3644 H   0  0  0  0  0  0  0  0  0  0  0  0
  1  2  1  0  0  0  0
  1 20  1  0  0  0  0
  1 21  1  0  0  0  0
  1 22  1  0  0  0  0
  2  3  1  0  0  0  0
  2  9  1  0  0  0  0
  2 23  1  0  0  0  0
  3  4  1  0  0  0  0
  3 24  1  0  0  0  0
  3 25  1  0  0  0  0
  4  8  1  0  0  0  0
  4  5  1  0  0  0  0
  5  6  2  0  0  0  0
  5 26  1  0  0  0  0
  6  7  1  0  0  0  0
  6 27  1  0  0  0  0
  7  8  2  0  0  0  0
  7 28  1  0  0  0  0
  9 10  1  0  0  0  0
  9 29  1  0  0  0  0
 10 11  2  0  0  0  0
 10 12  1  0  0  0  0
 12 19  1  0  0  0  0
 12 13  1  0  0  0  0
 13 14  1  0  0  0  0
 13 30  1  0  0  0  0
 13 31  1  0  0  0  0
 14 15  1  0  0  0  0
 14 32  1  0  0  0  0
 14 33  1  0  0  0  0
 15 16  1  0  0  0  0
 15 34  1  0  0  0  0
 15 35  1  0  0  0  0
 16 17  1  0  0  0  0
 16 18  1  0  0  0  0
 16 43  1  0  0  0  0
 17 36  1  0  0  0  0
 17 37  1  0  0  0  0
 17 38  1  0  0  0  0
 18 19  1  0  0  0  0
 18 39  1  0  0  0  0
 18 40  1  0  0  0  0
 19 41  1  0  0  0  0
 19 42  1  0  0  0  0
M  CHG  1  16   1
M  END
> <s_m_source_file>
AV-unprocessed.smi

> <i_m_source_file_index>
1752

> <i_lp_mmshare_version>
43012

> <i_f3d_flags>
0

> <s_epik_input>
bjFbY0hdW2NIXVtjSF1uMVtDSDJdW0NAQEhdKFtDSDNdKVtOSF1DKD1PKU4yW0NIMl1bQ0gyXVtDSDJdTihbQ0gzXSlbQ0gyXVtDSDJdMg==

> <s_epik_cmdline>
J2VwaWtfcHl0aG9uJywgJy1waCcsICc3LjAnLCAnLXRuJywgJzgnLCAnLW1hJywgJzIwMCcsICctbWV0YWxfYmluZGluZycsICctaW1hZScsICc8aW5maWxlLm1hZT4nLCAnLW9tYWUnLCAnPG91dGZpbGUubWFlPic=

> <r_lp_tautomer_probability>
1

> <r_epik_Ionization_Penalty>
0.00208423

> <r_epik_Ionization_Penalty_Charging>
0.00203643

> <r_epik_Ionization_Penalty_Neutral>
4.77939e-05

> <r_epik_State_Penalty>
0.00139278

> <r_epik_Charging_Adjusted_Penalty>
0.00342922

> <i_epik_Tot_Q>
1

> <i_epik_Tot_abs_Q>
1

> <r_epik_Metal_State_Penalty>
-0

> <b_epik_Metal_Only>
0

> <s_lp_Force_Field>
OPLS_2005

> <r_lp_Energy>
46.8375

> <b_lp_Chiralities_Consistent>
1

> <s_lp_Variant>
AV-unprocessed.smi:1752-1

> <Gold.Version>
5.8.1

> <Gold.Id.Protein>
6NUR|6NUR_protein|mol2

> <Gold.PLP.Fitness>
36.3745

> <Gold.PLP.PLP>
-31.7345

> <Gold.PLP.part.hbond>
-1.0000

> <Gold.PLP.part.metal>
0.0000

> <Gold.PLP.part.buried>
-3.2168

> <Gold.PLP.part.nonpolar>
-28.3808

> <Gold.PLP.part.repulsive>
0.2056

> <Gold.PLP.ligand.clash>
0.0000

> <Gold.PLP.ligand.torsion>
0.7291

> <Gold.PLP.Chemscore.Hbond>
1.0000

> <Gold.PLP.Chemscore.CHOScore>
1.0000

> <Gold.PLP.Chemscore.Metal>
0.0000

> <Gold.Chemscore.Hbonds>
donor molecule, donor type, donor heavy atom, donor atom, acceptor molecule, acceptor atom, score
      P1  H  7989  7998       L1    11  1.00
      L1  C     7    28       P1  8028  1.00

> <Gold.PLP.Chemscore.Internal.Correction>
0.0982

> <Gold.Rescore>
     Score         DG    S(hbond)    S(metal)    S(lipo)     H(rot)  DE(clash)    DE(int)     intcor
     13.86     -14.61       0.95        0.00      81.69       1.41       0.01       0.74       ----

> <Gold.Chemscore.Fitness>
13.8572

> <Gold.Chemscore.DG>
-14.6068

> <Gold.Chemscore.ZeroCoef>
-5.4800

> <Gold.Chemscore.Hbond>
0.9537

> <Gold.Chemscore.Metal>
0.0000

> <Gold.Chemscore.Lipo>
81.6863

> <Gold.Chemscore.Internal_Hbond>
0.0000

> <Gold.Chemscore.DEClash>
0.0103

> <Gold.Chemscore.DEInternal>
0.7392

> <Gold.Chemscore.Rot>
1.4125

> <Gold.Chemscore.Internal.Correction>
   9.000000E+99

> <Gold.Chemscore.Hbonds>
donor molecule, donor type, donor heavy atom, donor atom, acceptor molecule, acceptor atom, score
      P1  H  7989  7998       L1    11  0.94

> <Gold.Chemscore.Hbond.Weighted>
-3.1854

> <Gold.Chemscore.Metal.Weighted>
-0.0000

> <Gold.Chemscore.Lipo.Weighted>
-9.5573

> <Gold.Chemscore.Internal_Hbond.Weighted>
0.0000

> <Gold.Chemscore.DEClash.Weighted>
0.0103

> <Gold.Chemscore.DEInternal.Weighted>
0.7392

> <Gold.Chemscore.Rot.Weighted>
3.6160

> <Gold.Chemscore.Internal.Correction.Weighted>
   9.000000E+99

> <Gold.Protein.RotatedTorsions>
[ 6907 6896 6895 6894 ] final   91.81 input  -60.11 | X-H torsion
[ 7974 7965 7964 7962 ] final    3.14 input  175.53 | X-H torsion
[ 8008 7997 7996 7995 ] final  106.81 input   59.86 | X-H torsion
[ 10167 10162 10161 10158 ] final   90.46 input  -65.29 | X-H torsion
[ 10718 10713 10712 10709 ] final  132.90 input   66.30 | X-H torsion
[ 10763 10752 10751 10750 ] final   83.76 input  -60.55 | X-H torsion
[ 11005 11000 10999 10996 ] final   39.77 input  -57.11 | X-H torsion

> <Gold.Protein.ActiveResidues>
 VAL166  LYS551  ARG553  GLY616  TRP617  ASP618  TYR619  PRO620  LYS621  CYS622 
 ASP623  PHE694  ASN695  SER759  ASP760  ASP761  ALA762  ILE779  LEU786  VAL792 
 PHE793  MET794  SER795  GLU796  ALA797  LYS798  CYS799  TRP800  GLU811  SER814 

> <Gold.Protein.RotatedAtoms>
  152.5451  134.1599  159.8553 H   0  0  0  0  0  0  0  0  0  0  0  0  # atno 6907 bound_to 6896
  151.1618  133.4833  159.2601 H   0  0  0  0  0  0  0  0  0  0  0  0  # atno 6908 bound_to 6896
  151.1365  135.0168  159.8661 H   0  0  0  0  0  0  0  0  0  0  0  0  # atno 6909 bound_to 6896
  146.2445  140.0730  142.8361 H   0  0  0  0  0  0  0  0  0  0  0  0  # atno 7974 bound_to 7965
  156.1773  140.3106  155.9083 H   0  0  0  0  0  0  0  0  0  0  0  0  # atno 8008 bound_to 7997
  155.3460  140.0468  157.3062 H   0  0  0  0  0  0  0  0  0  0  0  0  # atno 8009 bound_to 7997
  154.5304  140.2228  155.8825 H   0  0  0  0  0  0  0  0  0  0  0  0  # atno 8010 bound_to 7997
  139.8471  144.6612  150.9214 H   0  0  0  0  0  0  0  0  0  0  0  0  # atno 10167 bound_to 10162
  157.4825  131.1086  150.9662 H   0  0  0  0  0  0  0  0  0  0  0  0  # atno 10718 bound_to 10713
  153.1320  135.4679  154.9363 H   0  0  0  0  0  0  0  0  0  0  0  0  # atno 10763 bound_to 10752
  154.7672  135.3148  154.8264 H   0  0  0  0  0  0  0  0  0  0  0  0  # atno 10764 bound_to 10752
  153.8805  135.6894  153.4821 H   0  0  0  0  0  0  0  0  0  0  0  0  # atno 10765 bound_to 10752
  140.1995  134.3887  155.8103 H   0  0  0  0  0  0  0  0  0  0  0  0  # atno 11005 bound_to 11000
  145.0799  140.9214  143.4831 LP  0  0  0  0  0  0  0  0  0  0  0  0  # atno 17320 bound_to 7965
  145.0881  139.2910  143.5749 LP  0  0  0  0  0  0  0  0  0  0  0  0  # atno 17321 bound_to 7965
  140.7792  143.3861  151.1392 LP  0  0  0  0  0  0  0  0  0  0  0  0  # atno 17342 bound_to 10162
  139.7502  143.8790  152.3074 LP  0  0  0  0  0  0  0  0  0  0  0  0  # atno 17343 bound_to 10162
  157.0391  130.5742  149.5353 LP  0  0  0  0  0  0  0  0  0  0  0  0  # atno 17370 bound_to 10713
  156.0129  130.5222  150.8046 LP  0  0  0  0  0  0  0  0  0  0  0  0  # atno 17371 bound_to 10713
  141.2227  133.7087  156.8234 LP  0  0  0  0  0  0  0  0  0  0  0  0  # atno 17394 bound_to 11000
  140.2070  134.8856  157.3232 LP  0  0  0  0  0  0  0  0  0  0  0  0  # atno 17395 bound_to 11000

$$$$
