AV-unprocessed.smi:1433|AV-procd|sdf|5846|dock5
  -GOLD-   22720 5513D 1   1.00000     0.00000
 Structure written by MMmdl.
 45 46  0  0  0  0  0  0  0  0  2 V2000
  146.5288  129.1190  151.4185 C   0  0  0  0  0  0  0  0  0  0  0  0
  145.6481  130.2013  152.0688 C   0  0  1  0  0  0  0  0  0  0  0  0
  146.4380  131.1944  152.9455 C   0  0  0  0  0  0  0  0  0  0  0  0
  147.2250  132.1504  152.1196 N   0  3  2  0  0  0  0  0  0  0  0  0
  148.0746  133.1319  152.8701 C   0  0  2  0  0  0  0  0  0  0  0  0
  149.1866  132.3790  153.6330 C   0  0  0  0  0  0  0  0  0  0  0  0
  147.2811  134.0552  153.8377 C   0  0  0  0  0  0  0  0  0  0  0  0
  146.9392  135.3470  153.2492 N   0  0  0  0  0  0  0  0  0  0  0  0
  145.7240  135.9156  153.2895 C   0  0  0  0  0  0  0  0  0  0  0  0
  144.7463  135.3885  153.8204 O   0  0  0  0  0  0  0  0  0  0  0  0
  145.5905  137.2916  152.6369 C   0  0  0  0  0  0  0  0  0  0  0  0
  146.5934  138.2066  153.1499 N   0  0  0  0  0  0  0  0  0  0  0  0
  146.7775  139.5379  152.8386 C   0  0  0  0  0  0  0  0  0  0  0  0
  147.8377  139.9843  153.5743 C   0  0  0  0  0  0  0  0  0  0  0  0
  148.2401  138.8391  154.3169 C   0  0  0  0  0  0  0  0  0  0  0  0
  147.4931  137.7767  154.0620 N   0  0  0  0  0  0  0  0  0  0  0  0
  146.3246  132.8177  151.1432 C   0  0  0  0  0  0  0  0  0  0  0  0
  145.5917  131.7848  150.2706 C   0  0  2  0  0  0  0  0  0  0  0  0
  144.5997  132.4471  149.3079 C   0  0  0  0  0  0  0  0  0  0  0  0
  144.8580  130.8997  151.1093 O   0  0  0  0  0  0  0  0  0  0  0  0
  147.0097  128.5036  152.1793 H   0  0  0  0  0  0  0  0  0  0  0  0
  147.3194  129.5426  150.7997 H   0  0  0  0  0  0  0  0  0  0  0  0
  145.9308  128.4575  150.7912 H   0  0  0  0  0  0  0  0  0  0  0  0
  144.9414  129.6804  152.7157 H   0  0  0  0  0  0  0  0  0  0  0  0
  145.7484  131.7551  153.5789 H   0  0  0  0  0  0  0  0  0  0  0  0
  147.0849  130.6155  153.6041 H   0  0  0  0  0  0  0  0  0  0  0  0
  148.5481  133.7791  152.1302 H   0  0  0  0  0  0  0  0  0  0  0  0
  149.8715  133.0653  154.1306 H   0  0  0  0  0  0  0  0  0  0  0  0
  149.7983  131.7625  152.9759 H   0  0  0  0  0  0  0  0  0  0  0  0
  148.7640  131.7247  154.3965 H   0  0  0  0  0  0  0  0  0  0  0  0
  146.3481  133.5888  154.1571 H   0  0  0  0  0  0  0  0  0  0  0  0
  147.8641  134.2450  154.7396 H   0  0  0  0  0  0  0  0  0  0  0  0
  147.6853  135.8574  152.7981 H   0  0  0  0  0  0  0  0  0  0  0  0
  145.6859  137.2172  151.5520 H   0  0  0  0  0  0  0  0  0  0  0  0
  144.6010  137.7014  152.8436 H   0  0  0  0  0  0  0  0  0  0  0  0
  146.1444  140.0499  152.1288 H   0  0  0  0  0  0  0  0  0  0  0  0
  148.2610  140.9777  153.5817 H   0  0  0  0  0  0  0  0  0  0  0  0
  149.0469  138.7493  155.0295 H   0  0  0  0  0  0  0  0  0  0  0  0
  145.6007  133.4324  151.6814 H   0  0  0  0  0  0  0  0  0  0  0  0
  146.8859  133.4902  150.4964 H   0  0  0  0  0  0  0  0  0  0  0  0
  146.3144  131.2242  149.6775 H   0  0  0  0  0  0  0  0  0  0  0  0
  145.1073  133.1355  148.6318 H   0  0  0  0  0  0  0  0  0  0  0  0
  143.8387  133.0100  149.8495 H   0  0  0  0  0  0  0  0  0  0  0  0
  144.0896  131.7001  148.6991 H   0  0  0  0  0  0  0  0  0  0  0  0
  147.8664  131.5809  151.5861 H   0  0  0  0  0  0  0  0  0  0  0  0
  1  2  1  0  0  0  0
  1 21  1  0  0  0  0
  1 22  1  0  0  0  0
  1 23  1  0  0  0  0
  2 20  1  0  0  0  0
  2  3  1  0  0  0  0
  2 24  1  0  0  0  0
  3  4  1  0  0  0  0
  3 25  1  0  0  0  0
  3 26  1  0  0  0  0
  4  5  1  0  0  0  0
  4 17  1  0  0  0  0
  4 45  1  0  0  0  0
  5  6  1  0  0  0  0
  5  7  1  0  0  0  0
  5 27  1  0  0  0  0
  6 28  1  0  0  0  0
  6 29  1  0  0  0  0
  6 30  1  0  0  0  0
  7  8  1  0  0  0  0
  7 31  1  0  0  0  0
  7 32  1  0  0  0  0
  8  9  1  0  0  0  0
  8 33  1  0  0  0  0
  9 10  2  0  0  0  0
  9 11  1  0  0  0  0
 11 12  1  0  0  0  0
 11 34  1  0  0  0  0
 11 35  1  0  0  0  0
 12 16  1  0  0  0  0
 12 13  1  0  0  0  0
 13 14  2  0  0  0  0
 13 36  1  0  0  0  0
 14 15  1  0  0  0  0
 14 37  1  0  0  0  0
 15 16  2  0  0  0  0
 15 38  1  0  0  0  0
 17 18  1  0  0  0  0
 17 39  1  0  0  0  0
 17 40  1  0  0  0  0
 18 19  1  0  0  0  0
 18 20  1  0  0  0  0
 18 41  1  0  0  0  0
 19 42  1  0  0  0  0
 19 43  1  0  0  0  0
 19 44  1  0  0  0  0
M  CHG  1   4   1
M  END
> <s_m_source_file>
AV-unprocessed.smi

> <i_m_source_file_index>
1433

> <i_lp_mmshare_version>
43012

> <i_f3d_flags>
0

> <s_epik_input>
W0NIM11bQ0BASF0xW0NIMl1OKFtDSDJdW0NASF0oTzEpW0NIM10pW0NASF0oW0NIM10pW0NIMl1bTkhdQyg9TylbQ0gyXW4yW2NIXVtjSF1bY0hdbjI=

> <s_epik_cmdline>
J2VwaWtfcHl0aG9uJywgJy1waCcsICc3LjAnLCAnLXRuJywgJzgnLCAnLW1hJywgJzIwMCcsICctbWV0YWxfYmluZGluZycsICctaW1hZScsICc8aW5maWxlLm1hZT4nLCAnLW9tYWUnLCAnPG91dGZpbGUubWFlPic=

> <r_lp_tautomer_probability>
1

> <r_epik_Ionization_Penalty>
0.748405

> <r_epik_Ionization_Penalty_Charging>
0.748396

> <r_epik_Ionization_Penalty_Neutral>
8.54426e-06

> <r_epik_State_Penalty>
0.775162

> <r_epik_Charging_Adjusted_Penalty>
1.52356

> <i_epik_Tot_Q>
1

> <i_epik_Tot_abs_Q>
1

> <r_epik_Metal_State_Penalty>
0.775167

> <b_epik_Metal_Only>
0

> <s_lp_Force_Field>
OPLS_2005

> <r_lp_Energy>
23.467

> <b_lp_Chiralities_Consistent>
1

> <s_lp_Variant>
AV-unprocessed.smi:1433-12

> <Gold.Version>
5.8.1

> <Gold.Id.Protein>
6NUR|6NUR_protein|mol2

> <Gold.PLP.Fitness>
40.7747

> <Gold.PLP.PLP>
-33.4101

> <Gold.PLP.part.hbond>
-2.0000

> <Gold.PLP.part.metal>
0.0000

> <Gold.PLP.part.buried>
-3.1122

> <Gold.PLP.part.nonpolar>
-29.2089

> <Gold.PLP.part.repulsive>
0.6871

> <Gold.PLP.ligand.clash>
0.0000

> <Gold.PLP.ligand.torsion>
0.6997

> <Gold.PLP.Chemscore.Hbond>
2.0000

> <Gold.PLP.Chemscore.CHOScore>
0.8998

> <Gold.PLP.Chemscore.Metal>
0.0000

> <Gold.Chemscore.Hbonds>
donor molecule, donor type, donor heavy atom, donor atom, acceptor molecule, acceptor atom, score
      L1  H     4    45       P1 10747  1.00
      L1  H     8    33       P1  7948  1.00
      L1  C    13    36       P1 10175  0.90

> <Gold.PLP.Chemscore.Internal.Correction>
0.0645

> <Gold.Rescore>
     Score         DG    S(hbond)    S(metal)    S(lipo)     H(rot)  DE(clash)    DE(int)     intcor
     16.16     -18.44       2.00        0.00      94.63       1.87       0.02       2.27       ----

> <Gold.Chemscore.Fitness>
16.1584

> <Gold.Chemscore.DG>
-18.4417

> <Gold.Chemscore.ZeroCoef>
-5.4800

> <Gold.Chemscore.Hbond>
1.9960

> <Gold.Chemscore.Metal>
0.0000

> <Gold.Chemscore.Lipo>
94.6254

> <Gold.Chemscore.Internal_Hbond>
0.0000

> <Gold.Chemscore.DEClash>
0.0181

> <Gold.Chemscore.DEInternal>
2.2652

> <Gold.Chemscore.Rot>
1.8657

> <Gold.Chemscore.Internal.Correction>
   9.000000E+99

> <Gold.Chemscore.Hbonds>
donor molecule, donor type, donor heavy atom, donor atom, acceptor molecule, acceptor atom, score
      L1  H     4    45       P1 10747  1.00
      L1  H     8    33       P1  7948  0.99

> <Gold.Chemscore.Hbond.Weighted>
-6.6667

> <Gold.Chemscore.Metal.Weighted>
-0.0000

> <Gold.Chemscore.Lipo.Weighted>
-11.0712

> <Gold.Chemscore.Internal_Hbond.Weighted>
0.0000

> <Gold.Chemscore.DEClash.Weighted>
0.0181

> <Gold.Chemscore.DEInternal.Weighted>
2.2652

> <Gold.Chemscore.Rot.Weighted>
4.7761

> <Gold.Chemscore.Internal.Correction.Weighted>
   9.000000E+99

> <Gold.Protein.RotatedTorsions>
[ 6907 6896 6895 6894 ] final  -77.20 input  -60.11 | X-H torsion
[ 7974 7965 7964 7962 ] final  -84.53 input  175.53 | X-H torsion
[ 8008 7997 7996 7995 ] final -167.33 input   59.86 | X-H torsion
[ 10167 10162 10161 10158 ] final   97.62 input  -65.29 | X-H torsion
[ 10718 10713 10712 10709 ] final -126.29 input   66.30 | X-H torsion
[ 10763 10752 10751 10750 ] final  143.09 input  -60.55 | X-H torsion
[ 11005 11000 10999 10996 ] final   86.95 input  -57.11 | X-H torsion

> <Gold.Protein.ActiveResidues>
 VAL166  LYS551  ARG553  GLY616  TRP617  ASP618  TYR619  PRO620  LYS621  CYS622 
 ASP623  PHE694  ASN695  SER759  ASP760  ASP761  ALA762  ILE779  LEU786  VAL792 
 PHE793  MET794  SER795  GLU796  ALA797  LYS798  CYS799  TRP800  GLU811  SER814 

> <Gold.Protein.RotatedAtoms>
  150.7005  134.4458  159.5312 H   0  0  0  0  0  0  0  0  0  0  0  0  # atno 6907 bound_to 6896
  152.2159  134.8455  160.0501 H   0  0  0  0  0  0  0  0  0  0  0  0  # atno 6908 bound_to 6896
  151.9323  133.3579  159.3972 H   0  0  0  0  0  0  0  0  0  0  0  0  # atno 6909 bound_to 6896
  145.5053  140.9544  143.1737 H   0  0  0  0  0  0  0  0  0  0  0  0  # atno 7974 bound_to 7965
  155.8762  140.1001  157.1516 H   0  0  0  0  0  0  0  0  0  0  0  0  # atno 8008 bound_to 7997
  154.4001  140.1337  156.4203 H   0  0  0  0  0  0  0  0  0  0  0  0  # atno 8009 bound_to 7997
  155.7695  140.3461  155.5242 H   0  0  0  0  0  0  0  0  0  0  0  0  # atno 8010 bound_to 7997
  139.7784  144.6897  151.0057 H   0  0  0  0  0  0  0  0  0  0  0  0  # atno 10167 bound_to 10162
  156.1752  130.6694  151.0232 H   0  0  0  0  0  0  0  0  0  0  0  0  # atno 10718 bound_to 10713
  153.9666  135.2955  155.3430 H   0  0  0  0  0  0  0  0  0  0  0  0  # atno 10763 bound_to 10752
  154.7345  135.5052  153.9022 H   0  0  0  0  0  0  0  0  0  0  0  0  # atno 10764 bound_to 10752
  153.0920  135.6710  153.9946 H   0  0  0  0  0  0  0  0  0  0  0  0  # atno 10765 bound_to 10752
  139.8931  134.8390  156.2792 H   0  0  0  0  0  0  0  0  0  0  0  0  # atno 11005 bound_to 11000
  144.7757  139.6635  143.7176 LP  0  0  0  0  0  0  0  0  0  0  0  0  # atno 17320 bound_to 7965
  146.2200  139.5619  142.9624 LP  0  0  0  0  0  0  0  0  0  0  0  0  # atno 17321 bound_to 7965
  140.7817  143.4510  151.0413 LP  0  0  0  0  0  0  0  0  0  0  0  0  # atno 17342 bound_to 10162
  139.8192  143.7844  152.3176 LP  0  0  0  0  0  0  0  0  0  0  0  0  # atno 17343 bound_to 10162
  157.6830  131.0832  150.7318 LP  0  0  0  0  0  0  0  0  0  0  0  0  # atno 17370 bound_to 10713
  156.7376  130.4729  149.5485 LP  0  0  0  0  0  0  0  0  0  0  0  0  # atno 17371 bound_to 10713
  141.0050  133.7129  156.1020 LP  0  0  0  0  0  0  0  0  0  0  0  0  # atno 17394 bound_to 11000
  140.7446  134.4112  157.5550 LP  0  0  0  0  0  0  0  0  0  0  0  0  # atno 17395 bound_to 11000

$$$$
