AV-unprocessed.smi:1196|AV-procd|sdf|5002|dock6
  -GOLD-   22720 4 13D 1   1.00000     0.00000
 Structure written by MMmdl.
 36 37  0  0  0  0  0  0  0  0  2 V2000
  151.3022  145.1770  159.3250 C   0  0  0  0  0  0  0  0  0  0  0  0
  151.6203  143.7729  159.8624 C   0  0  2  0  0  0  0  0  0  0  0  0
  153.1267  143.4617  159.7672 C   0  0  0  0  0  0  0  0  0  0  0  0
  153.4839  142.2382  160.4636 N   0  0  0  0  0  0  0  0  0  0  0  0
  153.5332  142.0083  161.8223 C   0  0  0  0  0  0  0  0  0  0  0  0
  153.9302  140.7144  162.0014 C   0  0  0  0  0  0  0  0  0  0  0  0
  154.1022  140.2275  160.6755 C   0  0  0  0  0  0  0  0  0  0  0  0
  153.8331  141.1414  159.7572 N   0  0  0  0  0  0  0  0  0  0  0  0
  150.8556  142.7691  159.1250 N   0  0  0  0  0  0  0  0  0  0  0  0
  150.8637  142.6061  157.7935 C   0  0  0  0  0  0  0  0  0  0  0  0
  151.5611  143.2821  157.0360 O   0  0  0  0  0  0  0  0  0  0  0  0
  149.9393  141.5099  157.2544 C   0  0  0  0  0  0  0  0  0  0  0  0
  150.4950  140.0836  157.4378 C   0  0  0  0  0  0  0  0  0  0  0  0
  151.7487  139.8098  156.5807 C   0  0  1  0  0  0  0  0  0  0  0  0
  152.6637  138.9020  157.2510 N   0  5  0  0  0  0  0  0  0  0  0  0
  152.8374  137.8113  156.4678 C   0  0  0  0  0  0  0  0  0  0  0  0
  153.5420  136.8297  156.6917 O   0  0  0  0  0  0  0  0  0  0  0  0
  152.1132  137.9124  155.3483 N   0  0  0  0  0  0  0  0  0  0  0  0
  151.4202  139.0458  155.3122 C   0  0  0  0  0  0  0  0  0  0  0  0
  150.6528  139.4253  154.4287 O   0  0  0  0  0  0  0  0  0  0  0  0
  151.8555  145.9395  159.8733 H   0  0  0  0  0  0  0  0  0  0  0  0
  150.2414  145.4090  159.4254 H   0  0  0  0  0  0  0  0  0  0  0  0
  151.5650  145.2681  158.2705 H   0  0  0  0  0  0  0  0  0  0  0  0
  151.3335  143.7395  160.9153 H   0  0  0  0  0  0  0  0  0  0  0  0
  153.4371  143.3746  158.7249 H   0  0  0  0  0  0  0  0  0  0  0  0
  153.7076  144.2795  160.1962 H   0  0  0  0  0  0  0  0  0  0  0  0
  153.2887  142.7775  162.5399 H   0  0  0  0  0  0  0  0  0  0  0  0
  154.0776  140.1957  162.9370 H   0  0  0  0  0  0  0  0  0  0  0  0
  154.4125  139.2438  160.3555 H   0  0  0  0  0  0  0  0  0  0  0  0
  150.2542  142.1663  159.6676 H   0  0  0  0  0  0  0  0  0  0  0  0
  148.9728  141.5958  157.7517 H   0  0  0  0  0  0  0  0  0  0  0  0
  149.7648  141.7037  156.1952 H   0  0  0  0  0  0  0  0  0  0  0  0
  150.7173  139.9035  158.4914 H   0  0  0  0  0  0  0  0  0  0  0  0
  149.7168  139.3678  157.1666 H   0  0  0  0  0  0  0  0  0  0  0  0
  152.2242  140.7507  156.3004 H   0  0  0  0  0  0  0  0  0  0  0  0
  152.0874  137.2087  154.6259 H   0  0  0  0  0  0  0  0  0  0  0  0
  1  2  1  0  0  0  0
  1 21  1  0  0  0  0
  1 22  1  0  0  0  0
  1 23  1  0  0  0  0
  2  3  1  0  0  0  0
  2  9  1  0  0  0  0
  2 24  1  0  0  0  0
  3  4  1  0  0  0  0
  3 25  1  0  0  0  0
  3 26  1  0  0  0  0
  4  8  1  0  0  0  0
  4  5  1  0  0  0  0
  5  6  2  0  0  0  0
  5 27  1  0  0  0  0
  6  7  1  0  0  0  0
  6 28  1  0  0  0  0
  7  8  2  0  0  0  0
  7 29  1  0  0  0  0
  9 10  1  0  0  0  0
  9 30  1  0  0  0  0
 10 11  2  0  0  0  0
 10 12  1  0  0  0  0
 12 13  1  0  0  0  0
 12 31  1  0  0  0  0
 12 32  1  0  0  0  0
 13 14  1  0  0  0  0
 13 33  1  0  0  0  0
 13 34  1  0  0  0  0
 14 19  1  0  0  0  0
 14 15  1  0  0  0  0
 14 35  1  0  0  0  0
 15 16  1  0  0  0  0
 16 17  2  0  0  0  0
 16 18  1  0  0  0  0
 18 19  1  0  0  0  0
 18 36  1  0  0  0  0
 19 20  2  0  0  0  0
M  CHG  1  15  -1
M  END
> <s_m_source_file>
AV-unprocessed.smi

> <i_m_source_file_index>
1196

> <i_lp_mmshare_version>
43012

> <i_f3d_flags>
0

> <s_epik_input>
bjFbY0hdW2NIXVtjSF1uMVtDSDJdW0NAQEhdKFtDSDNdKVtOSF1DKD1PKVtDSDJdW0NIMl1bQ0BASF0yW05IXUMoPU8pW05IXUMyPU8=

> <s_epik_cmdline>
J2VwaWtfcHl0aG9uJywgJy1waCcsICc3LjAnLCAnLXRuJywgJzgnLCAnLW1hJywgJzIwMCcsICctbWV0YWxfYmluZGluZycsICctaW1hZScsICc8aW5maWxlLm1hZT4nLCAnLW9tYWUnLCAnPG91dGZpbGUubWFlPic=

> <r_lp_tautomer_probability>
1

> <r_epik_Ionization_Penalty>
5.79547

> <r_epik_Ionization_Penalty_Charging>
5.79516

> <r_epik_Ionization_Penalty_Neutral>
0.000313087

> <r_epik_State_Penalty>
5.80096

> <r_epik_Charging_Adjusted_Penalty>
11.5961

> <i_epik_Tot_Q>
-1

> <i_epik_Tot_abs_Q>
1

> <r_epik_Metal_State_Penalty>
2.14443

> <b_epik_Metal_Only>
1

> <s_lp_Force_Field>
OPLS_2005

> <r_lp_Energy>
10.7967

> <b_lp_Chiralities_Consistent>
1

> <s_lp_Variant>
AV-unprocessed.smi:1196-7

> <Gold.Version>
5.8.1

> <Gold.Id.Protein>
6NUR|6NUR_protein|mol2

> <Gold.PLP.Fitness>
47.6498

> <Gold.PLP.PLP>
-38.8556

> <Gold.PLP.part.hbond>
-3.0000

> <Gold.PLP.part.metal>
0.0000

> <Gold.PLP.part.buried>
-4.8094

> <Gold.PLP.part.nonpolar>
-31.8895

> <Gold.PLP.part.repulsive>
0.5781

> <Gold.PLP.ligand.clash>
0.0000

> <Gold.PLP.ligand.torsion>
0.9394

> <Gold.PLP.Chemscore.Hbond>
3.5280

> <Gold.PLP.Chemscore.CHOScore>
0.0000

> <Gold.PLP.Chemscore.Metal>
0.0000

> <Gold.Chemscore.Hbonds>
donor molecule, donor type, donor heavy atom, donor atom, acceptor molecule, acceptor atom, score
      P1  H  7989  7998       L1    20  1.00
      P1  H  7997  8009       L1    15  1.02
      P1  H 10752 10763       L1    17  0.80

> <Gold.PLP.Chemscore.Internal.Correction>
0.0889

> <Gold.Rescore>
     Score         DG    S(hbond)    S(metal)    S(lipo)     H(rot)  DE(clash)    DE(int)     intcor
     11.26     -13.02       1.84        0.00      75.34       2.89       0.09       1.67       ----

> <Gold.Chemscore.Fitness>
11.2619

> <Gold.Chemscore.DG>
-13.0222

> <Gold.Chemscore.ZeroCoef>
-5.4800

> <Gold.Chemscore.Hbond>
1.8377

> <Gold.Chemscore.Metal>
0.0000

> <Gold.Chemscore.Lipo>
75.3379

> <Gold.Chemscore.Internal_Hbond>
0.0000

> <Gold.Chemscore.DEClash>
0.0888

> <Gold.Chemscore.DEInternal>
1.6715

> <Gold.Chemscore.Rot>
2.8946

> <Gold.Chemscore.Internal.Correction>
   9.000000E+99

> <Gold.Chemscore.Hbonds>
donor molecule, donor type, donor heavy atom, donor atom, acceptor molecule, acceptor atom, score
      P1  H  7989  7998       L1    20  0.49
      P1  H  7997  8009       L1    15  0.05
      P1  H 10752 10763       L1    17  0.77

> <Gold.Chemscore.Hbond.Weighted>
-6.1378

> <Gold.Chemscore.Metal.Weighted>
-0.0000

> <Gold.Chemscore.Lipo.Weighted>
-8.8145

> <Gold.Chemscore.Internal_Hbond.Weighted>
0.0000

> <Gold.Chemscore.DEClash.Weighted>
0.0888

> <Gold.Chemscore.DEInternal.Weighted>
1.6715

> <Gold.Chemscore.Rot.Weighted>
7.4101

> <Gold.Chemscore.Internal.Correction.Weighted>
   9.000000E+99

> <Gold.Protein.RotatedTorsions>
[ 6907 6896 6895 6894 ] final  -70.52 input  -60.11 | X-H torsion
[ 7974 7965 7964 7962 ] final -146.35 input  175.53 | X-H torsion
[ 8008 7997 7996 7995 ] final  158.08 input   59.86 | X-H torsion
[ 10167 10162 10161 10158 ] final  118.04 input  -65.29 | X-H torsion
[ 10718 10713 10712 10709 ] final  -81.56 input   66.30 | X-H torsion
[ 10763 10752 10751 10750 ] final  133.68 input  -60.55 | X-H torsion
[ 11005 11000 10999 10996 ] final  -74.67 input  -57.11 | X-H torsion

> <Gold.Protein.ActiveResidues>
 VAL166  LYS551  ARG553  GLY616  TRP617  ASP618  TYR619  PRO620  LYS621  CYS622 
 ASP623  PHE694  ASN695  SER759  ASP760  ASP761  ALA762  ILE779  LEU786  VAL792 
 PHE793  MET794  SER795  GLU796  ALA797  LYS798  CYS799  TRP800  GLU811  SER814 

> <Gold.Protein.RotatedAtoms>
  150.7254  134.5441  159.5761 H   0  0  0  0  0  0  0  0  0  0  0  0  # atno 6907 bound_to 6896
  152.2944  134.7681  160.0380 H   0  0  0  0  0  0  0  0  0  0  0  0  # atno 6908 bound_to 6896
  151.8283  133.3369  159.3642 H   0  0  0  0  0  0  0  0  0  0  0  0  # atno 6909 bound_to 6896
  144.8165  140.5467  143.5607 H   0  0  0  0  0  0  0  0  0  0  0  0  # atno 7974 bound_to 7965
  156.2325  140.1868  156.7207 H   0  0  0  0  0  0  0  0  0  0  0  0  # atno 8008 bound_to 7997
  154.6047  140.0631  156.9442 H   0  0  0  0  0  0  0  0  0  0  0  0  # atno 8009 bound_to 7997
  155.2116  140.3300  155.4330 H   0  0  0  0  0  0  0  0  0  0  0  0  # atno 8010 bound_to 7997
  139.6138  144.7087  151.2785 H   0  0  0  0  0  0  0  0  0  0  0  0  # atno 10167 bound_to 10162
  156.0048  130.4607  150.3971 H   0  0  0  0  0  0  0  0  0  0  0  0  # atno 10718 bound_to 10713
  153.8111  135.3129  155.3401 H   0  0  0  0  0  0  0  0  0  0  0  0  # atno 10763 bound_to 10752
  154.8051  135.4703  154.0374 H   0  0  0  0  0  0  0  0  0  0  0  0  # atno 10764 bound_to 10752
  153.1753  135.6884  153.8640 H   0  0  0  0  0  0  0  0  0  0  0  0  # atno 10765 bound_to 10752
  141.1637  133.6919  156.7400 H   0  0  0  0  0  0  0  0  0  0  0  0  # atno 11005 bound_to 11000
  145.5202  139.1477  143.3556 LP  0  0  0  0  0  0  0  0  0  0  0  0  # atno 17320 bound_to 7965
  146.2469  140.5343  142.8910 LP  0  0  0  0  0  0  0  0  0  0  0  0  # atno 17321 bound_to 7965
  140.7337  143.6787  150.8019 LP  0  0  0  0  0  0  0  0  0  0  0  0  # atno 17342 bound_to 10162
  140.0386  143.5369  152.2728 LP  0  0  0  0  0  0  0  0  0  0  0  0  # atno 17343 bound_to 10162
  157.2043  131.0445  151.2634 LP  0  0  0  0  0  0  0  0  0  0  0  0  # atno 17370 bound_to 10713
  157.3947  130.7301  149.6723 LP  0  0  0  0  0  0  0  0  0  0  0  0  # atno 17371 bound_to 10713
  140.2681  134.8413  157.3822 LP  0  0  0  0  0  0  0  0  0  0  0  0  # atno 17394 bound_to 11000
  140.1547  134.4805  155.7936 LP  0  0  0  0  0  0  0  0  0  0  0  0  # atno 17395 bound_to 11000

$$$$
