#       Name:                AV-unprocessed.smi:2379
#       Creating user name   scv26
#       Creation time:       Fri Mar 27 13:08:24 2020


#       File generated by GOLD software.
#

@<TRIPOS>MOLECULE
AV-unprocessed.smi:2379
    58    60     1
SMALL
NO_CHARGES


@<TRIPOS>ATOM
      1 ****        -6.8670   3.9843   1.9116 C.3            1 S1                 0.0000
      2 ****        -6.1731   2.6510   1.7266 C.ar           1 S1                 0.0000
      3 ****        -6.9055   1.4484   1.7290 C.ar           1 S1                 0.0000
      4 ****        -6.2014   0.2411   1.5525 C.ar           1 S1                 0.0000
      5 ****        -6.9257  -1.0887   1.5387 C.3            1 S1                 0.0000
      6 ****        -4.8625   0.1863   1.3878 N.ar           1 S1                 0.0000
      7 ****        -4.1465   1.3379   1.3865 C.ar           1 S1                 0.0000
      8 ****        -2.7370   1.3874   1.2187 N.am           1 S1                 0.0000
      9 ****        -1.8769   0.3580   1.1226 C.2            1 S1                 0.0000
     10 ****        -2.1802  -0.8338   1.1861 O.2            1 S1                 0.0000
     11 ****        -0.6180   0.7886   0.9526 N.am           1 S1                 0.0000
     12 ****         0.5555  -0.0743   0.8473 C.3            1 S1                 0.0000
     13 ****         1.8271   0.7287   1.1642 C.3            1 S1                 0.0000
     14 ****         3.0897  -0.1323   0.9868 C.3            1 S1                 0.0000
     15 ****         3.1623  -0.7085  -0.3814 N.4            1 S1                 1.0000
     16 ****         4.4361  -1.4323  -0.6338 C.3            1 S1                 0.0000
     17 ****         5.0037  -1.1450  -2.0379 C.3            1 S1                 0.0000
     18 ****         6.4139  -1.6664  -2.2337 C.3            1 S1                 0.0000
     19 ****         6.5467  -1.6730  -3.7532 C.3            1 S1                 0.0000
     20 ****         5.2377  -1.9259  -4.2528 O.3            1 S1                 0.0000
     21 ****         4.2860  -1.8389  -3.1977 C.3            1 S1                 0.0000
     22 ****         1.9569  -1.5220  -0.6906 C.3            1 S1                 0.0000
     23 ****         0.6744  -0.6846  -0.5614 C.3            1 S1                 0.0000
     24 ****        -4.7758   2.5925   1.5507 C.ar           1 S1                 0.0000
     25 ****        -7.9513   3.8694   1.9185 H              1 S1                 0.0000
     26 ****        -6.6023   4.6650   1.1022 H              1 S1                 0.0000
     27 ****        -6.5654   4.4384   2.8556 H              1 S1                 0.0000
     28 ****        -7.9776   1.4509   1.8619 H              1 S1                 0.0000
     29 ****        -8.0068  -0.9495   1.5148 H              1 S1                 0.0000
     30 ****        -6.6743  -1.6652   2.4292 H              1 S1                 0.0000
     31 ****        -6.6397  -1.6691   0.6611 H              1 S1                 0.0000
     32 ****        -2.3388   2.3135   1.1729 H              1 S1                 0.0000
     33 ****        -0.4585   1.7846   0.9107 H              1 S1                 0.0000
     34 ****         0.4675  -0.8801   1.5789 H              1 S1                 0.0000
     35 ****         1.8894   1.6001   0.5103 H              1 S1                 0.0000
     36 ****         1.7836   1.1108   2.1850 H              1 S1                 0.0000
     37 ****         3.9680   0.4873   1.1729 H              1 S1                 0.0000
     38 ****         3.1049  -0.9371   1.7238 H              1 S1                 0.0000
     39 ****         5.1838  -1.1036   0.0895 H              1 S1                 0.0000
     40 ****         4.3152  -2.5033  -0.4632 H              1 S1                 0.0000
     41 ****         5.0124  -0.0683  -2.2166 H              1 S1                 0.0000
     42 ****         7.1711  -1.0509  -1.7467 H              1 S1                 0.0000
     43 ****         6.5020  -2.6835  -1.8480 H              1 S1                 0.0000
     44 ****         6.8722  -0.6959  -4.1120 H              1 S1                 0.0000
     45 ****         7.2596  -2.4185  -4.1060 H              1 S1                 0.0000
     46 ****         3.9896  -2.8515  -2.9209 H              1 S1                 0.0000
     47 ****         3.3954  -1.2998  -3.5211 H              1 S1                 0.0000
     48 ****         2.0178  -1.9247  -1.7000 H              1 S1                 0.0000
     49 ****         1.9116  -2.3784  -0.0156 H              1 S1                 0.0000
     50 ****        -0.1916  -1.3113  -0.7780 H              1 S1                 0.0000
     51 ****         0.6786   0.1070  -1.3123 H              1 S1                 0.0000
     52 ****        -4.1946   3.5035   1.5463 H              1 S1                 0.0000
     53 ****         3.1563   0.0795  -1.0133 H              1 S1                 0.0000
     54 ****        -4.4037  -0.6941   1.2681 LP             1 S1                 0.0000
     55 ****        -3.1347  -1.1004   1.3196 LP             1 S1                 0.0000
     56 ****        -1.4720  -1.5350   1.1042 LP             1 S1                 0.0000
     57 ****         5.2071  -2.8426  -4.6510 LP             1 S1                 0.0000
     58 ****         5.0155  -1.2497  -4.9552 LP             1 S1                 0.0000
@<TRIPOS>BOND
    1    1    2 1     
    2    1   25 1     
    3    1   26 1     
    4    1   27 1     
    5    2   24 ar    
    6    2    3 ar    
    7    3    4 ar    
    8    3   28 1     
    9    4    5 1     
   10    4    6 ar    
   11    5   29 1     
   12    5   30 1     
   13    5   31 1     
   14    6    7 ar    
   15    7    8 1     
   16    7   24 ar    
   17    8    9 am    
   18    8   32 1     
   19    9   10 2     
   20    9   11 am    
   21   11   12 1     
   22   11   33 1     
   23   12   23 1     
   24   12   13 1     
   25   12   34 1     
   26   13   14 1     
   27   13   35 1     
   28   13   36 1     
   29   14   15 1     
   30   14   37 1     
   31   14   38 1     
   32   15   16 1     
   33   15   22 1     
   34   15   53 1     
   35   16   17 1     
   36   16   39 1     
   37   16   40 1     
   38   17   21 1     
   39   17   18 1     
   40   17   41 1     
   41   18   19 1     
   42   18   42 1     
   43   18   43 1     
   44   19   20 1     
   45   19   44 1     
   46   19   45 1     
   47   20   21 1     
   48   21   46 1     
   49   21   47 1     
   50   22   23 1     
   51   22   48 1     
   52   22   49 1     
   53   23   50 1     
   54   23   51 1     
   55   24   52 1     
   56    6   54 1     
   57   10   55 1     
   58   10   56 1     
   59   20   57 1     
   60   20   58 1     
@<TRIPOS>SUBSTRUCTURE
      1 S1             1
@<TRIPOS>SET
LONE_PAIRS      STATIC     ATOMS    <user>   **** ""
5 54 55 56 57 58
DONOR_HYDROGENS      STATIC     ATOMS    <user>   **** ""
3 32 33 53
ATOM$BLUE        STATIC     ATOMS    COLORGROUP SYSTEM
5 54 55 56 57 58
ATOM$RED        STATIC     ATOMS    COLORGROUP SYSTEM
3 32 33 53
