AV-unprocessed.smi:261|AV-procd|sdf|1987|dock4
  -GOLD-   2262021163D 1   1.00000     0.00000
 Structure written by MMmdl.
 51 54  0  0  0  0  0  0  0  0  1 V2000
  153.9337  141.9177  160.0095 C   0  0  0  0  0  0  0  0  0  0  0  0
  153.0278  142.4486  159.0559 O   0  0  0  0  0  0  0  0  0  0  0  0
  151.9729  141.5579  158.7248 C   0  0  1  0  0  0  0  0  0  0  0  0
  151.0244  142.1912  157.7147 C   0  0  0  0  0  0  0  0  0  0  0  0
  150.3254  140.9766  157.0888 C   0  0  1  0  0  0  0  0  0  0  0  0
  149.7918  141.2821  155.6819 C   0  0  0  0  0  0  0  0  0  0  0  0
  148.9776  142.3334  155.5633 N   0  0  0  0  0  0  0  0  0  0  0  0
  150.1168  140.5954  154.7146 O   0  0  0  0  0  0  0  0  0  0  0  0
  151.3567  139.9350  157.0774 N   0  0  0  0  0  0  0  0  0  0  0  0
  150.8969  138.6695  157.1926 C   0  0  0  0  0  0  0  0  0  0  0  0
  150.5036  138.2610  158.4234 N   0  0  0  0  0  0  0  0  0  0  0  0
  150.0445  137.0179  158.5986 C   0  0  0  0  0  0  0  0  0  0  0  0
  149.9009  136.0446  157.6956 N   0  0  0  0  0  0  0  0  0  0  0  0
  150.2999  136.4549  156.4571 C   0  0  0  0  0  0  0  0  0  0  0  0
  150.8077  137.7398  156.1185 C   0  0  0  0  0  0  0  0  0  0  0  0
  151.1143  137.7888  154.7637 N   0  0  0  0  0  0  0  0  0  0  0  0
  150.8046  136.5987  154.3258 C   0  0  0  0  0  0  0  0  0  0  0  0
  150.3090  135.7350  155.2758 N   0  0  0  0  0  0  0  0  0  0  0  0
  149.8922  134.3600  155.0648 C   0  0  0  0  0  0  0  0  0  0  0  0
  150.9391  133.3429  155.5605 C   0  0  1  0  0  0  0  0  0  0  0  0
  150.9714  133.3521  156.9752 O   0  0  0  0  0  0  0  0  0  0  0  0
  150.6309  131.9134  155.0786 C   0  0  2  0  0  0  0  0  0  0  0  0
  151.8637  131.0717  154.7512 C   0  0  0  0  0  0  0  0  0  0  0  0
  151.3159  130.0116  153.8121 C   0  0  0  0  0  0  0  0  0  0  0  0
  150.0336  130.6390  153.2567 C   0  0  0  0  0  0  0  0  0  0  0  0
  149.9648  131.9409  153.8255 O   0  0  0  0  0  0  0  0  0  0  0  0
  152.4417  140.3023  157.9832 C   0  0  0  0  0  0  0  0  0  0  0  0
  151.4040  141.2815  159.6148 H   0  0  0  0  0  0  0  0  0  0  0  0
  149.4955  140.6744  157.7314 H   0  0  0  0  0  0  0  0  0  0  0  0
  154.7006  142.6586  160.2352 H   0  0  0  0  0  0  0  0  0  0  0  0
  154.4338  141.0246  159.6337 H   0  0  0  0  0  0  0  0  0  0  0  0
  153.4240  141.6682  160.9410 H   0  0  0  0  0  0  0  0  0  0  0  0
  150.3254  142.8871  158.1798 H   0  0  0  0  0  0  0  0  0  0  0  0
  151.5968  142.7409  156.9648 H   0  0  0  0  0  0  0  0  0  0  0  0
  148.5985  142.5796  154.6606 H   0  0  0  0  0  0  0  0  0  0  0  0
  148.7445  142.8796  156.3800 H   0  0  0  0  0  0  0  0  0  0  0  0
  149.7503  136.7671  159.6070 H   0  0  0  0  0  0  0  0  0  0  0  0
  150.9324  136.3146  153.2913 H   0  0  0  0  0  0  0  0  0  0  0  0
  148.9370  134.2021  155.5671 H   0  0  0  0  0  0  0  0  0  0  0  0
  149.7072  134.2230  153.9988 H   0  0  0  0  0  0  0  0  0  0  0  0
  151.9259  133.6394  155.2024 H   0  0  0  0  0  0  0  0  0  0  0  0
  150.0863  133.4377  157.2950 H   0  0  0  0  0  0  0  0  0  0  0  0
  150.0028  131.3899  155.8021 H   0  0  0  0  0  0  0  0  0  0  0  0
  152.6052  131.6772  154.2285 H   0  0  0  0  0  0  0  0  0  0  0  0
  152.3375  130.6490  155.6374 H   0  0  0  0  0  0  0  0  0  0  0  0
  152.0296  129.7630  153.0264 H   0  0  0  0  0  0  0  0  0  0  0  0
  151.0814  129.0960  154.3560 H   0  0  0  0  0  0  0  0  0  0  0  0
  150.0379  130.6984  152.1682 H   0  0  0  0  0  0  0  0  0  0  0  0
  149.1598  130.0621  153.5622 H   0  0  0  0  0  0  0  0  0  0  0  0
  153.3149  140.5286  157.3703 H   0  0  0  0  0  0  0  0  0  0  0  0
  152.7301  139.5089  158.6747 H   0  0  0  0  0  0  0  0  0  0  0  0
  1  2  1  0  0  0  0
  1 30  1  0  0  0  0
  1 31  1  0  0  0  0
  1 32  1  0  0  0  0
  2  3  1  0  0  0  0
  3 28  1  0  0  0  0
  3 27  1  0  0  0  0
  3  4  1  0  0  0  0
  4  5  1  0  0  0  0
  4 33  1  0  0  0  0
  4 34  1  0  0  0  0
  5 29  1  0  0  0  0
  5  6  1  0  0  0  0
  5  9  1  0  0  0  0
  6  7  1  0  0  0  0
  6  8  2  0  0  0  0
  7 35  1  0  0  0  0
  7 36  1  0  0  0  0
  9 10  1  0  0  0  0
  9 27  1  0  0  0  0
 10 15  1  0  0  0  0
 10 11  2  0  0  0  0
 11 12  1  0  0  0  0
 12 13  2  0  0  0  0
 12 37  1  0  0  0  0
 13 14  1  0  0  0  0
 14 18  1  0  0  0  0
 14 15  2  0  0  0  0
 15 16  1  0  0  0  0
 16 17  2  0  0  0  0
 17 18  1  0  0  0  0
 17 38  1  0  0  0  0
 18 19  1  0  0  0  0
 19 20  1  0  0  0  0
 19 39  1  0  0  0  0
 19 40  1  0  0  0  0
 20 21  1  0  0  0  0
 20 22  1  0  0  0  0
 20 41  1  0  0  0  0
 21 42  1  0  0  0  0
 22 26  1  0  0  0  0
 22 23  1  0  0  0  0
 22 43  1  0  0  0  0
 23 24  1  0  0  0  0
 23 44  1  0  0  0  0
 23 45  1  0  0  0  0
 24 25  1  0  0  0  0
 24 46  1  0  0  0  0
 24 47  1  0  0  0  0
 25 26  1  0  0  0  0
 25 48  1  0  0  0  0
 25 49  1  0  0  0  0
 27 50  1  0  0  0  0
 27 51  1  0  0  0  0
M  END
> <s_m_source_file>
AV-unprocessed.smi

> <i_m_source_file_index>
261

> <i_lp_mmshare_version>
43012

> <i_f3d_flags>
0

> <s_epik_input>
W0NIM11PW0NASF0xW0NIMl1bQ0BASF0oQyg9TylbTkgyXSlOKFtDSDJdMSljKG5bY0hdbjIpYyhjMjMpbltjSF1uM1tDSDJdW0NASF0oW09IXSlbQ0BASF00W0NIMl1bQ0gyXVtDSDJdTzQ=

> <s_epik_cmdline>
J2VwaWtfcHl0aG9uJywgJy1waCcsICc3LjAnLCAnLXRuJywgJzgnLCAnLW1hJywgJzIwMCcsICctbWV0YWxfYmluZGluZycsICctaW1hZScsICc8aW5maWxlLm1hZT4nLCAnLW9tYWUnLCAnPG91dGZpbGUubWFlPic=

> <r_lp_tautomer_probability>
1

> <r_epik_Ionization_Penalty>
0.000713824

> <r_epik_Ionization_Penalty_Charging>
0

> <r_epik_Ionization_Penalty_Neutral>
0.000713824

> <r_epik_State_Penalty>
0.000402132

> <r_epik_Charging_Adjusted_Penalty>
0.000402132

> <i_epik_Tot_Q>
0

> <i_epik_Tot_abs_Q>
0

> <r_epik_Metal_State_Penalty>
-0

> <b_epik_Metal_Only>
0

> <s_lp_Force_Field>
OPLS_2005

> <r_lp_Energy>
45.3763

> <b_lp_Chiralities_Consistent>
1

> <s_lp_Variant>
AV-unprocessed.smi:261-5

> <Gold.Version>
5.8.1

> <Gold.Id.Protein>
6NUR|6NUR_protein|mol2

> <Gold.PLP.Fitness>
46.1952

> <Gold.PLP.PLP>
-38.1773

> <Gold.PLP.part.hbond>
-2.9859

> <Gold.PLP.part.metal>
0.0000

> <Gold.PLP.part.buried>
-6.8532

> <Gold.PLP.part.nonpolar>
-28.6713

> <Gold.PLP.part.repulsive>
0.4759

> <Gold.PLP.ligand.clash>
0.0000

> <Gold.PLP.ligand.torsion>
1.4591

> <Gold.PLP.Chemscore.Hbond>
2.5920

> <Gold.PLP.Chemscore.CHOScore>
1.0000

> <Gold.PLP.Chemscore.Metal>
0.0000

> <Gold.Chemscore.Hbonds>
donor molecule, donor type, donor heavy atom, donor atom, acceptor molecule, acceptor atom, score
      L1  H     7    36       P1  8028  0.03
      P1  H  7989  7998       L1     8  0.88
      L1  C    17    38       P1  7949  0.44

> <Gold.PLP.Chemscore.Internal.Correction>
0.1602

> <Gold.Rescore>
     Score         DG    S(hbond)    S(metal)    S(lipo)     H(rot)  DE(clash)    DE(int)     intcor
     11.52     -12.63       2.46        0.00      69.20       3.57       0.48       0.64       ----

> <Gold.Chemscore.Fitness>
11.5169

> <Gold.Chemscore.DG>
-12.6314

> <Gold.Chemscore.ZeroCoef>
-5.4800

> <Gold.Chemscore.Hbond>
2.4566

> <Gold.Chemscore.Metal>
0.0000

> <Gold.Chemscore.Lipo>
69.1965

> <Gold.Chemscore.Internal_Hbond>
0.0000

> <Gold.Chemscore.DEClash>
0.4796

> <Gold.Chemscore.DEInternal>
0.6350

> <Gold.Chemscore.Rot>
3.5740

> <Gold.Chemscore.Internal.Correction>
   9.000000E+99

> <Gold.Chemscore.Hbonds>
donor molecule, donor type, donor heavy atom, donor atom, acceptor molecule, acceptor atom, score
      L1  H     7    36       P1  8028  0.06
      P1  H  7989  7998       L1     8  0.86

> <Gold.Chemscore.Hbond.Weighted>
-8.2049

> <Gold.Chemscore.Metal.Weighted>
-0.0000

> <Gold.Chemscore.Lipo.Weighted>
-8.0960

> <Gold.Chemscore.Internal_Hbond.Weighted>
0.0000

> <Gold.Chemscore.DEClash.Weighted>
0.4796

> <Gold.Chemscore.DEInternal.Weighted>
0.6350

> <Gold.Chemscore.Rot.Weighted>
9.1495

> <Gold.Chemscore.Internal.Correction.Weighted>
   9.000000E+99

> <Gold.Protein.RotatedTorsions>
[ 6907 6896 6895 6894 ] final  -18.63 input  -60.11 | X-H torsion
[ 7974 7965 7964 7962 ] final  138.24 input  175.53 | X-H torsion
[ 8008 7997 7996 7995 ] final   34.06 input   59.86 | X-H torsion
[ 10167 10162 10161 10158 ] final   76.68 input  -65.29 | X-H torsion
[ 10718 10713 10712 10709 ] final -124.70 input   66.30 | X-H torsion
[ 10763 10752 10751 10750 ] final  168.09 input  -60.55 | X-H torsion
[ 11005 11000 10999 10996 ] final -100.78 input  -57.11 | X-H torsion

> <Gold.Protein.ActiveResidues>
 VAL166  LYS551  ARG553  GLY616  TRP617  ASP618  TYR619  PRO620  LYS621  CYS622 
 ASP623  PHE694  ASN695  SER759  ASP760  ASP761  ALA762  ILE779  LEU786  VAL792 
 PHE793  MET794  SER795  GLU796  ALA797  LYS798  CYS799  TRP800  GLU811  SER814 

> <Gold.Protein.RotatedAtoms>
  151.2752  135.0697  159.9148 H   0  0  0  0  0  0  0  0  0  0  0  0  # atno 6907 bound_to 6896
  152.5343  134.0088  159.7939 H   0  0  0  0  0  0  0  0  0  0  0  0  # atno 6908 bound_to 6896
  151.0333  133.5720  159.2689 H   0  0  0  0  0  0  0  0  0  0  0  0  # atno 6909 bound_to 6896
  144.9391  139.4953  143.5581 H   0  0  0  0  0  0  0  0  0  0  0  0  # atno 7974 bound_to 7965
  155.1487  140.3273  155.4436 H   0  0  0  0  0  0  0  0  0  0  0  0  # atno 8008 bound_to 7997
  156.2581  140.1980  156.6550 H   0  0  0  0  0  0  0  0  0  0  0  0  # atno 8009 bound_to 7997
  154.6489  140.0561  156.9919 H   0  0  0  0  0  0  0  0  0  0  0  0  # atno 8010 bound_to 7997
  139.9896  144.5766  150.7829 H   0  0  0  0  0  0  0  0  0  0  0  0  # atno 10167 bound_to 10162
  156.1610  130.6602  151.0050 H   0  0  0  0  0  0  0  0  0  0  0  0  # atno 10718 bound_to 10713
  154.3634  135.2753  155.2307 H   0  0  0  0  0  0  0  0  0  0  0  0  # atno 10763 bound_to 10752
  154.4485  135.5937  153.6179 H   0  0  0  0  0  0  0  0  0  0  0  0  # atno 10764 bound_to 10752
  152.9842  135.6036  154.3857 H   0  0  0  0  0  0  0  0  0  0  0  0  # atno 10765 bound_to 10752
  141.1257  133.8426  157.1147 H   0  0  0  0  0  0  0  0  0  0  0  0  # atno 11005 bound_to 11000
  146.3278  139.8396  142.8893 LP  0  0  0  0  0  0  0  0  0  0  0  0  # atno 17320 bound_to 7965
  145.3020  141.0197  143.3603 LP  0  0  0  0  0  0  0  0  0  0  0  0  # atno 17321 bound_to 7965
  140.7459  143.2883  151.3401 LP  0  0  0  0  0  0  0  0  0  0  0  0  # atno 17342 bound_to 10162
  139.6349  144.0649  152.2508 LP  0  0  0  0  0  0  0  0  0  0  0  0  # atno 17343 bound_to 10162
  157.6732  131.0856  150.7559 LP  0  0  0  0  0  0  0  0  0  0  0  0  # atno 17370 bound_to 10713
  156.7622  130.4802  149.5435 LP  0  0  0  0  0  0  0  0  0  0  0  0  # atno 17371 bound_to 10713
  140.0253  134.9927  157.0674 LP  0  0  0  0  0  0  0  0  0  0  0  0  # atno 17394 bound_to 11000
  140.4372  134.1719  155.7171 LP  0  0  0  0  0  0  0  0  0  0  0  0  # atno 17395 bound_to 11000

$$$$
