AV-unprocessed.smi:2881|AV-procd|sdf|11068|dock2
  -GOLD-   2272015543D 1   1.00000     0.00000
 Structure written by MMmdl.
 40 42  0  0  0  0  0  0  0  0  1 V2000
  144.8535  132.2772  150.9707 C   0  0  0  0  0  0  0  0  0  0  0  0
  145.2381  133.6691  151.3779 C   0  0  0  0  0  0  0  0  0  0  0  0
  144.3910  134.7139  151.8512 C   0  0  0  0  0  0  0  0  0  0  0  0
  145.2394  135.7623  152.0747 C   0  0  0  0  0  0  0  0  0  0  0  0
  144.9866  137.1491  152.5720 C   0  0  0  0  0  0  0  0  0  0  0  0
  146.2133  138.0362  152.3637 C   0  0  0  0  0  0  0  0  0  0  0  0
  146.7564  138.0873  151.2603 O   0  0  0  0  0  0  0  0  0  0  0  0
  146.6376  138.7307  153.4300 N   0  0  0  0  0  0  0  0  0  0  0  0
  147.7869  139.6325  153.4367 C   0  0  1  0  0  0  0  0  0  0  0  0
  147.4028  141.1202  153.6411 C   0  0  1  0  0  0  0  0  0  0  0  0
  146.4915  141.3060  154.8736 C   0  0  0  0  0  0  0  0  0  0  0  0
  147.4488  141.0190  156.0453 C   0  0  0  0  0  0  0  0  0  0  0  0
  148.7861  140.7375  155.3325 C   0  0  2  0  0  0  0  0  0  0  0  0
  148.7117  141.7044  154.1561 C   0  0  0  0  0  0  0  0  0  0  0  0
  148.7185  139.3525  154.6444 C   0  0  2  0  0  0  0  0  0  0  0  0
  150.0941  138.8032  154.2182 C   0  0  0  0  0  0  0  0  0  0  0  0
  150.0677  137.3922  154.1712 O   0  0  0  0  0  0  0  0  0  0  0  0
  146.4972  135.3156  151.7373 N   0  0  0  0  0  0  0  0  0  0  0  0
  146.5084  134.0390  151.3111 N   0  0  0  0  0  0  0  0  0  0  0  0
  147.3446  135.8627  151.7954 H   0  0  0  0  0  0  0  0  0  0  0  0
  143.8151  132.0650  151.2259 H   0  0  0  0  0  0  0  0  0  0  0  0
  145.4753  131.5337  151.4702 H   0  0  0  0  0  0  0  0  0  0  0  0
  144.9660  132.1388  149.8952 H   0  0  0  0  0  0  0  0  0  0  0  0
  143.3220  134.6951  152.0039 H   0  0  0  0  0  0  0  0  0  0  0  0
  144.7283  137.1264  153.6316 H   0  0  0  0  0  0  0  0  0  0  0  0
  144.1314  137.5852  152.0540 H   0  0  0  0  0  0  0  0  0  0  0  0
  146.1320  138.6278  154.2979 H   0  0  0  0  0  0  0  0  0  0  0  0
  148.3400  139.5241  152.5013 H   0  0  0  0  0  0  0  0  0  0  0  0
  147.0156  141.5971  152.7400 H   0  0  0  0  0  0  0  0  0  0  0  0
  146.1277  142.3329  154.9263 H   0  0  0  0  0  0  0  0  0  0  0  0
  145.6184  140.6534  154.8739 H   0  0  0  0  0  0  0  0  0  0  0  0
  147.5302  141.8918  156.6942 H   0  0  0  0  0  0  0  0  0  0  0  0
  147.1183  140.1791  156.6574 H   0  0  0  0  0  0  0  0  0  0  0  0
  149.6523  140.8706  155.9813 H   0  0  0  0  0  0  0  0  0  0  0  0
  149.5375  141.6043  153.4507 H   0  0  0  0  0  0  0  0  0  0  0  0
  148.6307  142.7497  154.4598 H   0  0  0  0  0  0  0  0  0  0  0  0
  148.2637  138.6282  155.3232 H   0  0  0  0  0  0  0  0  0  0  0  0
  150.3539  139.1723  153.2256 H   0  0  0  0  0  0  0  0  0  0  0  0
  150.8830  139.1263  154.8973 H   0  0  0  0  0  0  0  0  0  0  0  0
  149.9563  137.1232  153.2721 H   0  0  0  0  0  0  0  0  0  0  0  0
  1 21  1  0  0  0  0
  1 22  1  0  0  0  0
  1 23  1  0  0  0  0
  1  2  1  0  0  0  0
  2 19  2  0  0  0  0
  2  3  1  0  0  0  0
  3  4  2  0  0  0  0
  3 24  1  0  0  0  0
  4 18  1  0  0  0  0
  4  5  1  0  0  0  0
  5  6  1  0  0  0  0
  5 25  1  0  0  0  0
  5 26  1  0  0  0  0
  6  7  2  0  0  0  0
  6  8  1  0  0  0  0
  8  9  1  0  0  0  0
  8 27  1  0  0  0  0
  9 15  1  0  0  0  0
  9 10  1  0  0  0  0
  9 28  1  0  0  0  0
 10 14  1  0  0  0  0
 10 11  1  0  0  0  0
 10 29  1  0  0  0  0
 11 12  1  0  0  0  0
 11 30  1  0  0  0  0
 11 31  1  0  0  0  0
 12 13  1  0  0  0  0
 12 32  1  0  0  0  0
 12 33  1  0  0  0  0
 13 14  1  0  0  0  0
 13 15  1  0  0  0  0
 13 34  1  0  0  0  0
 14 35  1  0  0  0  0
 14 36  1  0  0  0  0
 15 16  1  0  0  0  0
 15 37  1  0  0  0  0
 16 17  1  0  0  0  0
 16 38  1  0  0  0  0
 16 39  1  0  0  0  0
 17 40  1  0  0  0  0
 18 19  1  0  0  0  0
 18 20  1  0  0  0  0
M  END
> <s_m_source_file>
AV-unprocessed.smi

> <i_m_source_file_index>
2881

> <i_lp_mmshare_version>
43012

> <i_f3d_flags>
0

> <s_epik_input>
W0NIM11jMVtjSF1jKG5bbkhdMSlbQ0gyXUMoPU8pW05IXVtDQEhdKFtDQEBIXTIzKVtDQEhdKFtDSDJdW09IXSlbQ0BASF0oW0NIMl0zKVtDSDJdW0NIMl0y

> <s_epik_cmdline>
J2VwaWtfcHl0aG9uJywgJy1waCcsICc3LjAnLCAnLXRuJywgJzgnLCAnLW1hJywgJzIwMCcsICctbWV0YWxfYmluZGluZycsICctaW1hZScsICc8aW5maWxlLm1hZT4nLCAnLW9tYWUnLCAnPG91dGZpbGUubWFlPic=

> <r_lp_tautomer_probability>
0.5

> <r_epik_Ionization_Penalty>
0.00013396

> <r_epik_Ionization_Penalty_Charging>
0

> <r_epik_Ionization_Penalty_Neutral>
0.00013396

> <r_epik_State_Penalty>
0.41068

> <r_epik_Charging_Adjusted_Penalty>
0.41068

> <i_epik_Tot_Q>
0

> <i_epik_Tot_abs_Q>
0

> <r_epik_Metal_State_Penalty>
0.41066

> <b_epik_Metal_Only>
0

> <s_lp_Force_Field>
OPLS_2005

> <r_lp_Energy>
46.8949

> <b_lp_Chiralities_Consistent>
1

> <s_lp_Variant>
AV-unprocessed.smi:2881-14

> <Gold.Version>
5.8.1

> <Gold.Id.Protein>
6NUR|6NUR_protein|mol2

> <Gold.PLP.Fitness>
37.7800

> <Gold.PLP.PLP>
-30.0484

> <Gold.PLP.part.hbond>
-3.5483

> <Gold.PLP.part.metal>
0.0000

> <Gold.PLP.part.buried>
-1.5594

> <Gold.PLP.part.nonpolar>
-27.0443

> <Gold.PLP.part.repulsive>
1.5339

> <Gold.PLP.ligand.clash>
0.0000

> <Gold.PLP.ligand.torsion>
0.6451

> <Gold.PLP.Chemscore.Hbond>
3.0000

> <Gold.PLP.Chemscore.CHOScore>
0.0000

> <Gold.PLP.Chemscore.Metal>
0.0000

> <Gold.Chemscore.Hbonds>
donor molecule, donor type, donor heavy atom, donor atom, acceptor molecule, acceptor atom, score
      L1  H    17    40       P1  7948  1.00
      L1  H    18    20       P1  7948  1.00
      P1  H  7954  7966       L1     7  1.00

> <Gold.PLP.Chemscore.Internal.Correction>
0.0219

> <Gold.Rescore>
     Score         DG    S(hbond)    S(metal)    S(lipo)     H(rot)  DE(clash)    DE(int)     intcor
     15.80     -17.28       2.72        0.00      72.85       2.28       0.89       0.59       ----

> <Gold.Chemscore.Fitness>
15.8017

> <Gold.Chemscore.DG>
-17.2778

> <Gold.Chemscore.ZeroCoef>
-5.4800

> <Gold.Chemscore.Hbond>
2.7244

> <Gold.Chemscore.Metal>
0.0000

> <Gold.Chemscore.Lipo>
72.8511

> <Gold.Chemscore.Internal_Hbond>
0.0000

> <Gold.Chemscore.DEClash>
0.8868

> <Gold.Chemscore.DEInternal>
0.5893

> <Gold.Chemscore.Rot>
2.2755

> <Gold.Chemscore.Internal.Correction>
   9.000000E+99

> <Gold.Chemscore.Hbonds>
donor molecule, donor type, donor heavy atom, donor atom, acceptor molecule, acceptor atom, score
      L1  H    17    40       P1  7948  0.25
      L1  H    18    20       P1  7948  0.99
      P1  H  7954  7966       L1     7  0.98

> <Gold.Chemscore.Hbond.Weighted>
-9.0994

> <Gold.Chemscore.Metal.Weighted>
-0.0000

> <Gold.Chemscore.Lipo.Weighted>
-8.5236

> <Gold.Chemscore.Internal_Hbond.Weighted>
0.0000

> <Gold.Chemscore.DEClash.Weighted>
0.8868

> <Gold.Chemscore.DEInternal.Weighted>
0.5893

> <Gold.Chemscore.Rot.Weighted>
5.8252

> <Gold.Chemscore.Internal.Correction.Weighted>
   9.000000E+99

> <Gold.Protein.RotatedTorsions>
[ 6907 6896 6895 6894 ] final   33.57 input  -60.11 | X-H torsion
[ 7974 7965 7964 7962 ] final -149.44 input  175.53 | X-H torsion
[ 8008 7997 7996 7995 ] final -144.31 input   59.86 | X-H torsion
[ 10167 10162 10161 10158 ] final   16.87 input  -65.29 | X-H torsion
[ 10718 10713 10712 10709 ] final  -98.63 input   66.30 | X-H torsion
[ 10763 10752 10751 10750 ] final  -77.00 input  -60.55 | X-H torsion
[ 11005 11000 10999 10996 ] final  152.39 input  -57.11 | X-H torsion

> <Gold.Protein.ActiveResidues>
 VAL166  LYS551  ARG553  GLY616  TRP617  ASP618  TYR619  PRO620  LYS621  CYS622 
 ASP623  PHE694  ASN695  SER759  ASP760  ASP761  ALA762  ILE779  LEU786  VAL792 
 PHE793  MET794  SER795  GLU796  ALA797  LYS798  CYS799  TRP800  GLU811  SER814 

> <Gold.Protein.RotatedAtoms>
  152.0903  134.9411  160.0571 H   0  0  0  0  0  0  0  0  0  0  0  0  # atno 6907 bound_to 6896
  152.0665  133.4082  159.4449 H   0  0  0  0  0  0  0  0  0  0  0  0  # atno 6908 bound_to 6896
  150.6837  134.3060  159.4770 H   0  0  0  0  0  0  0  0  0  0  0  0  # atno 6909 bound_to 6896
  144.7967  140.5064  143.5735 H   0  0  0  0  0  0  0  0  0  0  0  0  # atno 7974 bound_to 7965
  155.5248  140.0594  157.2900 H   0  0  0  0  0  0  0  0  0  0  0  0  # atno 8008 bound_to 7997
  154.4505  140.1946  156.0480 H   0  0  0  0  0  0  0  0  0  0  0  0  # atno 8009 bound_to 7997
  156.0694  140.3262  155.7561 H   0  0  0  0  0  0  0  0  0  0  0  0  # atno 8010 bound_to 7997
  140.5767  143.9060  150.6755 H   0  0  0  0  0  0  0  0  0  0  0  0  # atno 10167 bound_to 10162
  156.0112  130.5246  150.6551 H   0  0  0  0  0  0  0  0  0  0  0  0  # atno 10718 bound_to 10713
  154.5072  135.5779  153.6576 H   0  0  0  0  0  0  0  0  0  0  0  0  # atno 10763 bound_to 10752
  152.9890  135.6150  154.2926 H   0  0  0  0  0  0  0  0  0  0  0  0  # atno 10764 bound_to 10752
  154.2838  135.2850  155.2665 H   0  0  0  0  0  0  0  0  0  0  0  0  # atno 10765 bound_to 10752
  140.1304  134.8806  157.2195 H   0  0  0  0  0  0  0  0  0  0  0  0  # atno 11005 bound_to 11000
  145.5655  139.1481  143.3317 LP  0  0  0  0  0  0  0  0  0  0  0  0  # atno 17320 bound_to 7965
  146.2237  140.5790  142.9006 LP  0  0  0  0  0  0  0  0  0  0  0  0  # atno 17321 bound_to 7965
  140.2548  143.3566  152.1374 LP  0  0  0  0  0  0  0  0  0  0  0  0  # atno 17342 bound_to 10162
  139.5146  144.6951  151.5653 LP  0  0  0  0  0  0  0  0  0  0  0  0  # atno 17343 bound_to 10162
  157.4305  131.0848  151.1043 LP  0  0  0  0  0  0  0  0  0  0  0  0  # atno 17370 bound_to 10713
  157.1618  130.6229  149.5613 LP  0  0  0  0  0  0  0  0  0  0  0  0  # atno 17371 bound_to 10713
  140.2850  134.3306  155.7332 LP  0  0  0  0  0  0  0  0  0  0  0  0  # atno 17394 bound_to 11000
  141.2169  133.7501  156.9419 LP  0  0  0  0  0  0  0  0  0  0  0  0  # atno 17395 bound_to 11000

$$$$
