AV-unprocessed.smi:906|AV-procd|sdf|4100|dock10
  -GOLD-   22720 1593D 1   1.00000     0.00000
 Structure written by MMmdl.
 47 48  0  0  0  0  0  0  0  0  1 V2000
  149.5144  144.4595  160.4163 C   0  0  0  0  0  0  0  0  0  0  0  0
  150.7525  143.6477  160.7338 C   0  0  0  0  0  0  0  0  0  0  0  0
  151.1764  142.6088  159.8785 C   0  0  0  0  0  0  0  0  0  0  0  0
  152.3336  141.8853  160.2252 C   0  0  0  0  0  0  0  0  0  0  0  0
  153.0193  142.2254  161.4095 C   0  0  0  0  0  0  0  0  0  0  0  0
  154.2617  141.4646  161.8406 C   0  0  0  0  0  0  0  0  0  0  0  0
  154.1599  139.9510  161.5878 C   0  0  0  0  0  0  0  0  0  0  0  0
  154.9568  139.2034  162.5561 N   0  0  0  0  0  0  0  0  0  0  0  0
  156.2928  139.2548  162.6874 C   0  0  0  0  0  0  0  0  0  0  0  0
  157.0036  139.9224  161.9349 O   0  0  0  0  0  0  0  0  0  0  0  0
  156.7828  138.5448  163.7339 N   0  0  0  0  0  0  0  0  0  0  0  0
  156.0116  137.7488  164.6998 C   0  0  0  0  0  0  0  0  0  0  0  0
  156.2909  136.2554  164.4445 C   0  0  0  0  0  0  0  0  0  0  0  0
  157.7279  135.9799  164.5831 N   0  0  0  0  0  0  0  0  0  0  0  0
  158.1050  134.5599  164.4759 C   0  0  2  0  0  0  0  0  0  0  0  0
  157.9156  133.9687  163.0613 C   0  0  0  0  0  0  0  0  0  0  0  0
  157.4278  133.6980  165.5684 C   0  0  0  0  0  0  0  0  0  0  0  0
  158.1412  132.5940  165.7934 F   0  0  0  0  0  0  0  0  0  0  0  0
  157.2810  134.3606  166.7157 F   0  0  0  0  0  0  0  0  0  0  0  0
  156.2191  133.3284  165.1448 F   0  0  0  0  0  0  0  0  0  0  0  0
  158.5142  136.8202  163.6707 C   0  0  0  0  0  0  0  0  0  0  0  0
  158.2161  138.3098  163.9275 C   0  0  0  0  0  0  0  0  0  0  0  0
  152.5116  143.2818  162.1947 C   0  0  0  0  0  0  0  0  0  0  0  0
  151.4034  143.9817  161.8698 N   0  0  0  0  0  0  0  0  0  0  0  0
  149.0932  144.1772  159.4508 H   0  0  0  0  0  0  0  0  0  0  0  0
  149.7537  145.5228  160.3841 H   0  0  0  0  0  0  0  0  0  0  0  0
  148.7522  144.3013  161.1797 H   0  0  0  0  0  0  0  0  0  0  0  0
  150.6286  142.3680  158.9794 H   0  0  0  0  0  0  0  0  0  0  0  0
  152.6816  141.0799  159.5953 H   0  0  0  0  0  0  0  0  0  0  0  0
  155.1271  141.8670  161.3125 H   0  0  0  0  0  0  0  0  0  0  0  0
  154.4394  141.6509  162.9002 H   0  0  0  0  0  0  0  0  0  0  0  0
  153.1212  139.6272  161.6577 H   0  0  0  0  0  0  0  0  0  0  0  0
  154.4846  139.7383  160.5680 H   0  0  0  0  0  0  0  0  0  0  0  0
  154.4462  138.6364  163.2171 H   0  0  0  0  0  0  0  0  0  0  0  0
  156.3146  138.0196  165.7126 H   0  0  0  0  0  0  0  0  0  0  0  0
  154.9371  137.9272  164.6632 H   0  0  0  0  0  0  0  0  0  0  0  0
  155.7180  135.6663  165.1577 H   0  0  0  0  0  0  0  0  0  0  0  0
  155.9439  135.9851  163.4466 H   0  0  0  0  0  0  0  0  0  0  0  0
  159.1722  134.5173  164.6983 H   0  0  0  0  0  0  0  0  0  0  0  0
  158.3239  132.9594  163.0115 H   0  0  0  0  0  0  0  0  0  0  0  0
  158.4264  134.5550  162.2980 H   0  0  0  0  0  0  0  0  0  0  0  0
  156.8634  133.9005  162.7851 H   0  0  0  0  0  0  0  0  0  0  0  0
  159.5782  136.6359  163.8235 H   0  0  0  0  0  0  0  0  0  0  0  0
  158.2902  136.5732  162.6328 H   0  0  0  0  0  0  0  0  0  0  0  0
  158.8355  138.9266  163.2752 H   0  0  0  0  0  0  0  0  0  0  0  0
  158.4963  138.5831  164.9461 H   0  0  0  0  0  0  0  0  0  0  0  0
  153.0044  143.5697  163.1118 H   0  0  0  0  0  0  0  0  0  0  0  0
  1  2  1  0  0  0  0
  1 25  1  0  0  0  0
  1 26  1  0  0  0  0
  1 27  1  0  0  0  0
  2 24  1  0  0  0  0
  2  3  2  0  0  0  0
  3  4  1  0  0  0  0
  3 28  1  0  0  0  0
  4  5  2  0  0  0  0
  4 29  1  0  0  0  0
  5  6  1  0  0  0  0
  5 23  1  0  0  0  0
  6  7  1  0  0  0  0
  6 30  1  0  0  0  0
  6 31  1  0  0  0  0
  7  8  1  0  0  0  0
  7 32  1  0  0  0  0
  7 33  1  0  0  0  0
  8  9  1  0  0  0  0
  8 34  1  0  0  0  0
  9 10  2  0  0  0  0
  9 11  1  0  0  0  0
 11 22  1  0  0  0  0
 11 12  1  0  0  0  0
 12 13  1  0  0  0  0
 12 35  1  0  0  0  0
 12 36  1  0  0  0  0
 13 14  1  0  0  0  0
 13 37  1  0  0  0  0
 13 38  1  0  0  0  0
 14 15  1  0  0  0  0
 14 21  1  0  0  0  0
 15 16  1  0  0  0  0
 15 17  1  0  0  0  0
 15 39  1  0  0  0  0
 16 40  1  0  0  0  0
 16 41  1  0  0  0  0
 16 42  1  0  0  0  0
 17 18  1  0  0  0  0
 17 19  1  0  0  0  0
 17 20  1  0  0  0  0
 21 22  1  0  0  0  0
 21 43  1  0  0  0  0
 21 44  1  0  0  0  0
 22 45  1  0  0  0  0
 22 46  1  0  0  0  0
 23 24  2  0  0  0  0
 23 47  1  0  0  0  0
M  END
> <s_m_source_file>
AV-unprocessed.smi

> <i_m_source_file_index>
906

> <i_lp_mmshare_version>
43012

> <i_f3d_flags>
0

> <s_epik_input>
W0NIM11jMVtjSF1bY0hdYyhbY0hdbjEpW0NIMl1bQ0gyXVtOSF1DKD1PKU4yW0NIMl1bQ0gyXU4oW0NASF0oW0NIM10pQyhGKShGKUYpW0NIMl1bQ0gyXTI=

> <s_epik_cmdline>
J2VwaWtfcHl0aG9uJywgJy1waCcsICc3LjAnLCAnLXRuJywgJzgnLCAnLW1hJywgJzIwMCcsICctbWV0YWxfYmluZGluZycsICctaW1hZScsICc8aW5maWxlLm1hZT4nLCAnLW9tYWUnLCAnPG91dGZpbGUubWFlPic=

> <r_epik_Ionization_Penalty>
0.0782886

> <r_epik_Ionization_Penalty_Charging>
0

> <r_epik_Ionization_Penalty_Neutral>
0.0782886

> <r_epik_State_Penalty>
0.0661423

> <r_epik_Charging_Adjusted_Penalty>
0.0661423

> <i_epik_Tot_Q>
0

> <i_epik_Tot_abs_Q>
0

> <r_epik_Metal_State_Penalty>
0.060629

> <b_epik_Metal_Only>
0

> <s_lp_Force_Field>
OPLS_2005

> <r_lp_Energy>
48.1538

> <b_lp_Chiralities_Consistent>
1

> <s_lp_Variant>
AV-unprocessed.smi:906-1

> <Gold.Version>
5.8.1

> <Gold.Id.Protein>
6NUR|6NUR_protein|mol2

> <Gold.PLP.Fitness>
48.4199

> <Gold.PLP.PLP>
-50.0813

> <Gold.PLP.part.hbond>
0.0000

> <Gold.PLP.part.metal>
0.0000

> <Gold.PLP.part.buried>
-4.5553

> <Gold.PLP.part.nonpolar>
-44.8638

> <Gold.PLP.part.repulsive>
0.2320

> <Gold.PLP.ligand.clash>
0.0000

> <Gold.PLP.ligand.torsion>
1.1418

> <Gold.PLP.Chemscore.Hbond>
0.0000

> <Gold.PLP.Chemscore.CHOScore>
0.0000

> <Gold.PLP.Chemscore.Metal>
0.0000

> <Gold.PLP.Chemscore.Internal.Correction>
0.6222

> <Gold.Rescore>
     Score         DG    S(hbond)    S(metal)    S(lipo)     H(rot)  DE(clash)    DE(int)     intcor
     14.51     -16.75       0.00        0.00     131.02       1.58       1.00       1.24       ----

> <Gold.Chemscore.Fitness>
14.5058

> <Gold.Chemscore.DG>
-16.7538

> <Gold.Chemscore.ZeroCoef>
-5.4800

> <Gold.Chemscore.Hbond>
0.0000

> <Gold.Chemscore.Metal>
0.0000

> <Gold.Chemscore.Lipo>
131.0188

> <Gold.Chemscore.Internal_Hbond>
0.0000

> <Gold.Chemscore.DEClash>
1.0035

> <Gold.Chemscore.DEInternal>
1.2445

> <Gold.Chemscore.Rot>
1.5841

> <Gold.Chemscore.Internal.Correction>
   9.000000E+99

> <Gold.Chemscore.Hbond.Weighted>
-0.0000

> <Gold.Chemscore.Metal.Weighted>
-0.0000

> <Gold.Chemscore.Lipo.Weighted>
-15.3292

> <Gold.Chemscore.Internal_Hbond.Weighted>
0.0000

> <Gold.Chemscore.DEClash.Weighted>
1.0035

> <Gold.Chemscore.DEInternal.Weighted>
1.2445

> <Gold.Chemscore.Rot.Weighted>
4.0554

> <Gold.Chemscore.Internal.Correction.Weighted>
   9.000000E+99

> <Gold.Protein.RotatedTorsions>
[ 6907 6896 6895 6894 ] final  125.56 input  -60.11 | X-H torsion
[ 7974 7965 7964 7962 ] final   70.88 input  175.53 | X-H torsion
[ 8008 7997 7996 7995 ] final -179.16 input   59.86 | X-H torsion
[ 10167 10162 10161 10158 ] final  -76.09 input  -65.29 | X-H torsion
[ 10718 10713 10712 10709 ] final  -58.72 input   66.30 | X-H torsion
[ 10763 10752 10751 10750 ] final  156.30 input  -60.55 | X-H torsion
[ 11005 11000 10999 10996 ] final -104.32 input  -57.11 | X-H torsion

> <Gold.Protein.ActiveResidues>
 VAL166  LYS551  ARG553  GLY616  TRP617  ASP618  TYR619  PRO620  LYS621  CYS622 
 ASP623  PHE694  ASN695  SER759  ASP760  ASP761  ALA762  ILE779  LEU786  VAL792 
 PHE793  MET794  SER795  GLU796  ALA797  LYS798  CYS799  TRP800  GLU811  SER814 

> <Gold.Protein.RotatedAtoms>
  152.3981  133.6777  159.6293 H   0  0  0  0  0  0  0  0  0  0  0  0  # atno 6907 bound_to 6896
  150.7877  133.8839  159.3302 H   0  0  0  0  0  0  0  0  0  0  0  0  # atno 6908 bound_to 6896
  151.6610  135.0991  160.0231 H   0  0  0  0  0  0  0  0  0  0  0  0  # atno 6909 bound_to 6896
  145.7727  139.2851  143.1311 H   0  0  0  0  0  0  0  0  0  0  0  0  # atno 7974 bound_to 7965
  156.0273  140.1274  157.0295 H   0  0  0  0  0  0  0  0  0  0  0  0  # atno 8008 bound_to 7997
  154.4335  140.1056  156.6119 H   0  0  0  0  0  0  0  0  0  0  0  0  # atno 8009 bound_to 7997
  155.5858  140.3468  155.4555 H   0  0  0  0  0  0  0  0  0  0  0  0  # atno 8010 bound_to 7997
  140.4886  143.2385  151.7943 H   0  0  0  0  0  0  0  0  0  0  0  0  # atno 10167 bound_to 10162
  156.1114  130.4174  150.0616 H   0  0  0  0  0  0  0  0  0  0  0  0  # atno 10718 bound_to 10713
  154.1822  135.2799  155.3048 H   0  0  0  0  0  0  0  0  0  0  0  0  # atno 10763 bound_to 10752
  154.5994  135.5534  153.7362 H   0  0  0  0  0  0  0  0  0  0  0  0  # atno 10764 bound_to 10752
  153.0135  135.6388  154.1961 H   0  0  0  0  0  0  0  0  0  0  0  0  # atno 10765 bound_to 10752
  141.1106  133.8713  157.1596 H   0  0  0  0  0  0  0  0  0  0  0  0  # atno 11005 bound_to 11000
  146.0153  140.8398  142.9950 LP  0  0  0  0  0  0  0  0  0  0  0  0  # atno 17320 bound_to 7965
  144.6810  140.2550  143.7326 LP  0  0  0  0  0  0  0  0  0  0  0  0  # atno 17321 bound_to 7965
  139.4847  144.4679  151.9462 LP  0  0  0  0  0  0  0  0  0  0  0  0  # atno 17342 bound_to 10162
  140.3765  144.2790  150.5913 LP  0  0  0  0  0  0  0  0  0  0  0  0  # atno 17343 bound_to 10162
  156.8578  130.9481  151.3620 LP  0  0  0  0  0  0  0  0  0  0  0  0  # atno 17370 bound_to 10713
  157.6296  130.8718  149.9249 LP  0  0  0  0  0  0  0  0  0  0  0  0  # atno 17371 bound_to 10713
  139.9998  135.0032  157.0164 LP  0  0  0  0  0  0  0  0  0  0  0  0  # atno 17394 bound_to 11000
  140.4785  134.1313  155.7213 LP  0  0  0  0  0  0  0  0  0  0  0  0  # atno 17395 bound_to 11000

$$$$
