AV-unprocessed.smi:3220|AV-procd|sdf|12297|dock2
  -GOLD-   2272018143D 1   1.00000     0.00000
 Structure written by MMmdl.
 33 34  0  0  0  0  0  0  0  0  1 V2000
  151.1564  140.8805  157.7974 C   0  0  0  0  0  0  0  0  0  0  0  0
  151.1642  142.2013  157.0138 C   0  0  2  0  0  0  0  0  0  0  0  0
  151.1755  143.4216  157.9553 C   0  0  0  0  0  0  0  0  0  0  0  0
  151.8832  143.1592  159.1968 N   0  0  0  0  0  0  0  0  0  0  0  0
  153.1465  142.6332  159.3679 C   0  0  0  0  0  0  0  0  0  0  0  0
  153.3781  142.5607  160.7114 C   0  0  0  0  0  0  0  0  0  0  0  0
  152.1846  143.0780  161.2881 C   0  0  0  0  0  0  0  0  0  0  0  0
  151.2933  143.4388  160.3791 N   0  0  0  0  0  0  0  0  0  0  0  0
  149.9978  142.2631  156.1359 N   0  0  0  0  0  0  0  0  0  0  0  0
  149.6936  141.3819  155.1696 C   0  0  0  0  0  0  0  0  0  0  0  0
  150.3497  140.3612  154.9611 O   0  0  0  0  0  0  0  0  0  0  0  0
  148.4490  141.6887  154.3166 C   0  0  2  0  0  0  0  0  0  0  0  0
  147.1778  141.9597  155.1490 C   0  0  0  0  0  0  0  0  0  0  0  0
  146.2064  140.8698  154.7256 C   0  0  0  0  0  0  0  0  0  0  0  0
  147.1237  139.7961  154.1606 C   0  0  0  0  0  0  0  0  0  0  0  0
  148.1197  140.5619  153.5007 O   0  0  0  0  0  0  0  0  0  0  0  0
  152.0269  140.8072  158.4497 H   0  0  0  0  0  0  0  0  0  0  0  0
  151.1784  140.0231  157.1240 H   0  0  0  0  0  0  0  0  0  0  0  0
  150.2654  140.7930  158.4200 H   0  0  0  0  0  0  0  0  0  0  0  0
  152.0757  142.2307  156.4137 H   0  0  0  0  0  0  0  0  0  0  0  0
  151.6388  144.2790  157.4646 H   0  0  0  0  0  0  0  0  0  0  0  0
  150.1550  143.7175  158.2025 H   0  0  0  0  0  0  0  0  0  0  0  0
  153.7654  142.3509  158.5289 H   0  0  0  0  0  0  0  0  0  0  0  0
  154.2645  142.1936  161.2069 H   0  0  0  0  0  0  0  0  0  0  0  0
  151.9406  143.2014  162.3328 H   0  0  0  0  0  0  0  0  0  0  0  0
  149.3914  143.0637  156.2417 H   0  0  0  0  0  0  0  0  0  0  0  0
  148.6775  142.5354  153.6686 H   0  0  0  0  0  0  0  0  0  0  0  0
  147.3618  141.8908  156.2222 H   0  0  0  0  0  0  0  0  0  0  0  0
  146.7689  142.9514  154.9541 H   0  0  0  0  0  0  0  0  0  0  0  0
  145.5839  140.5089  155.5449 H   0  0  0  0  0  0  0  0  0  0  0  0
  145.5498  141.2440  153.9391 H   0  0  0  0  0  0  0  0  0  0  0  0
  147.5743  139.2059  154.9598 H   0  0  0  0  0  0  0  0  0  0  0  0
  146.6133  139.1197  153.4747 H   0  0  0  0  0  0  0  0  0  0  0  0
  1  2  1  0  0  0  0
  1 17  1  0  0  0  0
  1 18  1  0  0  0  0
  1 19  1  0  0  0  0
  2  3  1  0  0  0  0
  2  9  1  0  0  0  0
  2 20  1  0  0  0  0
  3  4  1  0  0  0  0
  3 21  1  0  0  0  0
  3 22  1  0  0  0  0
  4  8  1  0  0  0  0
  4  5  1  0  0  0  0
  5  6  2  0  0  0  0
  5 23  1  0  0  0  0
  6  7  1  0  0  0  0
  6 24  1  0  0  0  0
  7  8  2  0  0  0  0
  7 25  1  0  0  0  0
  9 10  1  0  0  0  0
  9 26  1  0  0  0  0
 10 11  2  0  0  0  0
 10 12  1  0  0  0  0
 12 16  1  0  0  0  0
 12 13  1  0  0  0  0
 12 27  1  0  0  0  0
 13 14  1  0  0  0  0
 13 28  1  0  0  0  0
 13 29  1  0  0  0  0
 14 15  1  0  0  0  0
 14 30  1  0  0  0  0
 14 31  1  0  0  0  0
 15 16  1  0  0  0  0
 15 32  1  0  0  0  0
 15 33  1  0  0  0  0
M  END
> <s_m_source_file>
AV-unprocessed.smi

> <i_m_source_file_index>
3220

> <i_lp_mmshare_version>
43012

> <i_f3d_flags>
0

> <s_epik_input>
bjFbY0hdW2NIXVtjSF1uMVtDSDJdW0NAQEhdKFtDSDNdKVtOSF1DKD1PKVtDQEBIXTJbQ0gyXVtDSDJdW0NIMl1PMg==

> <s_epik_cmdline>
J2VwaWtfcHl0aG9uJywgJy1waCcsICc3LjAnLCAnLXRuJywgJzgnLCAnLW1hJywgJzIwMCcsICctbWV0YWxfYmluZGluZycsICctaW1hZScsICc8aW5maWxlLm1hZT4nLCAnLW9tYWUnLCAnPG91dGZpbGUubWFlPic=

> <r_lp_tautomer_probability>
1

> <r_epik_Ionization_Penalty>
0.00033363

> <r_epik_Ionization_Penalty_Charging>
0

> <r_epik_Ionization_Penalty_Neutral>
0.00033363

> <r_epik_State_Penalty>
-0

> <r_epik_Charging_Adjusted_Penalty>
0

> <i_epik_Tot_Q>
0

> <i_epik_Tot_abs_Q>
0

> <r_epik_Metal_State_Penalty>
-0

> <b_epik_Metal_Only>
0

> <s_lp_Force_Field>
OPLS_2005

> <r_lp_Energy>
17.2779

> <b_lp_Chiralities_Consistent>
1

> <s_lp_Variant>
AV-unprocessed.smi:3220-1

> <Gold.Version>
5.8.1

> <Gold.Id.Protein>
6NUR|6NUR_protein|mol2

> <Gold.PLP.Fitness>
39.4227

> <Gold.PLP.PLP>
-34.5060

> <Gold.PLP.part.hbond>
-2.4302

> <Gold.PLP.part.metal>
0.0000

> <Gold.PLP.part.buried>
-4.9990

> <Gold.PLP.part.nonpolar>
-28.3362

> <Gold.PLP.part.repulsive>
2.1832

> <Gold.PLP.ligand.clash>
0.0000

> <Gold.PLP.ligand.torsion>
0.5429

> <Gold.PLP.Chemscore.Hbond>
1.9920

> <Gold.PLP.Chemscore.CHOScore>
0.0000

> <Gold.PLP.Chemscore.Metal>
0.0000

> <Gold.Chemscore.Hbonds>
donor molecule, donor type, donor heavy atom, donor atom, acceptor molecule, acceptor atom, score
      L1  H     9    26       P1  8028  0.98
      P1  H  7989  7998       L1    11  1.00

> <Gold.PLP.Chemscore.Internal.Correction>
0.0266

> <Gold.Rescore>
     Score         DG    S(hbond)    S(metal)    S(lipo)     H(rot)  DE(clash)    DE(int)     intcor
     14.57     -16.46       1.64        0.00      82.43       1.62       0.86       1.03       ----

> <Gold.Chemscore.Fitness>
14.5685

> <Gold.Chemscore.DG>
-16.4557

> <Gold.Chemscore.ZeroCoef>
-5.4800

> <Gold.Chemscore.Hbond>
1.6419

> <Gold.Chemscore.Metal>
0.0000

> <Gold.Chemscore.Lipo>
82.4263

> <Gold.Chemscore.Internal_Hbond>
0.0000

> <Gold.Chemscore.DEClash>
0.8569

> <Gold.Chemscore.DEInternal>
1.0303

> <Gold.Chemscore.Rot>
1.6219

> <Gold.Chemscore.Internal.Correction>
   9.000000E+99

> <Gold.Chemscore.Hbonds>
donor molecule, donor type, donor heavy atom, donor atom, acceptor molecule, acceptor atom, score
      L1  H     9    26       P1  8028  0.93
      P1  H  7989  7998       L1    11  0.41

> <Gold.Chemscore.Hbond.Weighted>
-5.4838

> <Gold.Chemscore.Metal.Weighted>
-0.0000

> <Gold.Chemscore.Lipo.Weighted>
-9.6439

> <Gold.Chemscore.Internal_Hbond.Weighted>
0.0000

> <Gold.Chemscore.DEClash.Weighted>
0.8569

> <Gold.Chemscore.DEInternal.Weighted>
1.0303

> <Gold.Chemscore.Rot.Weighted>
4.1520

> <Gold.Chemscore.Internal.Correction.Weighted>
   9.000000E+99

> <Gold.Protein.RotatedTorsions>
[ 6907 6896 6895 6894 ] final  -34.88 input  -60.11 | X-H torsion
[ 7974 7965 7964 7962 ] final -170.66 input  175.53 | X-H torsion
[ 8008 7997 7996 7995 ] final -168.19 input   59.86 | X-H torsion
[ 10167 10162 10161 10158 ] final   22.16 input  -65.29 | X-H torsion
[ 10718 10713 10712 10709 ] final   56.21 input   66.30 | X-H torsion
[ 10763 10752 10751 10750 ] final  -31.48 input  -60.55 | X-H torsion
[ 11005 11000 10999 10996 ] final  169.68 input  -57.11 | X-H torsion

> <Gold.Protein.ActiveResidues>
 VAL166  LYS551  ARG553  GLY616  TRP617  ASP618  TYR619  PRO620  LYS621  CYS622 
 ASP623  PHE694  ASN695  SER759  ASP760  ASP761  ALA762  ILE779  LEU786  VAL792 
 PHE793  MET794  SER795  GLU796  ALA797  LYS798  CYS799  TRP800  GLU811  SER814 

> <Gold.Protein.RotatedAtoms>
  151.0469  134.9646  159.8190 H   0  0  0  0  0  0  0  0  0  0  0  0  # atno 6907 bound_to 6896
  152.5374  134.2587  159.8937 H   0  0  0  0  0  0  0  0  0  0  0  0  # atno 6908 bound_to 6896
  151.2601  133.4263  159.2649 H   0  0  0  0  0  0  0  0  0  0  0  0  # atno 6909 bound_to 6896
  144.7167  140.2038  143.6335 H   0  0  0  0  0  0  0  0  0  0  0  0  # atno 7974 bound_to 7965
  155.8880  140.1020  157.1439 H   0  0  0  0  0  0  0  0  0  0  0  0  # atno 8008 bound_to 7997
  154.4012  140.1316  156.4344 H   0  0  0  0  0  0  0  0  0  0  0  0  # atno 8009 bound_to 7997
  155.7566  140.3464  155.5179 H   0  0  0  0  0  0  0  0  0  0  0  0  # atno 8010 bound_to 7997
  140.5370  143.9743  150.6497 H   0  0  0  0  0  0  0  0  0  0  0  0  # atno 10167 bound_to 10162
  157.5411  130.8698  149.8824 H   0  0  0  0  0  0  0  0  0  0  0  0  # atno 10718 bound_to 10713
  153.7981  135.6892  153.4860 H   0  0  0  0  0  0  0  0  0  0  0  0  # atno 10763 bound_to 10752
  153.1706  135.4544  154.9895 H   0  0  0  0  0  0  0  0  0  0  0  0  # atno 10764 bound_to 10752
  154.8017  135.3340  154.7472 H   0  0  0  0  0  0  0  0  0  0  0  0  # atno 10765 bound_to 10752
  140.3003  134.7601  157.3911 H   0  0  0  0  0  0  0  0  0  0  0  0  # atno 11005 bound_to 11000
  145.8655  139.2244  143.1692 LP  0  0  0  0  0  0  0  0  0  0  0  0  # atno 17320 bound_to 7965
  146.0134  140.8414  142.9959 LP  0  0  0  0  0  0  0  0  0  0  0  0  # atno 17321 bound_to 7965
  140.3133  143.3184  152.0857 LP  0  0  0  0  0  0  0  0  0  0  0  0  # atno 17342 bound_to 10162
  139.4974  144.6622  151.6439 LP  0  0  0  0  0  0  0  0  0  0  0  0  # atno 17343 bound_to 10162
  156.0498  130.3720  150.1229 LP  0  0  0  0  0  0  0  0  0  0  0  0  # atno 17370 bound_to 10713
  156.9409  130.9744  151.3516 LP  0  0  0  0  0  0  0  0  0  0  0  0  # atno 17371 bound_to 10713
  140.1115  134.5339  155.8262 LP  0  0  0  0  0  0  0  0  0  0  0  0  # atno 17394 bound_to 11000
  141.2129  133.6726  156.6698 LP  0  0  0  0  0  0  0  0  0  0  0  0  # atno 17395 bound_to 11000

$$$$
