AV-unprocessed.smi:354|AV-procd|sdf|2404|dock3
  -GOLD-   2262022333D 1   1.00000     0.00000
 Structure written by MMmdl.
 36 38  0  0  0  0  0  0  0  0  1 V2000
  154.0177  138.6034  157.9467 O   0  0  0  0  0  0  0  0  0  0  0  0
  152.7116  138.8378  158.4272 C   0  0  0  0  0  0  0  0  0  0  0  0
  152.4340  140.2913  158.6606 C   0  0  0  0  0  0  0  0  0  0  0  0
  153.1975  141.0347  159.4624 N   0  0  0  0  0  0  0  0  0  0  0  0
  152.6039  142.2791  159.3789 C   0  0  0  0  0  0  0  0  0  0  0  0
  152.9460  143.5029  159.9976 C   0  0  0  0  0  0  0  0  0  0  0  0
  152.1789  144.6621  159.7595 C   0  0  0  0  0  0  0  0  0  0  0  0
  151.0606  144.6145  158.9021 C   0  0  0  0  0  0  0  0  0  0  0  0
  150.7037  143.4057  158.2741 C   0  0  0  0  0  0  0  0  0  0  0  0
  151.4737  142.2517  158.5138 C   0  0  0  0  0  0  0  0  0  0  0  0
  151.3988  140.9361  158.0661 N   0  0  0  0  0  0  0  0  0  0  0  0
  150.4085  140.3941  157.1453 C   0  0  0  0  0  0  0  0  0  0  0  0
  150.6415  140.8306  155.6836 C   0  0  1  0  0  0  0  0  0  0  0  0
  151.8221  140.2412  155.1737 O   0  0  0  0  0  0  0  0  0  0  0  0
  149.4266  140.5362  154.8138 C   0  0  0  0  0  0  0  0  0  0  0  0
  148.6095  141.6015  154.3759 C   0  0  0  0  0  0  0  0  0  0  0  0
  147.4760  141.3497  153.5790 C   0  0  0  0  0  0  0  0  0  0  0  0
  147.1495  140.0297  153.2157 C   0  0  0  0  0  0  0  0  0  0  0  0
  147.9574  138.9621  153.6503 C   0  0  0  0  0  0  0  0  0  0  0  0
  149.0921  139.2108  154.4472 C   0  0  0  0  0  0  0  0  0  0  0  0
  149.8524  138.1681  154.8599 F   0  0  0  0  0  0  0  0  0  0  0  0
  154.1104  137.6800  157.7692 H   0  0  0  0  0  0  0  0  0  0  0  0
  151.9880  138.4291  157.7226 H   0  0  0  0  0  0  0  0  0  0  0  0
  152.5813  138.2914  159.3620 H   0  0  0  0  0  0  0  0  0  0  0  0
  153.8003  143.5492  160.6564 H   0  0  0  0  0  0  0  0  0  0  0  0
  152.4493  145.5922  160.2378 H   0  0  0  0  0  0  0  0  0  0  0  0
  150.4764  145.5060  158.7269 H   0  0  0  0  0  0  0  0  0  0  0  0
  149.8460  143.3641  157.6192 H   0  0  0  0  0  0  0  0  0  0  0  0
  150.4257  139.3067  157.2259 H   0  0  0  0  0  0  0  0  0  0  0  0
  149.4160  140.7006  157.4762 H   0  0  0  0  0  0  0  0  0  0  0  0
  150.8150  141.9068  155.6675 H   0  0  0  0  0  0  0  0  0  0  0  0
  152.5602  140.5812  155.6560 H   0  0  0  0  0  0  0  0  0  0  0  0
  148.8472  142.6187  154.6508 H   0  0  0  0  0  0  0  0  0  0  0  0
  146.8559  142.1698  153.2477 H   0  0  0  0  0  0  0  0  0  0  0  0
  146.2795  139.8357  152.6056 H   0  0  0  0  0  0  0  0  0  0  0  0
  147.7057  137.9489  153.3736 H   0  0  0  0  0  0  0  0  0  0  0  0
  1  2  1  0  0  0  0
  1 22  1  0  0  0  0
  2  3  1  0  0  0  0
  2 23  1  0  0  0  0
  2 24  1  0  0  0  0
  3 11  1  0  0  0  0
  3  4  2  0  0  0  0
  4  5  1  0  0  0  0
  5 10  2  0  0  0  0
  5  6  1  0  0  0  0
  6  7  2  0  0  0  0
  6 25  1  0  0  0  0
  7  8  1  0  0  0  0
  7 26  1  0  0  0  0
  8  9  2  0  0  0  0
  8 27  1  0  0  0  0
  9 10  1  0  0  0  0
  9 28  1  0  0  0  0
 10 11  1  0  0  0  0
 11 12  1  0  0  0  0
 12 13  1  0  0  0  0
 12 29  1  0  0  0  0
 12 30  1  0  0  0  0
 13 14  1  0  0  0  0
 13 15  1  0  0  0  0
 13 31  1  0  0  0  0
 14 32  1  0  0  0  0
 15 20  1  0  0  0  0
 15 16  2  0  0  0  0
 16 17  1  0  0  0  0
 16 33  1  0  0  0  0
 17 18  2  0  0  0  0
 17 34  1  0  0  0  0
 18 19  1  0  0  0  0
 18 35  1  0  0  0  0
 19 20  2  0  0  0  0
 19 36  1  0  0  0  0
 20 21  1  0  0  0  0
M  END
> <s_m_source_file>
AV-unprocessed.smi

> <i_m_source_file_index>
354

> <i_lp_mmshare_version>
43012

> <i_f3d_flags>
0

> <s_epik_input>
W2NIXTFbY0hdW2NIXVtjSF1jKGMxMiluKGMobjIpW0NIMl1bT0hdKVtDSDJdW0NASF0oW09IXSljM1tjSF1bY0hdW2NIXVtjSF1jM0Y=

> <s_epik_cmdline>
J2VwaWtfcHl0aG9uJywgJy1waCcsICc3LjAnLCAnLXRuJywgJzgnLCAnLW1hJywgJzIwMCcsICctbWV0YWxfYmluZGluZycsICctaW1hZScsICc8aW5maWxlLm1hZT4nLCAnLW9tYWUnLCAnPG91dGZpbGUubWFlPic=

> <r_epik_Ionization_Penalty>
0.0634722

> <r_epik_Ionization_Penalty_Charging>
0

> <r_epik_Ionization_Penalty_Neutral>
0.0634722

> <r_epik_State_Penalty>
0.0551572

> <r_epik_Charging_Adjusted_Penalty>
0.0551572

> <i_epik_Tot_Q>
0

> <i_epik_Tot_abs_Q>
0

> <r_epik_Metal_State_Penalty>
5.78034e-05

> <b_epik_Metal_Only>
0

> <s_lp_Force_Field>
OPLS_2005

> <r_lp_Energy>
13.0063

> <b_lp_Chiralities_Consistent>
1

> <s_lp_Variant>
AV-unprocessed.smi:354-2

> <Gold.Version>
5.8.1

> <Gold.Id.Protein>
6NUR|6NUR_protein|mol2

> <Gold.PLP.Fitness>
51.3753

> <Gold.PLP.PLP>
-46.8124

> <Gold.PLP.part.hbond>
-2.0000

> <Gold.PLP.part.metal>
0.0000

> <Gold.PLP.part.buried>
-4.5935

> <Gold.PLP.part.nonpolar>
-39.6237

> <Gold.PLP.part.repulsive>
0.0000

> <Gold.PLP.ligand.clash>
0.0000

> <Gold.PLP.ligand.torsion>
0.4514

> <Gold.PLP.Chemscore.Hbond>
1.8056

> <Gold.PLP.Chemscore.CHOScore>
0.0000

> <Gold.PLP.Chemscore.Metal>
0.0000

> <Gold.Chemscore.Hbonds>
donor molecule, donor type, donor heavy atom, donor atom, acceptor molecule, acceptor atom, score
      P1  H  7989  7998       L1    14  0.72
      P1  H  7997  8009       L1     1  1.00

> <Gold.PLP.Chemscore.Internal.Correction>
0.0489

> <Gold.Rescore>
     Score         DG    S(hbond)    S(metal)    S(lipo)     H(rot)  DE(clash)    DE(int)     intcor
     16.02     -17.34       1.44        0.00     120.52       2.75       0.02       1.31       ----

> <Gold.Chemscore.Fitness>
16.0188

> <Gold.Chemscore.DG>
-17.3446

> <Gold.Chemscore.ZeroCoef>
-5.4800

> <Gold.Chemscore.Hbond>
1.4381

> <Gold.Chemscore.Metal>
0.0000

> <Gold.Chemscore.Lipo>
120.5244

> <Gold.Chemscore.Internal_Hbond>
0.0000

> <Gold.Chemscore.DEClash>
0.0195

> <Gold.Chemscore.DEInternal>
1.3063

> <Gold.Chemscore.Rot>
2.7500

> <Gold.Chemscore.Internal.Correction>
   9.000000E+99

> <Gold.Chemscore.Hbonds>
donor molecule, donor type, donor heavy atom, donor atom, acceptor molecule, acceptor atom, score
      P1  H  7989  7998       L1    14  0.11
      P1  H  7997  8009       L1     1  0.92

> <Gold.Chemscore.Hbond.Weighted>
-4.8031

> <Gold.Chemscore.Metal.Weighted>
-0.0000

> <Gold.Chemscore.Lipo.Weighted>
-14.1014

> <Gold.Chemscore.Internal_Hbond.Weighted>
0.0000

> <Gold.Chemscore.DEClash.Weighted>
0.0195

> <Gold.Chemscore.DEInternal.Weighted>
1.3063

> <Gold.Chemscore.Rot.Weighted>
7.0399

> <Gold.Chemscore.Internal.Correction.Weighted>
   9.000000E+99

> <Gold.Protein.RotatedTorsions>
[ 6907 6896 6895 6894 ] final  -29.70 input  -60.11 | X-H torsion
[ 7974 7965 7964 7962 ] final   66.15 input  175.53 | X-H torsion
[ 8008 7997 7996 7995 ] final  132.78 input   59.86 | X-H torsion
[ 10167 10162 10161 10158 ] final  -19.74 input  -65.29 | X-H torsion
[ 10718 10713 10712 10709 ] final  -52.47 input   66.30 | X-H torsion
[ 10763 10752 10751 10750 ] final   49.84 input  -60.55 | X-H torsion
[ 11005 11000 10999 10996 ] final  -21.34 input  -57.11 | X-H torsion

> <Gold.Protein.ActiveResidues>
 VAL166  LYS551  ARG553  GLY616  TRP617  ASP618  TYR619  PRO620  LYS621  CYS622 
 ASP623  PHE694  ASN695  SER759  ASP760  ASP761  ALA762  ILE779  LEU786  VAL792 
 PHE793  MET794  SER795  GLU796  ALA797  LYS798  CYS799  TRP800  GLU811  SER814 

> <Gold.Protein.RotatedAtoms>
  151.1156  135.0051  159.8514 H   0  0  0  0  0  0  0  0  0  0  0  0  # atno 6907 bound_to 6896
  152.5445  134.1784  159.8635 H   0  0  0  0  0  0  0  0  0  0  0  0  # atno 6908 bound_to 6896
  151.1838  133.4664  159.2627 H   0  0  0  0  0  0  0  0  0  0  0  0  # atno 6909 bound_to 6896
  145.8300  139.3134  143.0993 H   0  0  0  0  0  0  0  0  0  0  0  0  # atno 7974 bound_to 7965
  156.2986  140.2538  156.3145 H   0  0  0  0  0  0  0  0  0  0  0  0  # atno 8008 bound_to 7997
  154.9294  140.0398  157.2059 H   0  0  0  0  0  0  0  0  0  0  0  0  # atno 8009 bound_to 7997
  154.8232  140.2863  155.5776 H   0  0  0  0  0  0  0  0  0  0  0  0  # atno 8010 bound_to 7997
  140.7271  143.4789  151.0144 H   0  0  0  0  0  0  0  0  0  0  0  0  # atno 10167 bound_to 10162
  156.1619  130.4149  149.9780 H   0  0  0  0  0  0  0  0  0  0  0  0  # atno 10718 bound_to 10713
  152.9785  135.5898  154.4155 H   0  0  0  0  0  0  0  0  0  0  0  0  # atno 10763 bound_to 10752
  154.3785  135.2767  155.2227 H   0  0  0  0  0  0  0  0  0  0  0  0  # atno 10764 bound_to 10752
  154.4151  135.6072  153.6030 H   0  0  0  0  0  0  0  0  0  0  0  0  # atno 10765 bound_to 10752
  140.8551  133.7828  156.0011 H   0  0  0  0  0  0  0  0  0  0  0  0  # atno 11005 bound_to 11000
  145.9581  140.8857  143.0225 LP  0  0  0  0  0  0  0  0  0  0  0  0  # atno 17320 bound_to 7965
  144.6740  140.1773  143.7409 LP  0  0  0  0  0  0  0  0  0  0  0  0  # atno 17321 bound_to 7965
  139.8486  143.7468  152.3178 LP  0  0  0  0  0  0  0  0  0  0  0  0  # atno 17342 bound_to 10162
  139.7642  144.7497  151.0319 LP  0  0  0  0  0  0  0  0  0  0  0  0  # atno 17343 bound_to 10162
  156.7606  130.9149  151.3641 LP  0  0  0  0  0  0  0  0  0  0  0  0  # atno 17370 bound_to 10713
  157.6739  130.9076  150.0104 LP  0  0  0  0  0  0  0  0  0  0  0  0  # atno 17371 bound_to 10713
  140.8746  134.2685  157.5174 LP  0  0  0  0  0  0  0  0  0  0  0  0  # atno 17394 bound_to 11000
  139.8705  134.9584  156.4300 LP  0  0  0  0  0  0  0  0  0  0  0  0  # atno 17395 bound_to 11000

$$$$
