AV-unprocessed.smi:2004|AV-procd|sdf|8124|dock10
  -GOLD-   2272010363D 1   1.00000     0.00000
 Structure written by MMmdl.
 40 42  0  0  0  0  0  0  0  0  2 V2000
  151.9736  138.9615  157.2291 O   0  0  0  0  0  0  0  0  0  0  0  0
  150.7409  139.0132  157.9202 C   0  0  1  0  0  0  0  0  0  0  0  0
  150.5931  137.7302  158.7516 C   0  0  0  0  0  0  0  0  0  0  0  0
  149.3524  137.7685  159.4372 O   0  0  0  0  0  0  0  0  0  0  0  0
  148.5182  136.6642  159.1268 C   0  0  0  0  0  0  0  0  0  0  0  0
  147.8007  136.1394  160.3552 C   0  0  0  0  0  0  0  0  0  0  0  0
  147.8844  136.8408  161.5766 C   0  0  0  0  0  0  0  0  0  0  0  0
  147.2319  136.3471  162.7233 C   0  0  0  0  0  0  0  0  0  0  0  0
  146.4971  135.1477  162.6543 C   0  0  0  0  0  0  0  0  0  0  0  0
  146.4168  134.4411  161.4389 C   0  0  0  0  0  0  0  0  0  0  0  0
  147.0696  134.9340  160.2921 C   0  0  0  0  0  0  0  0  0  0  0  0
  150.7183  140.2775  158.8021 C   0  0  0  0  0  0  0  0  0  0  0  0
  150.5617  141.5126  158.0229 N   0  0  0  0  0  0  0  0  0  0  0  0
  149.7498  141.7834  156.9652 C   0  0  0  0  0  0  0  0  0  0  0  0
  149.9688  143.0771  156.5997 N   0  3  0  0  0  0  0  0  0  0  0  0
  150.9347  143.6408  157.4364 C   0  0  0  0  0  0  0  0  0  0  0  0
  151.4866  144.9180  157.4629 C   0  0  0  0  0  0  0  0  0  0  0  0
  152.4563  145.1682  158.4563 C   0  0  0  0  0  0  0  0  0  0  0  0
  152.8435  144.1696  159.3738 C   0  0  0  0  0  0  0  0  0  0  0  0
  152.2780  142.8780  159.3375 C   0  0  0  0  0  0  0  0  0  0  0  0
  151.3203  142.6398  158.3528 C   0  0  0  0  0  0  0  0  0  0  0  0
  152.2182  138.0542  157.1258 H   0  0  0  0  0  0  0  0  0  0  0  0
  149.9312  139.0690  157.1917 H   0  0  0  0  0  0  0  0  0  0  0  0
  150.6773  136.8410  158.1244 H   0  0  0  0  0  0  0  0  0  0  0  0
  151.3914  137.6794  159.4938 H   0  0  0  0  0  0  0  0  0  0  0  0
  147.7870  136.9577  158.3718 H   0  0  0  0  0  0  0  0  0  0  0  0
  149.1141  135.8537  158.7047 H   0  0  0  0  0  0  0  0  0  0  0  0
  148.4494  137.7595  161.6370 H   0  0  0  0  0  0  0  0  0  0  0  0
  147.2962  136.8878  163.6561 H   0  0  0  0  0  0  0  0  0  0  0  0
  145.9972  134.7688  163.5336 H   0  0  0  0  0  0  0  0  0  0  0  0
  145.8555  133.5200  161.3861 H   0  0  0  0  0  0  0  0  0  0  0  0
  147.0051  134.3834  159.3648 H   0  0  0  0  0  0  0  0  0  0  0  0
  149.9128  140.2305  159.5360 H   0  0  0  0  0  0  0  0  0  0  0  0
  151.6478  140.3625  159.3671 H   0  0  0  0  0  0  0  0  0  0  0  0
  149.0538  141.0973  156.5042 H   0  0  0  0  0  0  0  0  0  0  0  0
  151.1916  145.6851  156.7620 H   0  0  0  0  0  0  0  0  0  0  0  0
  152.9126  146.1458  158.5162 H   0  0  0  0  0  0  0  0  0  0  0  0
  153.5893  144.3989  160.1211 H   0  0  0  0  0  0  0  0  0  0  0  0
  152.5786  142.1194  160.0450 H   0  0  0  0  0  0  0  0  0  0  0  0
  149.4902  143.5386  155.8368 H   0  0  0  0  0  0  0  0  0  0  0  0
  1  2  1  0  0  0  0
  1 22  1  0  0  0  0
  2  3  1  0  0  0  0
  2 12  1  0  0  0  0
  2 23  1  0  0  0  0
  3  4  1  0  0  0  0
  3 24  1  0  0  0  0
  3 25  1  0  0  0  0
  4  5  1  0  0  0  0
  5  6  1  0  0  0  0
  5 26  1  0  0  0  0
  5 27  1  0  0  0  0
  6 11  1  0  0  0  0
  6  7  2  0  0  0  0
  7  8  1  0  0  0  0
  7 28  1  0  0  0  0
  8  9  2  0  0  0  0
  8 29  1  0  0  0  0
  9 10  1  0  0  0  0
  9 30  1  0  0  0  0
 10 11  2  0  0  0  0
 10 31  1  0  0  0  0
 11 32  1  0  0  0  0
 12 13  1  0  0  0  0
 12 33  1  0  0  0  0
 12 34  1  0  0  0  0
 13 21  1  0  0  0  0
 13 14  1  0  0  0  0
 14 15  2  0  0  0  0
 14 35  1  0  0  0  0
 15 16  1  0  0  0  0
 15 40  1  0  0  0  0
 16 21  2  0  0  0  0
 16 17  1  0  0  0  0
 17 18  2  0  0  0  0
 17 36  1  0  0  0  0
 18 19  1  0  0  0  0
 18 37  1  0  0  0  0
 19 20  2  0  0  0  0
 19 38  1  0  0  0  0
 20 21  1  0  0  0  0
 20 39  1  0  0  0  0
M  CHG  1  15   1
M  END
> <s_m_source_file>
AV-unprocessed.smi

> <i_m_source_file_index>
2004

> <i_lp_mmshare_version>
43012

> <i_f3d_flags>
0

> <s_epik_input>
W2NIXTFbY0hdW2NIXVtjSF1jKGMxMiluKFtjSF1uMilbQ0gyXVtDQEhdKFtPSF0pW0NIMl1PW0NIMl1jM1tjSF1bY0hdW2NIXVtjSF1bY0hdMw==

> <s_epik_cmdline>
J2VwaWtfcHl0aG9uJywgJy1waCcsICc3LjAnLCAnLXRuJywgJzgnLCAnLW1hJywgJzIwMCcsICctbWV0YWxfYmluZGluZycsICctaW1hZScsICc8aW5maWxlLm1hZT4nLCAnLW9tYWUnLCAnPG91dGZpbGUubWFlPic=

> <r_epik_Ionization_Penalty>
1.28975

> <r_epik_Ionization_Penalty_Charging>
1.28975

> <r_epik_Ionization_Penalty_Neutral>
1.07667e-06

> <r_epik_State_Penalty>
1.36276

> <r_epik_Charging_Adjusted_Penalty>
2.65251

> <i_epik_Tot_Q>
1

> <i_epik_Tot_abs_Q>
1

> <r_epik_Metal_State_Penalty>
5.39298

> <b_epik_Metal_Only>
0

> <s_lp_Force_Field>
OPLS_2005

> <r_lp_Energy>
18.9764

> <b_lp_Chiralities_Consistent>
1

> <s_lp_Variant>
AV-unprocessed.smi:2004-4

> <Gold.Version>
5.8.1

> <Gold.Id.Protein>
6NUR|6NUR_protein|mol2

> <Gold.PLP.Fitness>
50.6538

> <Gold.PLP.PLP>
-46.7017

> <Gold.PLP.part.hbond>
-1.7599

> <Gold.PLP.part.metal>
0.0000

> <Gold.PLP.part.buried>
-5.2644

> <Gold.PLP.part.nonpolar>
-41.2184

> <Gold.PLP.part.repulsive>
0.0235

> <Gold.PLP.ligand.clash>
0.0000

> <Gold.PLP.ligand.torsion>
1.0441

> <Gold.PLP.Chemscore.Hbond>
1.9840

> <Gold.PLP.Chemscore.CHOScore>
0.0000

> <Gold.PLP.Chemscore.Metal>
0.0000

> <Gold.Chemscore.Hbonds>
donor molecule, donor type, donor heavy atom, donor atom, acceptor molecule, acceptor atom, score
      L1  H    15    40       P1  8028  0.75

> <Gold.PLP.Chemscore.Internal.Correction>
0.0882

> <Gold.Rescore>
     Score         DG    S(hbond)    S(metal)    S(lipo)     H(rot)  DE(clash)    DE(int)     intcor
     17.71     -18.60       1.04        0.00     135.52       2.43       0.04       0.84       ----

> <Gold.Chemscore.Fitness>
17.7102

> <Gold.Chemscore.DG>
-18.5966

> <Gold.Chemscore.ZeroCoef>
-5.4800

> <Gold.Chemscore.Hbond>
1.0398

> <Gold.Chemscore.Metal>
0.0000

> <Gold.Chemscore.Lipo>
135.5233

> <Gold.Chemscore.Internal_Hbond>
0.0000

> <Gold.Chemscore.DEClash>
0.0426

> <Gold.Chemscore.DEInternal>
0.8437

> <Gold.Chemscore.Rot>
2.4269

> <Gold.Chemscore.Internal.Correction>
   9.000000E+99

> <Gold.Chemscore.Hbonds>
donor molecule, donor type, donor heavy atom, donor atom, acceptor molecule, acceptor atom, score
      L1  H    15    40       P1  8028  0.37

> <Gold.Chemscore.Hbond.Weighted>
-3.4731

> <Gold.Chemscore.Metal.Weighted>
-0.0000

> <Gold.Chemscore.Lipo.Weighted>
-15.8562

> <Gold.Chemscore.Internal_Hbond.Weighted>
0.0000

> <Gold.Chemscore.DEClash.Weighted>
0.0426

> <Gold.Chemscore.DEInternal.Weighted>
0.8437

> <Gold.Chemscore.Rot.Weighted>
6.2127

> <Gold.Chemscore.Internal.Correction.Weighted>
   9.000000E+99

> <Gold.Protein.RotatedTorsions>
[ 6907 6896 6895 6894 ] final  144.95 input  -60.11 | X-H torsion
[ 7974 7965 7964 7962 ] final -129.99 input  175.53 | X-H torsion
[ 8008 7997 7996 7995 ] final -136.72 input   59.86 | X-H torsion
[ 10167 10162 10161 10158 ] final  -82.62 input  -65.29 | X-H torsion
[ 10718 10713 10712 10709 ] final  162.60 input   66.30 | X-H torsion
[ 10763 10752 10751 10750 ] final -147.14 input  -60.55 | X-H torsion
[ 11005 11000 10999 10996 ] final  142.06 input  -57.11 | X-H torsion

> <Gold.Protein.ActiveResidues>
 VAL166  LYS551  ARG553  GLY616  TRP617  ASP618  TYR619  PRO620  LYS621  CYS622 
 ASP623  PHE694  ASN695  SER759  ASP760  ASP761  ALA762  ILE779  LEU786  VAL792 
 PHE793  MET794  SER795  GLU796  ALA797  LYS798  CYS799  TRP800  GLU811  SER814 

> <Gold.Protein.RotatedAtoms>
  152.1871  133.4747  159.4988 H   0  0  0  0  0  0  0  0  0  0  0  0  # atno 6907 bound_to 6896
  150.6944  134.1759  159.4239 H   0  0  0  0  0  0  0  0  0  0  0  0  # atno 6908 bound_to 6896
  151.9673  135.0094  160.0601 H   0  0  0  0  0  0  0  0  0  0  0  0  # atno 6909 bound_to 6896
  144.9518  140.7353  143.4783 H   0  0  0  0  0  0  0  0  0  0  0  0  # atno 7974 bound_to 7965
  155.3999  140.0505  157.3037 H   0  0  0  0  0  0  0  0  0  0  0  0  # atno 8008 bound_to 7997
  154.4996  140.2151  155.9336 H   0  0  0  0  0  0  0  0  0  0  0  0  # atno 8009 bound_to 7997
  156.1450  140.3147  155.8560 H   0  0  0  0  0  0  0  0  0  0  0  0  # atno 8010 bound_to 7997
  140.4303  143.2551  151.8768 H   0  0  0  0  0  0  0  0  0  0  0  0  # atno 10167 bound_to 10162
  157.1203  131.0490  151.2418 H   0  0  0  0  0  0  0  0  0  0  0  0  # atno 10718 bound_to 10713
  154.8301  135.3368  154.6771 H   0  0  0  0  0  0  0  0  0  0  0  0  # atno 10763 bound_to 10752
  153.7392  135.6947  153.4975 H   0  0  0  0  0  0  0  0  0  0  0  0  # atno 10764 bound_to 10752
  153.2256  135.4434  155.0490 H   0  0  0  0  0  0  0  0  0  0  0  0  # atno 10765 bound_to 10752
  140.0448  134.9286  157.0910 H   0  0  0  0  0  0  0  0  0  0  0  0  # atno 11005 bound_to 11000
  145.2832  139.1911  143.4780 LP  0  0  0  0  0  0  0  0  0  0  0  0  # atno 17320 bound_to 7965
  146.3324  140.2797  142.8609 LP  0  0  0  0  0  0  0  0  0  0  0  0  # atno 17321 bound_to 7965
  139.4785  144.5342  151.8623 LP  0  0  0  0  0  0  0  0  0  0  0  0  # atno 17342 bound_to 10162
  140.4435  144.1954  150.5892 LP  0  0  0  0  0  0  0  0  0  0  0  0  # atno 17343 bound_to 10162
  157.4482  130.7583  149.7128 LP  0  0  0  0  0  0  0  0  0  0  0  0  # atno 17370 bound_to 10713
  155.9830  130.4004  150.3386 LP  0  0  0  0  0  0  0  0  0  0  0  0  # atno 17371 bound_to 10713
  140.4010  134.2082  155.7163 LP  0  0  0  0  0  0  0  0  0  0  0  0  # atno 17394 bound_to 11000
  141.1901  133.8223  157.0929 LP  0  0  0  0  0  0  0  0  0  0  0  0  # atno 17395 bound_to 11000

$$$$
