AV-unprocessed.smi:2450|AV-procd|sdf|9667|dock4
  -GOLD-   2272013303D 1   1.00000     0.00000
 Structure written by MMmdl.
 42 43  0  0  0  0  0  0  0  0  2 V2000
  151.7212  144.7934  160.3065 C   0  0  0  0  0  0  0  0  0  0  0  0
  150.7089  144.1996  159.3162 C   0  0  0  0  0  0  0  0  0  0  0  0
  151.3608  143.5420  158.0854 C   0  0  2  0  0  0  0  0  0  0  0  0
  152.4962  144.4040  157.5158 C   0  0  0  0  0  0  0  0  0  0  0  0
  150.3590  143.3100  157.0456 N   0  0  0  0  0  0  0  0  0  0  0  0
  150.0018  142.1176  156.5467 C   0  0  0  0  0  0  0  0  0  0  0  0
  150.5002  141.0490  156.8994 O   0  0  0  0  0  0  0  0  0  0  0  0
  149.0481  142.2527  155.6100 N   0  0  0  0  0  0  0  0  0  0  0  0
  148.4099  141.2341  154.8461 C   0  0  0  0  0  0  0  0  0  0  0  0
  149.0365  139.9984  154.5417 C   0  0  0  0  0  0  0  0  0  0  0  0
  148.3381  139.0254  153.7995 C   0  0  0  0  0  0  0  0  0  0  0  0
  147.0227  139.2966  153.3804 C   0  0  0  0  0  0  0  0  0  0  0  0
  146.4491  140.4756  153.6989 N   0  3  0  0  0  0  0  0  0  0  0  0
  147.0767  141.4448  154.4098 C   0  0  0  0  0  0  0  0  0  0  0  0
  146.3857  142.6355  154.6939 N   0  0  0  0  0  0  0  0  0  0  0  0
  145.8938  143.3702  153.5405 C   0  0  0  0  0  0  0  0  0  0  0  0
  144.8889  144.3778  154.1025 C   0  0  0  0  0  0  0  0  0  0  0  0
  144.4341  143.7750  155.4375 C   0  0  0  0  0  0  0  0  0  0  0  0
  145.2521  142.4890  155.5916 C   0  0  0  0  0  0  0  0  0  0  0  0
  151.2100  145.2904  161.1311 H   0  0  0  0  0  0  0  0  0  0  0  0
  152.3599  145.5305  159.8191 H   0  0  0  0  0  0  0  0  0  0  0  0
  152.3635  144.0237  160.7346 H   0  0  0  0  0  0  0  0  0  0  0  0
  150.0807  143.4741  159.8346 H   0  0  0  0  0  0  0  0  0  0  0  0
  150.0411  144.9957  158.9850 H   0  0  0  0  0  0  0  0  0  0  0  0
  151.7982  142.5952  158.4072 H   0  0  0  0  0  0  0  0  0  0  0  0
  153.2701  144.5771  158.2641 H   0  0  0  0  0  0  0  0  0  0  0  0
  152.1308  145.3770  157.1849 H   0  0  0  0  0  0  0  0  0  0  0  0
  152.9691  143.9170  156.6624 H   0  0  0  0  0  0  0  0  0  0  0  0
  149.8925  144.1296  156.6857 H   0  0  0  0  0  0  0  0  0  0  0  0
  148.8049  143.2000  155.3594 H   0  0  0  0  0  0  0  0  0  0  0  0
  150.0369  139.7716  154.8772 H   0  0  0  0  0  0  0  0  0  0  0  0
  148.8050  138.0809  153.5602 H   0  0  0  0  0  0  0  0  0  0  0  0
  146.4138  138.6092  152.8109 H   0  0  0  0  0  0  0  0  0  0  0  0
  146.7092  143.8675  153.0145 H   0  0  0  0  0  0  0  0  0  0  0  0
  145.3976  142.6995  152.8378 H   0  0  0  0  0  0  0  0  0  0  0  0
  145.3762  145.3378  154.2776 H   0  0  0  0  0  0  0  0  0  0  0  0
  144.0588  144.5470  153.4160 H   0  0  0  0  0  0  0  0  0  0  0  0
  144.6513  144.4670  156.2523 H   0  0  0  0  0  0  0  0  0  0  0  0
  143.3634  143.5693  155.4544 H   0  0  0  0  0  0  0  0  0  0  0  0
  144.6499  141.6242  155.3093 H   0  0  0  0  0  0  0  0  0  0  0  0
  145.5834  142.3463  156.6207 H   0  0  0  0  0  0  0  0  0  0  0  0
  145.4922  140.6453  153.3887 H   0  0  0  0  0  0  0  0  0  0  0  0
  1  2  1  0  0  0  0
  1 20  1  0  0  0  0
  1 21  1  0  0  0  0
  1 22  1  0  0  0  0
  2  3  1  0  0  0  0
  2 23  1  0  0  0  0
  2 24  1  0  0  0  0
  3  4  1  0  0  0  0
  3  5  1  0  0  0  0
  3 25  1  0  0  0  0
  4 26  1  0  0  0  0
  4 27  1  0  0  0  0
  4 28  1  0  0  0  0
  5  6  1  0  0  0  0
  5 29  1  0  0  0  0
  6  7  2  0  0  0  0
  6  8  1  0  0  0  0
  8  9  1  0  0  0  0
  8 30  1  0  0  0  0
  9 14  1  0  0  0  0
  9 10  2  0  0  0  0
 10 11  1  0  0  0  0
 10 31  1  0  0  0  0
 11 12  2  0  0  0  0
 11 32  1  0  0  0  0
 12 13  1  0  0  0  0
 12 33  1  0  0  0  0
 13 14  2  0  0  0  0
 13 42  1  0  0  0  0
 14 15  1  0  0  0  0
 15 19  1  0  0  0  0
 15 16  1  0  0  0  0
 16 17  1  0  0  0  0
 16 34  1  0  0  0  0
 16 35  1  0  0  0  0
 17 18  1  0  0  0  0
 17 36  1  0  0  0  0
 17 37  1  0  0  0  0
 18 19  1  0  0  0  0
 18 38  1  0  0  0  0
 18 39  1  0  0  0  0
 19 40  1  0  0  0  0
 19 41  1  0  0  0  0
M  CHG  1  13   1
M  END
> <s_m_source_file>
AV-unprocessed.smi

> <i_m_source_file_index>
2450

> <i_lp_mmshare_version>
43012

> <i_f3d_flags>
0

> <s_epik_input>
W0NIM11bQ0gyXVtDQEhdKFtDSDNdKVtOSF1DKD1PKVtOSF1jMVtjSF1bY0hdW2NIXW5jMU4yW0NIMl1bQ0gyXVtDSDJdW0NIMl0y

> <s_epik_cmdline>
J2VwaWtfcHl0aG9uJywgJy1waCcsICc3LjAnLCAnLXRuJywgJzgnLCAnLW1hJywgJzIwMCcsICctbWV0YWxfYmluZGluZycsICctaW1hZScsICc8aW5maWxlLm1hZT4nLCAnLW9tYWUnLCAnPG91dGZpbGUubWFlPic=

> <r_lp_tautomer_probability>
0.999994

> <r_epik_Ionization_Penalty>
1.08838

> <r_epik_Ionization_Penalty_Charging>
1.08836

> <r_epik_Ionization_Penalty_Neutral>
2.1796e-05

> <r_epik_State_Penalty>
1.14442

> <r_epik_Charging_Adjusted_Penalty>
2.23278

> <i_epik_Tot_Q>
1

> <i_epik_Tot_abs_Q>
1

> <r_epik_Metal_State_Penalty>
1.23344

> <b_epik_Metal_Only>
0

> <s_lp_Force_Field>
OPLS_2005

> <r_lp_Energy>
40.8961

> <b_lp_Chiralities_Consistent>
1

> <s_lp_Variant>
AV-unprocessed.smi:2450-3

> <Gold.Version>
5.8.1

> <Gold.Id.Protein>
6NUR|6NUR_protein|mol2

> <Gold.PLP.Fitness>
48.2053

> <Gold.PLP.PLP>
-36.8689

> <Gold.PLP.part.hbond>
-2.5427

> <Gold.PLP.part.metal>
0.0000

> <Gold.PLP.part.buried>
-5.9798

> <Gold.PLP.part.nonpolar>
-29.5189

> <Gold.PLP.part.repulsive>
0.3887

> <Gold.PLP.ligand.clash>
0.0000

> <Gold.PLP.ligand.torsion>
0.3344

> <Gold.PLP.Chemscore.Hbond>
3.9920

> <Gold.PLP.Chemscore.CHOScore>
0.0000

> <Gold.PLP.Chemscore.Metal>
0.0000

> <Gold.Chemscore.Hbonds>
donor molecule, donor type, donor heavy atom, donor atom, acceptor molecule, acceptor atom, score
      L1  H     5    29       P1  8028  0.99
      L1  H     8    30       P1  8028  1.00
      L1  H    13    42       P1 10175  2.00

> <Gold.PLP.Chemscore.Internal.Correction>
0.0293

> <Gold.Rescore>
     Score         DG    S(hbond)    S(metal)    S(lipo)     H(rot)  DE(clash)    DE(int)     intcor
     20.08     -21.87       2.69        0.00      92.54       1.34       0.33       1.46       ----

> <Gold.Chemscore.Fitness>
20.0771

> <Gold.Chemscore.DG>
-21.8685

> <Gold.Chemscore.ZeroCoef>
-5.4800

> <Gold.Chemscore.Hbond>
2.6916

> <Gold.Chemscore.Metal>
0.0000

> <Gold.Chemscore.Lipo>
92.5381

> <Gold.Chemscore.Internal_Hbond>
0.0000

> <Gold.Chemscore.DEClash>
0.3328

> <Gold.Chemscore.DEInternal>
1.4586

> <Gold.Chemscore.Rot>
1.3393

> <Gold.Chemscore.Internal.Correction>
   9.000000E+99

> <Gold.Chemscore.Hbonds>
donor molecule, donor type, donor heavy atom, donor atom, acceptor molecule, acceptor atom, score
      L1  H     5    29       P1  8028  0.85
      L1  H     8    30       P1  8028  0.90
      L1  H    13    42       P1 10175  0.85

> <Gold.Chemscore.Hbond.Weighted>
-8.9901

> <Gold.Chemscore.Metal.Weighted>
-0.0000

> <Gold.Chemscore.Lipo.Weighted>
-10.8270

> <Gold.Chemscore.Internal_Hbond.Weighted>
0.0000

> <Gold.Chemscore.DEClash.Weighted>
0.3328

> <Gold.Chemscore.DEInternal.Weighted>
1.4586

> <Gold.Chemscore.Rot.Weighted>
3.4285

> <Gold.Chemscore.Internal.Correction.Weighted>
   9.000000E+99

> <Gold.Protein.RotatedTorsions>
[ 6907 6896 6895 6894 ] final   53.09 input  -60.11 | X-H torsion
[ 7974 7965 7964 7962 ] final  -16.90 input  175.53 | X-H torsion
[ 8008 7997 7996 7995 ] final -121.55 input   59.86 | X-H torsion
[ 10167 10162 10161 10158 ] final   44.57 input  -65.29 | X-H torsion
[ 10718 10713 10712 10709 ] final   78.59 input   66.30 | X-H torsion
[ 10763 10752 10751 10750 ] final   -9.90 input  -60.55 | X-H torsion
[ 11005 11000 10999 10996 ] final  155.15 input  -57.11 | X-H torsion

> <Gold.Protein.ActiveResidues>
 VAL166  LYS551  ARG553  GLY616  TRP617  ASP618  TYR619  PRO620  LYS621  CYS622 
 ASP623  PHE694  ASN695  SER759  ASP760  ASP761  ALA762  ILE779  LEU786  VAL792 
 PHE793  MET794  SER795  GLU796  ALA797  LYS798  CYS799  TRP800  GLU811  SER814 

> <Gold.Protein.RotatedAtoms>
  152.3300  134.7271  160.0291 H   0  0  0  0  0  0  0  0  0  0  0  0  # atno 6907 bound_to 6896
  151.7691  133.3334  159.3447 H   0  0  0  0  0  0  0  0  0  0  0  0  # atno 6908 bound_to 6896
  150.7418  134.5967  159.6060 H   0  0  0  0  0  0  0  0  0  0  0  0  # atno 6909 bound_to 6896
  146.1966  140.3703  142.8438 H   0  0  0  0  0  0  0  0  0  0  0  0  # atno 7974 bound_to 7965
  155.1498  140.0403  157.2818 H   0  0  0  0  0  0  0  0  0  0  0  0  # atno 8008 bound_to 7997
  154.6412  140.2547  155.7293 H   0  0  0  0  0  0  0  0  0  0  0  0  # atno 8009 bound_to 7997
  156.2533  140.2855  156.0807 H   0  0  0  0  0  0  0  0  0  0  0  0  # atno 8010 bound_to 7997
  140.3330  144.2565  150.6165 H   0  0  0  0  0  0  0  0  0  0  0  0  # atno 10167 bound_to 10162
  157.6749  130.9875  150.1808 H   0  0  0  0  0  0  0  0  0  0  0  0  # atno 10718 bound_to 10713
  153.4615  135.7016  153.6048 H   0  0  0  0  0  0  0  0  0  0  0  0  # atno 10763 bound_to 10752
  153.4340  135.3796  155.2188 H   0  0  0  0  0  0  0  0  0  0  0  0  # atno 10764 bound_to 10752
  154.8727  135.3958  154.4041 H   0  0  0  0  0  0  0  0  0  0  0  0  # atno 10765 bound_to 10752
  140.1554  134.8646  157.2508 H   0  0  0  0  0  0  0  0  0  0  0  0  # atno 11005 bound_to 11000
  144.8593  140.7116  143.6117 LP  0  0  0  0  0  0  0  0  0  0  0  0  # atno 17320 bound_to 7965
  145.3623  139.1678  143.4376 LP  0  0  0  0  0  0  0  0  0  0  0  0  # atno 17321 bound_to 7965
  140.5380  143.2229  151.8132 LP  0  0  0  0  0  0  0  0  0  0  0  0  # atno 17342 bound_to 10162
  139.4853  144.4637  151.9510 LP  0  0  0  0  0  0  0  0  0  0  0  0  # atno 17343 bound_to 10162
  156.2541  130.3703  149.8201 LP  0  0  0  0  0  0  0  0  0  0  0  0  # atno 17370 bound_to 10713
  156.5965  130.8528  151.3421 LP  0  0  0  0  0  0  0  0  0  0  0  0  # atno 17371 bound_to 10713
  140.2553  134.3634  155.7426 LP  0  0  0  0  0  0  0  0  0  0  0  0  # atno 17394 bound_to 11000
  141.2204  133.7339  156.8998 LP  0  0  0  0  0  0  0  0  0  0  0  0  # atno 17395 bound_to 11000

$$$$
