AV-unprocessed.smi:915|AV-procd|sdf|4157|dock6
  -GOLD-   22720 2 63D 1   1.00000     0.00000
 Structure written by MMmdl.
 33 34  0  0  0  0  0  0  0  0  2 V2000
  151.3896  145.3012  160.2333 C   0  0  0  0  0  0  0  0  0  0  0  0
  151.1109  144.4517  158.9883 C   0  0  0  0  0  0  0  0  0  0  0  0
  151.7973  143.1208  159.0424 C   0  0  0  0  0  0  0  0  0  0  0  0
  152.5820  142.6358  160.0541 C   0  0  0  0  0  0  0  0  0  0  0  0
  153.1803  141.0430  159.6916 S   0  0  0  0  0  0  0  0  0  0  0  0
  152.3358  141.0730  158.1417 C   0  0  0  0  0  0  0  0  0  0  0  0
  152.3934  140.0386  157.2734 N   0  5  0  0  0  0  0  0  0  0  0  0
  151.7312  139.9681  156.0904 C   0  0  0  0  0  0  0  0  0  0  0  0
  152.1270  139.4657  155.0365 O   0  0  0  0  0  0  0  0  0  0  0  0
  150.5133  140.5240  156.1346 N   0  0  0  0  0  0  0  0  0  0  0  0
  149.5770  140.5868  155.0191 C   0  0  0  0  0  0  0  0  0  0  0  0
  148.4233  141.5579  155.3167 C   0  0  1  0  0  0  0  0  0  0  0  0
  147.4547  141.7072  154.1356 C   0  0  0  0  0  0  0  0  0  0  0  0
  146.1284  142.2112  154.7056 C   0  0  0  0  0  0  0  0  0  0  0  0
  145.8432  141.3615  155.9439 C   0  0  0  0  0  0  0  0  0  0  0  0
  147.4317  141.0388  156.7499 S   0  0  0  0  0  0  0  0  0  0  0  0
  151.6695  142.2272  157.9772 N   0  0  0  0  0  0  0  0  0  0  0  0
  150.8808  146.2630  160.1693 H   0  0  0  0  0  0  0  0  0  0  0  0
  152.4568  145.4958  160.3453 H   0  0  0  0  0  0  0  0  0  0  0  0
  151.0431  144.7995  161.1371 H   0  0  0  0  0  0  0  0  0  0  0  0
  150.0344  144.3134  158.8833 H   0  0  0  0  0  0  0  0  0  0  0  0
  151.4302  144.9989  158.1007 H   0  0  0  0  0  0  0  0  0  0  0  0
  152.8453  143.1142  160.9851 H   0  0  0  0  0  0  0  0  0  0  0  0
  150.2118  140.9232  157.0114 H   0  0  0  0  0  0  0  0  0  0  0  0
  150.1142  140.9137  154.1274 H   0  0  0  0  0  0  0  0  0  0  0  0
  149.1876  139.5887  154.8118 H   0  0  0  0  0  0  0  0  0  0  0  0
  148.8283  142.5434  155.5515 H   0  0  0  0  0  0  0  0  0  0  0  0
  147.8500  142.3800  153.3737 H   0  0  0  0  0  0  0  0  0  0  0  0
  147.2941  140.7391  153.6591 H   0  0  0  0  0  0  0  0  0  0  0  0
  146.2284  143.2585  154.9935 H   0  0  0  0  0  0  0  0  0  0  0  0
  145.3203  142.1487  153.9766 H   0  0  0  0  0  0  0  0  0  0  0  0
  145.1463  141.8469  156.6274 H   0  0  0  0  0  0  0  0  0  0  0  0
  145.4110  140.4047  155.6492 H   0  0  0  0  0  0  0  0  0  0  0  0
  1  2  1  0  0  0  0
  1 18  1  0  0  0  0
  1 19  1  0  0  0  0
  1 20  1  0  0  0  0
  2  3  1  0  0  0  0
  2 21  1  0  0  0  0
  2 22  1  0  0  0  0
  3 17  1  0  0  0  0
  3  4  2  0  0  0  0
  4  5  1  0  0  0  0
  4 23  1  0  0  0  0
  5  6  1  0  0  0  0
  6  7  1  0  0  0  0
  6 17  2  0  0  0  0
  7  8  1  0  0  0  0
  8  9  2  0  0  0  0
  8 10  1  0  0  0  0
 10 11  1  0  0  0  0
 10 24  1  0  0  0  0
 11 12  1  0  0  0  0
 11 25  1  0  0  0  0
 11 26  1  0  0  0  0
 12 16  1  0  0  0  0
 12 13  1  0  0  0  0
 12 27  1  0  0  0  0
 13 14  1  0  0  0  0
 13 28  1  0  0  0  0
 13 29  1  0  0  0  0
 14 15  1  0  0  0  0
 14 30  1  0  0  0  0
 14 31  1  0  0  0  0
 15 16  1  0  0  0  0
 15 32  1  0  0  0  0
 15 33  1  0  0  0  0
M  CHG  1   7  -1
M  END
> <s_m_source_file>
AV-unprocessed.smi

> <i_m_source_file_index>
915

> <i_lp_mmshare_version>
43012

> <i_f3d_flags>
0

> <s_epik_input>
W0NIM11bQ0gyXWMxW2NIXXNjKG4xKVtOSF1DKD1PKVtOSF1bQ0gyXVtDQEBIXTJbQ0gyXVtDSDJdW0NIMl1TMg==

> <s_epik_cmdline>
J2VwaWtfcHl0aG9uJywgJy1waCcsICc3LjAnLCAnLXRuJywgJzgnLCAnLW1hJywgJzIwMCcsICctbWV0YWxfYmluZGluZycsICctaW1hZScsICc8aW5maWxlLm1hZT4nLCAnLW9tYWUnLCAnPG91dGZpbGUubWFlPic=

> <r_lp_tautomer_probability>
0.999

> <r_epik_Ionization_Penalty>
8.73043

> <r_epik_Ionization_Penalty_Charging>
6.79141

> <r_epik_Ionization_Penalty_Neutral>
1.93902

> <r_epik_State_Penalty>
6.79158

> <r_epik_Charging_Adjusted_Penalty>
13.583

> <i_epik_Tot_Q>
-1

> <i_epik_Tot_abs_Q>
1

> <r_epik_Metal_State_Penalty>
2.71141

> <b_epik_Metal_Only>
1

> <s_lp_Force_Field>
OPLS_2005

> <r_lp_Energy>
9.1846

> <b_lp_Chiralities_Consistent>
1

> <s_lp_Variant>
AV-unprocessed.smi:915-4

> <Gold.Version>
5.8.1

> <Gold.Id.Protein>
6NUR|6NUR_protein|mol2

> <Gold.PLP.Fitness>
45.1364

> <Gold.PLP.PLP>
-37.1548

> <Gold.PLP.part.hbond>
-2.0000

> <Gold.PLP.part.metal>
0.0000

> <Gold.PLP.part.buried>
-2.8605

> <Gold.PLP.part.nonpolar>
-31.4947

> <Gold.PLP.part.repulsive>
0.1515

> <Gold.PLP.ligand.clash>
0.0000

> <Gold.PLP.ligand.torsion>
0.3398

> <Gold.PLP.Chemscore.Hbond>
2.8800

> <Gold.PLP.Chemscore.CHOScore>
0.0000

> <Gold.PLP.Chemscore.Metal>
0.0000

> <Gold.Chemscore.Hbonds>
donor molecule, donor type, donor heavy atom, donor atom, acceptor molecule, acceptor atom, score
      P1  H  7989  7998       L1     9  0.66
      P1  H  7997  8010       L1     7  1.49

> <Gold.PLP.Chemscore.Internal.Correction>
0.0212

> <Gold.Rescore>
     Score         DG    S(hbond)    S(metal)    S(lipo)     H(rot)  DE(clash)    DE(int)     intcor
     12.78     -14.67       0.89        0.00      82.32       1.33       0.12       1.77       ----

> <Gold.Chemscore.Fitness>
12.7812

> <Gold.Chemscore.DG>
-14.6692

> <Gold.Chemscore.ZeroCoef>
-5.4800

> <Gold.Chemscore.Hbond>
0.8874

> <Gold.Chemscore.Metal>
0.0000

> <Gold.Chemscore.Lipo>
82.3194

> <Gold.Chemscore.Internal_Hbond>
0.0000

> <Gold.Chemscore.DEClash>
0.1170

> <Gold.Chemscore.DEInternal>
1.7710

> <Gold.Chemscore.Rot>
1.3305

> <Gold.Chemscore.Internal.Correction>
   9.000000E+99

> <Gold.Chemscore.Hbonds>
donor molecule, donor type, donor heavy atom, donor atom, acceptor molecule, acceptor atom, score
      P1  H  7989  7998       L1     9  0.40
      P1  H  7997  8010       L1     7  0.06

> <Gold.Chemscore.Hbond.Weighted>
-2.9638

> <Gold.Chemscore.Metal.Weighted>
-0.0000

> <Gold.Chemscore.Lipo.Weighted>
-9.6314

> <Gold.Chemscore.Internal_Hbond.Weighted>
0.0000

> <Gold.Chemscore.DEClash.Weighted>
0.1170

> <Gold.Chemscore.DEInternal.Weighted>
1.7710

> <Gold.Chemscore.Rot.Weighted>
3.4060

> <Gold.Chemscore.Internal.Correction.Weighted>
   9.000000E+99

> <Gold.Protein.RotatedTorsions>
[ 6907 6896 6895 6894 ] final -152.19 input  -60.11 | X-H torsion
[ 7974 7965 7964 7962 ] final   73.59 input  175.53 | X-H torsion
[ 8008 7997 7996 7995 ] final   69.29 input   59.86 | X-H torsion
[ 10167 10162 10161 10158 ] final -144.71 input  -65.29 | X-H torsion
[ 10718 10713 10712 10709 ] final -178.32 input   66.30 | X-H torsion
[ 10763 10752 10751 10750 ] final  157.13 input  -60.55 | X-H torsion
[ 11005 11000 10999 10996 ] final  -82.93 input  -57.11 | X-H torsion

> <Gold.Protein.ActiveResidues>
 VAL166  LYS551  ARG553  GLY616  TRP617  ASP618  TYR619  PRO620  LYS621  CYS622 
 ASP623  PHE694  ASN695  SER759  ASP760  ASP761  ALA762  ILE779  LEU786  VAL792 
 PHE793  MET794  SER795  GLU796  ALA797  LYS798  CYS799  TRP800  GLU811  SER814 

> <Gold.Protein.RotatedAtoms>
  151.2241  133.4486  159.2601 H   0  0  0  0  0  0  0  0  0  0  0  0  # atno 6907 bound_to 6896
  151.0857  134.9885  159.8388 H   0  0  0  0  0  0  0  0  0  0  0  0  # atno 6908 bound_to 6896
  152.5429  134.2178  159.8828 H   0  0  0  0  0  0  0  0  0  0  0  0  # atno 6909 bound_to 6896
  145.7390  139.2713  143.1497 H   0  0  0  0  0  0  0  0  0  0  0  0  # atno 7974 bound_to 7965
  155.7214  140.3493  155.5018 H   0  0  0  0  0  0  0  0  0  0  0  0  # atno 8008 bound_to 7997
  155.9266  140.1076  157.1187 H   0  0  0  0  0  0  0  0  0  0  0  0  # atno 8009 bound_to 7997
  154.4078  140.1239  156.4735 H   0  0  0  0  0  0  0  0  0  0  0  0  # atno 8010 bound_to 7997
  139.7873  143.8016  152.2646 H   0  0  0  0  0  0  0  0  0  0  0  0  # atno 10167 bound_to 10162
  156.8426  130.9691  151.3099 H   0  0  0  0  0  0  0  0  0  0  0  0  # atno 10718 bound_to 10713
  154.1954  135.2793  155.3008 H   0  0  0  0  0  0  0  0  0  0  0  0  # atno 10763 bound_to 10752
  154.5896  135.5564  153.7269 H   0  0  0  0  0  0  0  0  0  0  0  0  # atno 10764 bound_to 10752
  153.0101  135.6365  154.2092 H   0  0  0  0  0  0  0  0  0  0  0  0  # atno 10765 bound_to 10752
  141.1660  133.7269  156.8645 H   0  0  0  0  0  0  0  0  0  0  0  0  # atno 11005 bound_to 11000
  146.0466  140.8112  142.9802 LP  0  0  0  0  0  0  0  0  0  0  0  0  # atno 17320 bound_to 7965
  144.6875  140.2990  143.7266 LP  0  0  0  0  0  0  0  0  0  0  0  0  # atno 17321 bound_to 7965
  139.8096  144.7341  150.9715 LP  0  0  0  0  0  0  0  0  0  0  0  0  # atno 17342 bound_to 10162
  140.7820  143.4263  151.0762 LP  0  0  0  0  0  0  0  0  0  0  0  0  # atno 17343 bound_to 10162
  157.6347  130.8757  149.9337 LP  0  0  0  0  0  0  0  0  0  0  0  0  # atno 17370 bound_to 10713
  156.0872  130.3667  150.0464 LP  0  0  0  0  0  0  0  0  0  0  0  0  # atno 17371 bound_to 10713
  140.1825  134.9023  157.2965 LP  0  0  0  0  0  0  0  0  0  0  0  0  # atno 17394 bound_to 11000
  140.2379  134.3830  155.7493 LP  0  0  0  0  0  0  0  0  0  0  0  0  # atno 17395 bound_to 11000

$$$$
