#       Name:                AV-unprocessed.smi:2113
#       Creating user name   scv26
#       Creation time:       Fri Mar 27 11:35:56 2020


#       File generated by GOLD software.
#

@<TRIPOS>MOLECULE
AV-unprocessed.smi:2113
    52    53     1
SMALL
NO_CHARGES


@<TRIPOS>ATOM
      1 ****        -4.1869  -3.9714  -4.2879 C.3            1 S1                 0.0000
      2 ****        -3.5262  -2.7535  -3.6385 C.3            1 S1                 0.0000
      3 ****        -3.6911  -2.8439  -2.2283 O.3            1 S1                 0.0000
      4 ****        -3.2461  -1.7127  -1.4835 C.3            1 S1                 0.0000
      5 ****        -3.7787  -1.8631  -0.0509 C.3            1 S1                 0.0000
      6 ****        -1.7119  -1.6248  -1.5007 C.2            1 S1                 0.0000
      7 ****        -1.0345  -2.4677  -0.9117 O.2            1 S1                 0.0000
      8 ****        -1.1790  -0.6004  -2.1848 N.am           1 S1                 0.0000
      9 ****         0.2496  -0.3269  -2.2927 C.3            1 S1                 0.0000
     10 ****         0.8322   0.3014  -1.0377 C.ar           1 S1                 0.0000
     11 ****         0.2404   1.4344  -0.4447 C.ar           1 S1                 0.0000
     12 ****         0.8118   1.9696   0.7252 C.ar           1 S1                 0.0000
     13 ****         1.9644   1.3575   1.2729 C.ar           1 S1                 0.0000
     14 ****         2.5475   1.8702   2.4517 N.3            1 S1                 0.0000
     15 ****         2.8610   3.2967   2.4376 C.3            1 S1                 0.0000
     16 ****         3.1851   3.7876   3.8592 C.3            1 S1                 0.0000
     17 ****         4.2284   2.9960   4.4176 O.3            1 S1                 0.0000
     18 ****         3.8544   1.6264   4.5248 C.3            1 S1                 0.0000
     19 ****         3.5599   1.0595   3.1259 C.3            1 S1                 0.0000
     20 ****         2.5309   0.2681   0.6967 N.ar           1 S1                 0.0000
     21 ****         1.9806  -0.2397  -0.4261 C.ar           1 S1                 0.0000
     22 ****        -4.0853  -3.9378  -5.3726 H              1 S1                 0.0000
     23 ****        -5.2508  -4.0115  -4.0526 H              1 S1                 0.0000
     24 ****        -3.7308  -4.8975  -3.9377 H              1 S1                 0.0000
     25 ****        -2.4702  -2.7247  -3.9088 H              1 S1                 0.0000
     26 ****        -3.9886  -1.8398  -4.0139 H              1 S1                 0.0000
     27 ****        -3.6736  -0.8045  -1.9132 H              1 S1                 0.0000
     28 ****        -3.4571  -1.0343   0.5805 H              1 S1                 0.0000
     29 ****        -3.4347  -2.7896   0.4109 H              1 S1                 0.0000
     30 ****        -4.8686  -1.8783  -0.0432 H              1 S1                 0.0000
     31 ****        -1.8060   0.0413  -2.6477 H              1 S1                 0.0000
     32 ****         0.7860  -1.2438  -2.5434 H              1 S1                 0.0000
     33 ****         0.4049   0.3594  -3.1253 H              1 S1                 0.0000
     34 ****        -0.6422   1.8852  -0.8742 H              1 S1                 0.0000
     35 ****         0.3516   2.8255   1.1957 H              1 S1                 0.0000
     36 ****         3.7173   3.4614   1.7824 H              1 S1                 0.0000
     37 ****         2.0382   3.8878   2.0384 H              1 S1                 0.0000
     38 ****         3.5063   4.8289   3.8320 H              1 S1                 0.0000
     39 ****         2.3001   3.7440   4.4963 H              1 S1                 0.0000
     40 ****         4.6680   1.0706   4.9908 H              1 S1                 0.0000
     41 ****         2.9853   1.5249   5.1770 H              1 S1                 0.0000
     42 ****         3.2179   0.0279   3.2191 H              1 S1                 0.0000
     43 ****         4.4720   1.0490   2.5276 H              1 S1                 0.0000
     44 ****         2.4687  -1.1089  -0.8414 H              1 S1                 0.0000
     45 ****        -3.1810  -3.6426  -1.9093 LP             1 S1                 0.0000
     46 ****        -4.6647  -2.9730  -2.0398 LP             1 S1                 0.0000
     47 ****        -1.4824  -3.2139  -0.4192 LP             1 S1                 0.0000
     48 ****        -0.0365  -2.4060  -0.9259 LP             1 S1                 0.0000
     49 ****         1.7610   1.7766   3.0622 LP             1 S1                 0.0000
     50 ****         4.4462   3.3443   5.3293 LP             1 S1                 0.0000
     51 ****         5.0362   3.0660   3.8323 LP             1 S1                 0.0000
     52 ****         3.3445  -0.1527   1.0980 LP             1 S1                 0.0000
@<TRIPOS>BOND
    1    1    2 1     
    2    1   22 1     
    3    1   23 1     
    4    1   24 1     
    5    2    3 1     
    6    2   25 1     
    7    2   26 1     
    8    3    4 1     
    9    4    5 1     
   10    4    6 1     
   11    4   27 1     
   12    5   28 1     
   13    5   29 1     
   14    5   30 1     
   15    6    7 2     
   16    6    8 am    
   17    8    9 1     
   18    8   31 1     
   19    9   10 1     
   20    9   32 1     
   21    9   33 1     
   22   10   21 ar    
   23   10   11 ar    
   24   11   12 ar    
   25   11   34 1     
   26   12   13 ar    
   27   12   35 1     
   28   13   14 1     
   29   13   20 ar    
   30   14   19 1     
   31   14   15 1     
   32   15   16 1     
   33   15   36 1     
   34   15   37 1     
   35   16   17 1     
   36   16   38 1     
   37   16   39 1     
   38   17   18 1     
   39   18   19 1     
   40   18   40 1     
   41   18   41 1     
   42   19   42 1     
   43   19   43 1     
   44   20   21 ar    
   45   21   44 1     
   46    3   45 1     
   47    3   46 1     
   48    7   47 1     
   49    7   48 1     
   50   14   49 1     
   51   17   50 1     
   52   17   51 1     
   53   20   52 1     
@<TRIPOS>SUBSTRUCTURE
      1 S1             1
@<TRIPOS>SET
LONE_PAIRS      STATIC     ATOMS    <user>   **** ""
8 45 46 47 48 49 50 51 52
DONOR_HYDROGENS      STATIC     ATOMS    <user>   **** ""
1 31
ATOM$BLUE        STATIC     ATOMS    COLORGROUP SYSTEM
8 45 46 47 48 49 50 51 52
ATOM$RED        STATIC     ATOMS    COLORGROUP SYSTEM
1 31
