#       Name:                AV-unprocessed.smi:2345
#       Creating user name   scv26
#       Creation time:       Fri Mar 27 12:58:42 2020


#       File generated by GOLD software.
#

@<TRIPOS>MOLECULE
AV-unprocessed.smi:2345
    40    41     1
SMALL
NO_CHARGES


@<TRIPOS>ATOM
      1 ****        -2.1621   4.8698   0.4896 C.3            1 S1                 0.0000
      2 ****        -0.7491   4.2809   0.5022 C.3            1 S1                 0.0000
      3 ****        -0.7865   2.4687   0.4376 S.3            1 S1                 0.0000
      4 ****         0.9936   2.0913   0.5549 C.3            1 S1                 0.0000
      5 ****         1.7879   2.4873  -0.6894 C.3            1 S1                 0.0000
      6 ****         3.1043   1.7282  -0.5357 C.3            1 S1                 0.0000
      7 ****         2.7429   0.4144   0.1699 C.3            1 S1                 0.0000
      8 ****         1.3325   0.6013   0.7718 C.3            1 S1                 0.0000
      9 ****         0.3664  -0.2819   0.1179 N.am           1 S1                 0.0000
     10 ****         0.1953  -1.5815   0.3960 C.2            1 S1                 0.0000
     11 ****         0.8697  -2.1969   1.2218 O.2            1 S1                 0.0000
     12 ****        -0.7809  -2.1169  -0.3550 N.am           1 S1                 0.0000
     13 ****        -1.2193  -3.4658  -0.3494 C.ar           1 S1                 0.0000
     14 ****        -1.4921  -4.0824  -1.5878 C.ar           1 S1                 0.0000
     15 ****        -1.9495  -5.4152  -1.5938 C.ar           1 S1                 0.0000
     16 ****        -2.1566  -6.1340  -0.4703 N.ar           1 S1                 0.0000
     17 ****        -1.9193  -5.5322   0.7151 C.ar           1 S1                 0.0000
     18 ****        -1.4619  -4.2043   0.8350 C.ar           1 S1                 0.0000
     19 ****        -1.2958  -3.6592   2.0640 F              1 S1                 0.0000
     20 ****        -2.1294   5.9587   0.5283 H              1 S1                 0.0000
     21 ****        -2.7402   4.5230   1.3465 H              1 S1                 0.0000
     22 ****        -2.6987   4.5847  -0.4158 H              1 S1                 0.0000
     23 ****        -0.1831   4.6586  -0.3491 H              1 S1                 0.0000
     24 ****        -0.2234   4.5932   1.4047 H              1 S1                 0.0000
     25 ****         1.3911   2.6492   1.4043 H              1 S1                 0.0000
     26 ****         1.2691   2.1516  -1.5884 H              1 S1                 0.0000
     27 ****         1.9405   3.5636  -0.7707 H              1 S1                 0.0000
     28 ****         3.6025   1.5647  -1.4917 H              1 S1                 0.0000
     29 ****         3.7836   2.3045   0.0939 H              1 S1                 0.0000
     30 ****         2.7701  -0.4130  -0.5407 H              1 S1                 0.0000
     31 ****         3.4733   0.1855   0.9465 H              1 S1                 0.0000
     32 ****         1.3379   0.3851   1.8418 H              1 S1                 0.0000
     33 ****        -0.2318   0.1402  -0.5773 H              1 S1                 0.0000
     34 ****        -1.1668  -1.5293  -1.0790 H              1 S1                 0.0000
     35 ****        -1.3451  -3.5520  -2.5174 H              1 S1                 0.0000
     36 ****        -2.1575  -5.9164  -2.5275 H              1 S1                 0.0000
     37 ****        -2.1126  -6.1240   1.5975 H              1 S1                 0.0000
     38 ****         1.5923  -1.7260   1.7280 LP             1 S1                 0.0000
     39 ****         0.6950  -3.1676   1.3864 LP             1 S1                 0.0000
     40 ****        -2.4752  -7.0808  -0.5143 LP             1 S1                 0.0000
@<TRIPOS>BOND
    1    1    2 1     
    2    1   20 1     
    3    1   21 1     
    4    1   22 1     
    5    2    3 1     
    6    2   23 1     
    7    2   24 1     
    8    3    4 1     
    9    4    8 1     
   10    4    5 1     
   11    4   25 1     
   12    5    6 1     
   13    5   26 1     
   14    5   27 1     
   15    6    7 1     
   16    6   28 1     
   17    6   29 1     
   18    7    8 1     
   19    7   30 1     
   20    7   31 1     
   21    8    9 1     
   22    8   32 1     
   23    9   10 am    
   24    9   33 1     
   25   10   11 2     
   26   10   12 am    
   27   12   13 1     
   28   12   34 1     
   29   13   18 ar    
   30   13   14 ar    
   31   14   15 ar    
   32   14   35 1     
   33   15   16 ar    
   34   15   36 1     
   35   16   17 ar    
   36   17   18 ar    
   37   17   37 1     
   38   18   19 1     
   39   11   38 1     
   40   11   39 1     
   41   16   40 1     
@<TRIPOS>SUBSTRUCTURE
      1 S1             1
@<TRIPOS>SET
LONE_PAIRS      STATIC     ATOMS    <user>   **** ""
3 38 39 40
DONOR_HYDROGENS      STATIC     ATOMS    <user>   **** ""
2 33 34
ATOM$BLUE        STATIC     ATOMS    COLORGROUP SYSTEM
3 38 39 40
ATOM$RED        STATIC     ATOMS    COLORGROUP SYSTEM
2 33 34
