#       Name:                AV-unprocessed.smi:863
#       Creating user name   scv26
#       Creation time:       Fri Mar 27 01:46:15 2020


#       File generated by GOLD software.
#

@<TRIPOS>MOLECULE
AV-unprocessed.smi:863
    49    51     1
SMALL
NO_CHARGES


@<TRIPOS>ATOM
      1 ****         1.7277   2.3147   0.4014 O.2            1 S1                 0.0000
      2 ****         2.4177   1.2952   0.4025 C.2            1 S1                 0.0000
      3 ****         3.9429   1.4040   0.4127 C.3            1 S1                 0.0000
      4 ****         4.4538   1.4125   1.8281 C.2            1 S1                 0.0000
      5 ****         4.6373   2.5268   2.6937 C.2            1 S1                 0.0000
      6 ****         5.1202   1.9650   3.8401 C.2            1 S1                 0.0000
      7 ****         5.2321   0.6201   3.6994 O.3            1 S1                 0.0000
      8 ****         4.8071   0.2765   2.4108 N.2            1 S1                 0.0000
      9 ****         1.9054   0.0543   0.3930 N.am           1 S1                 0.0000
     10 ****         0.4820  -0.2690   0.3905 C.3            1 S1                 0.0000
     11 ****         0.2730  -1.6954   0.9105 C.3            1 S1                 0.0000
     12 ****        -1.2049  -2.0955   0.8064 C.3            1 S1                 0.0000
     13 ****        -1.6687  -1.9481  -0.5345 O.3            1 S1                 0.0000
     14 ****        -1.5756  -0.6361  -1.1051 C.3            1 S1                 0.0000
     15 ****        -1.9872  -0.7889  -2.5884 C.3            1 S1                 0.0000
     16 ****        -3.4638  -1.1870  -2.7586 C.3            1 S1                 0.0000
     17 ****        -4.3954  -0.1932  -2.0518 C.3            1 S1                 0.0000
     18 ****        -4.0175  -0.0459  -0.5716 C.3            1 S1                 0.0000
     19 ****        -2.5435   0.3613  -0.4122 C.3            1 S1                 0.0000
     20 ****        -0.1035  -0.1622  -1.0292 C.3            1 S1                 0.0000
     21 ****         4.3762   0.5791  -0.1551 H              1 S1                 0.0000
     22 ****         4.2382   2.3195  -0.1011 H              1 S1                 0.0000
     23 ****         4.4432   3.5717   2.5029 H              1 S1                 0.0000
     24 ****         5.4184   2.3696   4.7960 H              1 S1                 0.0000
     25 ****         2.5490  -0.7238   0.3976 H              1 S1                 0.0000
     26 ****        -0.0358   0.4223   1.0571 H              1 S1                 0.0000
     27 ****         0.8747  -2.3955   0.3290 H              1 S1                 0.0000
     28 ****         0.6100  -1.7763   1.9446 H              1 S1                 0.0000
     29 ****        -1.3244  -3.1392   1.0971 H              1 S1                 0.0000
     30 ****        -1.8168  -1.5158   1.4970 H              1 S1                 0.0000
     31 ****        -1.8127   0.1515  -3.1134 H              1 S1                 0.0000
     32 ****        -1.3554  -1.5310  -3.0781 H              1 S1                 0.0000
     33 ****        -3.7133  -1.2381  -3.8188 H              1 S1                 0.0000
     34 ****        -3.6244  -2.1883  -2.3568 H              1 S1                 0.0000
     35 ****        -4.3357   0.7786  -2.5437 H              1 S1                 0.0000
     36 ****        -5.4306  -0.5232  -2.1419 H              1 S1                 0.0000
     37 ****        -4.6600   0.6968  -0.0983 H              1 S1                 0.0000
     38 ****        -4.1981  -0.9867  -0.0501 H              1 S1                 0.0000
     39 ****        -2.3146   0.4780   0.6459 H              1 S1                 0.0000
     40 ****        -2.4063   1.3520  -0.8476 H              1 S1                 0.0000
     41 ****        -0.0215   0.8613  -1.3975 H              1 S1                 0.0000
     42 ****         0.5017  -0.7731  -1.7011 H              1 S1                 0.0000
     43 ****         2.1646   3.2142   0.4071 LP             1 S1                 0.0000
     44 ****         0.7302   2.2434   0.3947 LP             1 S1                 0.0000
     45 ****         4.6596   0.1603   4.3782 LP             1 S1                 0.0000
     46 ****         6.1851   0.3450   3.8258 LP             1 S1                 0.0000
     47 ****         4.7764  -0.6397   2.0114 LP             1 S1                 0.0000
     48 ****        -2.6308  -2.2201  -0.5545 LP             1 S1                 0.0000
     49 ****        -1.1351  -2.5678  -1.1100 LP             1 S1                 0.0000
@<TRIPOS>BOND
    1    1    2 2     
    2    2    3 1     
    3    2    9 am    
    4    3    4 1     
    5    3   21 1     
    6    3   22 1     
    7    4    8 2     
    8    4    5 1     
    9    5    6 2     
   10    5   23 1     
   11    6    7 1     
   12    6   24 1     
   13    7    8 1     
   14    9   10 1     
   15    9   25 1     
   16   10   20 1     
   17   10   11 1     
   18   10   26 1     
   19   11   12 1     
   20   11   27 1     
   21   11   28 1     
   22   12   13 1     
   23   12   29 1     
   24   12   30 1     
   25   13   14 1     
   26   14   19 1     
   27   14   15 1     
   28   14   20 1     
   29   15   16 1     
   30   15   31 1     
   31   15   32 1     
   32   16   17 1     
   33   16   33 1     
   34   16   34 1     
   35   17   18 1     
   36   17   35 1     
   37   17   36 1     
   38   18   19 1     
   39   18   37 1     
   40   18   38 1     
   41   19   39 1     
   42   19   40 1     
   43   20   41 1     
   44   20   42 1     
   45    1   43 1     
   46    1   44 1     
   47    7   45 1     
   48    7   46 1     
   49    8   47 1     
   50   13   48 1     
   51   13   49 1     
@<TRIPOS>SUBSTRUCTURE
      1 S1             1
@<TRIPOS>SET
LONE_PAIRS      STATIC     ATOMS    <user>   **** ""
7 43 44 45 46 47 48 49
DONOR_HYDROGENS      STATIC     ATOMS    <user>   **** ""
1 25
ATOM$BLUE        STATIC     ATOMS    COLORGROUP SYSTEM
7 43 44 45 46 47 48 49
ATOM$RED        STATIC     ATOMS    COLORGROUP SYSTEM
1 25
