AV-unprocessed.smi:2489|AV-procd|sdf|9804|dock1
  -GOLD-   2272013433D 1   1.00000     0.00000
 Structure written by MMmdl.
 34 35  0  0  0  0  0  0  0  0  2 V2000
  153.0432  142.6153  161.7799 C   0  0  0  0  0  0  0  0  0  0  0  0
  153.0789  142.0979  160.4577 O   0  0  0  0  0  0  0  0  0  0  0  0
  152.3242  142.7302  159.4930 C   0  0  0  0  0  0  0  0  0  0  0  0
  152.0668  144.1048  159.6729 C   0  0  0  0  0  0  0  0  0  0  0  0
  151.2937  144.7994  158.7242 C   0  0  0  0  0  0  0  0  0  0  0  0
  150.8093  144.1479  157.6463 N   0  3  0  0  0  0  0  0  0  0  0  0
  151.0311  142.8360  157.4064 C   0  0  0  0  0  0  0  0  0  0  0  0
  150.4420  142.2833  156.2378 N   0  0  0  0  0  0  0  0  0  0  0  0
  150.6102  141.0531  155.7186 C   0  0  0  0  0  0  0  0  0  0  0  0
  151.3428  140.1872  156.1985 O   0  0  0  0  0  0  0  0  0  0  0  0
  149.8127  140.7632  154.4411 C   0  0  1  0  0  0  0  0  0  0  0  0
  148.8653  139.5537  154.5419 C   0  0  0  0  0  0  0  0  0  0  0  0
  147.4935  140.1882  154.6417 C   0  0  0  0  0  0  0  0  0  0  0  0
  147.6802  141.4548  153.8139 C   0  0  1  0  0  0  0  0  0  0  0  0
  146.6454  142.5482  154.0986 C   0  0  0  0  0  0  0  0  0  0  0  0
  148.9812  141.8926  154.1802 O   0  0  0  0  0  0  0  0  0  0  0  0
  151.7905  142.0902  158.3437 C   0  0  0  0  0  0  0  0  0  0  0  0
  153.6747  142.0020  162.4228 H   0  0  0  0  0  0  0  0  0  0  0  0
  152.0331  142.5920  162.1915 H   0  0  0  0  0  0  0  0  0  0  0  0
  153.4264  143.6358  161.8188 H   0  0  0  0  0  0  0  0  0  0  0  0
  152.4564  144.6223  160.5375 H   0  0  0  0  0  0  0  0  0  0  0  0
  151.0499  145.8495  158.7945 H   0  0  0  0  0  0  0  0  0  0  0  0
  149.8744  142.9167  155.6937 H   0  0  0  0  0  0  0  0  0  0  0  0
  150.4952  140.6205  153.6015 H   0  0  0  0  0  0  0  0  0  0  0  0
  148.9326  138.9594  153.6296 H   0  0  0  0  0  0  0  0  0  0  0  0
  149.0741  138.8858  155.3788 H   0  0  0  0  0  0  0  0  0  0  0  0
  146.6970  139.5455  154.2659 H   0  0  0  0  0  0  0  0  0  0  0  0
  147.2725  140.4372  155.6806 H   0  0  0  0  0  0  0  0  0  0  0  0
  147.6838  141.2059  152.7513 H   0  0  0  0  0  0  0  0  0  0  0  0
  145.6401  142.2093  153.8477 H   0  0  0  0  0  0  0  0  0  0  0  0
  146.8527  143.4425  153.5104 H   0  0  0  0  0  0  0  0  0  0  0  0
  146.6506  142.8333  155.1512 H   0  0  0  0  0  0  0  0  0  0  0  0
  151.9479  141.0352  158.1876 H   0  0  0  0  0  0  0  0  0  0  0  0
  150.2516  144.6785  156.9766 H   0  0  0  0  0  0  0  0  0  0  0  0
  1  2  1  0  0  0  0
  1 18  1  0  0  0  0
  1 19  1  0  0  0  0
  1 20  1  0  0  0  0
  2  3  1  0  0  0  0
  3 17  1  0  0  0  0
  3  4  2  0  0  0  0
  4  5  1  0  0  0  0
  4 21  1  0  0  0  0
  5  6  2  0  0  0  0
  5 22  1  0  0  0  0
  6  7  1  0  0  0  0
  6 34  1  0  0  0  0
  7  8  1  0  0  0  0
  7 17  2  0  0  0  0
  8  9  1  0  0  0  0
  8 23  1  0  0  0  0
  9 10  2  0  0  0  0
  9 11  1  0  0  0  0
 11 16  1  0  0  0  0
 11 12  1  0  0  0  0
 11 24  1  0  0  0  0
 12 13  1  0  0  0  0
 12 25  1  0  0  0  0
 12 26  1  0  0  0  0
 13 14  1  0  0  0  0
 13 27  1  0  0  0  0
 13 28  1  0  0  0  0
 14 15  1  0  0  0  0
 14 16  1  0  0  0  0
 14 29  1  0  0  0  0
 15 30  1  0  0  0  0
 15 31  1  0  0  0  0
 15 32  1  0  0  0  0
 17 33  1  0  0  0  0
M  CHG  1   6   1
M  END
> <s_m_source_file>
AV-unprocessed.smi

> <i_m_source_file_index>
2489

> <i_lp_mmshare_version>
43012

> <i_f3d_flags>
0

> <s_epik_input>
W0NIM11PYzFbY0hdW2NIXW5jKFtjSF0xKVtOSF1DKD1PKVtDQEBIXTJbQ0gyXVtDSDJdW0NASF0oTzIpW0NIM10=

> <s_epik_cmdline>
J2VwaWtfcHl0aG9uJywgJy1waCcsICc3LjAnLCAnLXRuJywgJzgnLCAnLW1hJywgJzIwMCcsICctbWV0YWxfYmluZGluZycsICctaW1hZScsICc8aW5maWxlLm1hZT4nLCAnLW9tYWUnLCAnPG91dGZpbGUubWFlPic=

> <r_epik_Ionization_Penalty>
1.58956

> <r_epik_Ionization_Penalty_Charging>
1.1784

> <r_epik_Ionization_Penalty_Neutral>
0.411158

> <r_epik_State_Penalty>
1.31089

> <r_epik_Charging_Adjusted_Penalty>
2.48928

> <i_epik_Tot_Q>
1

> <i_epik_Tot_abs_Q>
1

> <r_epik_Metal_State_Penalty>
5.00213

> <b_epik_Metal_Only>
0

> <s_lp_Force_Field>
OPLS_2005

> <r_lp_Energy>
32.2942

> <b_lp_Chiralities_Consistent>
1

> <s_lp_Variant>
AV-unprocessed.smi:2489-10

> <Gold.Version>
5.8.1

> <Gold.Id.Protein>
6NUR|6NUR_protein|mol2

> <Gold.PLP.Fitness>
49.6358

> <Gold.PLP.PLP>
-40.5693

> <Gold.PLP.part.hbond>
-3.0216

> <Gold.PLP.part.metal>
0.0000

> <Gold.PLP.part.buried>
-5.0280

> <Gold.PLP.part.nonpolar>
-32.4274

> <Gold.PLP.part.repulsive>
0.3324

> <Gold.PLP.ligand.clash>
0.0000

> <Gold.PLP.ligand.torsion>
0.4099

> <Gold.PLP.Chemscore.Hbond>
3.2925

> <Gold.PLP.Chemscore.CHOScore>
0.0000

> <Gold.PLP.Chemscore.Metal>
0.0000

> <Gold.Chemscore.Hbonds>
donor molecule, donor type, donor heavy atom, donor atom, acceptor molecule, acceptor atom, score
      L1  H     6    34       P1  8028  2.00
      L1  H     8    23       P1  8028  0.87
      P1  H  8011  8017       L1    16  0.35

> <Gold.PLP.Chemscore.Internal.Correction>
0.0089

> <Gold.Rescore>
     Score         DG    S(hbond)    S(metal)    S(lipo)     H(rot)  DE(clash)    DE(int)     intcor
     16.38     -18.05       1.64        0.00      87.78       1.24       0.02       1.65       ----

> <Gold.Chemscore.Fitness>
16.3802

> <Gold.Chemscore.DG>
-18.0493

> <Gold.Chemscore.ZeroCoef>
-5.4800

> <Gold.Chemscore.Hbond>
1.6395

> <Gold.Chemscore.Metal>
0.0000

> <Gold.Chemscore.Lipo>
87.7794

> <Gold.Chemscore.Internal_Hbond>
0.0000

> <Gold.Chemscore.DEClash>
0.0177

> <Gold.Chemscore.DEInternal>
1.6514

> <Gold.Chemscore.Rot>
1.2409

> <Gold.Chemscore.Internal.Correction>
   9.000000E+99

> <Gold.Chemscore.Hbonds>
donor molecule, donor type, donor heavy atom, donor atom, acceptor molecule, acceptor atom, score
      L1  H     6    34       P1  8028  0.58
      L1  H     8    23       P1  8028  0.81
      P1  H  8011  8017       L1    16  0.02

> <Gold.Chemscore.Hbond.Weighted>
-5.4758

> <Gold.Chemscore.Metal.Weighted>
-0.0000

> <Gold.Chemscore.Lipo.Weighted>
-10.2702

> <Gold.Chemscore.Internal_Hbond.Weighted>
0.0000

> <Gold.Chemscore.DEClash.Weighted>
0.0177

> <Gold.Chemscore.DEInternal.Weighted>
1.6514

> <Gold.Chemscore.Rot.Weighted>
3.1767

> <Gold.Chemscore.Internal.Correction.Weighted>
   9.000000E+99

> <Gold.Protein.RotatedTorsions>
[ 6907 6896 6895 6894 ] final   12.33 input  -60.11 | X-H torsion
[ 7974 7965 7964 7962 ] final -104.13 input  175.53 | X-H torsion
[ 8008 7997 7996 7995 ] final  179.47 input   59.86 | X-H torsion
[ 10167 10162 10161 10158 ] final  -54.80 input  -65.29 | X-H torsion
[ 10718 10713 10712 10709 ] final  126.56 input   66.30 | X-H torsion
[ 10763 10752 10751 10750 ] final  101.31 input  -60.55 | X-H torsion
[ 11005 11000 10999 10996 ] final  -80.75 input  -57.11 | X-H torsion

> <Gold.Protein.ActiveResidues>
 VAL166  LYS551  ARG553  GLY616  TRP617  ASP618  TYR619  PRO620  LYS621  CYS622 
 ASP623  PHE694  ASN695  SER759  ASP760  ASP761  ALA762  ILE779  LEU786  VAL792 
 PHE793  MET794  SER795  GLU796  ALA797  LYS798  CYS799  TRP800  GLU811  SER814 

> <Gold.Protein.RotatedAtoms>
  151.7686  135.0792  160.0356 H   0  0  0  0  0  0  0  0  0  0  0  0  # atno 6907 bound_to 6896
  152.3304  133.5947  159.5814 H   0  0  0  0  0  0  0  0  0  0  0  0  # atno 6908 bound_to 6896
  150.7419  133.9793  159.3613 H   0  0  0  0  0  0  0  0  0  0  0  0  # atno 6909 bound_to 6896
  145.2471  140.9225  143.3116 H   0  0  0  0  0  0  0  0  0  0  0  0  # atno 7974 bound_to 7965
  156.0431  140.1308  157.0134 H   0  0  0  0  0  0  0  0  0  0  0  0  # atno 8008 bound_to 7997
  154.4400  140.1026  156.6336 H   0  0  0  0  0  0  0  0  0  0  0  0  # atno 8009 bound_to 7997
  155.5637  140.3465  155.4500 H   0  0  0  0  0  0  0  0  0  0  0  0  # atno 8010 bound_to 7997
  140.6410  143.2508  151.4989 H   0  0  0  0  0  0  0  0  0  0  0  0  # atno 10167 bound_to 10162
  157.5408  131.1097  150.8861 H   0  0  0  0  0  0  0  0  0  0  0  0  # atno 10718 bound_to 10713
  153.3250  135.4049  155.1448 H   0  0  0  0  0  0  0  0  0  0  0  0  # atno 10763 bound_to 10752
  154.8610  135.3597  154.5545 H   0  0  0  0  0  0  0  0  0  0  0  0  # atno 10764 bound_to 10752
  153.5981  135.7072  153.5455 H   0  0  0  0  0  0  0  0  0  0  0  0  # atno 10765 bound_to 10752
  141.1667  133.7164  156.8319 H   0  0  0  0  0  0  0  0  0  0  0  0  # atno 11005 bound_to 11000
  144.9536  139.4055  143.6390 LP  0  0  0  0  0  0  0  0  0  0  0  0  # atno 17320 bound_to 7965
  146.3313  139.8556  142.8865 LP  0  0  0  0  0  0  0  0  0  0  0  0  # atno 17321 bound_to 7965
  139.5619  144.2135  152.1705 LP  0  0  0  0  0  0  0  0  0  0  0  0  # atno 17342 bound_to 10162
  140.1405  144.5206  150.6747 LP  0  0  0  0  0  0  0  0  0  0  0  0  # atno 17343 bound_to 10162
  156.9415  130.5386  149.5280 LP  0  0  0  0  0  0  0  0  0  0  0  0  # atno 17370 bound_to 10713
  156.0495  130.5567  150.8958 LP  0  0  0  0  0  0  0  0  0  0  0  0  # atno 17371 bound_to 10713
  140.2045  134.8873  157.3206 LP  0  0  0  0  0  0  0  0  0  0  0  0  # atno 17394 bound_to 11000
  140.2152  134.4090  155.7593 LP  0  0  0  0  0  0  0  0  0  0  0  0  # atno 17395 bound_to 11000

$$$$
