AV-unprocessed.smi:2718|AV-procd|sdf|10488|dock1
  -GOLD-   2272014533D 1   1.00000     0.00000
 Structure written by MMmdl.
 47 48  0  0  0  0  0  0  0  0  1 V2000
  149.5087  136.8274  156.2034 C   0  0  0  0  0  0  0  0  0  0  0  0
  149.5287  138.0497  155.3069 C   0  0  0  0  0  0  0  0  0  0  0  0
  150.7844  138.1982  154.4649 C   0  0  0  0  0  0  0  0  0  0  0  0
  148.4983  138.9164  155.2708 C   0  0  0  0  0  0  0  0  0  0  0  0
  148.3961  140.1335  154.4142 C   0  0  2  0  0  0  0  0  0  0  0  0
  149.2921  141.3551  154.5665 C   0  0  2  0  0  0  0  0  0  0  0  0
  150.3256  141.4262  155.6563 C   0  0  0  0  0  0  0  0  0  0  0  0
  151.0807  140.5038  155.9630 O   0  0  0  0  0  0  0  0  0  0  0  0
  150.3523  142.6145  156.2785 N   0  0  0  0  0  0  0  0  0  0  0  0
  151.2064  142.9747  157.4082 C   0  0  0  0  0  0  0  0  0  0  0  0
  151.2638  141.9039  158.5226 C   0  0  2  0  0  0  0  0  0  0  0  0
  149.9520  141.1118  158.6163 C   0  0  0  0  0  0  0  0  0  0  0  0
  151.6680  142.4626  159.8606 C   0  0  0  0  0  0  0  0  0  0  0  0
  150.9585  143.3850  160.5248 N   0  0  0  0  0  0  0  0  0  0  0  0
  151.6520  143.6190  161.6949 N   0  0  0  0  0  0  0  0  0  0  0  0
  152.7031  142.8035  161.6296 C   0  0  0  0  0  0  0  0  0  0  0  0
  152.7709  142.0517  160.5212 N   0  0  0  0  0  0  0  0  0  0  0  0
  153.7697  141.0660  160.1599 C   0  0  0  0  0  0  0  0  0  0  0  0
  147.8021  141.4518  154.8890 C   0  0  0  0  0  0  0  0  0  0  0  0
  146.9320  142.2496  153.9322 C   0  0  0  0  0  0  0  0  0  0  0  0
  147.2564  141.6265  156.3055 C   0  0  0  0  0  0  0  0  0  0  0  0
  149.5779  135.9195  155.6041 H   0  0  0  0  0  0  0  0  0  0  0  0
  148.5923  136.7757  156.7924 H   0  0  0  0  0  0  0  0  0  0  0  0
  150.3526  136.8475  156.8927 H   0  0  0  0  0  0  0  0  0  0  0  0
  151.6694  138.1567  155.0989 H   0  0  0  0  0  0  0  0  0  0  0  0
  150.8155  139.1408  153.9193 H   0  0  0  0  0  0  0  0  0  0  0  0
  150.8491  137.3848  153.7420 H   0  0  0  0  0  0  0  0  0  0  0  0
  147.6527  138.7184  155.9116 H   0  0  0  0  0  0  0  0  0  0  0  0
  148.1657  139.8532  153.3880 H   0  0  0  0  0  0  0  0  0  0  0  0
  149.6009  141.8164  153.6292 H   0  0  0  0  0  0  0  0  0  0  0  0
  149.7097  143.3243  155.9579 H   0  0  0  0  0  0  0  0  0  0  0  0
  152.2072  143.1279  157.0041 H   0  0  0  0  0  0  0  0  0  0  0  0
  150.8916  143.9359  157.8177 H   0  0  0  0  0  0  0  0  0  0  0  0
  152.0245  141.1867  158.2173 H   0  0  0  0  0  0  0  0  0  0  0  0
  150.0357  140.3016  159.3415 H   0  0  0  0  0  0  0  0  0  0  0  0
  149.6914  140.6688  157.6548 H   0  0  0  0  0  0  0  0  0  0  0  0
  149.1235  141.7501  158.9244 H   0  0  0  0  0  0  0  0  0  0  0  0
  153.4420  142.7505  162.4158 H   0  0  0  0  0  0  0  0  0  0  0  0
  154.5048  140.9654  160.9588 H   0  0  0  0  0  0  0  0  0  0  0  0
  154.2782  141.3753  159.2467 H   0  0  0  0  0  0  0  0  0  0  0  0
  153.2918  140.1000  159.9965 H   0  0  0  0  0  0  0  0  0  0  0  0
  146.9459  143.3071  154.1978 H   0  0  0  0  0  0  0  0  0  0  0  0
  145.9016  141.8942  153.9666 H   0  0  0  0  0  0  0  0  0  0  0  0
  147.2901  142.1507  152.9069 H   0  0  0  0  0  0  0  0  0  0  0  0
  147.3820  142.6598  156.6302 H   0  0  0  0  0  0  0  0  0  0  0  0
  147.7478  140.9833  157.0316 H   0  0  0  0  0  0  0  0  0  0  0  0
  146.1929  141.3868  156.3315 H   0  0  0  0  0  0  0  0  0  0  0  0
  1  2  1  0  0  0  0
  1 22  1  0  0  0  0
  1 23  1  0  0  0  0
  1 24  1  0  0  0  0
  2  3  1  0  0  0  0
  2  4  2  0  0  0  0
  3 25  1  0  0  0  0
  3 26  1  0  0  0  0
  3 27  1  0  0  0  0
  4  5  1  0  0  0  0
  4 28  1  0  0  0  0
  5 19  1  0  0  0  0
  5  6  1  0  0  0  0
  5 29  1  0  0  0  0
  6  7  1  0  0  0  0
  6 19  1  0  0  0  0
  6 30  1  0  0  0  0
  7  8  2  0  0  0  0
  7  9  1  0  0  0  0
  9 10  1  0  0  0  0
  9 31  1  0  0  0  0
 10 11  1  0  0  0  0
 10 32  1  0  0  0  0
 10 33  1  0  0  0  0
 11 12  1  0  0  0  0
 11 13  1  0  0  0  0
 11 34  1  0  0  0  0
 12 35  1  0  0  0  0
 12 36  1  0  0  0  0
 12 37  1  0  0  0  0
 13 17  1  0  0  0  0
 13 14  2  0  0  0  0
 14 15  1  0  0  0  0
 15 16  2  0  0  0  0
 16 17  1  0  0  0  0
 16 38  1  0  0  0  0
 17 18  1  0  0  0  0
 18 39  1  0  0  0  0
 18 40  1  0  0  0  0
 18 41  1  0  0  0  0
 19 20  1  0  0  0  0
 19 21  1  0  0  0  0
 20 42  1  0  0  0  0
 20 43  1  0  0  0  0
 20 44  1  0  0  0  0
 21 45  1  0  0  0  0
 21 46  1  0  0  0  0
 21 47  1  0  0  0  0
M  END
> <s_m_source_file>
AV-unprocessed.smi

> <i_m_source_file_index>
2718

> <i_lp_mmshare_version>
43012

> <i_f3d_flags>
0

> <s_epik_input>
W0NIM11DKFtDSDNdKT1bQ0hdW0NAQEhdKEMxKFtDSDNdKVtDSDNdKVtDQEhdMUMoPU8pW05IXVtDSDJdW0NASF0oW0NIM10pYzJubltjSF1uMltDSDNd

> <s_epik_cmdline>
J2VwaWtfcHl0aG9uJywgJy1waCcsICc3LjAnLCAnLXRuJywgJzgnLCAnLW1hJywgJzIwMCcsICctbWV0YWxfYmluZGluZycsICctaW1hZScsICc8aW5maWxlLm1hZT4nLCAnLW9tYWUnLCAnPG91dGZpbGUubWFlPic=

> <r_lp_tautomer_probability>
1

> <r_epik_Ionization_Penalty>
0.000449586

> <r_epik_Ionization_Penalty_Charging>
0

> <r_epik_Ionization_Penalty_Neutral>
0.000449586

> <r_epik_State_Penalty>
0.000243372

> <r_epik_Charging_Adjusted_Penalty>
0.000243372

> <i_epik_Tot_Q>
0

> <i_epik_Tot_abs_Q>
0

> <r_epik_Metal_State_Penalty>
-0

> <b_epik_Metal_Only>
0

> <s_lp_Force_Field>
OPLS_2005

> <r_lp_Energy>
15.3261

> <b_lp_Chiralities_Consistent>
1

> <s_lp_Variant>
AV-unprocessed.smi:2718-3

> <Gold.Version>
5.8.1

> <Gold.Id.Protein>
6NUR|6NUR_protein|mol2

> <Gold.PLP.Fitness>
44.7800

> <Gold.PLP.PLP>
-42.8619

> <Gold.PLP.part.hbond>
-2.6985

> <Gold.PLP.part.metal>
0.0000

> <Gold.PLP.part.buried>
-6.4735

> <Gold.PLP.part.nonpolar>
-33.1282

> <Gold.PLP.part.repulsive>
0.3478

> <Gold.PLP.ligand.clash>
0.0000

> <Gold.PLP.ligand.torsion>
0.8159

> <Gold.PLP.Chemscore.Hbond>
1.0477

> <Gold.PLP.Chemscore.CHOScore>
0.0000

> <Gold.PLP.Chemscore.Metal>
0.0000

> <Gold.Chemscore.Hbonds>
donor molecule, donor type, donor heavy atom, donor atom, acceptor molecule, acceptor atom, score
      L1  H     9    31       P1  8028  1.00

> <Gold.PLP.Chemscore.Internal.Correction>
0.4068

> <Gold.Rescore>
     Score         DG    S(hbond)    S(metal)    S(lipo)     H(rot)  DE(clash)    DE(int)     intcor
     12.03     -13.03       0.99        0.00      78.84       1.95       0.07       0.92       ----

> <Gold.Chemscore.Fitness>
12.0346

> <Gold.Chemscore.DG>
-13.0264

> <Gold.Chemscore.ZeroCoef>
-5.4800

> <Gold.Chemscore.Hbond>
0.9947

> <Gold.Chemscore.Metal>
0.0000

> <Gold.Chemscore.Lipo>
78.8429

> <Gold.Chemscore.Internal_Hbond>
0.0000

> <Gold.Chemscore.DEClash>
0.0724

> <Gold.Chemscore.DEInternal>
0.9194

> <Gold.Chemscore.Rot>
1.9533

> <Gold.Chemscore.Internal.Correction>
   9.000000E+99

> <Gold.Chemscore.Hbonds>
donor molecule, donor type, donor heavy atom, donor atom, acceptor molecule, acceptor atom, score
      L1  H     9    31       P1  8028  1.00

> <Gold.Chemscore.Hbond.Weighted>
-3.3224

> <Gold.Chemscore.Metal.Weighted>
-0.0000

> <Gold.Chemscore.Lipo.Weighted>
-9.2246

> <Gold.Chemscore.Internal_Hbond.Weighted>
0.0000

> <Gold.Chemscore.DEClash.Weighted>
0.0724

> <Gold.Chemscore.DEInternal.Weighted>
0.9194

> <Gold.Chemscore.Rot.Weighted>
5.0005

> <Gold.Chemscore.Internal.Correction.Weighted>
   9.000000E+99

> <Gold.Protein.RotatedTorsions>
[ 6907 6896 6895 6894 ] final   38.93 input  -60.11 | X-H torsion
[ 7974 7965 7964 7962 ] final  102.45 input  175.53 | X-H torsion
[ 8008 7997 7996 7995 ] final  -34.04 input   59.86 | X-H torsion
[ 10167 10162 10161 10158 ] final  163.63 input  -65.29 | X-H torsion
[ 10718 10713 10712 10709 ] final -123.39 input   66.30 | X-H torsion
[ 10763 10752 10751 10750 ] final    7.04 input  -60.55 | X-H torsion
[ 11005 11000 10999 10996 ] final   -9.89 input  -57.11 | X-H torsion

> <Gold.Protein.ActiveResidues>
 VAL166  LYS551  ARG553  GLY616  TRP617  ASP618  TYR619  PRO620  LYS621  CYS622 
 ASP623  PHE694  ASN695  SER759  ASP760  ASP761  ALA762  ILE779  LEU786  VAL792 
 PHE793  MET794  SER795  GLU796  ALA797  LYS798  CYS799  TRP800  GLU811  SER814 

> <Gold.Protein.RotatedAtoms>
  152.1629  134.8897  160.0540 H   0  0  0  0  0  0  0  0  0  0  0  0  # atno 6907 bound_to 6896
  151.9886  133.3778  159.4144 H   0  0  0  0  0  0  0  0  0  0  0  0  # atno 6908 bound_to 6896
  150.6890  134.3883  159.5109 H   0  0  0  0  0  0  0  0  0  0  0  0  # atno 6909 bound_to 6896
  145.3590  139.2422  143.3517 H   0  0  0  0  0  0  0  0  0  0  0  0  # atno 7974 bound_to 7965
  154.4132  140.1694  156.1985 H   0  0  0  0  0  0  0  0  0  0  0  0  # atno 8008 bound_to 7997
  155.9544  140.3398  155.6412 H   0  0  0  0  0  0  0  0  0  0  0  0  # atno 8009 bound_to 7997
  155.6829  140.0725  157.2468 H   0  0  0  0  0  0  0  0  0  0  0  0  # atno 8010 bound_to 7997
  139.4876  144.4318  151.9061 H   0  0  0  0  0  0  0  0  0  0  0  0  # atno 10167 bound_to 10162
  156.1498  130.6526  150.9896 H   0  0  0  0  0  0  0  0  0  0  0  0  # atno 10718 bound_to 10713
  153.2409  135.6903  153.7784 H   0  0  0  0  0  0  0  0  0  0  0  0  # atno 10763 bound_to 10752
  153.6915  135.3312  155.3204 H   0  0  0  0  0  0  0  0  0  0  0  0  # atno 10764 bound_to 10752
  154.8355  135.4546  154.1330 H   0  0  0  0  0  0  0  0  0  0  0  0  # atno 10765 bound_to 10752
  140.7389  133.8687  155.8952 H   0  0  0  0  0  0  0  0  0  0  0  0  # atno 11005 bound_to 11000
  146.2935  140.4220  142.8730 LP  0  0  0  0  0  0  0  0  0  0  0  0  # atno 17320 bound_to 7965
  144.8661  140.7207  143.6077 LP  0  0  0  0  0  0  0  0  0  0  0  0  # atno 17321 bound_to 7965
  140.3766  144.2789  150.5913 LP  0  0  0  0  0  0  0  0  0  0  0  0  # atno 17342 bound_to 10162
  140.5271  143.2252  151.8297 LP  0  0  0  0  0  0  0  0  0  0  0  0  # atno 17343 bound_to 10162
  157.6647  131.0874  150.7756 LP  0  0  0  0  0  0  0  0  0  0  0  0  # atno 17370 bound_to 10713
  156.7825  130.4864  149.5398 LP  0  0  0  0  0  0  0  0  0  0  0  0  # atno 17371 bound_to 10713
  140.9854  134.1349  157.4456 LP  0  0  0  0  0  0  0  0  0  0  0  0  # atno 17394 bound_to 11000
  139.8810  135.0024  156.6123 LP  0  0  0  0  0  0  0  0  0  0  0  0  # atno 17395 bound_to 11000

$$$$
