AV-unprocessed.smi:55|AV-procd|sdf|561|dock10
  -GOLD-   2262016463D 1   1.00000     0.00000
 Structure written by MMmdl.
 31 32  0  0  0  0  0  0  0  0  1 V2000
  152.4665  141.5051  158.9852 C   0  0  0  0  0  0  0  0  0  0  0  0
  151.6597  141.4514  157.6985 C   0  0  0  0  0  0  0  0  0  0  0  0
  151.6963  140.3840  156.8609 C   0  0  0  0  0  0  0  0  0  0  0  0
  150.9742  140.3043  155.6788 N   0  0  0  0  0  0  0  0  0  0  0  0
  151.0938  139.0856  154.7918 C   0  0  2  0  0  0  0  0  0  0  0  0
  149.7148  138.5702  154.3643 C   0  0  0  0  0  0  0  0  0  0  0  0
  149.5948  137.2698  155.1388 C   0  0  1  0  0  0  0  0  0  0  0  0
  148.8342  136.3199  154.4203 O   0  0  0  0  0  0  0  0  0  0  0  0
  151.0553  136.8418  155.3068 C   0  0  2  0  0  0  0  0  0  0  0  0
  151.2870  135.9096  156.5057 C   0  0  0  0  0  0  0  0  0  0  0  0
  152.6706  135.7407  156.7276 O   0  0  0  0  0  0  0  0  0  0  0  0
  151.7277  138.0785  155.5195 O   0  0  0  0  0  0  0  0  0  0  0  0
  150.1556  141.3884  155.2956 C   0  0  0  0  0  0  0  0  0  0  0  0
  149.4842  141.3975  154.2645 O   0  0  0  0  0  0  0  0  0  0  0  0
  150.1174  142.4850  156.1555 N   0  0  0  0  0  0  0  0  0  0  0  0
  150.8204  142.6030  157.3570 C   0  0  0  0  0  0  0  0  0  0  0  0
  150.7014  143.6237  158.0328 O   0  0  0  0  0  0  0  0  0  0  0  0
  151.7232  139.3413  153.9389 H   0  0  0  0  0  0  0  0  0  0  0  0
  149.1322  137.4529  156.1092 H   0  0  0  0  0  0  0  0  0  0  0  0
  151.4169  136.3949  154.3783 H   0  0  0  0  0  0  0  0  0  0  0  0
  149.5309  143.2614  155.8863 H   0  0  0  0  0  0  0  0  0  0  0  0
  153.0434  140.5929  159.1393 H   0  0  0  0  0  0  0  0  0  0  0  0
  151.8070  141.6319  159.8443 H   0  0  0  0  0  0  0  0  0  0  0  0
  153.1646  142.3426  158.9618 H   0  0  0  0  0  0  0  0  0  0  0  0
  152.3283  139.5504  157.1282 H   0  0  0  0  0  0  0  0  0  0  0  0
  148.9187  139.2832  154.5826 H   0  0  0  0  0  0  0  0  0  0  0  0
  149.7386  138.3919  153.2880 H   0  0  0  0  0  0  0  0  0  0  0  0
  148.8090  136.5782  153.5115 H   0  0  0  0  0  0  0  0  0  0  0  0
  150.8000  136.2902  157.4042 H   0  0  0  0  0  0  0  0  0  0  0  0
  150.8670  134.9242  156.3020 H   0  0  0  0  0  0  0  0  0  0  0  0
  152.8868  136.1077  157.5712 H   0  0  0  0  0  0  0  0  0  0  0  0
  1  2  1  0  0  0  0
  1 22  1  0  0  0  0
  1 23  1  0  0  0  0
  1 24  1  0  0  0  0
  2 16  1  0  0  0  0
  2  3  2  0  0  0  0
  3  4  1  0  0  0  0
  3 25  1  0  0  0  0
  4  5  1  0  0  0  0
  4 13  1  0  0  0  0
  5 18  1  0  0  0  0
  5 12  1  0  0  0  0
  5  6  1  0  0  0  0
  6  7  1  0  0  0  0
  6 26  1  0  0  0  0
  6 27  1  0  0  0  0
  7 19  1  0  0  0  0
  7  8  1  0  0  0  0
  7  9  1  0  0  0  0
  8 28  1  0  0  0  0
  9 20  1  0  0  0  0
  9 10  1  0  0  0  0
  9 12  1  0  0  0  0
 10 11  1  0  0  0  0
 10 29  1  0  0  0  0
 10 30  1  0  0  0  0
 11 31  1  0  0  0  0
 13 14  2  0  0  0  0
 13 15  1  0  0  0  0
 15 21  1  0  0  0  0
 15 16  1  0  0  0  0
 16 17  2  0  0  0  0
M  END
> <s_m_source_file>
AV-unprocessed.smi

> <i_m_source_file_index>
55

> <i_lp_mmshare_version>
43012

> <i_f3d_flags>
0

> <s_epik_input>
Tz1jMVtuSF1jKD1PKW4oW2NIXWMxW0NIM10pW0NAQEhdMltDSDJdW0NAQEhdKFtPSF0pW0NAQEhdKE8yKVtDSDJdW09IXQ==

> <s_epik_cmdline>
J2VwaWtfcHl0aG9uJywgJy1waCcsICc3LjAnLCAnLXRuJywgJzgnLCAnLW1hJywgJzIwMCcsICctbWV0YWxfYmluZGluZycsICctaW1hZScsICc8aW5maWxlLm1hZT4nLCAnLW9tYWUnLCAnPG91dGZpbGUubWFlPic=

> <r_lp_tautomer_probability>
0.999537

> <r_epik_Ionization_Penalty>
0.00121888

> <r_epik_Ionization_Penalty_Charging>
0.00121876

> <r_epik_Ionization_Penalty_Neutral>
1.19946e-07

> <r_epik_State_Penalty>
0.000805124

> <r_epik_Charging_Adjusted_Penalty>
0.00202389

> <i_epik_Tot_Q>
0

> <i_epik_Tot_abs_Q>
0

> <r_epik_Metal_State_Penalty>
0.662472

> <b_epik_Metal_Only>
0

> <s_epik_Chemistry_Notes>
This compound contains an acetal/aminal-like group ( X-CH(R)-Y where X, Y are N, S, or O) that may be acid/base labile, releasing an aldehyde.

> <s_lp_Force_Field>
OPLS_2005

> <r_lp_Energy>
24.9707

> <b_lp_Chiralities_Consistent>
1

> <s_lp_Variant>
AV-unprocessed.smi:55-1

> <Gold.Version>
5.8.1

> <Gold.Id.Protein>
6NUR|6NUR_protein|mol2

> <Gold.PLP.Fitness>
38.0882

> <Gold.PLP.PLP>
-28.4838

> <Gold.PLP.part.hbond>
-5.0000

> <Gold.PLP.part.metal>
0.0000

> <Gold.PLP.part.buried>
-2.6646

> <Gold.PLP.part.nonpolar>
-20.5077

> <Gold.PLP.part.repulsive>
0.4795

> <Gold.PLP.ligand.clash>
0.0000

> <Gold.PLP.ligand.torsion>
0.2957

> <Gold.PLP.Chemscore.Hbond>
3.3944

> <Gold.PLP.Chemscore.CHOScore>
0.0000

> <Gold.PLP.Chemscore.Metal>
0.0000

> <Gold.Chemscore.Hbonds>
donor molecule, donor type, donor heavy atom, donor atom, acceptor molecule, acceptor atom, score
      L1  H     8    28       P1  7948  1.00
      L1  H    15    21       P1  8028  1.00
      P1  H  8011  8017       L1    14  0.37
      P1  H 10752 10763       L1    11  1.00

> <Gold.PLP.Chemscore.Internal.Correction>
0.0127

> <Gold.Rescore>
     Score         DG    S(hbond)    S(metal)    S(lipo)     H(rot)  DE(clash)    DE(int)     intcor
     12.75     -14.51       3.33        0.00      41.76       2.73       0.14       1.63       ----

> <Gold.Chemscore.Fitness>
12.7450

> <Gold.Chemscore.DG>
-14.5081

> <Gold.Chemscore.ZeroCoef>
-5.4800

> <Gold.Chemscore.Hbond>
3.3290

> <Gold.Chemscore.Metal>
0.0000

> <Gold.Chemscore.Lipo>
41.7624

> <Gold.Chemscore.Internal_Hbond>
0.0000

> <Gold.Chemscore.DEClash>
0.1362

> <Gold.Chemscore.DEInternal>
1.6269

> <Gold.Chemscore.Rot>
2.7253

> <Gold.Chemscore.Internal.Correction>
   9.000000E+99

> <Gold.Chemscore.Hbonds>
donor molecule, donor type, donor heavy atom, donor atom, acceptor molecule, acceptor atom, score
      L1  H     8    28       P1  7948  0.95
      L1  H    15    21       P1  8028  0.99
      P1  H  8011  8017       L1    14  0.37
      P1  H 10752 10763       L1    11  0.94

> <Gold.Chemscore.Hbond.Weighted>
-11.1188

> <Gold.Chemscore.Metal.Weighted>
-0.0000

> <Gold.Chemscore.Lipo.Weighted>
-4.8862

> <Gold.Chemscore.Internal_Hbond.Weighted>
0.0000

> <Gold.Chemscore.DEClash.Weighted>
0.1362

> <Gold.Chemscore.DEInternal.Weighted>
1.6269

> <Gold.Chemscore.Rot.Weighted>
6.9769

> <Gold.Chemscore.Internal.Correction.Weighted>
   9.000000E+99

> <Gold.Protein.RotatedTorsions>
[ 6907 6896 6895 6894 ] final  -78.73 input  -60.11 | X-H torsion
[ 7974 7965 7964 7962 ] final   72.78 input  175.53 | X-H torsion
[ 8008 7997 7996 7995 ] final -160.63 input   59.86 | X-H torsion
[ 10167 10162 10161 10158 ] final   -4.12 input  -65.29 | X-H torsion
[ 10718 10713 10712 10709 ] final  102.47 input   66.30 | X-H torsion
[ 10763 10752 10751 10750 ] final  124.80 input  -60.55 | X-H torsion
[ 11005 11000 10999 10996 ] final  156.89 input  -57.11 | X-H torsion

> <Gold.Protein.ActiveResidues>
 VAL166  LYS551  ARG553  GLY616  TRP617  ASP618  TYR619  PRO620  LYS621  CYS622 
 ASP623  PHE694  ASN695  SER759  ASP760  ASP761  ALA762  ILE779  LEU786  VAL792 
 PHE793  MET794  SER795  GLU796  ALA797  LYS798  CYS799  TRP800  GLU811  SER814 

> <Gold.Protein.RotatedAtoms>
  150.6966  134.4228  159.5212 H   0  0  0  0  0  0  0  0  0  0  0  0  # atno 6907 bound_to 6896
  152.1968  134.8620  160.0521 H   0  0  0  0  0  0  0  0  0  0  0  0  # atno 6908 bound_to 6896
  151.9555  133.3644  159.4053 H   0  0  0  0  0  0  0  0  0  0  0  0  # atno 6909 bound_to 6896
  145.7491  139.2752  143.1441 H   0  0  0  0  0  0  0  0  0  0  0  0  # atno 7974 bound_to 7965
  155.7802  140.0864  157.2063 H   0  0  0  0  0  0  0  0  0  0  0  0  # atno 8008 bound_to 7997
  154.3990  140.1509  156.3101 H   0  0  0  0  0  0  0  0  0  0  0  0  # atno 8009 bound_to 7997
  155.8661  140.3428  155.5791 H   0  0  0  0  0  0  0  0  0  0  0  0  # atno 8010 bound_to 7997
  140.6916  143.6460  150.8392 H   0  0  0  0  0  0  0  0  0  0  0  0  # atno 10167 bound_to 10162
  157.6801  131.0754  150.5409 H   0  0  0  0  0  0  0  0  0  0  0  0  # atno 10718 bound_to 10713
  153.6671  135.3336  155.3143 H   0  0  0  0  0  0  0  0  0  0  0  0  # atno 10763 bound_to 10752
  154.8500  135.4377  154.1743 H   0  0  0  0  0  0  0  0  0  0  0  0  # atno 10764 bound_to 10752
  153.2725  135.7001  153.7542 H   0  0  0  0  0  0  0  0  0  0  0  0  # atno 10765 bound_to 10752
  140.1718  134.8538  157.2699 H   0  0  0  0  0  0  0  0  0  0  0  0  # atno 11005 bound_to 11000
  146.0374  140.8199  142.9846 LP  0  0  0  0  0  0  0  0  0  0  0  0  # atno 17320 bound_to 7965
  144.6853  140.2859  143.7285 LP  0  0  0  0  0  0  0  0  0  0  0  0  # atno 17321 bound_to 7965
  140.0174  143.5578  152.2814 LP  0  0  0  0  0  0  0  0  0  0  0  0  # atno 17342 bound_to 10162
  139.6324  144.7646  151.2508 LP  0  0  0  0  0  0  0  0  0  0  0  0  # atno 17343 bound_to 10162
  156.5716  130.4281  149.6017 LP  0  0  0  0  0  0  0  0  0  0  0  0  # atno 17370 bound_to 10713
  156.2736  130.7031  151.1835 LP  0  0  0  0  0  0  0  0  0  0  0  0  # atno 17371 bound_to 10713
  140.2368  134.3843  155.7497 LP  0  0  0  0  0  0  0  0  0  0  0  0  # atno 17394 bound_to 11000
  141.2218  133.7244  156.8727 LP  0  0  0  0  0  0  0  0  0  0  0  0  # atno 17395 bound_to 11000

$$$$
