AV-unprocessed.smi:2881|AV-procd|sdf|11062|dock2
  -GOLD-   2272015533D 1   1.00000     0.00000
 Structure written by MMmdl.
 40 42  0  0  0  0  0  0  0  0  1 V2000
  153.5349  142.9411  162.5977 C   0  0  0  0  0  0  0  0  0  0  0  0
  152.6064  143.3561  161.5075 C   0  0  0  0  0  0  0  0  0  0  0  0
  152.6420  143.1422  160.1586 C   0  0  0  0  0  0  0  0  0  0  0  0
  151.4681  143.7864  159.6671 C   0  0  0  0  0  0  0  0  0  0  0  0
  150.9846  143.8675  158.2442 C   0  0  0  0  0  0  0  0  0  0  0  0
  150.3731  142.5314  157.8225 C   0  0  0  0  0  0  0  0  0  0  0  0
  150.5134  141.5372  158.5344 O   0  0  0  0  0  0  0  0  0  0  0  0
  149.6960  142.5228  156.6640 N   0  0  0  0  0  0  0  0  0  0  0  0
  149.0219  141.3601  156.0929 C   0  0  1  0  0  0  0  0  0  0  0  0
  147.5172  141.6486  155.8970 C   0  0  2  0  0  0  0  0  0  0  0  0
  146.7804  140.3128  155.6922 C   0  0  0  0  0  0  0  0  0  0  0  0
  147.2191  139.9053  154.2733 C   0  0  0  0  0  0  0  0  0  0  0  0
  148.1628  141.0548  153.8581 C   0  0  1  0  0  0  0  0  0  0  0  0
  147.4627  142.2487  154.4948 C   0  0  0  0  0  0  0  0  0  0  0  0
  149.4931  141.0338  154.6521 C   0  0  2  0  0  0  0  0  0  0  0  0
  150.3306  139.7444  154.5417 C   0  0  0  0  0  0  0  0  0  0  0  0
  151.6335  139.9573  155.0420 O   0  0  0  0  0  0  0  0  0  0  0  0
  150.7656  144.3607  160.6343 N   0  0  0  0  0  0  0  0  0  0  0  0
  151.4680  144.0897  161.7498 N   0  0  0  0  0  0  0  0  0  0  0  0
  151.1627  144.4074  162.6588 H   0  0  0  0  0  0  0  0  0  0  0  0
  154.2662  142.2196  162.2327 H   0  0  0  0  0  0  0  0  0  0  0  0
  152.9882  142.4782  163.4194 H   0  0  0  0  0  0  0  0  0  0  0  0
  154.0770  143.8006  162.9921 H   0  0  0  0  0  0  0  0  0  0  0  0
  153.3924  142.6005  159.6019 H   0  0  0  0  0  0  0  0  0  0  0  0
  150.2468  144.6623  158.1233 H   0  0  0  0  0  0  0  0  0  0  0  0
  151.8126  144.1109  157.5775 H   0  0  0  0  0  0  0  0  0  0  0  0
  149.6292  143.3884  156.1481 H   0  0  0  0  0  0  0  0  0  0  0  0
  149.1542  140.5099  156.7650 H   0  0  0  0  0  0  0  0  0  0  0  0
  147.0763  142.2652  156.6815 H   0  0  0  0  0  0  0  0  0  0  0  0
  147.0484  139.5682  156.4425 H   0  0  0  0  0  0  0  0  0  0  0  0
  145.6996  140.4534  155.7325 H   0  0  0  0  0  0  0  0  0  0  0  0
  147.6897  138.9238  154.2407 H   0  0  0  0  0  0  0  0  0  0  0  0
  146.3540  139.8675  153.6099 H   0  0  0  0  0  0  0  0  0  0  0  0
  148.3018  141.1356  152.7797 H   0  0  0  0  0  0  0  0  0  0  0  0
  146.4458  142.4023  154.1287 H   0  0  0  0  0  0  0  0  0  0  0  0
  148.0200  143.1823  154.3988 H   0  0  0  0  0  0  0  0  0  0  0  0
  150.1077  141.8565  154.2805 H   0  0  0  0  0  0  0  0  0  0  0  0
  149.8677  138.9507  155.1277 H   0  0  0  0  0  0  0  0  0  0  0  0
  150.3867  139.3791  153.5169 H   0  0  0  0  0  0  0  0  0  0  0  0
  152.0954  139.1328  155.0362 H   0  0  0  0  0  0  0  0  0  0  0  0
  1  2  1  0  0  0  0
  1 21  1  0  0  0  0
  1 22  1  0  0  0  0
  1 23  1  0  0  0  0
  2 19  1  0  0  0  0
  2  3  2  0  0  0  0
  3  4  1  0  0  0  0
  3 24  1  0  0  0  0
  4  5  1  0  0  0  0
  4 18  2  0  0  0  0
  5  6  1  0  0  0  0
  5 25  1  0  0  0  0
  5 26  1  0  0  0  0
  6  7  2  0  0  0  0
  6  8  1  0  0  0  0
  8  9  1  0  0  0  0
  8 27  1  0  0  0  0
  9 15  1  0  0  0  0
  9 10  1  0  0  0  0
  9 28  1  0  0  0  0
 10 14  1  0  0  0  0
 10 11  1  0  0  0  0
 10 29  1  0  0  0  0
 11 12  1  0  0  0  0
 11 30  1  0  0  0  0
 11 31  1  0  0  0  0
 12 13  1  0  0  0  0
 12 32  1  0  0  0  0
 12 33  1  0  0  0  0
 13 14  1  0  0  0  0
 13 15  1  0  0  0  0
 13 34  1  0  0  0  0
 14 35  1  0  0  0  0
 14 36  1  0  0  0  0
 15 16  1  0  0  0  0
 15 37  1  0  0  0  0
 16 17  1  0  0  0  0
 16 38  1  0  0  0  0
 16 39  1  0  0  0  0
 17 40  1  0  0  0  0
 18 19  1  0  0  0  0
 19 20  1  0  0  0  0
M  END
> <s_m_source_file>
AV-unprocessed.smi

> <i_m_source_file_index>
2881

> <i_lp_mmshare_version>
43012

> <i_f3d_flags>
0

> <s_epik_input>
W0NIM11jMVtjSF1jKG5bbkhdMSlbQ0gyXUMoPU8pW05IXVtDQEhdKFtDQEBIXTIzKVtDQEhdKFtDSDJdW09IXSlbQ0BASF0oW0NIMl0zKVtDSDJdW0NIMl0y

> <s_epik_cmdline>
J2VwaWtfcHl0aG9uJywgJy1waCcsICc3LjAnLCAnLXRuJywgJzgnLCAnLW1hJywgJzIwMCcsICctbWV0YWxfYmluZGluZycsICctaW1hZScsICc8aW5maWxlLm1hZT4nLCAnLW9tYWUnLCAnPG91dGZpbGUubWFlPic=

> <r_lp_tautomer_probability>
0.5

> <r_epik_Ionization_Penalty>
9.4349e-05

> <r_epik_Ionization_Penalty_Charging>
0

> <r_epik_Ionization_Penalty_Neutral>
9.4349e-05

> <r_epik_State_Penalty>
0.41068

> <r_epik_Charging_Adjusted_Penalty>
0.41068

> <i_epik_Tot_Q>
0

> <i_epik_Tot_abs_Q>
0

> <r_epik_Metal_State_Penalty>
0.4107

> <b_epik_Metal_Only>
0

> <s_lp_Force_Field>
OPLS_2005

> <r_lp_Energy>
47.6032

> <b_lp_Chiralities_Consistent>
1

> <s_lp_Variant>
AV-unprocessed.smi:2881-8

> <Gold.Version>
5.8.1

> <Gold.Id.Protein>
6NUR|6NUR_protein|mol2

> <Gold.PLP.Fitness>
42.9138

> <Gold.PLP.PLP>
-40.7526

> <Gold.PLP.part.hbond>
-4.0000

> <Gold.PLP.part.metal>
0.0000

> <Gold.PLP.part.buried>
-3.2940

> <Gold.PLP.part.nonpolar>
-32.6626

> <Gold.PLP.part.repulsive>
0.3153

> <Gold.PLP.ligand.clash>
0.0000

> <Gold.PLP.ligand.torsion>
0.4258

> <Gold.PLP.Chemscore.Hbond>
0.9920

> <Gold.PLP.Chemscore.CHOScore>
0.0000

> <Gold.PLP.Chemscore.Metal>
0.0000

> <Gold.Chemscore.Hbonds>
donor molecule, donor type, donor heavy atom, donor atom, acceptor molecule, acceptor atom, score
      L1  H     8    27       P1  8028  1.00

> <Gold.PLP.Chemscore.Internal.Correction>
0.0367

> <Gold.Rescore>
     Score         DG    S(hbond)    S(metal)    S(lipo)     H(rot)  DE(clash)    DE(int)     intcor
     13.78     -14.58       0.85        0.00     103.22       2.28       0.28       0.52       ----

> <Gold.Chemscore.Fitness>
13.7760

> <Gold.Chemscore.DG>
-14.5779

> <Gold.Chemscore.ZeroCoef>
-5.4800

> <Gold.Chemscore.Hbond>
0.8521

> <Gold.Chemscore.Metal>
0.0000

> <Gold.Chemscore.Lipo>
103.2240

> <Gold.Chemscore.Internal_Hbond>
0.0000

> <Gold.Chemscore.DEClash>
0.2819

> <Gold.Chemscore.DEInternal>
0.5201

> <Gold.Chemscore.Rot>
2.2755

> <Gold.Chemscore.Internal.Correction>
   9.000000E+99

> <Gold.Chemscore.Hbonds>
donor molecule, donor type, donor heavy atom, donor atom, acceptor molecule, acceptor atom, score
      L1  H     8    27       P1  8028  0.96

> <Gold.Chemscore.Hbond.Weighted>
-2.8459

> <Gold.Chemscore.Metal.Weighted>
-0.0000

> <Gold.Chemscore.Lipo.Weighted>
-12.0772

> <Gold.Chemscore.Internal_Hbond.Weighted>
0.0000

> <Gold.Chemscore.DEClash.Weighted>
0.2819

> <Gold.Chemscore.DEInternal.Weighted>
0.5201

> <Gold.Chemscore.Rot.Weighted>
5.8252

> <Gold.Chemscore.Internal.Correction.Weighted>
   9.000000E+99

> <Gold.Protein.RotatedTorsions>
[ 6907 6896 6895 6894 ] final  127.78 input  -60.11 | X-H torsion
[ 7974 7965 7964 7962 ] final   77.85 input  175.53 | X-H torsion
[ 8008 7997 7996 7995 ] final -123.51 input   59.86 | X-H torsion
[ 10167 10162 10161 10158 ] final -102.31 input  -65.29 | X-H torsion
[ 10718 10713 10712 10709 ] final  -18.02 input   66.30 | X-H torsion
[ 10763 10752 10751 10750 ] final  138.16 input  -60.55 | X-H torsion
[ 11005 11000 10999 10996 ] final  164.55 input  -57.11 | X-H torsion

> <Gold.Protein.ActiveResidues>
 VAL166  LYS551  ARG553  GLY616  TRP617  ASP618  TYR619  PRO620  LYS621  CYS622 
 ASP623  PHE694  ASN695  SER759  ASP760  ASP761  ALA762  ILE779  LEU786  VAL792 
 PHE793  MET794  SER795  GLU796  ALA797  LYS798  CYS799  TRP800  GLU811  SER814 

> <Gold.Protein.RotatedAtoms>
  152.3781  133.6509  159.6139 H   0  0  0  0  0  0  0  0  0  0  0  0  # atno 6907 bound_to 6896
  150.7720  133.9159  159.3392 H   0  0  0  0  0  0  0  0  0  0  0  0  # atno 6908 bound_to 6896
  151.6970  135.0938  160.0295 H   0  0  0  0  0  0  0  0  0  0  0  0  # atno 6909 bound_to 6896
  145.6847  139.2534  143.1794 H   0  0  0  0  0  0  0  0  0  0  0  0  # atno 7974 bound_to 7965
  155.1818  140.0411  157.2883 H   0  0  0  0  0  0  0  0  0  0  0  0  # atno 8008 bound_to 7997
  154.6198  140.2498  155.7535 H   0  0  0  0  0  0  0  0  0  0  0  0  # atno 8009 bound_to 7997
  156.2427  140.2897  156.0501 H   0  0  0  0  0  0  0  0  0  0  0  0  # atno 8010 bound_to 7997
  140.2321  143.3599  152.0878 H   0  0  0  0  0  0  0  0  0  0  0  0  # atno 10167 bound_to 10162
  156.5654  130.4736  149.6387 H   0  0  0  0  0  0  0  0  0  0  0  0  # atno 10718 bound_to 10713
  153.8850  135.3040  155.3446 H   0  0  0  0  0  0  0  0  0  0  0  0  # atno 10763 bound_to 10752
  154.7744  135.4869  153.9716 H   0  0  0  0  0  0  0  0  0  0  0  0  # atno 10764 bound_to 10752
  153.1330  135.6808  153.9245 H   0  0  0  0  0  0  0  0  0  0  0  0  # atno 10765 bound_to 10752
  140.2470  134.8006  157.3466 H   0  0  0  0  0  0  0  0  0  0  0  0  # atno 11005 bound_to 11000
  146.0934  140.7629  142.9584 LP  0  0  0  0  0  0  0  0  0  0  0  0  # atno 17320 bound_to 7965
  144.7015  140.3673  143.7152 LP  0  0  0  0  0  0  0  0  0  0  0  0  # atno 17321 bound_to 7965
  139.5106  144.6887  151.5817 LP  0  0  0  0  0  0  0  0  0  0  0  0  # atno 17342 bound_to 10162
  140.6177  143.9316  150.6502 LP  0  0  0  0  0  0  0  0  0  0  0  0  # atno 17343 bound_to 10162
  156.2762  130.7045  151.1856 LP  0  0  0  0  0  0  0  0  0  0  0  0  # atno 17370 bound_to 10713
  157.7359  131.0567  150.5441 LP  0  0  0  0  0  0  0  0  0  0  0  0  # atno 17371 bound_to 10713
  140.1596  134.4746  155.7904 LP  0  0  0  0  0  0  0  0  0  0  0  0  # atno 17394 bound_to 11000
  141.2205  133.6895  156.7520 LP  0  0  0  0  0  0  0  0  0  0  0  0  # atno 17395 bound_to 11000

$$$$
