AV-unprocessed.smi:535|AV-procd|sdf|2861|dock4
  -GOLD-   2262023353D 1   1.00000     0.00000
 Structure written by MMmdl.
 45 47  0  0  0  0  0  0  0  0  2 V2000
  148.1623  141.5617  154.0605 C   0  0  0  0  0  0  0  0  0  0  0  0
  149.5180  141.6932  154.4500 O   0  0  0  0  0  0  0  0  0  0  0  0
  149.6807  141.6848  155.8582 C   0  0  0  0  0  0  0  0  0  0  0  0
  151.1369  142.0511  156.1906 C   0  0  0  0  0  0  0  0  0  0  0  0
  151.7875  141.0469  157.0285 N   0  0  0  0  0  0  0  0  0  0  0  0
  152.3825  141.1976  158.2485 C   0  0  0  0  0  0  0  0  0  0  0  0
  152.4864  142.4247  158.9199 N   0  0  0  0  0  0  0  0  0  0  0  0
  152.2780  143.7674  158.3713 C   0  0  0  0  0  0  0  0  0  0  0  0
  151.3328  144.6089  159.2471 C   0  0  0  0  0  0  0  0  0  0  0  0
  151.8815  144.7218  160.6741 C   0  0  0  0  0  0  0  0  0  0  0  0
  152.1939  143.3228  161.2295 C   0  0  2  0  0  0  0  0  0  0  0  0
  152.8234  143.3988  162.6271 C   0  0  0  0  0  0  0  0  0  0  0  0
  153.0996  142.5562  160.2443 C   0  0  0  0  0  0  0  0  0  0  0  0
  152.8362  140.0580  158.7776 N   0  0  0  0  0  0  0  0  0  0  0  0
  152.5225  139.1094  157.8195 C   0  0  0  0  0  0  0  0  0  0  0  0
  151.8811  139.6747  156.7634 C   0  0  0  0  0  0  0  0  0  0  0  0
  151.3868  138.9055  155.5983 C   0  0  0  0  0  0  0  0  0  0  0  0
  150.7867  139.4577  154.6786 O   0  0  0  0  0  0  0  0  0  0  0  0
  151.6772  137.5697  155.6978 N   0  5  0  0  0  0  0  0  0  0  0  0
  152.3324  136.9589  156.7450 C   0  0  0  0  0  0  0  0  0  0  0  0
  152.5529  135.7471  156.7558 O   0  0  0  0  0  0  0  0  0  0  0  0
  152.7559  137.7071  157.8114 N   0  0  0  0  0  0  0  0  0  0  0  0
  153.4508  137.0841  158.9417 C   0  0  0  0  0  0  0  0  0  0  0  0
  148.0916  141.5661  152.9729 H   0  0  0  0  0  0  0  0  0  0  0  0
  147.5613  142.3888  154.4405 H   0  0  0  0  0  0  0  0  0  0  0  0
  147.7368  140.6245  154.4216 H   0  0  0  0  0  0  0  0  0  0  0  0
  148.9918  142.3952  156.3151 H   0  0  0  0  0  0  0  0  0  0  0  0
  149.4255  140.7018  156.2540 H   0  0  0  0  0  0  0  0  0  0  0  0
  151.7141  142.1981  155.2816 H   0  0  0  0  0  0  0  0  0  0  0  0
  151.1767  143.0134  156.7001 H   0  0  0  0  0  0  0  0  0  0  0  0
  153.2458  144.2652  158.2965 H   0  0  0  0  0  0  0  0  0  0  0  0
  151.9013  143.7186  157.3545 H   0  0  0  0  0  0  0  0  0  0  0  0
  151.2102  145.6026  158.8156 H   0  0  0  0  0  0  0  0  0  0  0  0
  150.3410  144.1574  159.2719 H   0  0  0  0  0  0  0  0  0  0  0  0
  152.7880  145.3285  160.6674 H   0  0  0  0  0  0  0  0  0  0  0  0
  151.1637  145.2369  161.3134 H   0  0  0  0  0  0  0  0  0  0  0  0
  151.2546  142.7749  161.3198 H   0  0  0  0  0  0  0  0  0  0  0  0
  153.7749  143.9307  162.6048 H   0  0  0  0  0  0  0  0  0  0  0  0
  153.0085  142.4019  163.0282 H   0  0  0  0  0  0  0  0  0  0  0  0
  152.1668  143.9182  163.3254 H   0  0  0  0  0  0  0  0  0  0  0  0
  153.3081  141.5666  160.6521 H   0  0  0  0  0  0  0  0  0  0  0  0
  154.0645  143.0555  160.1453 H   0  0  0  0  0  0  0  0  0  0  0  0
  154.3594  136.5846  158.6034 H   0  0  0  0  0  0  0  0  0  0  0  0
  152.8111  136.3417  159.4209 H   0  0  0  0  0  0  0  0  0  0  0  0
  153.7428  137.8041  159.7057 H   0  0  0  0  0  0  0  0  0  0  0  0
  1  2  1  0  0  0  0
  1 24  1  0  0  0  0
  1 25  1  0  0  0  0
  1 26  1  0  0  0  0
  2  3  1  0  0  0  0
  3  4  1  0  0  0  0
  3 27  1  0  0  0  0
  3 28  1  0  0  0  0
  4  5  1  0  0  0  0
  4 29  1  0  0  0  0
  4 30  1  0  0  0  0
  5 16  1  0  0  0  0
  5  6  1  0  0  0  0
  6  7  1  0  0  0  0
  6 14  2  0  0  0  0
  7 13  1  0  0  0  0
  7  8  1  0  0  0  0
  8  9  1  0  0  0  0
  8 31  1  0  0  0  0
  8 32  1  0  0  0  0
  9 10  1  0  0  0  0
  9 33  1  0  0  0  0
  9 34  1  0  0  0  0
 10 11  1  0  0  0  0
 10 35  1  0  0  0  0
 10 36  1  0  0  0  0
 11 12  1  0  0  0  0
 11 13  1  0  0  0  0
 11 37  1  0  0  0  0
 12 38  1  0  0  0  0
 12 39  1  0  0  0  0
 12 40  1  0  0  0  0
 13 41  1  0  0  0  0
 13 42  1  0  0  0  0
 14 15  1  0  0  0  0
 15 22  1  0  0  0  0
 15 16  2  0  0  0  0
 16 17  1  0  0  0  0
 17 18  2  0  0  0  0
 17 19  1  0  0  0  0
 19 20  1  0  0  0  0
 20 21  2  0  0  0  0
 20 22  1  0  0  0  0
 22 23  1  0  0  0  0
 23 43  1  0  0  0  0
 23 44  1  0  0  0  0
 23 45  1  0  0  0  0
M  CHG  1  19  -1
M  END
> <s_m_source_file>
AV-unprocessed.smi

> <i_m_source_file_index>
535

> <i_lp_mmshare_version>
43012

> <i_f3d_flags>
0

> <s_epik_input>
W0NIM11uMWMoPU8pW25IXWMoPU8pYyhjMTIpbihbQ0gyXVtDSDJdT1tDSDNdKWMobjIpTjNbQ0gyXVtDSDJdW0NIMl1bQ0BASF0oW0NIM10pW0NIMl0z

> <s_epik_cmdline>
J2VwaWtfcHl0aG9uJywgJy1waCcsICc3LjAnLCAnLXRuJywgJzgnLCAnLW1hJywgJzIwMCcsICctbWV0YWxfYmluZGluZycsICctaW1hZScsICc8aW5maWxlLm1hZT4nLCAnLW9tYWUnLCAnPG91dGZpbGUubWFlPic=

> <r_lp_tautomer_probability>
1

> <r_epik_Ionization_Penalty>
5.11375

> <r_epik_Ionization_Penalty_Charging>
0.0788329

> <r_epik_Ionization_Penalty_Neutral>
5.03492

> <r_epik_State_Penalty>
5.02848

> <r_epik_Charging_Adjusted_Penalty>
5.10731

> <i_epik_Tot_Q>
-1

> <i_epik_Tot_abs_Q>
1

> <r_epik_Metal_State_Penalty>
1.14014

> <b_epik_Metal_Only>
1

> <s_lp_Force_Field>
OPLS_2005

> <r_lp_Energy>
42.0611

> <b_lp_Chiralities_Consistent>
1

> <s_lp_Variant>
AV-unprocessed.smi:535-4

> <Gold.Version>
5.8.1

> <Gold.Id.Protein>
6NUR|6NUR_protein|mol2

> <Gold.PLP.Fitness>
52.4562

> <Gold.PLP.PLP>
-47.1348

> <Gold.PLP.part.hbond>
-3.9579

> <Gold.PLP.part.metal>
0.0000

> <Gold.PLP.part.buried>
-5.2164

> <Gold.PLP.part.nonpolar>
-36.8328

> <Gold.PLP.part.repulsive>
0.3085

> <Gold.PLP.ligand.clash>
0.0000

> <Gold.PLP.ligand.torsion>
0.4552

> <Gold.PLP.Chemscore.Hbond>
2.0420

> <Gold.PLP.Chemscore.CHOScore>
0.0000

> <Gold.PLP.Chemscore.Metal>
0.0000

> <Gold.Chemscore.Hbonds>
donor molecule, donor type, donor heavy atom, donor atom, acceptor molecule, acceptor atom, score
      P1  H  7989  7998       L1    18  1.00
      P1  H  8011  8017       L1     2  0.04
      P1  H 10752 10763       L1    21  1.00

> <Gold.PLP.Chemscore.Internal.Correction>
0.1060

> <Gold.Rescore>
     Score         DG    S(hbond)    S(metal)    S(lipo)     H(rot)  DE(clash)    DE(int)     intcor
     15.41     -19.83       1.80        0.00     102.80       1.44       0.28       4.14       ----

> <Gold.Chemscore.Fitness>
15.4106

> <Gold.Chemscore.DG>
-19.8260

> <Gold.Chemscore.ZeroCoef>
-5.4800

> <Gold.Chemscore.Hbond>
1.7958

> <Gold.Chemscore.Metal>
0.0000

> <Gold.Chemscore.Lipo>
102.7997

> <Gold.Chemscore.Internal_Hbond>
0.0000

> <Gold.Chemscore.DEClash>
0.2802

> <Gold.Chemscore.DEInternal>
4.1352

> <Gold.Chemscore.Rot>
1.4372

> <Gold.Chemscore.Internal.Correction>
   9.000000E+99

> <Gold.Chemscore.Hbonds>
donor molecule, donor type, donor heavy atom, donor atom, acceptor molecule, acceptor atom, score
      P1  H  7989  7998       L1    18  0.93
      P1  H 10752 10763       L1    21  0.55

> <Gold.Chemscore.Hbond.Weighted>
-5.9978

> <Gold.Chemscore.Metal.Weighted>
-0.0000

> <Gold.Chemscore.Lipo.Weighted>
-12.0276

> <Gold.Chemscore.Internal_Hbond.Weighted>
0.0000

> <Gold.Chemscore.DEClash.Weighted>
0.2802

> <Gold.Chemscore.DEInternal.Weighted>
4.1352

> <Gold.Chemscore.Rot.Weighted>
3.6793

> <Gold.Chemscore.Internal.Correction.Weighted>
   9.000000E+99

> <Gold.Protein.RotatedTorsions>
[ 6907 6896 6895 6894 ] final  -87.58 input  -60.11 | X-H torsion
[ 7974 7965 7964 7962 ] final -167.83 input  175.53 | X-H torsion
[ 8008 7997 7996 7995 ] final  -98.90 input   59.86 | X-H torsion
[ 10167 10162 10161 10158 ] final  -72.50 input  -65.29 | X-H torsion
[ 10718 10713 10712 10709 ] final   98.30 input   66.30 | X-H torsion
[ 10763 10752 10751 10750 ] final  107.04 input  -60.55 | X-H torsion
[ 11005 11000 10999 10996 ] final  102.92 input  -57.11 | X-H torsion

> <Gold.Protein.ActiveResidues>
 VAL166  LYS551  ARG553  GLY616  TRP617  ASP618  TYR619  PRO620  LYS621  CYS622 
 ASP623  PHE694  ASN695  SER759  ASP760  ASP761  ALA762  ILE779  LEU786  VAL792 
 PHE793  MET794  SER795  GLU796  ALA797  LYS798  CYS799  TRP800  GLU811  SER814 

> <Gold.Protein.RotatedAtoms>
  150.6866  134.2875  159.4652 H   0  0  0  0  0  0  0  0  0  0  0  0  # atno 6907 bound_to 6896
  152.0783  134.9485  160.0583 H   0  0  0  0  0  0  0  0  0  0  0  0  # atno 6908 bound_to 6896
  152.0848  133.4136  159.4554 H   0  0  0  0  0  0  0  0  0  0  0  0  # atno 6909 bound_to 6896
  144.7215  140.2460  143.6285 H   0  0  0  0  0  0  0  0  0  0  0  0  # atno 7974 bound_to 7965
  154.8075  140.0452  157.1318 H   0  0  0  0  0  0  0  0  0  0  0  0  # atno 8008 bound_to 7997
  154.9406  140.3052  155.5102 H   0  0  0  0  0  0  0  0  0  0  0  0  # atno 8009 bound_to 7997
  156.2968  140.2306  156.4475 H   0  0  0  0  0  0  0  0  0  0  0  0  # atno 8010 bound_to 7997
  140.5187  143.2334  151.7467 H   0  0  0  0  0  0  0  0  0  0  0  0  # atno 10167 bound_to 10162
  157.6898  131.0636  150.4776 H   0  0  0  0  0  0  0  0  0  0  0  0  # atno 10718 bound_to 10713
  153.4012  135.3857  155.1989 H   0  0  0  0  0  0  0  0  0  0  0  0  # atno 10763 bound_to 10752
  154.8729  135.3772  154.4616 H   0  0  0  0  0  0  0  0  0  0  0  0  # atno 10764 bound_to 10752
  153.5113  135.7087  153.5841 H   0  0  0  0  0  0  0  0  0  0  0  0  # atno 10765 bound_to 10752
  139.8780  134.9243  156.5131 H   0  0  0  0  0  0  0  0  0  0  0  0  # atno 11005 bound_to 11000
  145.8274  139.2070  143.1903 LP  0  0  0  0  0  0  0  0  0  0  0  0  # atno 17320 bound_to 7965
  146.0461  140.8116  142.9804 LP  0  0  0  0  0  0  0  0  0  0  0  0  # atno 17321 bound_to 7965
  139.4917  144.4286  151.9898 LP  0  0  0  0  0  0  0  0  0  0  0  0  # atno 17342 bound_to 10162
  140.3381  144.3236  150.5973 LP  0  0  0  0  0  0  0  0  0  0  0  0  # atno 17343 bound_to 10162
  156.5110  130.4139  149.6301 LP  0  0  0  0  0  0  0  0  0  0  0  0  # atno 17370 bound_to 10713
  156.3241  130.7296  151.2214 LP  0  0  0  0  0  0  0  0  0  0  0  0  # atno 17371 bound_to 10713
  140.8506  133.8135  155.9164 LP  0  0  0  0  0  0  0  0  0  0  0  0  # atno 17394 bound_to 11000
  140.9148  134.2215  157.4963 LP  0  0  0  0  0  0  0  0  0  0  0  0  # atno 17395 bound_to 11000

$$$$
