AV-unprocessed.smi:2804|AV-procd|sdf|10812|dock6
  -GOLD-   2272015253D 1   1.00000     0.00000
 Structure written by MMmdl.
 34 35  0  0  0  0  0  0  0  0  2 V2000
  150.7253  139.0124  154.5004 C   0  0  0  0  0  0  0  0  0  0  0  0
  151.6663  139.5944  155.5601 C   0  0  0  0  0  0  0  0  0  0  0  0
  150.9214  140.0296  156.8313 C   0  0  0  0  0  0  0  0  0  0  0  0
  151.8150  140.0564  157.9866 N   0  0  0  0  0  0  0  0  0  0  0  0
  152.5774  139.0333  158.4394 C   0  0  0  0  0  0  0  0  0  0  0  0
  152.6507  137.9142  157.9309 O   0  0  0  0  0  0  0  0  0  0  0  0
  153.2657  139.4661  159.5271 N   0  0  0  0  0  0  0  0  0  0  0  0
  154.2396  138.6945  160.3166 C   0  0  0  0  0  0  0  0  0  0  0  0
  153.6070  137.5906  161.2135 C   0  0  1  0  0  0  0  0  0  0  0  0
  153.3902  136.5471  160.4488 O   0  5  0  0  0  0  0  0  0  0  0  0
  154.5769  137.1522  162.3382 C   0  0  0  0  0  0  0  0  0  0  0  0
  155.0223  138.2166  163.0087 F   0  0  0  0  0  0  0  0  0  0  0  0
  153.9932  136.3092  163.1932 F   0  0  0  0  0  0  0  0  0  0  0  0
  155.6340  136.5394  161.8028 F   0  0  0  0  0  0  0  0  0  0  0  0
  152.9678  140.8251  159.7377 C   0  0  0  0  0  0  0  0  0  0  0  0
  153.4392  141.7386  160.6976 C   0  0  0  0  0  0  0  0  0  0  0  0
  152.9355  143.0588  160.6398 C   0  0  0  0  0  0  0  0  0  0  0  0
  151.9950  143.4346  159.6462 C   0  0  0  0  0  0  0  0  0  0  0  0
  151.5389  142.4973  158.6901 C   0  0  0  0  0  0  0  0  0  0  0  0
  152.0534  141.1915  158.7728 C   0  0  0  0  0  0  0  0  0  0  0  0
  151.2792  138.7155  153.6098 H   0  0  0  0  0  0  0  0  0  0  0  0
  149.9746  139.7427  154.1974 H   0  0  0  0  0  0  0  0  0  0  0  0
  150.2049  138.1320  154.8777 H   0  0  0  0  0  0  0  0  0  0  0  0
  152.4235  138.8516  155.8141 H   0  0  0  0  0  0  0  0  0  0  0  0
  152.1995  140.4464  155.1367 H   0  0  0  0  0  0  0  0  0  0  0  0
  150.4796  141.0167  156.6921 H   0  0  0  0  0  0  0  0  0  0  0  0
  150.0886  139.3523  157.0273 H   0  0  0  0  0  0  0  0  0  0  0  0
  154.9933  138.2630  159.6546 H   0  0  0  0  0  0  0  0  0  0  0  0
  154.7858  139.4012  160.9419 H   0  0  0  0  0  0  0  0  0  0  0  0
  152.7742  138.0722  161.7284 H   0  0  0  0  0  0  0  0  0  0  0  0
  154.1549  141.4467  161.4519 H   0  0  0  0  0  0  0  0  0  0  0  0
  153.2714  143.7892  161.3609 H   0  0  0  0  0  0  0  0  0  0  0  0
  151.6236  144.4483  159.6187 H   0  0  0  0  0  0  0  0  0  0  0  0
  150.8267  142.7785  157.9288 H   0  0  0  0  0  0  0  0  0  0  0  0
  1  2  1  0  0  0  0
  1 21  1  0  0  0  0
  1 22  1  0  0  0  0
  1 23  1  0  0  0  0
  2  3  1  0  0  0  0
  2 24  1  0  0  0  0
  2 25  1  0  0  0  0
  3  4  1  0  0  0  0
  3 26  1  0  0  0  0
  3 27  1  0  0  0  0
  4 20  1  0  0  0  0
  4  5  1  0  0  0  0
  5  6  2  0  0  0  0
  5  7  1  0  0  0  0
  7  8  1  0  0  0  0
  7 15  1  0  0  0  0
  8  9  1  0  0  0  0
  8 28  1  0  0  0  0
  8 29  1  0  0  0  0
  9 10  1  0  0  0  0
  9 11  1  0  0  0  0
  9 30  1  0  0  0  0
 11 12  1  0  0  0  0
 11 13  1  0  0  0  0
 11 14  1  0  0  0  0
 15 20  2  0  0  0  0
 15 16  1  0  0  0  0
 16 17  2  0  0  0  0
 16 31  1  0  0  0  0
 17 18  1  0  0  0  0
 17 32  1  0  0  0  0
 18 19  2  0  0  0  0
 18 33  1  0  0  0  0
 19 20  1  0  0  0  0
 19 34  1  0  0  0  0
M  CHG  1  10  -1
M  END
> <s_m_source_file>
AV-unprocessed.smi

> <i_m_source_file_index>
2804

> <i_lp_mmshare_version>
43012

> <i_f3d_flags>
0

> <s_epik_input>
W2NIXTFbY0hdW2NIXVtjSF1jKGMxMiluKFtDSDJdW0NIMl1bQ0gzXSljKD1PKW4yW0NIMl1bQ0BIXShbT0hdKUMoRikoRilG

> <s_epik_cmdline>
J2VwaWtfcHl0aG9uJywgJy1waCcsICc3LjAnLCAnLXRuJywgJzgnLCAnLW1hJywgJzIwMCcsICctbWV0YWxfYmluZGluZycsICctaW1hZScsICc8aW5maWxlLm1hZT4nLCAnLW9tYWUnLCAnPG91dGZpbGUubWFlPic=

> <r_epik_Ionization_Penalty>
2.32651

> <r_epik_Ionization_Penalty_Charging>
2.32651

> <r_epik_Ionization_Penalty_Neutral>
0

> <r_epik_State_Penalty>
2.47909

> <r_epik_Charging_Adjusted_Penalty>
4.8056

> <i_epik_Tot_Q>
-1

> <i_epik_Tot_abs_Q>
1

> <r_epik_Metal_State_Penalty>
2.47909

> <b_epik_Metal_Only>
0

> <s_lp_Force_Field>
OPLS_2005

> <r_lp_Energy>
44.9553

> <b_lp_Chiralities_Consistent>
1

> <s_lp_Variant>
AV-unprocessed.smi:2804-4

> <Gold.Version>
5.8.1

> <Gold.Id.Protein>
6NUR|6NUR_protein|mol2

> <Gold.PLP.Fitness>
46.6620

> <Gold.PLP.PLP>
-41.6976

> <Gold.PLP.part.hbond>
-0.9747

> <Gold.PLP.part.metal>
0.0000

> <Gold.PLP.part.buried>
-4.3722

> <Gold.PLP.part.nonpolar>
-36.6895

> <Gold.PLP.part.repulsive>
0.0000

> <Gold.PLP.ligand.clash>
0.0000

> <Gold.PLP.ligand.torsion>
0.5440

> <Gold.PLP.Chemscore.Hbond>
2.0000

> <Gold.PLP.Chemscore.CHOScore>
0.0000

> <Gold.PLP.Chemscore.Metal>
0.0000

> <Gold.Chemscore.Hbonds>
donor molecule, donor type, donor heavy atom, donor atom, acceptor molecule, acceptor atom, score
      P1  H  6896  6909       L1    10  2.00

> <Gold.PLP.Chemscore.Internal.Correction>
0.0524

> <Gold.Rescore>
     Score         DG    S(hbond)    S(metal)    S(lipo)     H(rot)  DE(clash)    DE(int)     intcor
     15.60     -16.25       1.00        0.00     101.24       1.72       0.08       0.57       ----

> <Gold.Chemscore.Fitness>
15.6014

> <Gold.Chemscore.DG>
-16.2549

> <Gold.Chemscore.ZeroCoef>
-5.4800

> <Gold.Chemscore.Hbond>
0.9966

> <Gold.Chemscore.Metal>
0.0000

> <Gold.Chemscore.Lipo>
101.2446

> <Gold.Chemscore.Internal_Hbond>
0.0000

> <Gold.Chemscore.DEClash>
0.0838

> <Gold.Chemscore.DEInternal>
0.5697

> <Gold.Chemscore.Rot>
1.7185

> <Gold.Chemscore.Internal.Correction>
   9.000000E+99

> <Gold.Chemscore.Hbonds>
donor molecule, donor type, donor heavy atom, donor atom, acceptor molecule, acceptor atom, score
      P1  H  6896  6909       L1    10  0.93

> <Gold.Chemscore.Hbond.Weighted>
-3.3285

> <Gold.Chemscore.Metal.Weighted>
-0.0000

> <Gold.Chemscore.Lipo.Weighted>
-11.8456

> <Gold.Chemscore.Internal_Hbond.Weighted>
0.0000

> <Gold.Chemscore.DEClash.Weighted>
0.0838

> <Gold.Chemscore.DEInternal.Weighted>
0.5697

> <Gold.Chemscore.Rot.Weighted>
4.3992

> <Gold.Chemscore.Internal.Correction.Weighted>
   9.000000E+99

> <Gold.Protein.RotatedTorsions>
[ 6907 6896 6895 6894 ] final  158.83 input  -60.11 | X-H torsion
[ 7974 7965 7964 7962 ] final   90.62 input  175.53 | X-H torsion
[ 8008 7997 7996 7995 ] final  -85.57 input   59.86 | X-H torsion
[ 10167 10162 10161 10158 ] final   59.07 input  -65.29 | X-H torsion
[ 10718 10713 10712 10709 ] final  166.79 input   66.30 | X-H torsion
[ 10763 10752 10751 10750 ] final  149.74 input  -60.55 | X-H torsion
[ 11005 11000 10999 10996 ] final   -4.31 input  -57.11 | X-H torsion

> <Gold.Protein.ActiveResidues>
 VAL166  LYS551  ARG553  GLY616  TRP617  ASP618  TYR619  PRO620  LYS621  CYS622 
 ASP623  PHE694  ASN695  SER759  ASP760  ASP761  ALA762  ILE779  LEU786  VAL792 
 PHE793  MET794  SER795  GLU796  ALA797  LYS798  CYS799  TRP800  GLU811  SER814 

> <Gold.Protein.RotatedAtoms>
  151.9945  133.3803  159.4157 H   0  0  0  0  0  0  0  0  0  0  0  0  # atno 6907 bound_to 6896
  150.6917  134.3901  159.5081 H   0  0  0  0  0  0  0  0  0  0  0  0  # atno 6908 bound_to 6896
  152.1639  134.8889  160.0590 H   0  0  0  0  0  0  0  0  0  0  0  0  # atno 6909 bound_to 6896
  145.5165  139.2278  143.2695 H   0  0  0  0  0  0  0  0  0  0  0  0  # atno 7974 bound_to 7965
  154.6422  140.0590  156.9859 H   0  0  0  0  0  0  0  0  0  0  0  0  # atno 8008 bound_to 7997
  155.1499  140.3273  155.4415 H   0  0  0  0  0  0  0  0  0  0  0  0  # atno 8009 bound_to 7997
  156.2536  140.1949  156.6611 H   0  0  0  0  0  0  0  0  0  0  0  0  # atno 8010 bound_to 7997
  140.1804  144.4188  150.6618 H   0  0  0  0  0  0  0  0  0  0  0  0  # atno 10167 bound_to 10162
  157.0608  131.0339  151.2647 H   0  0  0  0  0  0  0  0  0  0  0  0  # atno 10718 bound_to 10713
  154.0761  135.2863  155.3299 H   0  0  0  0  0  0  0  0  0  0  0  0  # atno 10763 bound_to 10752
  154.6715  135.5298  153.8147 H   0  0  0  0  0  0  0  0  0  0  0  0  # atno 10764 bound_to 10752
  153.0466  135.6559  154.0939 H   0  0  0  0  0  0  0  0  0  0  0  0  # atno 10765 bound_to 10752
  140.6788  133.9171  155.8542 H   0  0  0  0  0  0  0  0  0  0  0  0  # atno 11005 bound_to 11000
  146.2133  140.5975  142.9050 LP  0  0  0  0  0  0  0  0  0  0  0  0  # atno 17320 bound_to 7965
  144.7699  140.5614  143.6677 LP  0  0  0  0  0  0  0  0  0  0  0  0  # atno 17321 bound_to 7965
  140.6524  143.2228  151.6048 LP  0  0  0  0  0  0  0  0  0  0  0  0  # atno 17342 bound_to 10162
  139.5299  144.2948  152.1122 LP  0  0  0  0  0  0  0  0  0  0  0  0  # atno 17343 bound_to 10162
  157.4956  130.7848  149.7552 LP  0  0  0  0  0  0  0  0  0  0  0  0  # atno 17370 bound_to 10713
  155.9979  130.3897  150.2723 LP  0  0  0  0  0  0  0  0  0  0  0  0  # atno 17371 bound_to 10713
  141.0334  134.0724  157.3988 LP  0  0  0  0  0  0  0  0  0  0  0  0  # atno 17394 bound_to 11000
  139.8958  135.0143  156.7020 LP  0  0  0  0  0  0  0  0  0  0  0  0  # atno 17395 bound_to 11000

$$$$
