#       Name:                AV-unprocessed.smi:101
#       Creating user name   scv26
#       Creation time:       Thu Mar 26 17:41:58 2020


#       File generated by GOLD software.
#

@<TRIPOS>MOLECULE
AV-unprocessed.smi:101
    56    58     1
SMALL
NO_CHARGES


@<TRIPOS>ATOM
      1 ****        -2.1186   1.8290  -2.2549 C.3            1 S1                 0.0000
      2 ****        -2.6338   1.4573  -0.8736 C.2            1 S1                 0.0000
      3 ****        -1.8265   0.9424   0.0886 C.2            1 S1                 0.0000
      4 ****        -2.2656   0.5866   1.3608 N.am           1 S1                 0.0000
      5 ****        -1.3296   0.0482   2.4326 C.3            1 S1                 0.0000
      6 ****        -0.0417  -0.0709   1.9135 O.3            1 S1                 0.0000
      7 ****         0.1219  -1.3810   1.3905 C.3            1 S1                 0.0000
      8 ****         1.6084  -1.6618   1.1580 C.3            1 S1                 0.0000
      9 ****         2.0042  -0.9380   0.0050 O.3            1 S1                 0.0000
     10 ****         3.2931  -0.9100  -0.3757 C.2            1 S1                 0.0000
     11 ****         4.1948  -1.5016   0.2208 O.2            1 S1                 0.0000
     12 ****         3.5134  -0.0828  -1.5974 C.ar           1 S1                 0.0000
     13 ****         4.8213   0.0490  -2.1194 C.ar           1 S1                 0.0000
     14 ****         5.0591   0.8249  -3.2705 C.ar           1 S1                 0.0000
     15 ****         3.9919   1.4784  -3.9140 C.ar           1 S1                 0.0000
     16 ****         2.6861   1.3554  -3.4047 C.ar           1 S1                 0.0000
     17 ****         2.4461   0.5802  -2.2535 C.ar           1 S1                 0.0000
     18 ****        -0.5347  -2.2309   2.4747 C.3            1 S1                 0.0000
     19 ****        -0.9572  -3.4694   1.9401 O.3            1 S1                 0.0000
     20 ****        -1.7339  -1.3768   2.8884 C.3            1 S1                 0.0000
     21 ****        -1.9251  -1.4460   4.2868 O.3            1 S1                 0.0000
     22 ****        -3.6108   0.8303   1.7101 C.2            1 S1                 0.0000
     23 ****        -4.0582   0.6037   2.8338 O.2            1 S1                 0.0000
     24 ****        -4.4420   1.3519   0.7208 N.am           1 S1                 0.0000
     25 ****        -4.0512   1.6814  -0.5787 C.2            1 S1                 0.0000
     26 ****        -4.8813   2.1299  -1.3675 O.2            1 S1                 0.0000
     27 ****        -5.4079   1.5137   0.9666 H              1 S1                 0.0000
     28 ****        -1.0530   1.6220  -2.3615 H              1 S1                 0.0000
     29 ****        -2.2726   2.8916  -2.4456 H              1 S1                 0.0000
     30 ****        -2.6460   1.2625  -3.0233 H              1 S1                 0.0000
     31 ****        -0.7864   0.8163  -0.1709 H              1 S1                 0.0000
     32 ****        -1.3460   0.8039   3.2207 H              1 S1                 0.0000
     33 ****        -0.4333  -1.4820   0.4556 H              1 S1                 0.0000
     34 ****         2.1986  -1.3708   2.0281 H              1 S1                 0.0000
     35 ****         1.7690  -2.7264   0.9838 H              1 S1                 0.0000
     36 ****         5.6567  -0.4430  -1.6420 H              1 S1                 0.0000
     37 ****         6.0623   0.9184  -3.6598 H              1 S1                 0.0000
     38 ****         4.1747   2.0728  -4.7969 H              1 S1                 0.0000
     39 ****         1.8658   1.8562  -3.8975 H              1 S1                 0.0000
     40 ****         1.4314   0.5073  -1.8896 H              1 S1                 0.0000
     41 ****         0.1546  -2.3816   3.3074 H              1 S1                 0.0000
     42 ****        -1.4000  -3.9528   2.6212 H              1 S1                 0.0000
     43 ****        -2.6410  -1.6963   2.3732 H              1 S1                 0.0000
     44 ****        -2.6575  -0.8931   4.5140 H              1 S1                 0.0000
     45 ****         0.6288   0.0878   2.6383 LP             1 S1                 0.0000
     46 ****         0.0903   0.6009   1.1846 LP             1 S1                 0.0000
     47 ****         3.9850  -2.0402   1.0368 LP             1 S1                 0.0000
     48 ****         5.1363  -1.4429  -0.1111 LP             1 S1                 0.0000
     49 ****        -0.1640  -3.9871   1.6196 LP             1 S1                 0.0000
     50 ****        -1.5831  -3.3116   1.1764 LP             1 S1                 0.0000
     51 ****        -1.1021  -1.1270   4.7568 LP             1 S1                 0.0000
     52 ****        -2.1178  -2.3897   4.5555 LP             1 S1                 0.0000
     53 ****        -3.4609   0.2313   3.5441 LP             1 S1                 0.0000
     54 ****        -5.0191   0.7921   3.0368 LP             1 S1                 0.0000
     55 ****        -4.6064   2.3744  -2.2973 LP             1 S1                 0.0000
     56 ****        -5.8312   2.2502  -1.0790 LP             1 S1                 0.0000
@<TRIPOS>BOND
    1    1    2 1     
    2    1   28 1     
    3    1   29 1     
    4    1   30 1     
    5    2   25 1     
    6    2    3 2     
    7    3    4 1     
    8    3   31 1     
    9    4    5 1     
   10    4   22 1     
   11    5   20 1     
   12    5    6 1     
   13    5   32 1     
   14    6    7 1     
   15    7    8 1     
   16    7   18 1     
   17    7   33 1     
   18    8    9 1     
   19    8   34 1     
   20    8   35 1     
   21    9   10 1     
   22   10   11 2     
   23   10   12 1     
   24   12   17 ar    
   25   12   13 ar    
   26   13   14 ar    
   27   13   36 1     
   28   14   15 ar    
   29   14   37 1     
   30   15   16 ar    
   31   15   38 1     
   32   16   17 ar    
   33   16   39 1     
   34   17   40 1     
   35   18   19 1     
   36   18   20 1     
   37   18   41 1     
   38   19   42 1     
   39   20   21 1     
   40   20   43 1     
   41   21   44 1     
   42   22   23 2     
   43   22   24 1     
   44   24   27 1     
   45   24   25 1     
   46   25   26 2     
   47    6   45 1     
   48    6   46 1     
   49   11   47 1     
   50   11   48 1     
   51   19   49 1     
   52   19   50 1     
   53   21   51 1     
   54   21   52 1     
   55   23   53 1     
   56   23   54 1     
   57   26   55 1     
   58   26   56 1     
@<TRIPOS>SUBSTRUCTURE
      1 S1             1
@<TRIPOS>SET
LONE_PAIRS      STATIC     ATOMS    <user>   **** ""
12 45 46 47 48 49 50 51 52 53 54 55 56
DONOR_HYDROGENS      STATIC     ATOMS    <user>   **** ""
3 42 44 27
ATOM$BLUE        STATIC     ATOMS    COLORGROUP SYSTEM
12 45 46 47 48 49 50 51 52 53 54 55 56
ATOM$RED        STATIC     ATOMS    COLORGROUP SYSTEM
3 42 44 27
