AV-unprocessed.smi:102|AV-procd|sdf|957|dock4
  -GOLD-   2262017493D 1   1.00000     0.00000
 Structure written by MMmdl.
 44 45  0  0  0  0  0  0  0  0  1 V2000
  151.7375  145.5233  160.2596 C   0  0  0  0  0  0  0  0  0  0  0  0
  151.9423  144.3369  159.3262 C   0  0  0  0  0  0  0  0  0  0  0  0
  152.5630  144.4530  158.2693 O   0  0  0  0  0  0  0  0  0  0  0  0
  151.3805  143.2105  159.7911 O   0  0  0  0  0  0  0  0  0  0  0  0
  151.2890  142.0751  158.9475 C   0  0  0  0  0  0  0  0  0  0  0  0
  150.5862  142.4718  157.6347 C   0  0  2  0  0  0  0  0  0  0  0  0
  149.2440  142.8544  157.9174 O   0  0  0  0  0  0  0  0  0  0  0  0
  148.4370  141.7168  157.9558 C   0  0  1  0  0  0  0  0  0  0  0  0
  147.0659  142.0720  157.4290 N   0  0  0  0  0  0  0  0  0  0  0  0
  146.8949  142.3959  156.0897 C   0  0  0  0  0  0  0  0  0  0  0  0
  145.6889  142.6911  155.5493 C   0  0  0  0  0  0  0  0  0  0  0  0
  145.6040  143.0009  154.2444 F   0  0  0  0  0  0  0  0  0  0  0  0
  144.4808  142.6705  156.3688 C   0  0  0  0  0  0  0  0  0  0  0  0
  143.3456  142.9266  155.9724 O   0  0  0  0  0  0  0  0  0  0  0  0
  144.6966  142.3179  157.7041 N   0  0  0  0  0  0  0  0  0  0  0  0
  145.9332  142.0073  158.2725 C   0  0  0  0  0  0  0  0  0  0  0  0
  145.9977  141.6898  159.4586 O   0  0  0  0  0  0  0  0  0  0  0  0
  149.1313  140.6130  157.1299 C   0  0  2  0  0  0  0  0  0  0  0  0
  149.4430  139.5032  157.9669 O   0  0  0  0  0  0  0  0  0  0  0  0
  149.6493  138.2890  157.4282 C   0  0  0  0  0  0  0  0  0  0  0  0
  150.0342  137.2460  158.4691 C   0  0  0  0  0  0  0  0  0  0  0  0
  149.5414  137.9982  156.2370 O   0  0  0  0  0  0  0  0  0  0  0  0
  150.3969  141.3193  156.6429 C   0  0  2  0  0  0  0  0  0  0  0  0
  151.5400  140.4750  156.5457 O   0  0  0  0  0  0  0  0  0  0  0  0
  151.6582  139.6068  155.5262 C   0  0  0  0  0  0  0  0  0  0  0  0
  152.8000  138.6207  155.7336 C   0  0  0  0  0  0  0  0  0  0  0  0
  150.9486  139.5682  154.5211 O   0  0  0  0  0  0  0  0  0  0  0  0
  143.8878  142.2777  158.3070 H   0  0  0  0  0  0  0  0  0  0  0  0
  151.1981  145.2251  161.1591 H   0  0  0  0  0  0  0  0  0  0  0  0
  151.1639  146.3020  159.7566 H   0  0  0  0  0  0  0  0  0  0  0  0
  152.6997  145.9403  160.5566 H   0  0  0  0  0  0  0  0  0  0  0  0
  152.3001  141.7228  158.7394 H   0  0  0  0  0  0  0  0  0  0  0  0
  150.7593  141.2650  159.4503 H   0  0  0  0  0  0  0  0  0  0  0  0
  151.1259  143.2932  157.1621 H   0  0  0  0  0  0  0  0  0  0  0  0
  148.2957  141.4326  159.0000 H   0  0  0  0  0  0  0  0  0  0  0  0
  147.7556  142.4241  155.4368 H   0  0  0  0  0  0  0  0  0  0  0  0
  148.5180  140.2998  156.2836 H   0  0  0  0  0  0  0  0  0  0  0  0
  149.1629  136.6530  158.7472 H   0  0  0  0  0  0  0  0  0  0  0  0
  150.4309  137.7213  159.3667 H   0  0  0  0  0  0  0  0  0  0  0  0
  150.7957  136.5757  158.0701 H   0  0  0  0  0  0  0  0  0  0  0  0
  150.1944  141.7648  155.6682 H   0  0  0  0  0  0  0  0  0  0  0  0
  152.7959  138.2426  156.7562 H   0  0  0  0  0  0  0  0  0  0  0  0
  153.7575  139.1073  155.5473 H   0  0  0  0  0  0  0  0  0  0  0  0
  152.7033  137.7748  155.0529 H   0  0  0  0  0  0  0  0  0  0  0  0
  1  2  1  0  0  0  0
  1 29  1  0  0  0  0
  1 30  1  0  0  0  0
  1 31  1  0  0  0  0
  2  3  2  0  0  0  0
  2  4  1  0  0  0  0
  4  5  1  0  0  0  0
  5  6  1  0  0  0  0
  5 32  1  0  0  0  0
  5 33  1  0  0  0  0
  6 23  1  0  0  0  0
  6  7  1  0  0  0  0
  6 34  1  0  0  0  0
  7  8  1  0  0  0  0
  8  9  1  0  0  0  0
  8 18  1  0  0  0  0
  8 35  1  0  0  0  0
  9 16  1  0  0  0  0
  9 10  1  0  0  0  0
 10 11  2  0  0  0  0
 10 36  1  0  0  0  0
 11 12  1  0  0  0  0
 11 13  1  0  0  0  0
 13 14  2  0  0  0  0
 13 15  1  0  0  0  0
 15 28  1  0  0  0  0
 15 16  1  0  0  0  0
 16 17  2  0  0  0  0
 18 19  1  0  0  0  0
 18 23  1  0  0  0  0
 18 37  1  0  0  0  0
 19 20  1  0  0  0  0
 20 21  1  0  0  0  0
 20 22  2  0  0  0  0
 21 38  1  0  0  0  0
 21 39  1  0  0  0  0
 21 40  1  0  0  0  0
 23 24  1  0  0  0  0
 23 41  1  0  0  0  0
 24 25  1  0  0  0  0
 25 26  1  0  0  0  0
 25 27  2  0  0  0  0
 26 42  1  0  0  0  0
 26 43  1  0  0  0  0
 26 44  1  0  0  0  0
M  END
> <s_m_source_file>
AV-unprocessed.smi

> <i_m_source_file_index>
102

> <i_lp_mmshare_version>
43012

> <i_f3d_flags>
0

> <s_epik_input>
W0NIM11DKD1PKU9bQ0gyXVtDQEBIXTFPW0NASF0oW0NAQEhdKE9DKD1PKVtDSDNdKVtDQEhdMU9DKD1PKVtDSDNdKW4yW2NIXWMoRiljKD1PKVtuSF1jMj1P

> <s_epik_cmdline>
J2VwaWtfcHl0aG9uJywgJy1waCcsICc3LjAnLCAnLXRuJywgJzgnLCAnLW1hJywgJzIwMCcsICctbWV0YWxfYmluZGluZycsICctaW1hZScsICc8aW5maWxlLm1hZT4nLCAnLW9tYWUnLCAnPG91dGZpbGUubWFlPic=

> <r_lp_tautomer_probability>
0.999537

> <r_epik_Ionization_Penalty>
0.058267

> <r_epik_Ionization_Penalty_Charging>
0.058267

> <r_epik_Ionization_Penalty_Neutral>
6.57791e-16

> <r_epik_State_Penalty>
0.0503774

> <r_epik_Charging_Adjusted_Penalty>
0.108644

> <i_epik_Tot_Q>
0

> <i_epik_Tot_abs_Q>
0

> <r_epik_Metal_State_Penalty>
2.6644

> <b_epik_Metal_Only>
0

> <s_epik_Chemistry_Notes>
This compound has an ester and may undergo hydrolysis at high or low pH. This compound contains an acetal/aminal-like group ( X-CH(R)-Y where X, Y are N, S, or O) that may be acid/base labile, releasing an aldehyde.

> <s_lp_Force_Field>
OPLS_2005

> <r_lp_Energy>
12.818

> <b_lp_Chiralities_Consistent>
1

> <s_lp_Variant>
AV-unprocessed.smi:102-13

> <Gold.Version>
5.8.1

> <Gold.Id.Protein>
6NUR|6NUR_protein|mol2

> <Gold.PLP.Fitness>
43.8266

> <Gold.PLP.PLP>
-37.4164

> <Gold.PLP.part.hbond>
-2.0000

> <Gold.PLP.part.metal>
0.0000

> <Gold.PLP.part.buried>
-6.5794

> <Gold.PLP.part.nonpolar>
-30.3982

> <Gold.PLP.part.repulsive>
1.9678

> <Gold.PLP.ligand.clash>
0.0000

> <Gold.PLP.ligand.torsion>
0.6949

> <Gold.PLP.Chemscore.Hbond>
2.0000

> <Gold.PLP.Chemscore.CHOScore>
0.5491

> <Gold.PLP.Chemscore.Metal>
0.0000

> <Gold.Chemscore.Hbonds>
donor molecule, donor type, donor heavy atom, donor atom, acceptor molecule, acceptor atom, score
      P1  H  6934  6946       L1    17  1.00
      P1  H  7989  7998       L1    27  1.00
      L1  C    10    36       P1  8028  0.54

> <Gold.PLP.Chemscore.Internal.Correction>
0.1527

> <Gold.Rescore>
     Score         DG    S(hbond)    S(metal)    S(lipo)     H(rot)  DE(clash)    DE(int)     intcor
      5.51      -7.38       1.82        0.00      52.88       4.05       0.56       1.31       ----

> <Gold.Chemscore.Fitness>
5.5093

> <Gold.Chemscore.DG>
-7.3769

> <Gold.Chemscore.ZeroCoef>
-5.4800

> <Gold.Chemscore.Hbond>
1.8212

> <Gold.Chemscore.Metal>
0.0000

> <Gold.Chemscore.Lipo>
52.8836

> <Gold.Chemscore.Internal_Hbond>
0.0000

> <Gold.Chemscore.DEClash>
0.5622

> <Gold.Chemscore.DEInternal>
1.3054

> <Gold.Chemscore.Rot>
4.0520

> <Gold.Chemscore.Internal.Correction>
   9.000000E+99

> <Gold.Chemscore.Hbonds>
donor molecule, donor type, donor heavy atom, donor atom, acceptor molecule, acceptor atom, score
      P1  H  6934  6946       L1    17  0.97
      P1  H  7989  7998       L1    27  0.40

> <Gold.Chemscore.Hbond.Weighted>
-6.0827

> <Gold.Chemscore.Metal.Weighted>
-0.0000

> <Gold.Chemscore.Lipo.Weighted>
-6.1874

> <Gold.Chemscore.Internal_Hbond.Weighted>
0.0000

> <Gold.Chemscore.DEClash.Weighted>
0.5622

> <Gold.Chemscore.DEInternal.Weighted>
1.3054

> <Gold.Chemscore.Rot.Weighted>
10.3732

> <Gold.Chemscore.Internal.Correction.Weighted>
   9.000000E+99

> <Gold.Protein.RotatedTorsions>
[ 6907 6896 6895 6894 ] final -168.12 input  -60.11 | X-H torsion
[ 7974 7965 7964 7962 ] final   -9.20 input  175.53 | X-H torsion
[ 8008 7997 7996 7995 ] final    7.93 input   59.86 | X-H torsion
[ 10167 10162 10161 10158 ] final  164.82 input  -65.29 | X-H torsion
[ 10718 10713 10712 10709 ] final  158.51 input   66.30 | X-H torsion
[ 10763 10752 10751 10750 ] final   63.94 input  -60.55 | X-H torsion
[ 11005 11000 10999 10996 ] final   14.34 input  -57.11 | X-H torsion

> <Gold.Protein.ActiveResidues>
 VAL166  LYS551  ARG553  GLY616  TRP617  ASP618  TYR619  PRO620  LYS621  CYS622 
 ASP623  PHE694  ASN695  SER759  ASP760  ASP761  ALA762  ILE779  LEU786  VAL792 
 PHE793  MET794  SER795  GLU796  ALA797  LYS798  CYS799  TRP800  GLU811  SER814 

> <Gold.Protein.RotatedAtoms>
  151.4705  133.3570  159.2822 H   0  0  0  0  0  0  0  0  0  0  0  0  # atno 6907 bound_to 6896
  150.8964  134.8375  159.7340 H   0  0  0  0  0  0  0  0  0  0  0  0  # atno 6908 bound_to 6896
  152.4854  134.4620  159.9660 H   0  0  0  0  0  0  0  0  0  0  0  0  # atno 6909 bound_to 6896
  146.2258  140.2582  142.8350 H   0  0  0  0  0  0  0  0  0  0  0  0  # atno 7974 bound_to 7965
  154.7602  140.2783  155.6220 H   0  0  0  0  0  0  0  0  0  0  0  0  # atno 8008 bound_to 7997
  156.2914  140.2661  156.2306 H   0  0  0  0  0  0  0  0  0  0  0  0  # atno 8009 bound_to 7997
  155.0027  140.0372  157.2356 H   0  0  0  0  0  0  0  0  0  0  0  0  # atno 8010 bound_to 7997
  139.4895  144.4196  151.9202 H   0  0  0  0  0  0  0  0  0  0  0  0  # atno 10167 bound_to 10162
  157.1769  131.0623  151.2153 H   0  0  0  0  0  0  0  0  0  0  0  0  # atno 10718 bound_to 10713
  153.0036  135.5411  154.6431 H   0  0  0  0  0  0  0  0  0  0  0  0  # atno 10763 bound_to 10752
  154.5682  135.2839  155.0856 H   0  0  0  0  0  0  0  0  0  0  0  0  # atno 10764 bound_to 10752
  154.2032  135.6480  153.5145 H   0  0  0  0  0  0  0  0  0  0  0  0  # atno 10765 bound_to 10752
  140.4706  134.1035  155.7732 H   0  0  0  0  0  0  0  0  0  0  0  0  # atno 11005 bound_to 11000
  144.9360  140.8027  143.5660 LP  0  0  0  0  0  0  0  0  0  0  0  0  # atno 17320 bound_to 7965
  145.2529  139.2024  143.4933 LP  0  0  0  0  0  0  0  0  0  0  0  0  # atno 17321 bound_to 7965
  140.3640  144.2938  150.5929 LP  0  0  0  0  0  0  0  0  0  0  0  0  # atno 17342 bound_to 10162
  140.5378  143.2229  151.8134 LP  0  0  0  0  0  0  0  0  0  0  0  0  # atno 17343 bound_to 10162
  157.3990  130.7323  149.6753 LP  0  0  0  0  0  0  0  0  0  0  0  0  # atno 17370 bound_to 10713
  155.9730  130.4126  150.4039 LP  0  0  0  0  0  0  0  0  0  0  0  0  # atno 17371 bound_to 10713
  141.1578  133.8849  157.1929 LP  0  0  0  0  0  0  0  0  0  0  0  0  # atno 17394 bound_to 11000
  139.9887  135.0072  156.9925 LP  0  0  0  0  0  0  0  0  0  0  0  0  # atno 17395 bound_to 11000

$$$$
