AV-unprocessed.smi:1295|AV-procd|sdf|5402|dock9
  -GOLD-   22720 4563D 1   1.00000     0.00000
 Structure written by MMmdl.
 43 44  0  0  0  0  0  0  0  0  1 V2000
  148.5450  141.1028  153.2079 C   0  0  0  0  0  0  0  0  0  0  0  0
  149.1024  140.7537  154.5713 C   0  0  0  0  0  0  0  0  0  0  0  0
  149.0735  141.5518  155.5874 N   0  0  0  0  0  0  0  0  0  0  0  0
  149.6255  141.1180  156.8007 C   0  0  0  0  0  0  0  0  0  0  0  0
  149.5594  142.1153  157.9451 C   0  0  0  0  0  0  0  0  0  0  0  0
  150.1847  139.8790  156.9303 C   0  0  0  0  0  0  0  0  0  0  0  0
  150.7998  139.3821  158.2369 C   0  0  0  0  0  0  0  0  0  0  0  0
  152.1457  140.0074  158.6105 C   0  0  0  0  0  0  0  0  0  0  0  0
  153.1959  139.4380  158.3142 O   0  0  0  0  0  0  0  0  0  0  0  0
  152.0932  141.1826  159.2563 N   0  0  0  0  0  0  0  0  0  0  0  0
  153.2384  141.9876  159.6850 C   0  0  1  0  0  0  0  0  0  0  0  0
  153.1154  143.4137  159.1113 C   0  0  0  0  0  0  0  0  0  0  0  0
  151.9710  144.2072  159.7661 C   0  0  0  0  0  0  0  0  0  0  0  0
  152.1184  144.2366  161.2949 C   0  0  0  0  0  0  0  0  0  0  0  0
  152.2225  142.8173  161.8765 C   0  0  0  0  0  0  0  0  0  0  0  0
  153.3742  142.0209  161.2285 C   0  0  1  0  0  0  0  0  0  0  0  0
  153.5164  140.6214  161.8509 C   0  0  0  0  0  0  0  0  0  0  0  0
  150.2093  138.9747  155.7642 C   0  0  0  0  0  0  0  0  0  0  0  0
  150.6880  137.8418  155.7690 O   0  0  0  0  0  0  0  0  0  0  0  0
  149.6583  139.4772  154.6368 N   0  0  0  0  0  0  0  0  0  0  0  0
  149.6544  138.8979  153.8100 H   0  0  0  0  0  0  0  0  0  0  0  0
  149.0511  141.9826  152.8101 H   0  0  0  0  0  0  0  0  0  0  0  0
  147.4803  141.3241  153.2838 H   0  0  0  0  0  0  0  0  0  0  0  0
  148.6740  140.2845  152.4979 H   0  0  0  0  0  0  0  0  0  0  0  0
  148.9487  141.7246  158.7594 H   0  0  0  0  0  0  0  0  0  0  0  0
  149.1198  143.0598  157.6220 H   0  0  0  0  0  0  0  0  0  0  0  0
  150.5569  142.3285  158.3298 H   0  0  0  0  0  0  0  0  0  0  0  0
  150.0865  139.5630  159.0419 H   0  0  0  0  0  0  0  0  0  0  0  0
  150.9244  138.2991  158.2174 H   0  0  0  0  0  0  0  0  0  0  0  0
  151.1798  141.5631  159.4568 H   0  0  0  0  0  0  0  0  0  0  0  0
  154.1541  141.5563  159.2767 H   0  0  0  0  0  0  0  0  0  0  0  0
  154.0541  143.9453  159.2731 H   0  0  0  0  0  0  0  0  0  0  0  0
  152.9733  143.3749  158.0306 H   0  0  0  0  0  0  0  0  0  0  0  0
  151.9556  145.2250  159.3755 H   0  0  0  0  0  0  0  0  0  0  0  0
  151.0116  143.7622  159.4990 H   0  0  0  0  0  0  0  0  0  0  0  0
  153.0083  144.8065  161.5644 H   0  0  0  0  0  0  0  0  0  0  0  0
  151.2711  144.7591  161.7396 H   0  0  0  0  0  0  0  0  0  0  0  0
  152.3739  142.8789  162.9547 H   0  0  0  0  0  0  0  0  0  0  0  0
  151.2778  142.2922  161.7301 H   0  0  0  0  0  0  0  0  0  0  0  0
  154.2987  142.5548  161.4531 H   0  0  0  0  0  0  0  0  0  0  0  0
  152.6082  140.0303  161.7305 H   0  0  0  0  0  0  0  0  0  0  0  0
  153.7246  140.6890  162.9188 H   0  0  0  0  0  0  0  0  0  0  0  0
  154.3363  140.0700  161.3900 H   0  0  0  0  0  0  0  0  0  0  0  0
  1  2  1  0  0  0  0
  1 22  1  0  0  0  0
  1 23  1  0  0  0  0
  1 24  1  0  0  0  0
  2 20  1  0  0  0  0
  2  3  2  0  0  0  0
  3  4  1  0  0  0  0
  4  5  1  0  0  0  0
  4  6  2  0  0  0  0
  5 25  1  0  0  0  0
  5 26  1  0  0  0  0
  5 27  1  0  0  0  0
  6  7  1  0  0  0  0
  6 18  1  0  0  0  0
  7  8  1  0  0  0  0
  7 28  1  0  0  0  0
  7 29  1  0  0  0  0
  8  9  2  0  0  0  0
  8 10  1  0  0  0  0
 10 11  1  0  0  0  0
 10 30  1  0  0  0  0
 11 16  1  0  0  0  0
 11 12  1  0  0  0  0
 11 31  1  0  0  0  0
 12 13  1  0  0  0  0
 12 32  1  0  0  0  0
 12 33  1  0  0  0  0
 13 14  1  0  0  0  0
 13 34  1  0  0  0  0
 13 35  1  0  0  0  0
 14 15  1  0  0  0  0
 14 36  1  0  0  0  0
 14 37  1  0  0  0  0
 15 16  1  0  0  0  0
 15 38  1  0  0  0  0
 15 39  1  0  0  0  0
 16 17  1  0  0  0  0
 16 40  1  0  0  0  0
 17 41  1  0  0  0  0
 17 42  1  0  0  0  0
 17 43  1  0  0  0  0
 18 19  2  0  0  0  0
 18 20  1  0  0  0  0
 20 21  1  0  0  0  0
M  END
> <s_m_source_file>
AV-unprocessed.smi

> <i_m_source_file_index>
1295

> <i_lp_mmshare_version>
43012

> <i_f3d_flags>
0

> <s_epik_input>
W0NIM11jMW5jKFtDSDNdKWMoYyg9TylbbkhdMSlbQ0gyXUMoPU8pW05IXVtDQEBIXTJbQ0gyXVtDSDJdW0NIMl1bQ0gyXVtDQEhdMltDSDNd

> <s_epik_cmdline>
J2VwaWtfcHl0aG9uJywgJy1waCcsICc3LjAnLCAnLXRuJywgJzgnLCAnLW1hJywgJzIwMCcsICctbWV0YWxfYmluZGluZycsICctaW1hZScsICc8aW5maWxlLm1hZT4nLCAnLW9tYWUnLCAnPG91dGZpbGUubWFlPic=

> <r_lp_tautomer_probability>
0.839158

> <r_epik_Ionization_Penalty>
0.00037085

> <r_epik_Ionization_Penalty_Charging>
0.000336002

> <r_epik_Ionization_Penalty_Neutral>
3.48485e-05

> <r_epik_State_Penalty>
0.09125

> <r_epik_Charging_Adjusted_Penalty>
0.091586

> <i_epik_Tot_Q>
0

> <i_epik_Tot_abs_Q>
0

> <r_epik_Metal_State_Penalty>
0.251445

> <b_epik_Metal_Only>
0

> <s_lp_Force_Field>
OPLS_2005

> <r_lp_Energy>
11.7893

> <b_lp_Chiralities_Consistent>
1

> <s_lp_Variant>
AV-unprocessed.smi:1295-2

> <Gold.Version>
5.8.1

> <Gold.Id.Protein>
6NUR|6NUR_protein|mol2

> <Gold.PLP.Fitness>
41.9290

> <Gold.PLP.PLP>
-40.0095

> <Gold.PLP.part.hbond>
-1.0000

> <Gold.PLP.part.metal>
0.0000

> <Gold.PLP.part.buried>
-5.5280

> <Gold.PLP.part.nonpolar>
-34.0715

> <Gold.PLP.part.repulsive>
0.9547

> <Gold.PLP.ligand.clash>
0.0000

> <Gold.PLP.ligand.torsion>
0.5443

> <Gold.PLP.Chemscore.Hbond>
1.0000

> <Gold.PLP.Chemscore.CHOScore>
0.0000

> <Gold.PLP.Chemscore.Metal>
0.0000

> <Gold.Chemscore.Hbonds>
donor molecule, donor type, donor heavy atom, donor atom, acceptor molecule, acceptor atom, score
      P1  H  7997  8008       L1     9  1.00

> <Gold.PLP.Chemscore.Internal.Correction>
0.0081

> <Gold.Rescore>
     Score         DG    S(hbond)    S(metal)    S(lipo)     H(rot)  DE(clash)    DE(int)     intcor
     15.61     -17.78       0.99        0.00     109.25       1.48       1.62       0.55       ----

> <Gold.Chemscore.Fitness>
15.6149

> <Gold.Chemscore.DG>
-17.7824

> <Gold.Chemscore.ZeroCoef>
-5.4800

> <Gold.Chemscore.Hbond>
0.9908

> <Gold.Chemscore.Metal>
0.0000

> <Gold.Chemscore.Lipo>
109.2487

> <Gold.Chemscore.Internal_Hbond>
0.0000

> <Gold.Chemscore.DEClash>
1.6218

> <Gold.Chemscore.DEInternal>
0.5457

> <Gold.Chemscore.Rot>
1.4801

> <Gold.Chemscore.Internal.Correction>
   9.000000E+99

> <Gold.Chemscore.Hbonds>
donor molecule, donor type, donor heavy atom, donor atom, acceptor molecule, acceptor atom, score
      P1  H  7997  8008       L1     9  0.96

> <Gold.Chemscore.Hbond.Weighted>
-3.3094

> <Gold.Chemscore.Metal.Weighted>
-0.0000

> <Gold.Chemscore.Lipo.Weighted>
-12.7821

> <Gold.Chemscore.Internal_Hbond.Weighted>
0.0000

> <Gold.Chemscore.DEClash.Weighted>
1.6218

> <Gold.Chemscore.DEInternal.Weighted>
0.5457

> <Gold.Chemscore.Rot.Weighted>
3.7891

> <Gold.Chemscore.Internal.Correction.Weighted>
   9.000000E+99

> <Gold.Protein.RotatedTorsions>
[ 6907 6896 6895 6894 ] final  -17.26 input  -60.11 | X-H torsion
[ 7974 7965 7964 7962 ] final  107.82 input  175.53 | X-H torsion
[ 8008 7997 7996 7995 ] final  -80.34 input   59.86 | X-H torsion
[ 10167 10162 10161 10158 ] final   87.42 input  -65.29 | X-H torsion
[ 10718 10713 10712 10709 ] final    1.13 input   66.30 | X-H torsion
[ 10763 10752 10751 10750 ] final  -52.88 input  -60.55 | X-H torsion
[ 11005 11000 10999 10996 ] final    1.86 input  -57.11 | X-H torsion

> <Gold.Protein.ActiveResidues>
 VAL166  LYS551  ARG553  GLY616  TRP617  ASP618  TYR619  PRO620  LYS621  CYS622 
 ASP623  PHE694  ASN695  SER759  ASP760  ASP761  ALA762  ILE779  LEU786  VAL792 
 PHE793  MET794  SER795  GLU796  ALA797  LYS798  CYS799  TRP800  GLU811  SER814 

> <Gold.Protein.RotatedAtoms>
  151.2961  135.0755  159.9221 H   0  0  0  0  0  0  0  0  0  0  0  0  # atno 6907 bound_to 6896
  152.5307  133.9882  159.7848 H   0  0  0  0  0  0  0  0  0  0  0  0  # atno 6908 bound_to 6896
  151.0160  133.5869  159.2707 H   0  0  0  0  0  0  0  0  0  0  0  0  # atno 6909 bound_to 6896
  145.2887  139.2608  143.3876 H   0  0  0  0  0  0  0  0  0  0  0  0  # atno 7974 bound_to 7965
  154.5873  140.0664  156.9189 H   0  0  0  0  0  0  0  0  0  0  0  0  # atno 8008 bound_to 7997
  155.2356  140.3341  155.4280 H   0  0  0  0  0  0  0  0  0  0  0  0  # atno 8009 bound_to 7997
  156.2232  140.1807  156.7412 H   0  0  0  0  0  0  0  0  0  0  0  0  # atno 8010 bound_to 7997
  139.8775  144.6458  150.8880 H   0  0  0  0  0  0  0  0  0  0  0  0  # atno 10167 bound_to 10162
  156.8437  130.5529  149.5675 H   0  0  0  0  0  0  0  0  0  0  0  0  # atno 10718 bound_to 10713
  154.1499  135.6492  153.4961 H   0  0  0  0  0  0  0  0  0  0  0  0  # atno 10763 bound_to 10752
  153.0141  135.5335  154.6819 H   0  0  0  0  0  0  0  0  0  0  0  0  # atno 10764 bound_to 10752
  154.6104  135.2953  155.0410 H   0  0  0  0  0  0  0  0  0  0  0  0  # atno 10765 bound_to 10752
  140.6107  133.9751  155.8176 H   0  0  0  0  0  0  0  0  0  0  0  0  # atno 11005 bound_to 11000
  146.3192  140.3372  142.8645 LP  0  0  0  0  0  0  0  0  0  0  0  0  # atno 17320 bound_to 7965
  144.9191  140.7847  143.5759 LP  0  0  0  0  0  0  0  0  0  0  0  0  # atno 17321 bound_to 7965
  140.7750  143.3613  151.1824 LP  0  0  0  0  0  0  0  0  0  0  0  0  # atno 17342 bound_to 10162
  139.7226  143.9199  152.2991 LP  0  0  0  0  0  0  0  0  0  0  0  0  # atno 17343 bound_to 10162
  156.0866  130.5863  150.9660 LP  0  0  0  0  0  0  0  0  0  0  0  0  # atno 17370 bound_to 10713
  157.6342  131.0918  150.8382 LP  0  0  0  0  0  0  0  0  0  0  0  0  # atno 17371 bound_to 10713
  141.0810  134.0062  157.3386 LP  0  0  0  0  0  0  0  0  0  0  0  0  # atno 17394 bound_to 11000
  139.9193  135.0199  156.8004 LP  0  0  0  0  0  0  0  0  0  0  0  0  # atno 17395 bound_to 11000

$$$$
