AV-unprocessed.smi:820|AV-procd|sdf|3837|dock3
  -GOLD-   22720 1283D 1   1.00000     0.00000
 Structure written by MMmdl.
 31 32  0  0  0  0  0  0  0  0  2 V2000
  146.6867  139.2658  152.7807 C   0  0  0  0  0  0  0  0  0  0  0  0
  147.8496  139.1844  153.7733 C   0  0  0  0  0  0  0  0  0  0  0  0
  148.5036  140.8316  154.1685 S   0  0  0  0  0  0  0  0  0  0  0  0
  149.8431  140.6103  155.3015 C   0  0  0  0  0  0  0  0  0  0  0  0
  149.7344  141.0667  156.6276 C   0  0  0  0  0  0  0  0  0  0  0  0
  150.8300  140.8658  157.4881 C   0  0  0  0  0  0  0  0  0  0  0  0
  151.9907  140.2189  157.0073 C   0  0  0  0  0  0  0  0  0  0  0  0
  153.0579  140.0168  157.7964 N   0  5  0  0  0  0  0  0  0  0  0  0
  152.9032  139.8053  159.1289 C   0  0  0  0  0  0  0  0  0  0  0  0
  152.6854  138.6990  159.6314 O   0  0  0  0  0  0  0  0  0  0  0  0
  153.0066  140.9940  159.9716 C   0  0  0  0  0  0  0  0  0  0  0  0
  153.8438  141.0018  161.0365 C   0  0  0  0  0  0  0  0  0  0  0  0
  153.9696  142.0607  161.9012 O   0  0  0  0  0  0  0  0  0  0  0  0
  152.9722  143.0644  161.7575 C   0  0  0  0  0  0  0  0  0  0  0  0
  152.6832  143.3196  160.2717 C   0  0  0  0  0  0  0  0  0  0  0  0
  152.2744  142.1129  159.6385 O   0  0  0  0  0  0  0  0  0  0  0  0
  151.9798  139.8099  155.6529 C   0  0  0  0  0  0  0  0  0  0  0  0
  150.9388  139.9939  154.8124 N   0  0  0  0  0  0  0  0  0  0  0  0
  146.3035  138.2719  152.5498 H   0  0  0  0  0  0  0  0  0  0  0  0
  147.0006  139.7284  151.8446 H   0  0  0  0  0  0  0  0  0  0  0  0
  145.8640  139.8543  153.1874 H   0  0  0  0  0  0  0  0  0  0  0  0
  147.5195  138.7030  154.6941 H   0  0  0  0  0  0  0  0  0  0  0  0
  148.6513  138.5737  153.3576 H   0  0  0  0  0  0  0  0  0  0  0  0
  148.8386  141.5569  156.9783 H   0  0  0  0  0  0  0  0  0  0  0  0
  150.7776  141.2055  158.5123 H   0  0  0  0  0  0  0  0  0  0  0  0
  154.4637  140.1706  161.3401 H   0  0  0  0  0  0  0  0  0  0  0  0
  152.0649  142.7453  162.2721 H   0  0  0  0  0  0  0  0  0  0  0  0
  153.3126  143.9789  162.2434 H   0  0  0  0  0  0  0  0  0  0  0  0
  151.8970  144.0659  160.1581 H   0  0  0  0  0  0  0  0  0  0  0  0
  153.5708  143.7072  159.7698 H   0  0  0  0  0  0  0  0  0  0  0  0
  152.8397  139.3138  155.2265 H   0  0  0  0  0  0  0  0  0  0  0  0
  1  2  1  0  0  0  0
  1 19  1  0  0  0  0
  1 20  1  0  0  0  0
  1 21  1  0  0  0  0
  2  3  1  0  0  0  0
  2 22  1  0  0  0  0
  2 23  1  0  0  0  0
  3  4  1  0  0  0  0
  4 18  1  0  0  0  0
  4  5  2  0  0  0  0
  5  6  1  0  0  0  0
  5 24  1  0  0  0  0
  6  7  2  0  0  0  0
  6 25  1  0  0  0  0
  7  8  1  0  0  0  0
  7 17  1  0  0  0  0
  8  9  1  0  0  0  0
  9 10  2  0  0  0  0
  9 11  1  0  0  0  0
 11 16  1  0  0  0  0
 11 12  2  0  0  0  0
 12 13  1  0  0  0  0
 12 26  1  0  0  0  0
 13 14  1  0  0  0  0
 14 15  1  0  0  0  0
 14 27  1  0  0  0  0
 14 28  1  0  0  0  0
 15 16  1  0  0  0  0
 15 29  1  0  0  0  0
 15 30  1  0  0  0  0
 17 18  2  0  0  0  0
 17 31  1  0  0  0  0
M  CHG  1   8  -1
M  END
> <s_m_source_file>
AV-unprocessed.smi

> <i_m_source_file_index>
820

> <i_lp_mmshare_version>
43012

> <i_f3d_flags>
0

> <s_epik_input>
W0NIM11bQ0gyXVNjMVtjSF1bY0hdYyhbY0hdbjEpW05IXUMoPU8pQzI9W0NIXU9bQ0gyXVtDSDJdTzI=

> <s_epik_cmdline>
J2VwaWtfcHl0aG9uJywgJy1waCcsICc3LjAnLCAnLXRuJywgJzgnLCAnLW1hJywgJzIwMCcsICctbWV0YWxfYmluZGluZycsICctaW1hZScsICc8aW5maWxlLm1hZT4nLCAnLW9tYWUnLCAnPG91dGZpbGUubWFlPic=

> <r_lp_tautomer_probability>
1

> <r_epik_Ionization_Penalty>
5.63505

> <r_epik_Ionization_Penalty_Charging>
5.63079

> <r_epik_Ionization_Penalty_Neutral>
0.00426194

> <r_epik_State_Penalty>
5.63074

> <r_epik_Charging_Adjusted_Penalty>
11.2615

> <i_epik_Tot_Q>
-1

> <i_epik_Tot_abs_Q>
1

> <r_epik_Metal_State_Penalty>
1.62037

> <b_epik_Metal_Only>
1

> <s_lp_Force_Field>
OPLS_2005

> <r_lp_Energy>
4.11082

> <b_lp_Chiralities_Consistent>
1

> <s_lp_Variant>
AV-unprocessed.smi:820-2

> <Gold.Version>
5.8.1

> <Gold.Id.Protein>
6NUR|6NUR_protein|mol2

> <Gold.PLP.Fitness>
42.5877

> <Gold.PLP.PLP>
-36.7276

> <Gold.PLP.part.hbond>
-2.6260

> <Gold.PLP.part.metal>
0.0000

> <Gold.PLP.part.buried>
-1.8723

> <Gold.PLP.part.nonpolar>
-31.1135

> <Gold.PLP.part.repulsive>
0.0852

> <Gold.PLP.ligand.clash>
0.0000

> <Gold.PLP.ligand.torsion>
1.9006

> <Gold.PLP.Chemscore.Hbond>
3.0000

> <Gold.PLP.Chemscore.CHOScore>
0.0000

> <Gold.PLP.Chemscore.Metal>
0.0000

> <Gold.Chemscore.Hbonds>
donor molecule, donor type, donor heavy atom, donor atom, acceptor molecule, acceptor atom, score
      P1  H  7989  7998       L1    18  1.00
      P1  H  7997  8010       L1     8  2.00

> <Gold.PLP.Chemscore.Internal.Correction>
0.6613

> <Gold.Rescore>
     Score         DG    S(hbond)    S(metal)    S(lipo)     H(rot)  DE(clash)    DE(int)     intcor
     14.99     -17.95       1.31        0.00      93.82       1.13       0.14       2.82       ----

> <Gold.Chemscore.Fitness>
14.9943

> <Gold.Chemscore.DG>
-17.9523

> <Gold.Chemscore.ZeroCoef>
-5.4800

> <Gold.Chemscore.Hbond>
1.3122

> <Gold.Chemscore.Metal>
0.0000

> <Gold.Chemscore.Lipo>
93.8154

> <Gold.Chemscore.Internal_Hbond>
0.0000

> <Gold.Chemscore.DEClash>
0.1354

> <Gold.Chemscore.DEInternal>
2.8225

> <Gold.Chemscore.Rot>
1.1277

> <Gold.Chemscore.Internal.Correction>
   9.000000E+99

> <Gold.Chemscore.Hbonds>
donor molecule, donor type, donor heavy atom, donor atom, acceptor molecule, acceptor atom, score
      P1  H  7989  7998       L1    18  0.33
      P1  H  7997  8010       L1     8  0.73

> <Gold.Chemscore.Hbond.Weighted>
-4.3829

> <Gold.Chemscore.Metal.Weighted>
-0.0000

> <Gold.Chemscore.Lipo.Weighted>
-10.9764

> <Gold.Chemscore.Internal_Hbond.Weighted>
0.0000

> <Gold.Chemscore.DEClash.Weighted>
0.1354

> <Gold.Chemscore.DEInternal.Weighted>
2.8225

> <Gold.Chemscore.Rot.Weighted>
2.8870

> <Gold.Chemscore.Internal.Correction.Weighted>
   9.000000E+99

> <Gold.Protein.RotatedTorsions>
[ 6907 6896 6895 6894 ] final    0.24 input  -60.11 | X-H torsion
[ 7974 7965 7964 7962 ] final  169.17 input  175.53 | X-H torsion
[ 8008 7997 7996 7995 ] final   46.01 input   59.86 | X-H torsion
[ 10167 10162 10161 10158 ] final   89.98 input  -65.29 | X-H torsion
[ 10718 10713 10712 10709 ] final  -78.93 input   66.30 | X-H torsion
[ 10763 10752 10751 10750 ] final   59.30 input  -60.55 | X-H torsion
[ 11005 11000 10999 10996 ] final   26.08 input  -57.11 | X-H torsion

> <Gold.Protein.ActiveResidues>
 VAL166  LYS551  ARG553  GLY616  TRP617  ASP618  TYR619  PRO620  LYS621  CYS622 
 ASP623  PHE694  ASN695  SER759  ASP760  ASP761  ALA762  ILE779  LEU786  VAL792 
 PHE793  MET794  SER795  GLU796  ALA797  LYS798  CYS799  TRP800  GLU811  SER814 

> <Gold.Protein.RotatedAtoms>
  151.5732  135.1061  159.9999 H   0  0  0  0  0  0  0  0  0  0  0  0  # atno 6907 bound_to 6896
  152.4390  133.7409  159.6651 H   0  0  0  0  0  0  0  0  0  0  0  0  # atno 6908 bound_to 6896
  150.8293  133.8050  159.3129 H   0  0  0  0  0  0  0  0  0  0  0  0  # atno 6909 bound_to 6896
  144.7364  139.9016  143.6409 H   0  0  0  0  0  0  0  0  0  0  0  0  # atno 7974 bound_to 7965
  155.3454  140.3410  155.4239 H   0  0  0  0  0  0  0  0  0  0  0  0  # atno 8008 bound_to 7997
  156.1792  140.1658  156.8342 H   0  0  0  0  0  0  0  0  0  0  0  0  # atno 8009 bound_to 7997
  154.5315  140.0744  156.8335 H   0  0  0  0  0  0  0  0  0  0  0  0  # atno 8010 bound_to 7997
  139.8519  144.6589  150.9160 H   0  0  0  0  0  0  0  0  0  0  0  0  # atno 10167 bound_to 10162
  156.0105  130.4531  150.3571 H   0  0  0  0  0  0  0  0  0  0  0  0  # atno 10718 bound_to 10713
  152.9891  135.5576  154.5691 H   0  0  0  0  0  0  0  0  0  0  0  0  # atno 10763 bound_to 10752
  154.5095  135.2801  155.1356 H   0  0  0  0  0  0  0  0  0  0  0  0  # atno 10764 bound_to 10752
  154.2754  135.6355  153.5379 H   0  0  0  0  0  0  0  0  0  0  0  0  # atno 10765 bound_to 10752
  140.3409  134.2334  155.7690 H   0  0  0  0  0  0  0  0  0  0  0  0  # atno 11005 bound_to 11000
  146.1068  139.4068  143.0313 LP  0  0  0  0  0  0  0  0  0  0  0  0  # atno 17320 bound_to 7965
  145.7501  140.9976  143.1255 LP  0  0  0  0  0  0  0  0  0  0  0  0  # atno 17321 bound_to 7965
  140.7786  143.3820  151.1460 LP  0  0  0  0  0  0  0  0  0  0  0  0  # atno 17342 bound_to 10162
  139.7457  143.8856  152.3063 LP  0  0  0  0  0  0  0  0  0  0  0  0  # atno 17343 bound_to 10162
  157.1661  131.0357  151.2818 LP  0  0  0  0  0  0  0  0  0  0  0  0  # atno 17370 bound_to 10713
  157.4269  130.7469  149.6958 LP  0  0  0  0  0  0  0  0  0  0  0  0  # atno 17371 bound_to 10713
  141.2039  133.7901  157.0316 LP  0  0  0  0  0  0  0  0  0  0  0  0  # atno 17394 bound_to 11000
  140.0782  134.9663  157.1581 LP  0  0  0  0  0  0  0  0  0  0  0  0  # atno 17395 bound_to 11000

$$$$
