AV-unprocessed.smi:1049|AV-procd|sdf|4609|dock6
  -GOLD-   22720 3103D 1   1.00000     0.00000
 Structure written by MMmdl.
 40 41  0  0  0  0  0  0  0  0  1 V2000
  153.2149  142.5892  162.7392 C   0  0  0  0  0  0  0  0  0  0  0  0
  152.4283  142.9521  161.4721 C   0  0  1  0  0  0  0  0  0  0  0  0
  152.1885  144.4745  161.3701 C   0  0  0  0  0  0  0  0  0  0  0  0
  151.5087  144.8640  160.0440 C   0  0  0  0  0  0  0  0  0  0  0  0
  152.2541  144.2518  158.8447 C   0  0  0  0  0  0  0  0  0  0  0  0
  152.3200  142.7911  159.0259 N   0  0  0  0  0  0  0  0  0  0  0  0
  151.5715  141.8680  158.3704 C   0  0  0  0  0  0  0  0  0  0  0  0
  151.8048  140.6586  158.4055 O   0  0  0  0  0  0  0  0  0  0  0  0
  150.5515  142.3755  157.6587 N   0  0  0  0  0  0  0  0  0  0  0  0
  149.5581  141.5933  156.9301 C   0  0  0  0  0  0  0  0  0  0  0  0
  149.7334  141.6841  155.4004 C   0  0  0  0  0  0  0  0  0  0  0  0
  149.7436  140.3541  154.7072 C   0  0  0  0  0  0  0  0  0  0  0  0
  150.8510  139.6663  154.4426 N   0  0  0  0  0  0  0  0  0  0  0  0
  150.4084  138.5064  153.8177 C   0  0  0  0  0  0  0  0  0  0  0  0
  149.0380  138.5336  153.7264 C   0  0  0  0  0  0  0  0  0  0  0  0
  148.6206  139.7196  154.3194 N   0  0  0  0  0  0  0  0  0  0  0  0
  147.2502  140.1858  154.4416 C   0  0  0  0  0  0  0  0  0  0  0  0
  147.1234  141.3740  153.8519 F   0  0  0  0  0  0  0  0  0  0  0  0
  146.4095  139.3140  153.8839 F   0  0  0  0  0  0  0  0  0  0  0  0
  153.1323  142.4385  160.1978 C   0  0  0  0  0  0  0  0  0  0  0  0
  154.2037  143.0490  162.7381 H   0  0  0  0  0  0  0  0  0  0  0  0
  153.3492  141.5102  162.8210 H   0  0  0  0  0  0  0  0  0  0  0  0
  152.6915  142.9252  163.6348 H   0  0  0  0  0  0  0  0  0  0  0  0
  151.4554  142.4622  161.5378 H   0  0  0  0  0  0  0  0  0  0  0  0
  151.5868  144.8204  162.2114 H   0  0  0  0  0  0  0  0  0  0  0  0
  153.1445  144.9949  161.4414 H   0  0  0  0  0  0  0  0  0  0  0  0
  150.4749  144.5165  160.0470 H   0  0  0  0  0  0  0  0  0  0  0  0
  151.4696  145.9494  159.9497 H   0  0  0  0  0  0  0  0  0  0  0  0
  151.7773  144.5640  157.9156 H   0  0  0  0  0  0  0  0  0  0  0  0
  153.2681  144.6513  158.7949 H   0  0  0  0  0  0  0  0  0  0  0  0
  150.4266  143.3773  157.6668 H   0  0  0  0  0  0  0  0  0  0  0  0
  149.6679  140.5570  157.2488 H   0  0  0  0  0  0  0  0  0  0  0  0
  148.5506  141.8974  157.2170 H   0  0  0  0  0  0  0  0  0  0  0  0
  148.9502  142.3101  154.9722 H   0  0  0  0  0  0  0  0  0  0  0  0
  150.6720  142.1908  155.1726 H   0  0  0  0  0  0  0  0  0  0  0  0
  151.1041  137.7523  153.4804 H   0  0  0  0  0  0  0  0  0  0  0  0
  148.3435  137.8226  153.3034 H   0  0  0  0  0  0  0  0  0  0  0  0
  146.9706  140.2880  155.4900 H   0  0  0  0  0  0  0  0  0  0  0  0
  154.1202  142.8919  160.1025 H   0  0  0  0  0  0  0  0  0  0  0  0
  153.3102  141.3645  160.2716 H   0  0  0  0  0  0  0  0  0  0  0  0
  1  2  1  0  0  0  0
  1 21  1  0  0  0  0
  1 22  1  0  0  0  0
  1 23  1  0  0  0  0
  2 20  1  0  0  0  0
  2  3  1  0  0  0  0
  2 24  1  0  0  0  0
  3  4  1  0  0  0  0
  3 25  1  0  0  0  0
  3 26  1  0  0  0  0
  4  5  1  0  0  0  0
  4 27  1  0  0  0  0
  4 28  1  0  0  0  0
  5  6  1  0  0  0  0
  5 29  1  0  0  0  0
  5 30  1  0  0  0  0
  6  7  1  0  0  0  0
  6 20  1  0  0  0  0
  7  8  2  0  0  0  0
  7  9  1  0  0  0  0
  9 10  1  0  0  0  0
  9 31  1  0  0  0  0
 10 11  1  0  0  0  0
 10 32  1  0  0  0  0
 10 33  1  0  0  0  0
 11 12  1  0  0  0  0
 11 34  1  0  0  0  0
 11 35  1  0  0  0  0
 12 16  1  0  0  0  0
 12 13  2  0  0  0  0
 13 14  1  0  0  0  0
 14 15  2  0  0  0  0
 14 36  1  0  0  0  0
 15 16  1  0  0  0  0
 15 37  1  0  0  0  0
 16 17  1  0  0  0  0
 17 18  1  0  0  0  0
 17 19  1  0  0  0  0
 17 38  1  0  0  0  0
 20 39  1  0  0  0  0
 20 40  1  0  0  0  0
M  END
> <s_m_source_file>
AV-unprocessed.smi

> <i_m_source_file_index>
1049

> <i_lp_mmshare_version>
43012

> <i_f3d_flags>
0

> <s_epik_input>
W0NIM11bQ0BASF0xW0NIMl1bQ0gyXVtDSDJdTihbQ0gyXTEpQyg9TylbTkhdW0NIMl1bQ0gyXWMybltjSF1bY0hdbjJbQ0hdKEYpRg==

> <s_epik_cmdline>
J2VwaWtfcHl0aG9uJywgJy1waCcsICc3LjAnLCAnLXRuJywgJzgnLCAnLW1hJywgJzIwMCcsICctbWV0YWxfYmluZGluZycsICctaW1hZScsICc8aW5maWxlLm1hZT4nLCAnLW9tYWUnLCAnPG91dGZpbGUubWFlPic=

> <r_lp_tautomer_probability>
1

> <r_epik_Ionization_Penalty>
0.101141

> <r_epik_Ionization_Penalty_Charging>
0.101077

> <r_epik_Ionization_Penalty_Neutral>
6.38597e-05

> <r_epik_State_Penalty>
0.091079

> <r_epik_Charging_Adjusted_Penalty>
0.192156

> <i_epik_Tot_Q>
0

> <i_epik_Tot_abs_Q>
0

> <r_epik_Metal_State_Penalty>
0.0777008

> <b_epik_Metal_Only>
0

> <s_lp_Force_Field>
OPLS_2005

> <r_lp_Energy>
32.9855

> <b_lp_Chiralities_Consistent>
1

> <s_lp_Variant>
AV-unprocessed.smi:1049-2

> <Gold.Version>
5.8.1

> <Gold.Id.Protein>
6NUR|6NUR_protein|mol2

> <Gold.PLP.Fitness>
51.2557

> <Gold.PLP.PLP>
-46.0762

> <Gold.PLP.part.hbond>
-1.0000

> <Gold.PLP.part.metal>
0.0000

> <Gold.PLP.part.buried>
-1.8793

> <Gold.PLP.part.nonpolar>
-43.3030

> <Gold.PLP.part.repulsive>
0.1419

> <Gold.PLP.ligand.clash>
0.1326

> <Gold.PLP.ligand.torsion>
0.9281

> <Gold.PLP.Chemscore.Hbond>
0.8500

> <Gold.PLP.Chemscore.CHOScore>
1.5239

> <Gold.PLP.Chemscore.Metal>
0.0000

> <Gold.Chemscore.Hbonds>
donor molecule, donor type, donor heavy atom, donor atom, acceptor molecule, acceptor atom, score
      P1  H  7989  7998       L1    13  0.90
      L1  C    14    36       P1  7949  0.68
      L1  C    15    37       P1  7948  0.85

> <Gold.PLP.Chemscore.Internal.Correction>
0.0465

> <Gold.Rescore>
     Score         DG    S(hbond)    S(metal)    S(lipo)     H(rot)  DE(clash)    DE(int)     intcor
     14.94     -15.88       0.78        0.00     100.89       1.56       0.23       0.70       ----

> <Gold.Chemscore.Fitness>
14.9428

> <Gold.Chemscore.DG>
-15.8779

> <Gold.Chemscore.ZeroCoef>
-5.4800

> <Gold.Chemscore.Hbond>
0.7765

> <Gold.Chemscore.Metal>
0.0000

> <Gold.Chemscore.Lipo>
100.8941

> <Gold.Chemscore.Internal_Hbond>
0.0000

> <Gold.Chemscore.DEClash>
0.2350

> <Gold.Chemscore.DEInternal>
0.7001

> <Gold.Chemscore.Rot>
1.5626

> <Gold.Chemscore.Internal.Correction>
   9.000000E+99

> <Gold.Chemscore.Hbonds>
donor molecule, donor type, donor heavy atom, donor atom, acceptor molecule, acceptor atom, score
      P1  H  7989  7998       L1    13  0.17

> <Gold.Chemscore.Hbond.Weighted>
-2.5936

> <Gold.Chemscore.Metal.Weighted>
-0.0000

> <Gold.Chemscore.Lipo.Weighted>
-11.8046

> <Gold.Chemscore.Internal_Hbond.Weighted>
0.0000

> <Gold.Chemscore.DEClash.Weighted>
0.2350

> <Gold.Chemscore.DEInternal.Weighted>
0.7001

> <Gold.Chemscore.Rot.Weighted>
4.0004

> <Gold.Chemscore.Internal.Correction.Weighted>
   9.000000E+99

> <Gold.Protein.RotatedTorsions>
[ 6907 6896 6895 6894 ] final   68.77 input  -60.11 | X-H torsion
[ 7974 7965 7964 7962 ] final   26.95 input  175.53 | X-H torsion
[ 8008 7997 7996 7995 ] final  130.83 input   59.86 | X-H torsion
[ 10167 10162 10161 10158 ] final  -44.95 input  -65.29 | X-H torsion
[ 10718 10713 10712 10709 ] final  166.51 input   66.30 | X-H torsion
[ 10763 10752 10751 10750 ] final   14.74 input  -60.55 | X-H torsion
[ 11005 11000 10999 10996 ] final  103.97 input  -57.11 | X-H torsion

> <Gold.Protein.ActiveResidues>
 VAL166  LYS551  ARG553  GLY616  TRP617  ASP618  TYR619  PRO620  LYS621  CYS622 
 ASP623  PHE694  ASN695  SER759  ASP760  ASP761  ALA762  ILE779  LEU786  VAL792 
 PHE793  MET794  SER795  GLU796  ALA797  LYS798  CYS799  TRP800  GLU811  SER814 

> <Gold.Protein.RotatedAtoms>
  152.4643  134.5113  159.9754 H   0  0  0  0  0  0  0  0  0  0  0  0  # atno 6907 bound_to 6896
  151.5154  133.3471  159.2900 H   0  0  0  0  0  0  0  0  0  0  0  0  # atno 6908 bound_to 6896
  150.8619  134.8002  159.7151 H   0  0  0  0  0  0  0  0  0  0  0  0  # atno 6909 bound_to 6896
  146.1810  139.7258  142.8900 H   0  0  0  0  0  0  0  0  0  0  0  0  # atno 7974 bound_to 7965
  156.2961  140.2586  156.2826 H   0  0  0  0  0  0  0  0  0  0  0  0  # atno 8008 bound_to 7997
  154.9587  140.0393  157.2198 H   0  0  0  0  0  0  0  0  0  0  0  0  # atno 8009 bound_to 7997
  154.7967  140.2821  155.5956 H   0  0  0  0  0  0  0  0  0  0  0  0  # atno 8010 bound_to 7997
  140.6877  143.2904  151.3568 H   0  0  0  0  0  0  0  0  0  0  0  0  # atno 10167 bound_to 10162
  157.0648  131.0350  151.2633 H   0  0  0  0  0  0  0  0  0  0  0  0  # atno 10718 bound_to 10713
  153.1592  135.6793  153.8767 H   0  0  0  0  0  0  0  0  0  0  0  0  # atno 10763 bound_to 10752
  153.8168  135.3135  155.3407 H   0  0  0  0  0  0  0  0  0  0  0  0  # atno 10764 bound_to 10752
  154.7920  135.4829  154.0163 H   0  0  0  0  0  0  0  0  0  0  0  0  # atno 10765 bound_to 10752
  139.8788  134.9283  156.5291 H   0  0  0  0  0  0  0  0  0  0  0  0  # atno 11005 bound_to 11000
  145.4075  141.0392  143.3036 LP  0  0  0  0  0  0  0  0  0  0  0  0  # atno 17320 bound_to 7965
  144.8316  139.5619  143.6941 LP  0  0  0  0  0  0  0  0  0  0  0  0  # atno 17321 bound_to 7965
  139.6250  144.0831  152.2426 LP  0  0  0  0  0  0  0  0  0  0  0  0  # atno 17342 bound_to 10162
  140.0288  144.6097  150.7505 LP  0  0  0  0  0  0  0  0  0  0  0  0  # atno 17343 bound_to 10162
  157.4926  130.7831  149.7523 LP  0  0  0  0  0  0  0  0  0  0  0  0  # atno 17370 bound_to 10713
  155.9968  130.3904  150.2766 LP  0  0  0  0  0  0  0  0  0  0  0  0  # atno 17371 bound_to 10713
  140.8394  133.8217  155.9060 LP  0  0  0  0  0  0  0  0  0  0  0  0  # atno 17394 bound_to 11000
  140.9252  134.2091  157.4900 LP  0  0  0  0  0  0  0  0  0  0  0  0  # atno 17395 bound_to 11000

$$$$
