AV-unprocessed.smi:3150|AV-procd|sdf|12013|dock6
  -GOLD-   2272017423D 1   1.00000     0.00000
 Structure written by MMmdl.
 32 33  0  0  0  0  0  0  0  0  2 V2000
  152.7184  138.8624  154.9214 C   0  0  0  0  0  0  0  0  0  0  0  0
  151.2934  139.2502  155.3430 C   0  0  2  0  0  0  0  0  0  0  0  0
  150.5500  139.5122  154.1550 O   0  0  0  0  0  0  0  0  0  0  0  0
  149.2320  138.9778  154.1310 C   0  0  0  0  0  0  0  0  0  0  0  0
  148.2697  140.0372  154.6234 C   0  0  0  0  0  0  0  0  0  0  0  0
  147.3066  140.7096  153.6713 C   0  0  0  0  0  0  0  0  0  0  0  0
  148.4678  141.4857  154.2383 C   0  0  0  0  0  0  0  0  0  0  0  0
  151.2998  140.4852  156.2585 C   0  0  0  0  0  0  0  0  0  0  0  0
  150.6515  141.4833  155.9407 O   0  0  0  0  0  0  0  0  0  0  0  0
  152.0275  140.3685  157.3845 N   0  0  0  0  0  0  0  0  0  0  0  0
  152.2342  141.3251  158.4164 C   0  0  0  0  0  0  0  0  0  0  0  0
  151.4292  142.4030  158.5943 N   0  0  0  0  0  0  0  0  0  0  0  0
  151.6936  143.2673  159.5955 C   0  0  0  0  0  0  0  0  0  0  0  0
  152.7744  143.1140  160.4813 C   0  0  0  0  0  0  0  0  0  0  0  0
  153.6165  142.0019  160.3107 C   0  0  0  0  0  0  0  0  0  0  0  0
  153.3471  141.0932  159.2676 C   0  0  0  0  0  0  0  0  0  0  0  0
  154.1675  140.0100  159.1023 O   0  5  0  0  0  0  0  0  0  0  0  0
  153.3457  138.6569  155.7896 H   0  0  0  0  0  0  0  0  0  0  0  0
  153.1952  139.6535  154.3415 H   0  0  0  0  0  0  0  0  0  0  0  0
  152.7067  137.9637  154.3044 H   0  0  0  0  0  0  0  0  0  0  0  0
  150.8486  138.4012  155.8662 H   0  0  0  0  0  0  0  0  0  0  0  0
  148.9546  138.6982  153.1138 H   0  0  0  0  0  0  0  0  0  0  0  0
  149.1479  138.0889  154.7575 H   0  0  0  0  0  0  0  0  0  0  0  0
  147.9058  139.8642  155.6346 H   0  0  0  0  0  0  0  0  0  0  0  0
  147.3537  140.4298  152.6206 H   0  0  0  0  0  0  0  0  0  0  0  0
  146.3126  140.9441  154.0469 H   0  0  0  0  0  0  0  0  0  0  0  0
  148.2500  142.2391  154.9925 H   0  0  0  0  0  0  0  0  0  0  0  0
  149.2883  141.7243  153.5642 H   0  0  0  0  0  0  0  0  0  0  0  0
  152.5038  139.4890  157.5245 H   0  0  0  0  0  0  0  0  0  0  0  0
  151.0219  144.1074  159.6929 H   0  0  0  0  0  0  0  0  0  0  0  0
  152.9525  143.8292  161.2702 H   0  0  0  0  0  0  0  0  0  0  0  0
  154.4575  141.8502  160.9718 H   0  0  0  0  0  0  0  0  0  0  0  0
  1  2  1  0  0  0  0
  1 18  1  0  0  0  0
  1 19  1  0  0  0  0
  1 20  1  0  0  0  0
  2  3  1  0  0  0  0
  2  8  1  0  0  0  0
  2 21  1  0  0  0  0
  3  4  1  0  0  0  0
  4  5  1  0  0  0  0
  4 22  1  0  0  0  0
  4 23  1  0  0  0  0
  5  7  1  0  0  0  0
  5  6  1  0  0  0  0
  5 24  1  0  0  0  0
  6  7  1  0  0  0  0
  6 25  1  0  0  0  0
  6 26  1  0  0  0  0
  7 27  1  0  0  0  0
  7 28  1  0  0  0  0
  8  9  2  0  0  0  0
  8 10  1  0  0  0  0
 10 29  1  0  0  0  0
 10 11  1  0  0  0  0
 11 16  2  0  0  0  0
 11 12  1  0  0  0  0
 12 13  2  0  0  0  0
 13 30  1  0  0  0  0
 13 14  1  0  0  0  0
 14 31  1  0  0  0  0
 14 15  2  0  0  0  0
 15 16  1  0  0  0  0
 15 32  1  0  0  0  0
 16 17  1  0  0  0  0
M  CHG  1  17  -1
M  END
> <s_m_source_file>
AV-unprocessed.smi

> <i_m_source_file_index>
3150

> <i_lp_mmshare_version>
43012

> <i_f3d_flags>
0

> <s_epik_input>
W0NIMl0xW0NIMl1bQ0hdMVtDSDJdT1tDQEBIXShbQ0gzXSlDKD1PKVtOSF1jMm5bY0hdW2NIXVtjSF1jMltPSF0=

> <s_epik_cmdline>
J2VwaWtfcHl0aG9uJywgJy1waCcsICc3LjAnLCAnLXRuJywgJzgnLCAnLW1hJywgJzIwMCcsICctbWV0YWxfYmluZGluZycsICctaW1hZScsICc8aW5maWxlLm1hZT4nLCAnLW9tYWUnLCAnPG91dGZpbGUubWFlPic=

> <r_epik_Ionization_Penalty>
4.12024

> <r_epik_Ionization_Penalty_Charging>
2.08551

> <r_epik_Ionization_Penalty_Neutral>
2.03473

> <r_epik_State_Penalty>
2.65726

> <r_epik_Charging_Adjusted_Penalty>
4.74277

> <i_epik_Tot_Q>
-1

> <i_epik_Tot_abs_Q>
1

> <r_epik_Metal_State_Penalty>
0.600747

> <b_epik_Metal_Only>
0

> <s_lp_Force_Field>
OPLS_2005

> <r_lp_Energy>
13.9624

> <b_lp_Chiralities_Consistent>
1

> <s_lp_Variant>
AV-unprocessed.smi:3150-7

> <Gold.Version>
5.8.1

> <Gold.Id.Protein>
6NUR|6NUR_protein|mol2

> <Gold.PLP.Fitness>
42.9905

> <Gold.PLP.PLP>
-36.1286

> <Gold.PLP.part.hbond>
-2.0621

> <Gold.PLP.part.metal>
0.0000

> <Gold.PLP.part.buried>
-1.8057

> <Gold.PLP.part.nonpolar>
-31.6525

> <Gold.PLP.part.repulsive>
0.3694

> <Gold.PLP.ligand.clash>
0.0000

> <Gold.PLP.ligand.torsion>
1.3632

> <Gold.PLP.Chemscore.Hbond>
3.0000

> <Gold.PLP.Chemscore.CHOScore>
0.0000

> <Gold.PLP.Chemscore.Metal>
0.0000

> <Gold.Chemscore.Hbonds>
donor molecule, donor type, donor heavy atom, donor atom, acceptor molecule, acceptor atom, score
      P1  H  7989  7998       L1     3  0.90
      P1  H  7997  8009       L1    17  1.98

> <Gold.PLP.Chemscore.Internal.Correction>
0.5883

> <Gold.Rescore>
     Score         DG    S(hbond)    S(metal)    S(lipo)     H(rot)  DE(clash)    DE(int)     intcor
     13.12     -15.98       1.35        0.00      87.04       1.64       0.14       2.71       ----

> <Gold.Chemscore.Fitness>
13.1248

> <Gold.Chemscore.DG>
-15.9798

> <Gold.Chemscore.ZeroCoef>
-5.4800

> <Gold.Chemscore.Hbond>
1.3508

> <Gold.Chemscore.Metal>
0.0000

> <Gold.Chemscore.Lipo>
87.0353

> <Gold.Chemscore.Internal_Hbond>
0.0000

> <Gold.Chemscore.DEClash>
0.1417

> <Gold.Chemscore.DEInternal>
2.7134

> <Gold.Chemscore.Rot>
1.6387

> <Gold.Chemscore.Internal.Correction>
   9.000000E+99

> <Gold.Chemscore.Hbonds>
donor molecule, donor type, donor heavy atom, donor atom, acceptor molecule, acceptor atom, score
      P1  H  7989  7998       L1     3  0.18
      P1  H  7997  8009       L1    17  0.75

> <Gold.Chemscore.Hbond.Weighted>
-4.5117

> <Gold.Chemscore.Metal.Weighted>
-0.0000

> <Gold.Chemscore.Lipo.Weighted>
-10.1831

> <Gold.Chemscore.Internal_Hbond.Weighted>
0.0000

> <Gold.Chemscore.DEClash.Weighted>
0.1417

> <Gold.Chemscore.DEInternal.Weighted>
2.7134

> <Gold.Chemscore.Rot.Weighted>
4.1950

> <Gold.Chemscore.Internal.Correction.Weighted>
   9.000000E+99

> <Gold.Protein.RotatedTorsions>
[ 6907 6896 6895 6894 ] final   32.91 input  -60.11 | X-H torsion
[ 7974 7965 7964 7962 ] final -101.35 input  175.53 | X-H torsion
[ 8008 7997 7996 7995 ] final  121.71 input   59.86 | X-H torsion
[ 10167 10162 10161 10158 ] final   36.23 input  -65.29 | X-H torsion
[ 10718 10713 10712 10709 ] final  101.29 input   66.30 | X-H torsion
[ 10763 10752 10751 10750 ] final  137.34 input  -60.55 | X-H torsion
[ 11005 11000 10999 10996 ] final  175.06 input  -57.11 | X-H torsion

> <Gold.Protein.ActiveResidues>
 VAL166  LYS551  ARG553  GLY616  TRP617  ASP618  TYR619  PRO620  LYS621  CYS622 
 ASP623  PHE694  ASN695  SER759  ASP760  ASP761  ALA762  ILE779  LEU786  VAL792 
 PHE793  MET794  SER795  GLU796  ALA797  LYS798  CYS799  TRP800  GLU811  SER814 

> <Gold.Protein.RotatedAtoms>
  152.0811  134.9470  160.0573 H   0  0  0  0  0  0  0  0  0  0  0  0  # atno 6907 bound_to 6896
  152.0759  133.4124  159.4488 H   0  0  0  0  0  0  0  0  0  0  0  0  # atno 6908 bound_to 6896
  150.6836  134.2958  159.4729 H   0  0  0  0  0  0  0  0  0  0  0  0  # atno 6909 bound_to 6896
  145.2827  140.9331  143.2923 H   0  0  0  0  0  0  0  0  0  0  0  0  # atno 7974 bound_to 7965
  156.2698  140.2802  156.1352 H   0  0  0  0  0  0  0  0  0  0  0  0  # atno 8008 bound_to 7997
  155.1012  140.0389  157.2715 H   0  0  0  0  0  0  0  0  0  0  0  0  # atno 8009 bound_to 7997
  154.6814  140.2609  155.6911 H   0  0  0  0  0  0  0  0  0  0  0  0  # atno 8010 bound_to 7997
  140.4147  144.1543  150.6142 H   0  0  0  0  0  0  0  0  0  0  0  0  # atno 10167 bound_to 10162
  157.6833  131.0722  150.5231 H   0  0  0  0  0  0  0  0  0  0  0  0  # atno 10718 bound_to 10713
  153.8714  135.3055  155.3442 H   0  0  0  0  0  0  0  0  0  0  0  0  # atno 10763 bound_to 10752
  154.7804  135.4839  153.9835 H   0  0  0  0  0  0  0  0  0  0  0  0  # atno 10764 bound_to 10752
  153.1404  135.6823  153.9132 H   0  0  0  0  0  0  0  0  0  0  0  0  # atno 10765 bound_to 10752
  140.3581  134.7137  157.4313 H   0  0  0  0  0  0  0  0  0  0  0  0  # atno 11005 bound_to 11000
  144.9239  139.4378  143.6527 LP  0  0  0  0  0  0  0  0  0  0  0  0  # atno 17320 bound_to 7965
  146.3211  139.8115  142.8945 LP  0  0  0  0  0  0  0  0  0  0  0  0  # atno 17321 bound_to 7965
  140.4599  143.2453  151.9234 LP  0  0  0  0  0  0  0  0  0  0  0  0  # atno 17342 bound_to 10162
  139.4782  144.5478  151.8432 LP  0  0  0  0  0  0  0  0  0  0  0  0  # atno 17343 bound_to 10162
  156.5543  130.4239  149.6093 LP  0  0  0  0  0  0  0  0  0  0  0  0  # atno 17370 bound_to 10713
  156.2875  130.7106  151.1946 LP  0  0  0  0  0  0  0  0  0  0  0  0  # atno 17371 bound_to 10713
  140.0649  134.5944  155.8707 LP  0  0  0  0  0  0  0  0  0  0  0  0  # atno 17394 bound_to 11000
  141.1992  133.6605  156.5833 LP  0  0  0  0  0  0  0  0  0  0  0  0  # atno 17395 bound_to 11000

$$$$
