AV-unprocessed.smi:2758|AV-procd|sdf|10623|dock2
  -GOLD-   2272015 73D 1   1.00000     0.00000
 Structure written by MMmdl.
 32 33  0  0  0  0  0  0  0  0  1 V2000
  149.0901  140.8050  154.6479 C   0  0  0  0  0  0  0  0  0  0  0  0
  150.1117  139.8726  154.3405 O   0  0  0  0  0  0  0  0  0  0  0  0
  150.4774  139.0777  155.4566 C   0  0  0  0  0  0  0  0  0  0  0  0
  151.4468  139.8698  156.3490 C   0  0  2  0  0  0  0  0  0  0  0  0
  152.7704  139.5026  156.0112 O   0  0  0  0  0  0  0  0  0  0  0  0
  151.2076  139.5859  157.8464 C   0  0  0  0  0  0  0  0  0  0  0  0
  151.8865  140.5338  158.7208 N   0  0  0  0  0  0  0  0  0  0  0  0
  152.6972  140.2634  159.7731 C   0  0  0  0  0  0  0  0  0  0  0  0
  153.0164  138.8610  160.1841 C   0  0  0  0  0  0  0  0  0  0  0  0
  153.1954  141.3223  160.4117 N   0  0  0  0  0  0  0  0  0  0  0  0
  152.6597  142.3817  159.7047 C   0  0  0  0  0  0  0  0  0  0  0  0
  152.8099  143.7754  159.8847 C   0  0  0  0  0  0  0  0  0  0  0  0
  152.1571  144.6810  159.0229 C   0  0  0  0  0  0  0  0  0  0  0  0
  151.3460  144.2072  157.9714 C   0  0  0  0  0  0  0  0  0  0  0  0
  151.1824  142.8225  157.7747 C   0  0  0  0  0  0  0  0  0  0  0  0
  151.8364  141.9224  158.6373 C   0  0  0  0  0  0  0  0  0  0  0  0
  151.3219  140.9367  156.1627 H   0  0  0  0  0  0  0  0  0  0  0  0
  148.8445  141.3859  153.7588 H   0  0  0  0  0  0  0  0  0  0  0  0
  149.4099  141.4995  155.4259 H   0  0  0  0  0  0  0  0  0  0  0  0
  148.1825  140.2995  154.9802 H   0  0  0  0  0  0  0  0  0  0  0  0
  149.5708  138.8448  156.0175 H   0  0  0  0  0  0  0  0  0  0  0  0
  150.9151  138.1275  155.1442 H   0  0  0  0  0  0  0  0  0  0  0  0
  152.8688  139.5605  155.0734 H   0  0  0  0  0  0  0  0  0  0  0  0
  150.1407  139.6082  158.0697 H   0  0  0  0  0  0  0  0  0  0  0  0
  151.5446  138.5795  158.0978 H   0  0  0  0  0  0  0  0  0  0  0  0
  153.6513  138.8581  161.0707 H   0  0  0  0  0  0  0  0  0  0  0  0
  153.5449  138.3445  159.3828 H   0  0  0  0  0  0  0  0  0  0  0  0
  152.1033  138.3142  160.4170 H   0  0  0  0  0  0  0  0  0  0  0  0
  153.4284  144.1484  160.6876 H   0  0  0  0  0  0  0  0  0  0  0  0
  152.2788  145.7441  159.1697 H   0  0  0  0  0  0  0  0  0  0  0  0
  150.8488  144.9075  157.3166 H   0  0  0  0  0  0  0  0  0  0  0  0
  150.5600  142.4574  156.9716 H   0  0  0  0  0  0  0  0  0  0  0  0
  1  2  1  0  0  0  0
  1 18  1  0  0  0  0
  1 19  1  0  0  0  0
  1 20  1  0  0  0  0
  2  3  1  0  0  0  0
  3  4  1  0  0  0  0
  3 21  1  0  0  0  0
  3 22  1  0  0  0  0
  4 17  1  0  0  0  0
  4  5  1  0  0  0  0
  4  6  1  0  0  0  0
  5 23  1  0  0  0  0
  6  7  1  0  0  0  0
  6 24  1  0  0  0  0
  6 25  1  0  0  0  0
  7 16  1  0  0  0  0
  7  8  1  0  0  0  0
  8  9  1  0  0  0  0
  8 10  2  0  0  0  0
  9 26  1  0  0  0  0
  9 27  1  0  0  0  0
  9 28  1  0  0  0  0
 10 11  1  0  0  0  0
 11 16  2  0  0  0  0
 11 12  1  0  0  0  0
 12 13  2  0  0  0  0
 12 29  1  0  0  0  0
 13 14  1  0  0  0  0
 13 30  1  0  0  0  0
 14 15  2  0  0  0  0
 14 31  1  0  0  0  0
 15 16  1  0  0  0  0
 15 32  1  0  0  0  0
M  END
> <s_m_source_file>
AV-unprocessed.smi

> <i_m_source_file_index>
2758

> <i_lp_mmshare_version>
43012

> <i_f3d_flags>
0

> <s_epik_input>
W0NIM11PW0NIMl1bQ0BASF0oW09IXSlbQ0gyXW4oYyhuMSlbQ0gzXSljKGMxMilbY0hdW2NIXVtjSF1bY0hdMg==

> <s_epik_cmdline>
J2VwaWtfcHl0aG9uJywgJy1waCcsICc3LjAnLCAnLXRuJywgJzgnLCAnLW1hJywgJzIwMCcsICctbWV0YWxfYmluZGluZycsICctaW1hZScsICc8aW5maWxlLm1hZT4nLCAnLW9tYWUnLCAnPG91dGZpbGUubWFlPic=

> <r_epik_Ionization_Penalty>
0.126985

> <r_epik_Ionization_Penalty_Charging>
0

> <r_epik_Ionization_Penalty_Neutral>
0.126985

> <r_epik_State_Penalty>
0.116428

> <r_epik_Charging_Adjusted_Penalty>
0.116428

> <i_epik_Tot_Q>
0

> <i_epik_Tot_abs_Q>
0

> <r_epik_Metal_State_Penalty>
0.000128642

> <b_epik_Metal_Only>
0

> <s_lp_Force_Field>
OPLS_2005

> <r_lp_Energy>
9.16729

> <b_lp_Chiralities_Consistent>
1

> <s_lp_Variant>
AV-unprocessed.smi:2758-2

> <Gold.Version>
5.8.1

> <Gold.Id.Protein>
6NUR|6NUR_protein|mol2

> <Gold.PLP.Fitness>
43.4848

> <Gold.PLP.PLP>
-38.9798

> <Gold.PLP.part.hbond>
-2.0000

> <Gold.PLP.part.metal>
0.0000

> <Gold.PLP.part.buried>
-5.7574

> <Gold.PLP.part.nonpolar>
-31.9060

> <Gold.PLP.part.repulsive>
1.0444

> <Gold.PLP.ligand.clash>
0.0000

> <Gold.PLP.ligand.torsion>
0.7640

> <Gold.PLP.Chemscore.Hbond>
2.0000

> <Gold.PLP.Chemscore.CHOScore>
0.0000

> <Gold.PLP.Chemscore.Metal>
0.0000

> <Gold.Chemscore.Hbonds>
donor molecule, donor type, donor heavy atom, donor atom, acceptor molecule, acceptor atom, score
      P1  H  7989  7998       L1     2  1.00
      P1  H  7997  8010       L1     5  0.50

> <Gold.PLP.Chemscore.Internal.Correction>
0.0329

> <Gold.Rescore>
     Score         DG    S(hbond)    S(metal)    S(lipo)     H(rot)  DE(clash)    DE(int)     intcor
     15.32     -16.21       1.33        0.00      98.58       2.05       0.15       0.74       ----

> <Gold.Chemscore.Fitness>
15.3249

> <Gold.Chemscore.DG>
-16.2137

> <Gold.Chemscore.ZeroCoef>
-5.4800

> <Gold.Chemscore.Hbond>
1.3326

> <Gold.Chemscore.Metal>
0.0000

> <Gold.Chemscore.Lipo>
98.5818

> <Gold.Chemscore.Internal_Hbond>
0.0000

> <Gold.Chemscore.DEClash>
0.1509

> <Gold.Chemscore.DEInternal>
0.7379

> <Gold.Chemscore.Rot>
2.0513

> <Gold.Chemscore.Internal.Correction>
   9.000000E+99

> <Gold.Chemscore.Hbonds>
donor molecule, donor type, donor heavy atom, donor atom, acceptor molecule, acceptor atom, score
      P1  H  7989  7998       L1     2  0.56
      P1  H  7997  8010       L1     5  0.02

> <Gold.Chemscore.Hbond.Weighted>
-4.4510

> <Gold.Chemscore.Metal.Weighted>
-0.0000

> <Gold.Chemscore.Lipo.Weighted>
-11.5341

> <Gold.Chemscore.Internal_Hbond.Weighted>
0.0000

> <Gold.Chemscore.DEClash.Weighted>
0.1509

> <Gold.Chemscore.DEInternal.Weighted>
0.7379

> <Gold.Chemscore.Rot.Weighted>
5.2514

> <Gold.Chemscore.Internal.Correction.Weighted>
   9.000000E+99

> <Gold.Protein.RotatedTorsions>
[ 6907 6896 6895 6894 ] final  102.40 input  -60.11 | X-H torsion
[ 7974 7965 7964 7962 ] final    0.15 input  175.53 | X-H torsion
[ 8008 7997 7996 7995 ] final   83.78 input   59.86 | X-H torsion
[ 10167 10162 10161 10158 ] final -112.62 input  -65.29 | X-H torsion
[ 10718 10713 10712 10709 ] final -125.98 input   66.30 | X-H torsion
[ 10763 10752 10751 10750 ] final   39.74 input  -60.55 | X-H torsion
[ 11005 11000 10999 10996 ] final  -32.52 input  -57.11 | X-H torsion

> <Gold.Protein.ActiveResidues>
 VAL166  LYS551  ARG553  GLY616  TRP617  ASP618  TYR619  PRO620  LYS621  CYS622 
 ASP623  PHE694  ASN695  SER759  ASP760  ASP761  ALA762  ILE779  LEU786  VAL792 
 PHE793  MET794  SER795  GLU796  ALA797  LYS798  CYS799  TRP800  GLU811  SER814 

> <Gold.Protein.RotatedAtoms>
  152.5324  133.9980  159.7881 H   0  0  0  0  0  0  0  0  0  0  0  0  # atno 6907 bound_to 6896
  151.0204  133.5874  159.2679 H   0  0  0  0  0  0  0  0  0  0  0  0  # atno 6908 bound_to 6896
  151.2915  135.0750  159.9259 H   0  0  0  0  0  0  0  0  0  0  0  0  # atno 6909 bound_to 6896
  146.2432  140.1181  142.8341 H   0  0  0  0  0  0  0  0  0  0  0  0  # atno 7974 bound_to 7965
  155.9284  140.3416  155.6229 H   0  0  0  0  0  0  0  0  0  0  0  0  # atno 8008 bound_to 7997
  155.7187  140.0781  157.2358 H   0  0  0  0  0  0  0  0  0  0  0  0  # atno 8009 bound_to 7997
  154.4081  140.1609  156.2365 H   0  0  0  0  0  0  0  0  0  0  0  0  # atno 8010 bound_to 7997
  140.1207  143.4446  152.1692 H   0  0  0  0  0  0  0  0  0  0  0  0  # atno 10167 bound_to 10162
  156.1724  130.6676  151.0197 H   0  0  0  0  0  0  0  0  0  0  0  0  # atno 10718 bound_to 10713
  152.9957  135.6212  154.2514 H   0  0  0  0  0  0  0  0  0  0  0  0  # atno 10763 bound_to 10752
  154.2252  135.2794  155.2912 H   0  0  0  0  0  0  0  0  0  0  0  0  # atno 10764 bound_to 10752
  154.5495  135.5737  153.6968 H   0  0  0  0  0  0  0  0  0  0  0  0  # atno 10765 bound_to 10752
  140.9559  133.7193  156.1293 H   0  0  0  0  0  0  0  0  0  0  0  0  # atno 11005 bound_to 11000
  145.0430  140.8960  143.5041 LP  0  0  0  0  0  0  0  0  0  0  0  0  # atno 17320 bound_to 7965
  145.1265  139.2659  143.5561 LP  0  0  0  0  0  0  0  0  0  0  0  0  # atno 17321 bound_to 7965
  139.5570  144.7380  151.4265 LP  0  0  0  0  0  0  0  0  0  0  0  0  # atno 17342 bound_to 10162
  140.6873  143.7943  150.7205 LP  0  0  0  0  0  0  0  0  0  0  0  0  # atno 17343 bound_to 10162
  157.6812  131.0837  150.7365 LP  0  0  0  0  0  0  0  0  0  0  0  0  # atno 17370 bound_to 10713
  156.7424  130.4743  149.5474 LP  0  0  0  0  0  0  0  0  0  0  0  0  # atno 17371 bound_to 10713
  140.7537  134.4017  157.5537 LP  0  0  0  0  0  0  0  0  0  0  0  0  # atno 17394 bound_to 11000
  139.8862  134.8916  156.2598 LP  0  0  0  0  0  0  0  0  0  0  0  0  # atno 17395 bound_to 11000

$$$$
