AV-unprocessed.smi:437|AV-procd|sdf|2561|dock2
  -GOLD-   2262022533D 1   1.00000     0.00000
 Structure written by MMmdl.
 48 49  0  0  0  0  0  0  0  0  1 V2000
  151.1493  131.3904  157.2208 C   0  0  0  0  0  0  0  0  0  0  0  0
  150.4861  132.5043  156.4560 C   0  0  0  0  0  0  0  0  0  0  0  0
  150.6432  133.7009  156.9187 N   0  0  0  0  0  0  0  0  0  0  0  0
  150.0723  134.7940  156.2961 N   0  0  0  0  0  0  0  0  0  0  0  0
  150.3422  136.0741  156.9679 C   0  0  0  0  0  0  0  0  0  0  0  0
  151.0293  137.1032  156.0564 C   0  0  0  0  0  0  0  0  0  0  0  0
  151.4701  136.7606  154.9560 O   0  0  0  0  0  0  0  0  0  0  0  0
  151.0871  138.3548  156.5547 N   0  0  0  0  0  0  0  0  0  0  0  0
  151.6294  139.4441  155.9772 C   0  0  0  0  0  0  0  0  0  0  0  0
  151.8595  139.5819  154.7738 O   0  0  0  0  0  0  0  0  0  0  0  0
  151.8972  140.3872  156.8919 N   0  0  0  0  0  0  0  0  0  0  0  0
  151.3003  140.4765  158.2253 C   0  0  2  0  0  0  0  0  0  0  0  0
  150.6271  141.8503  158.4313 C   0  0  0  0  0  0  0  0  0  0  0  0
  151.6545  142.9903  158.5382 C   0  0  0  0  0  0  0  0  0  0  0  0
  152.6857  142.7080  159.6410 C   0  0  0  0  0  0  0  0  0  0  0  0
  153.3759  141.3512  159.4284 C   0  0  0  0  0  0  0  0  0  0  0  0
  152.3521  140.2014  159.3287 C   0  0  2  0  0  0  0  0  0  0  0  0
  153.0469  138.8388  159.1645 C   0  0  0  0  0  0  0  0  0  0  0  0
  149.3177  134.7350  155.1609 C   0  0  0  0  0  0  0  0  0  0  0  0
  148.8328  135.7382  154.6351 O   0  0  0  0  0  0  0  0  0  0  0  0
  149.1439  133.3764  154.6423 C   0  0  0  0  0  0  0  0  0  0  0  0
  148.3537  133.2686  153.4586 C   0  0  0  0  0  0  0  0  0  0  0  0
  147.7232  133.1965  152.4905 N   0  0  0  0  0  0  0  0  0  0  0  0
  149.6960  132.2948  155.2471 C   0  0  0  0  0  0  0  0  0  0  0  0
  149.5467  130.8638  154.7492 C   0  0  0  0  0  0  0  0  0  0  0  0
  151.8948  130.8884  156.6037 H   0  0  0  0  0  0  0  0  0  0  0  0
  150.4167  130.6481  157.5380 H   0  0  0  0  0  0  0  0  0  0  0  0
  151.6547  131.7559  158.1161 H   0  0  0  0  0  0  0  0  0  0  0  0
  149.4102  136.5123  157.3296 H   0  0  0  0  0  0  0  0  0  0  0  0
  150.9521  135.9104  157.8586 H   0  0  0  0  0  0  0  0  0  0  0  0
  150.6745  138.4906  157.4656 H   0  0  0  0  0  0  0  0  0  0  0  0
  152.5678  141.1028  156.6531 H   0  0  0  0  0  0  0  0  0  0  0  0
  150.5296  139.7077  158.3085 H   0  0  0  0  0  0  0  0  0  0  0  0
  149.9246  142.0558  157.6226 H   0  0  0  0  0  0  0  0  0  0  0  0
  150.0325  141.8221  159.3453 H   0  0  0  0  0  0  0  0  0  0  0  0
  152.1648  143.1191  157.5830 H   0  0  0  0  0  0  0  0  0  0  0  0
  151.1429  143.9314  158.7421 H   0  0  0  0  0  0  0  0  0  0  0  0
  153.4309  143.5036  159.6653 H   0  0  0  0  0  0  0  0  0  0  0  0
  152.1919  142.7177  160.6137 H   0  0  0  0  0  0  0  0  0  0  0  0
  153.9830  141.3897  158.5231 H   0  0  0  0  0  0  0  0  0  0  0  0
  154.0663  141.1634  160.2515 H   0  0  0  0  0  0  0  0  0  0  0  0
  151.8153  140.1654  160.2779 H   0  0  0  0  0  0  0  0  0  0  0  0
  153.6620  138.8040  158.2650 H   0  0  0  0  0  0  0  0  0  0  0  0
  152.3167  138.0316  159.1010 H   0  0  0  0  0  0  0  0  0  0  0  0
  153.6964  138.6277  160.0143 H   0  0  0  0  0  0  0  0  0  0  0  0
  148.9822  130.8068  153.8190 H   0  0  0  0  0  0  0  0  0  0  0  0
  149.0250  130.2553  155.4889 H   0  0  0  0  0  0  0  0  0  0  0  0
  150.5247  130.4176  154.5650 H   0  0  0  0  0  0  0  0  0  0  0  0
  1  2  1  0  0  0  0
  1 26  1  0  0  0  0
  1 27  1  0  0  0  0
  1 28  1  0  0  0  0
  2 24  1  0  0  0  0
  2  3  2  0  0  0  0
  3  4  1  0  0  0  0
  4  5  1  0  0  0  0
  4 19  1  0  0  0  0
  5  6  1  0  0  0  0
  5 29  1  0  0  0  0
  5 30  1  0  0  0  0
  6  7  2  0  0  0  0
  6  8  1  0  0  0  0
  8  9  1  0  0  0  0
  8 31  1  0  0  0  0
  9 10  2  0  0  0  0
  9 11  1  0  0  0  0
 11 12  1  0  0  0  0
 11 32  1  0  0  0  0
 12 17  1  0  0  0  0
 12 13  1  0  0  0  0
 12 33  1  0  0  0  0
 13 14  1  0  0  0  0
 13 34  1  0  0  0  0
 13 35  1  0  0  0  0
 14 15  1  0  0  0  0
 14 36  1  0  0  0  0
 14 37  1  0  0  0  0
 15 16  1  0  0  0  0
 15 38  1  0  0  0  0
 15 39  1  0  0  0  0
 16 17  1  0  0  0  0
 16 40  1  0  0  0  0
 16 41  1  0  0  0  0
 17 18  1  0  0  0  0
 17 42  1  0  0  0  0
 18 43  1  0  0  0  0
 18 44  1  0  0  0  0
 18 45  1  0  0  0  0
 19 20  2  0  0  0  0
 19 21  1  0  0  0  0
 21 22  1  0  0  0  0
 21 24  2  0  0  0  0
 22 23  3  0  0  0  0
 24 25  1  0  0  0  0
 25 46  1  0  0  0  0
 25 47  1  0  0  0  0
 25 48  1  0  0  0  0
M  END
> <s_m_source_file>
AV-unprocessed.smi

> <i_m_source_file_index>
437

> <i_lp_mmshare_version>
43012

> <i_f3d_flags>
0

> <s_epik_input>
TiNDYyhjMVtDSDNdKWMoPU8pbihuYzFbQ0gzXSlbQ0gyXUMoPU8pW05IXUMoPU8pW05IXVtDQEBIXTJbQ0gyXVtDSDJdW0NIMl1bQ0gyXVtDQEhdMltDSDNd

> <s_epik_cmdline>
J2VwaWtfcHl0aG9uJywgJy1waCcsICc3LjAnLCAnLXRuJywgJzgnLCAnLW1hJywgJzIwMCcsICctbWV0YWxfYmluZGluZycsICctaW1hZScsICc8aW5maWxlLm1hZT4nLCAnLW9tYWUnLCAnPG91dGZpbGUubWFlPic=

> <r_lp_tautomer_probability>
1

> <r_epik_Ionization_Penalty>
3.27035e-05

> <r_epik_Ionization_Penalty_Charging>
1.6965e-11

> <r_epik_Ionization_Penalty_Neutral>
3.27035e-05

> <r_epik_State_Penalty>
-0

> <r_epik_Charging_Adjusted_Penalty>
1.6965e-11

> <i_epik_Tot_Q>
0

> <i_epik_Tot_abs_Q>
0

> <r_epik_Metal_State_Penalty>
-0

> <b_epik_Metal_Only>
0

> <s_lp_Force_Field>
OPLS_2005

> <r_lp_Energy>
26.4777

> <b_lp_Chiralities_Consistent>
1

> <s_lp_Variant>
AV-unprocessed.smi:437-3

> <Gold.Version>
5.8.1

> <Gold.Id.Protein>
6NUR|6NUR_protein|mol2

> <Gold.PLP.Fitness>
45.4614

> <Gold.PLP.PLP>
-40.7718

> <Gold.PLP.part.hbond>
-3.0000

> <Gold.PLP.part.metal>
0.0000

> <Gold.PLP.part.buried>
-7.2807

> <Gold.PLP.part.nonpolar>
-32.0814

> <Gold.PLP.part.repulsive>
1.4483

> <Gold.PLP.ligand.clash>
1.4850

> <Gold.PLP.ligand.torsion>
0.3227

> <Gold.PLP.Chemscore.Hbond>
2.2618

> <Gold.PLP.Chemscore.CHOScore>
0.0000

> <Gold.PLP.Chemscore.Metal>
0.0000

> <Gold.Chemscore.Hbonds>
donor molecule, donor type, donor heavy atom, donor atom, acceptor molecule, acceptor atom, score
      P1  H  6896  6907       L1     3  0.05
      P1  H  7989  7998       L1    10  0.99
      P1  H 10752 10765       L1     7  1.00

> <Gold.PLP.Chemscore.Internal.Correction>
0.0348

> <Gold.Rescore>
     Score         DG    S(hbond)    S(metal)    S(lipo)     H(rot)  DE(clash)    DE(int)     intcor
     14.07     -16.97       1.97        0.00      76.15       1.57       0.18       2.73       ----

> <Gold.Chemscore.Fitness>
14.0705

> <Gold.Chemscore.DG>
-16.9719

> <Gold.Chemscore.ZeroCoef>
-5.4800

> <Gold.Chemscore.Hbond>
1.9733

> <Gold.Chemscore.Metal>
0.0000

> <Gold.Chemscore.Lipo>
76.1458

> <Gold.Chemscore.Internal_Hbond>
0.0000

> <Gold.Chemscore.DEClash>
0.1753

> <Gold.Chemscore.DEInternal>
2.7260

> <Gold.Chemscore.Rot>
1.5656

> <Gold.Chemscore.Internal.Correction>
   9.000000E+99

> <Gold.Chemscore.Hbonds>
donor molecule, donor type, donor heavy atom, donor atom, acceptor molecule, acceptor atom, score
      P1  H  6896  6907       L1     3  0.03
      P1  H  7989  7998       L1    10  0.94
      P1  H 10752 10765       L1     7  0.94

> <Gold.Chemscore.Hbond.Weighted>
-6.5907

> <Gold.Chemscore.Metal.Weighted>
-0.0000

> <Gold.Chemscore.Lipo.Weighted>
-8.9091

> <Gold.Chemscore.Internal_Hbond.Weighted>
0.0000

> <Gold.Chemscore.DEClash.Weighted>
0.1753

> <Gold.Chemscore.DEInternal.Weighted>
2.7260

> <Gold.Chemscore.Rot.Weighted>
4.0079

> <Gold.Chemscore.Internal.Correction.Weighted>
   9.000000E+99

> <Gold.Protein.RotatedTorsions>
[ 6907 6896 6895 6894 ] final -160.04 input  -60.11 | X-H torsion
[ 7974 7965 7964 7962 ] final -118.85 input  175.53 | X-H torsion
[ 8008 7997 7996 7995 ] final -167.19 input   59.86 | X-H torsion
[ 10167 10162 10161 10158 ] final -135.82 input  -65.29 | X-H torsion
[ 10718 10713 10712 10709 ] final   21.21 input   66.30 | X-H torsion
[ 10763 10752 10751 10750 ] final  158.21 input  -60.55 | X-H torsion
[ 11005 11000 10999 10996 ] final    0.09 input  -57.11 | X-H torsion

> <Gold.Protein.ActiveResidues>
 VAL166  LYS551  ARG553  GLY616  TRP617  ASP618  TYR619  PRO620  LYS621  CYS622 
 ASP623  PHE694  ASN695  SER759  ASP760  ASP761  ALA762  ILE779  LEU786  VAL792 
 PHE793  MET794  SER795  GLU796  ALA797  LYS798  CYS799  TRP800  GLU811  SER814 

> <Gold.Protein.RotatedAtoms>
  151.3429  133.3955  159.2672 H   0  0  0  0  0  0  0  0  0  0  0  0  # atno 6907 bound_to 6896
  150.9863  134.9208  159.7884 H   0  0  0  0  0  0  0  0  0  0  0  0  # atno 6908 bound_to 6896
  152.5233  134.3394  159.9264 H   0  0  0  0  0  0  0  0  0  0  0  0  # atno 6909 bound_to 6896
  145.0692  140.8347  143.4106 H   0  0  0  0  0  0  0  0  0  0  0  0  # atno 7974 bound_to 7965
  155.8742  140.0998  157.1529 H   0  0  0  0  0  0  0  0  0  0  0  0  # atno 8008 bound_to 7997
  154.3999  140.1341  156.4179 H   0  0  0  0  0  0  0  0  0  0  0  0  # atno 8009 bound_to 7997
  155.7716  140.3460  155.5252 H   0  0  0  0  0  0  0  0  0  0  0  0  # atno 8010 bound_to 7997
  139.8740  143.6922  152.2636 H   0  0  0  0  0  0  0  0  0  0  0  0  # atno 10167 bound_to 10162
  157.1353  130.6609  149.5964 H   0  0  0  0  0  0  0  0  0  0  0  0  # atno 10718 bound_to 10713
  154.2124  135.2785  155.2953 H   0  0  0  0  0  0  0  0  0  0  0  0  # atno 10763 bound_to 10752
  154.5768  135.5602  153.7150 H   0  0  0  0  0  0  0  0  0  0  0  0  # atno 10764 bound_to 10752
  153.0061  135.6335  154.2263 H   0  0  0  0  0  0  0  0  0  0  0  0  # atno 10765 bound_to 10752
  140.6305  133.9580  155.8271 H   0  0  0  0  0  0  0  0  0  0  0  0  # atno 11005 bound_to 11000
  145.1313  139.2630  143.5538 LP  0  0  0  0  0  0  0  0  0  0  0  0  # atno 17320 bound_to 7965
  146.3528  140.0965  142.8610 LP  0  0  0  0  0  0  0  0  0  0  0  0  # atno 17321 bound_to 7965
  139.7257  144.7593  151.0882 LP  0  0  0  0  0  0  0  0  0  0  0  0  # atno 17342 bound_to 10162
  140.7756  143.5151  150.9605 LP  0  0  0  0  0  0  0  0  0  0  0  0  # atno 17343 bound_to 10162
  155.9799  130.4796  150.6744 LP  0  0  0  0  0  0  0  0  0  0  0  0  # atno 17370 bound_to 10713
  157.4356  131.0855  151.0995 LP  0  0  0  0  0  0  0  0  0  0  0  0  # atno 17371 bound_to 10713
  141.0679  134.0249  157.3568 LP  0  0  0  0  0  0  0  0  0  0  0  0  # atno 17394 bound_to 11000
  139.9118  135.0191  156.7722 LP  0  0  0  0  0  0  0  0  0  0  0  0  # atno 17395 bound_to 11000

$$$$
