AV-unprocessed.smi:1762|AV-procd|sdf|7108|dock5
  -GOLD-   22720 8333D 1   1.00000     0.00000
 Structure written by MMmdl.
 53 54  0  0  0  0  0  0  0  0  2 V2000
  150.1492  135.0802  156.2033 C   0  0  0  0  0  0  0  0  0  0  0  0
  150.3351  136.1679  155.1390 C   0  0  1  0  0  0  0  0  0  0  0  0
  149.1651  137.1707  155.1142 C   0  0  0  0  0  0  0  0  0  0  0  0
  149.3680  138.2570  154.1477 N   0  0  0  0  0  0  0  0  0  0  0  0
  148.2243  139.2106  154.0938 C   0  0  1  0  0  0  0  0  0  0  0  0
  146.8606  138.5126  153.8779 C   0  0  0  0  0  0  0  0  0  0  0  0
  145.8621  138.8927  154.4905 O   0  0  0  0  0  0  0  0  0  0  0  0
  146.8404  137.4751  153.0260 N   0  0  0  0  0  0  0  0  0  0  0  0
  145.6599  136.6784  152.7150 C   0  0  0  0  0  0  0  0  0  0  0  0
  145.7042  136.1436  151.2736 C   0  0  0  0  0  0  0  0  0  0  0  0
  144.8913  134.8748  151.1071 C   0  0  0  0  0  0  0  0  0  0  0  0
  143.8876  134.5021  152.0275 C   0  0  0  0  0  0  0  0  0  0  0  0
  143.1622  133.3117  151.8116 C   0  0  0  0  0  0  0  0  0  0  0  0
  143.4543  132.5211  150.6808 C   0  0  0  0  0  0  0  0  0  0  0  0
  144.4654  132.9418  149.7928 C   0  0  0  0  0  0  0  0  0  0  0  0
  145.1386  134.0884  150.0343 N   0  3  0  0  0  0  0  0  0  0  0  0
  148.1463  140.2188  155.2893 C   0  0  0  0  0  0  0  0  0  0  0  0
  147.6651  139.5859  156.6098 C   0  0  0  0  0  0  0  0  0  0  0  0
  147.3258  141.4853  154.9722 C   0  0  0  0  0  0  0  0  0  0  0  0
  150.6713  138.8868  154.4228 C   0  0  0  0  0  0  0  0  0  0  0  0
  151.8295  137.8712  154.4571 C   0  0  1  0  0  0  0  0  0  0  0  0
  153.1652  138.5237  154.8304 C   0  0  0  0  0  0  0  0  0  0  0  0
  151.5417  136.8655  155.4201 O   0  0  0  0  0  0  0  0  0  0  0  0
  149.2419  134.5038  156.0210 H   0  0  0  0  0  0  0  0  0  0  0  0
  150.0770  135.5121  157.2018 H   0  0  0  0  0  0  0  0  0  0  0  0
  150.9895  134.3856  156.2006 H   0  0  0  0  0  0  0  0  0  0  0  0
  150.4232  135.6871  154.1632 H   0  0  0  0  0  0  0  0  0  0  0  0
  148.2695  136.6019  154.8733 H   0  0  0  0  0  0  0  0  0  0  0  0
  149.0166  137.5857  156.1127 H   0  0  0  0  0  0  0  0  0  0  0  0
  148.3788  139.8260  153.2047 H   0  0  0  0  0  0  0  0  0  0  0  0
  147.7024  137.2223  152.5644 H   0  0  0  0  0  0  0  0  0  0  0  0
  145.5714  135.8547  153.4257 H   0  0  0  0  0  0  0  0  0  0  0  0
  144.7793  137.3056  152.8556 H   0  0  0  0  0  0  0  0  0  0  0  0
  145.3305  136.8997  150.5817 H   0  0  0  0  0  0  0  0  0  0  0  0
  146.7340  135.9403  150.9767 H   0  0  0  0  0  0  0  0  0  0  0  0
  143.6737  135.1199  152.8877 H   0  0  0  0  0  0  0  0  0  0  0  0
  142.3905  133.0089  152.5043 H   0  0  0  0  0  0  0  0  0  0  0  0
  142.9102  131.6063  150.4972 H   0  0  0  0  0  0  0  0  0  0  0  0
  144.7536  132.4002  148.9034 H   0  0  0  0  0  0  0  0  0  0  0  0
  149.1505  140.5991  155.4683 H   0  0  0  0  0  0  0  0  0  0  0  0
  146.6239  139.2694  156.5550 H   0  0  0  0  0  0  0  0  0  0  0  0
  147.7435  140.2985  157.4312 H   0  0  0  0  0  0  0  0  0  0  0  0
  148.2639  138.7161  156.8802 H   0  0  0  0  0  0  0  0  0  0  0  0
  146.2605  141.2723  154.8782 H   0  0  0  0  0  0  0  0  0  0  0  0
  147.6591  141.9478  154.0427 H   0  0  0  0  0  0  0  0  0  0  0  0
  147.4371  142.2274  155.7631 H   0  0  0  0  0  0  0  0  0  0  0  0
  150.9253  139.6239  153.6621 H   0  0  0  0  0  0  0  0  0  0  0  0
  150.6264  139.4219  155.3731 H   0  0  0  0  0  0  0  0  0  0  0  0
  151.9329  137.4039  153.4763 H   0  0  0  0  0  0  0  0  0  0  0  0
  153.4399  139.2954  154.1110 H   0  0  0  0  0  0  0  0  0  0  0  0
  153.9675  137.7856  154.8475 H   0  0  0  0  0  0  0  0  0  0  0  0
  153.1171  138.9860  155.8165 H   0  0  0  0  0  0  0  0  0  0  0  0
  145.8658  134.3736  149.3781 H   0  0  0  0  0  0  0  0  0  0  0  0
  1  2  1  0  0  0  0
  1 24  1  0  0  0  0
  1 25  1  0  0  0  0
  1 26  1  0  0  0  0
  2 23  1  0  0  0  0
  2  3  1  0  0  0  0
  2 27  1  0  0  0  0
  3  4  1  0  0  0  0
  3 28  1  0  0  0  0
  3 29  1  0  0  0  0
  4  5  1  0  0  0  0
  4 20  1  0  0  0  0
  5  6  1  0  0  0  0
  5 17  1  0  0  0  0
  5 30  1  0  0  0  0
  6  7  2  0  0  0  0
  6  8  1  0  0  0  0
  8  9  1  0  0  0  0
  8 31  1  0  0  0  0
  9 10  1  0  0  0  0
  9 32  1  0  0  0  0
  9 33  1  0  0  0  0
 10 11  1  0  0  0  0
 10 34  1  0  0  0  0
 10 35  1  0  0  0  0
 11 16  1  0  0  0  0
 11 12  2  0  0  0  0
 12 13  1  0  0  0  0
 12 36  1  0  0  0  0
 13 14  2  0  0  0  0
 13 37  1  0  0  0  0
 14 15  1  0  0  0  0
 14 38  1  0  0  0  0
 15 16  2  0  0  0  0
 15 39  1  0  0  0  0
 16 53  1  0  0  0  0
 17 18  1  0  0  0  0
 17 19  1  0  0  0  0
 17 40  1  0  0  0  0
 18 41  1  0  0  0  0
 18 42  1  0  0  0  0
 18 43  1  0  0  0  0
 19 44  1  0  0  0  0
 19 45  1  0  0  0  0
 19 46  1  0  0  0  0
 20 21  1  0  0  0  0
 20 47  1  0  0  0  0
 20 48  1  0  0  0  0
 21 22  1  0  0  0  0
 21 23  1  0  0  0  0
 21 49  1  0  0  0  0
 22 50  1  0  0  0  0
 22 51  1  0  0  0  0
 22 52  1  0  0  0  0
M  CHG  1  16   1
M  END
> <s_m_source_file>
AV-unprocessed.smi

> <i_m_source_file_index>
1762

> <i_lp_mmshare_version>
43012

> <i_f3d_flags>
0

> <s_epik_input>
W0NIM11bQ0BASF0xW0NIMl1OKFtDSDJdW0NASF0oTzEpW0NIM10pW0NAQEhdKFtDSF0oW0NIM10pW0NIM10pQyg9TylbTkhdW0NIMl1bQ0gyXWMyW2NIXVtjSF1bY0hdW2NIXW4y

> <s_epik_cmdline>
J2VwaWtfcHl0aG9uJywgJy1waCcsICc3LjAnLCAnLXRuJywgJzgnLCAnLW1hJywgJzIwMCcsICctbWV0YWxfYmluZGluZycsICctaW1hZScsICc8aW5maWxlLm1hZT4nLCAnLW9tYWUnLCAnPG91dGZpbGUubWFlPic=

> <r_epik_Ionization_Penalty>
1.86475

> <r_epik_Ionization_Penalty_Charging>
1.85347

> <r_epik_Ionization_Penalty_Neutral>
0.0112771

> <r_epik_State_Penalty>
1.99714

> <r_epik_Charging_Adjusted_Penalty>
3.85061

> <i_epik_Tot_Q>
1

> <i_epik_Tot_abs_Q>
1

> <r_epik_Metal_State_Penalty>
2.02271

> <b_epik_Metal_Only>
0

> <s_lp_Force_Field>
OPLS_2005

> <r_lp_Energy>
32.1869

> <b_lp_Chiralities_Consistent>
1

> <s_lp_Variant>
AV-unprocessed.smi:1762-10

> <Gold.Version>
5.8.1

> <Gold.Id.Protein>
6NUR|6NUR_protein|mol2

> <Gold.PLP.Fitness>
45.3938

> <Gold.PLP.PLP>
-38.8846

> <Gold.PLP.part.hbond>
-3.0000

> <Gold.PLP.part.metal>
0.0000

> <Gold.PLP.part.buried>
-5.8147

> <Gold.PLP.part.nonpolar>
-31.7389

> <Gold.PLP.part.repulsive>
1.0928

> <Gold.PLP.ligand.clash>
0.0000

> <Gold.PLP.ligand.torsion>
1.2785

> <Gold.PLP.Chemscore.Hbond>
2.8800

> <Gold.PLP.Chemscore.CHOScore>
0.0000

> <Gold.PLP.Chemscore.Metal>
0.0000

> <Gold.Chemscore.Hbonds>
donor molecule, donor type, donor heavy atom, donor atom, acceptor molecule, acceptor atom, score
      L1  H     8    31       P1  7948  1.00
      L1  H    16    53       P1  7921  0.86
      P1  H 10752 10765       L1    23  0.67

> <Gold.PLP.Chemscore.Internal.Correction>
0.4263

> <Gold.Rescore>
     Score         DG    S(hbond)    S(metal)    S(lipo)     H(rot)  DE(clash)    DE(int)     intcor
     16.68     -19.58       2.06        0.00      99.34       1.72       0.17       2.73       ----

> <Gold.Chemscore.Fitness>
16.6799

> <Gold.Chemscore.DG>
-19.5799

> <Gold.Chemscore.ZeroCoef>
-5.4800

> <Gold.Chemscore.Hbond>
2.0579

> <Gold.Chemscore.Metal>
0.0000

> <Gold.Chemscore.Lipo>
99.3417

> <Gold.Chemscore.Internal_Hbond>
0.0000

> <Gold.Chemscore.DEClash>
0.1688

> <Gold.Chemscore.DEInternal>
2.7312

> <Gold.Chemscore.Rot>
1.7174

> <Gold.Chemscore.Internal.Correction>
   9.000000E+99

> <Gold.Chemscore.Hbonds>
donor molecule, donor type, donor heavy atom, donor atom, acceptor molecule, acceptor atom, score
      L1  H     8    31       P1  7948  1.00
      L1  H    16    53       P1  7921  0.51
      P1  H 10752 10765       L1    23  0.03

> <Gold.Chemscore.Hbond.Weighted>
-6.8735

> <Gold.Chemscore.Metal.Weighted>
-0.0000

> <Gold.Chemscore.Lipo.Weighted>
-11.6230

> <Gold.Chemscore.Internal_Hbond.Weighted>
0.0000

> <Gold.Chemscore.DEClash.Weighted>
0.1688

> <Gold.Chemscore.DEInternal.Weighted>
2.7312

> <Gold.Chemscore.Rot.Weighted>
4.3966

> <Gold.Chemscore.Internal.Correction.Weighted>
   9.000000E+99

> <Gold.Protein.RotatedTorsions>
[ 6907 6896 6895 6894 ] final  150.24 input  -60.11 | X-H torsion
[ 7974 7965 7964 7962 ] final   71.42 input  175.53 | X-H torsion
[ 8008 7997 7996 7995 ] final  144.26 input   59.86 | X-H torsion
[ 10167 10162 10161 10158 ] final  -23.85 input  -65.29 | X-H torsion
[ 10718 10713 10712 10709 ] final  130.78 input   66.30 | X-H torsion
[ 10763 10752 10751 10750 ] final -171.95 input  -60.55 | X-H torsion
[ 11005 11000 10999 10996 ] final   90.14 input  -57.11 | X-H torsion

> <Gold.Protein.ActiveResidues>
 VAL166  LYS551  ARG553  GLY616  TRP617  ASP618  TYR619  PRO620  LYS621  CYS622 
 ASP623  PHE694  ASN695  SER759  ASP760  ASP761  ALA762  ILE779  LEU786  VAL792 
 PHE793  MET794  SER795  GLU796  ALA797  LYS798  CYS799  TRP800  GLU811  SER814 

> <Gold.Protein.RotatedAtoms>
  152.1171  133.4333  159.4657 H   0  0  0  0  0  0  0  0  0  0  0  0  # atno 6907 bound_to 6896
  150.6870  134.2579  159.4546 H   0  0  0  0  0  0  0  0  0  0  0  0  # atno 6908 bound_to 6896
  152.0452  134.9686  160.0625 H   0  0  0  0  0  0  0  0  0  0  0  0  # atno 6909 bound_to 6896
  145.7660  139.2822  143.1348 H   0  0  0  0  0  0  0  0  0  0  0  0  # atno 7974 bound_to 7965
  156.2912  140.2240  156.5025 H   0  0  0  0  0  0  0  0  0  0  0  0  # atno 8008 bound_to 7997
  154.7678  140.0469  157.1048 H   0  0  0  0  0  0  0  0  0  0  0  0  # atno 8009 bound_to 7997
  154.9912  140.3090  155.4909 H   0  0  0  0  0  0  0  0  0  0  0  0  # atno 8010 bound_to 7997
  140.7288  143.4406  151.0663 H   0  0  0  0  0  0  0  0  0  0  0  0  # atno 10167 bound_to 10162
  157.5029  131.1095  150.9401 H   0  0  0  0  0  0  0  0  0  0  0  0  # atno 10718 bound_to 10713
  154.6248  135.2879  155.0285 H   0  0  0  0  0  0  0  0  0  0  0  0  # atno 10763 bound_to 10752
  154.1466  135.6510  153.4958 H   0  0  0  0  0  0  0  0  0  0  0  0  # atno 10764 bound_to 10752
  153.0252  135.5345  154.7052 H   0  0  0  0  0  0  0  0  0  0  0  0  # atno 10765 bound_to 10752
  139.8861  134.8595  156.3242 H   0  0  0  0  0  0  0  0  0  0  0  0  # atno 11005 bound_to 11000
  146.0217  140.8342  142.9920 LP  0  0  0  0  0  0  0  0  0  0  0  0  # atno 17320 bound_to 7965
  144.6821  140.2638  143.7315 LP  0  0  0  0  0  0  0  0  0  0  0  0  # atno 17321 bound_to 7965
  139.8072  143.8001  152.3168 LP  0  0  0  0  0  0  0  0  0  0  0  0  # atno 17342 bound_to 10162
  139.8038  144.7363  150.9789 LP  0  0  0  0  0  0  0  0  0  0  0  0  # atno 17343 bound_to 10162
  157.0066  130.5620  149.5316 LP  0  0  0  0  0  0  0  0  0  0  0  0  # atno 17370 bound_to 10713
  156.0240  130.5335  150.8356 LP  0  0  0  0  0  0  0  0  0  0  0  0  # atno 17371 bound_to 10713
  140.9766  133.7294  156.0611 LP  0  0  0  0  0  0  0  0  0  0  0  0  # atno 17394 bound_to 11000
  140.7803  134.3733  157.5489 LP  0  0  0  0  0  0  0  0  0  0  0  0  # atno 17395 bound_to 11000

$$$$
