AV-unprocessed.smi:3149|AV-procd|sdf|12002|dock9
  -GOLD-   2272017403D 1   1.00000     0.00000
 Structure written by MMmdl.
 38 39  0  0  0  0  0  0  0  0  2 V2000
  149.7736  139.9571  157.4643 C   0  0  0  0  0  0  0  0  0  0  0  0
  149.3392  141.0377  156.4551 C   0  0  1  0  0  0  0  0  0  0  0  0
  150.3437  142.1267  156.4168 N   0  3  0  0  0  0  0  0  0  0  0  0
  151.1080  142.3323  157.6646 C   0  0  0  0  0  0  0  0  0  0  0  0
  150.3706  143.2747  158.6203 C   0  0  0  0  0  0  0  0  0  0  0  0
  149.2545  142.9826  159.0511 O   0  0  0  0  0  0  0  0  0  0  0  0
  151.0511  144.4158  159.0497 N   0  0  0  0  0  0  0  0  0  0  0  0
  152.4832  144.3955  159.3078 C   0  0  0  0  0  0  0  0  0  0  0  0
  152.2006  145.4805  160.3519 C   0  0  0  0  0  0  0  0  0  0  0  0
  150.7304  145.0493  160.3200 C   0  0  0  0  0  0  0  0  0  0  0  0
  149.1278  140.4646  155.0265 C   0  0  1  0  0  0  0  0  0  0  0  0
  149.0617  141.5526  153.9385 C   0  0  0  0  0  0  0  0  0  0  0  0
  150.1558  139.4905  154.6738 N   0  0  0  0  0  0  0  0  0  0  0  0
  149.9899  138.2512  154.0897 C   0  0  0  0  0  0  0  0  0  0  0  0
  151.2308  137.7043  153.9310 C   0  0  0  0  0  0  0  0  0  0  0  0
  152.1080  138.7006  154.4418 C   0  0  0  0  0  0  0  0  0  0  0  0
  151.4632  139.7694  154.8803 N   0  0  0  0  0  0  0  0  0  0  0  0
  149.0175  139.1804  157.5732 H   0  0  0  0  0  0  0  0  0  0  0  0
  149.9314  140.3738  158.4587 H   0  0  0  0  0  0  0  0  0  0  0  0
  150.7029  139.4768  157.1558 H   0  0  0  0  0  0  0  0  0  0  0  0
  148.3925  141.4616  156.7942 H   0  0  0  0  0  0  0  0  0  0  0  0
  150.9828  141.9682  155.6513 H   0  0  0  0  0  0  0  0  0  0  0  0
  151.2568  141.3756  158.1666 H   0  0  0  0  0  0  0  0  0  0  0  0
  152.0907  142.7408  157.4295 H   0  0  0  0  0  0  0  0  0  0  0  0
  152.8361  143.4600  159.7470 H   0  0  0  0  0  0  0  0  0  0  0  0
  153.0933  144.7244  158.4659 H   0  0  0  0  0  0  0  0  0  0  0  0
  152.6942  145.3185  161.3107 H   0  0  0  0  0  0  0  0  0  0  0  0
  152.3627  146.4935  159.9785 H   0  0  0  0  0  0  0  0  0  0  0  0
  150.0166  145.8699  160.2384 H   0  0  0  0  0  0  0  0  0  0  0  0
  150.4729  144.3424  161.1116 H   0  0  0  0  0  0  0  0  0  0  0  0
  148.1756  139.9315  155.0153 H   0  0  0  0  0  0  0  0  0  0  0  0
  148.1962  142.2019  154.0657 H   0  0  0  0  0  0  0  0  0  0  0  0
  148.9791  141.1075  152.9463 H   0  0  0  0  0  0  0  0  0  0  0  0
  149.9548  142.1782  153.9460 H   0  0  0  0  0  0  0  0  0  0  0  0
  149.0132  137.8642  153.8387 H   0  0  0  0  0  0  0  0  0  0  0  0
  151.4752  136.7410  153.5080 H   0  0  0  0  0  0  0  0  0  0  0  0
  153.1861  138.6803  154.5038 H   0  0  0  0  0  0  0  0  0  0  0  0
  149.8453  142.9880  156.2408 H   0  0  0  0  0  0  0  0  0  0  0  0
  1  2  1  0  0  0  0
  1 18  1  0  0  0  0
  1 19  1  0  0  0  0
  1 20  1  0  0  0  0
  2  3  1  0  0  0  0
  2 11  1  0  0  0  0
  2 21  1  0  0  0  0
  3  4  1  0  0  0  0
  3 22  1  0  0  0  0
  3 38  1  0  0  0  0
  4  5  1  0  0  0  0
  4 23  1  0  0  0  0
  4 24  1  0  0  0  0
  5  6  2  0  0  0  0
  5  7  1  0  0  0  0
  7 10  1  0  0  0  0
  7  8  1  0  0  0  0
  8  9  1  0  0  0  0
  8 25  1  0  0  0  0
  8 26  1  0  0  0  0
  9 10  1  0  0  0  0
  9 27  1  0  0  0  0
  9 28  1  0  0  0  0
 10 29  1  0  0  0  0
 10 30  1  0  0  0  0
 11 12  1  0  0  0  0
 11 13  1  0  0  0  0
 11 31  1  0  0  0  0
 12 32  1  0  0  0  0
 12 33  1  0  0  0  0
 12 34  1  0  0  0  0
 13 17  1  0  0  0  0
 13 14  1  0  0  0  0
 14 15  2  0  0  0  0
 14 35  1  0  0  0  0
 15 16  1  0  0  0  0
 15 36  1  0  0  0  0
 16 17  2  0  0  0  0
 16 37  1  0  0  0  0
M  CHG  1   3   1
M  END
> <s_m_source_file>
AV-unprocessed.smi

> <i_m_source_file_index>
3149

> <i_lp_mmshare_version>
43012

> <i_f3d_flags>
0

> <s_epik_input>
bjFbY0hdW2NIXVtjSF1uMVtDQEBIXShbQ0gzXSlbQ0BIXShbQ0gzXSlbTkhdW0NIMl1DKD1PKU4yW0NIMl1bQ0gyXVtDSDJdMg==

> <s_epik_cmdline>
J2VwaWtfcHl0aG9uJywgJy1waCcsICc3LjAnLCAnLXRuJywgJzgnLCAnLW1hJywgJzIwMCcsICctbWV0YWxfYmluZGluZycsICctaW1hZScsICc8aW5maWxlLm1hZT4nLCAnLW9tYWUnLCAnPG91dGZpbGUubWFlPic=

> <r_lp_tautomer_probability>
1

> <r_epik_Ionization_Penalty>
0.141739

> <r_epik_Ionization_Penalty_Charging>
0.141731

> <r_epik_Ionization_Penalty_Neutral>
8.82171e-06

> <r_epik_State_Penalty>
0.131043

> <r_epik_Charging_Adjusted_Penalty>
0.272773

> <i_epik_Tot_Q>
1

> <i_epik_Tot_abs_Q>
1

> <r_epik_Metal_State_Penalty>
0.131384

> <b_epik_Metal_Only>
0

> <s_lp_Force_Field>
OPLS_2005

> <r_lp_Energy>
20.424

> <b_lp_Chiralities_Consistent>
1

> <s_lp_Variant>
AV-unprocessed.smi:3149-4

> <Gold.Version>
5.8.1

> <Gold.Id.Protein>
6NUR|6NUR_protein|mol2

> <Gold.PLP.Fitness>
45.9158

> <Gold.PLP.PLP>
-38.4715

> <Gold.PLP.part.hbond>
-2.8536

> <Gold.PLP.part.metal>
0.0000

> <Gold.PLP.part.buried>
-1.9645

> <Gold.PLP.part.nonpolar>
-33.9519

> <Gold.PLP.part.repulsive>
0.2587

> <Gold.PLP.ligand.clash>
0.6616

> <Gold.PLP.ligand.torsion>
1.6981

> <Gold.PLP.Chemscore.Hbond>
3.0000

> <Gold.PLP.Chemscore.CHOScore>
0.5236

> <Gold.PLP.Chemscore.Metal>
0.0000

> <Gold.Chemscore.Hbonds>
donor molecule, donor type, donor heavy atom, donor atom, acceptor molecule, acceptor atom, score
      L1  H     3    38       P1  8028  1.85
      P1  H  7989  7998       L1    17  0.85
      L1  C    14    35       P1  7948  0.66

> <Gold.PLP.Chemscore.Internal.Correction>
0.9313

> <Gold.Rescore>
     Score         DG    S(hbond)    S(metal)    S(lipo)     H(rot)  DE(clash)    DE(int)     intcor
     14.95     -16.72       1.79        0.00      85.41       1.85       0.32       1.44       ----

> <Gold.Chemscore.Fitness>
14.9527

> <Gold.Chemscore.DG>
-16.7163

> <Gold.Chemscore.ZeroCoef>
-5.4800

> <Gold.Chemscore.Hbond>
1.7937

> <Gold.Chemscore.Metal>
0.0000

> <Gold.Chemscore.Lipo>
85.4053

> <Gold.Chemscore.Internal_Hbond>
0.0000

> <Gold.Chemscore.DEClash>
0.3246

> <Gold.Chemscore.DEInternal>
1.4390

> <Gold.Chemscore.Rot>
1.8544

> <Gold.Chemscore.Internal.Correction>
   9.000000E+99

> <Gold.Chemscore.Hbonds>
donor molecule, donor type, donor heavy atom, donor atom, acceptor molecule, acceptor atom, score
      L1  H     3    38       P1  8028  0.89
      P1  H  7989  7998       L1    17  0.04

> <Gold.Chemscore.Hbond.Weighted>
-5.9911

> <Gold.Chemscore.Metal.Weighted>
-0.0000

> <Gold.Chemscore.Lipo.Weighted>
-9.9924

> <Gold.Chemscore.Internal_Hbond.Weighted>
0.0000

> <Gold.Chemscore.DEClash.Weighted>
0.3246

> <Gold.Chemscore.DEInternal.Weighted>
1.4390

> <Gold.Chemscore.Rot.Weighted>
4.7472

> <Gold.Chemscore.Internal.Correction.Weighted>
   9.000000E+99

> <Gold.Protein.RotatedTorsions>
[ 6907 6896 6895 6894 ] final -165.40 input  -60.11 | X-H torsion
[ 7974 7965 7964 7962 ] final -174.10 input  175.53 | X-H torsion
[ 8008 7997 7996 7995 ] final  162.89 input   59.86 | X-H torsion
[ 10167 10162 10161 10158 ] final -172.34 input  -65.29 | X-H torsion
[ 10718 10713 10712 10709 ] final  110.25 input   66.30 | X-H torsion
[ 10763 10752 10751 10750 ] final   74.92 input  -60.55 | X-H torsion
[ 11005 11000 10999 10996 ] final  -61.18 input  -57.11 | X-H torsion

> <Gold.Protein.ActiveResidues>
 VAL166  LYS551  ARG553  GLY616  TRP617  ASP618  TYR619  PRO620  LYS621  CYS622 
 ASP623  PHE694  ASN695  SER759  ASP760  ASP761  ALA762  ILE779  LEU786  VAL792 
 PHE793  MET794  SER795  GLU796  ALA797  LYS798  CYS799  TRP800  GLU811  SER814 

> <Gold.Protein.RotatedAtoms>
  151.4271  133.3681  159.2763 H   0  0  0  0  0  0  0  0  0  0  0  0  # atno 6907 bound_to 6896
  150.9251  134.8670  159.7525 H   0  0  0  0  0  0  0  0  0  0  0  0  # atno 6908 bound_to 6896
  152.5001  134.4212  159.9533 H   0  0  0  0  0  0  0  0  0  0  0  0  # atno 6909 bound_to 6896
  144.7134  140.1522  143.6383 H   0  0  0  0  0  0  0  0  0  0  0  0  # atno 7974 bound_to 7965
  156.1998  140.1738  156.7924 H   0  0  0  0  0  0  0  0  0  0  0  0  # atno 8008 bound_to 7997
  154.5576  140.0705  156.8799 H   0  0  0  0  0  0  0  0  0  0  0  0  # atno 8009 bound_to 7997
  155.2909  140.3355  155.4255 H   0  0  0  0  0  0  0  0  0  0  0  0  # atno 8010 bound_to 7997
  139.5750  144.1553  152.1438 H   0  0  0  0  0  0  0  0  0  0  0  0  # atno 10167 bound_to 10162
  157.6503  131.0929  150.6573 H   0  0  0  0  0  0  0  0  0  0  0  0  # atno 10718 bound_to 10713
  153.0619  135.5008  154.8114 H   0  0  0  0  0  0  0  0  0  0  0  0  # atno 10763 bound_to 10752
  154.6896  135.2982  154.9500 H   0  0  0  0  0  0  0  0  0  0  0  0  # atno 10764 bound_to 10752
  154.0260  135.6736  153.4829 H   0  0  0  0  0  0  0  0  0  0  0  0  # atno 10765 bound_to 10752
  141.1315  133.6628  156.5337 H   0  0  0  0  0  0  0  0  0  0  0  0  # atno 11005 bound_to 11000
  145.9106  139.2485  143.1440 LP  0  0  0  0  0  0  0  0  0  0  0  0  # atno 17320 bound_to 7965
  145.9720  140.8753  143.0158 LP  0  0  0  0  0  0  0  0  0  0  0  0  # atno 17321 bound_to 7965
  140.1094  144.5470  150.6935 LP  0  0  0  0  0  0  0  0  0  0  0  0  # atno 17342 bound_to 10162
  140.7033  143.2450  151.4800 LP  0  0  0  0  0  0  0  0  0  0  0  0  # atno 17343 bound_to 10162
  156.6885  130.4588  149.5606 LP  0  0  0  0  0  0  0  0  0  0  0  0  # atno 17370 bound_to 10713
  156.1878  130.6540  151.1027 LP  0  0  0  0  0  0  0  0  0  0  0  0  # atno 17371 bound_to 10713
  140.4195  134.7200  157.4882 LP  0  0  0  0  0  0  0  0  0  0  0  0  # atno 17394 bound_to 11000
  140.0370  134.6323  155.9031 LP  0  0  0  0  0  0  0  0  0  0  0  0  # atno 17395 bound_to 11000

$$$$
