AV-unprocessed.smi:1580|AV-procd|sdf|6358|dock3
  -GOLD-   22720 6583D 1   1.00000     0.00000
 Structure written by MMmdl.
 37 38  0  0  0  0  0  0  0  0  1 V2000
  139.9937  145.7185  159.0404 C   0  0  0  0  0  0  0  0  0  0  0  0
  140.5907  145.0784  160.6576 S   0  0  0  0  0  0  0  0  0  0  0  0
  140.2884  146.0897  161.6826 O   0  0  0  0  0  0  0  0  0  0  0  0
  140.0918  143.7043  160.8233 O   0  0  0  0  0  0  0  0  0  0  0  0
  142.3662  144.9999  160.4518 C   0  0  0  0  0  0  0  0  0  0  0  0
  143.1601  144.2966  161.3794 C   0  0  0  0  0  0  0  0  0  0  0  0
  144.5565  144.3066  161.2009 C   0  0  0  0  0  0  0  0  0  0  0  0
  145.1035  145.0225  160.1067 C   0  0  0  0  0  0  0  0  0  0  0  0
  146.4927  145.1259  159.8184 N   0  0  0  0  0  0  0  0  0  0  0  0
  147.5468  144.7528  160.5649 C   0  0  0  0  0  0  0  0  0  0  0  0
  147.4879  144.2084  161.6667 O   0  0  0  0  0  0  0  0  0  0  0  0
  148.7011  145.0404  159.9477 N   0  0  0  0  0  0  0  0  0  0  0  0
  150.0282  144.7683  160.4884 C   0  0  0  0  0  0  0  0  0  0  0  0
  150.9018  143.9846  159.4945 C   0  0  2  0  0  0  0  0  0  0  0  0
  152.1814  143.4261  160.1145 C   0  0  0  0  0  0  0  0  0  0  0  0
  153.0791  143.3051  158.9049 C   0  0  0  0  0  0  0  0  0  0  0  0
  152.7077  144.5588  158.1188 C   0  0  0  0  0  0  0  0  0  0  0  0
  151.3449  144.8321  158.4362 O   0  0  0  0  0  0  0  0  0  0  0  0
  144.2086  145.7079  159.2565 C   0  0  0  0  0  0  0  0  0  0  0  0
  142.8689  145.7081  159.4188 N   0  0  0  0  0  0  0  0  0  0  0  0
  138.9076  145.8023  159.0617 H   0  0  0  0  0  0  0  0  0  0  0  0
  140.2897  145.0330  158.2463 H   0  0  0  0  0  0  0  0  0  0  0  0
  140.4303  146.6994  158.8547 H   0  0  0  0  0  0  0  0  0  0  0  0
  142.7178  143.7655  162.2090 H   0  0  0  0  0  0  0  0  0  0  0  0
  145.1687  143.7783  161.9139 H   0  0  0  0  0  0  0  0  0  0  0  0
  146.7138  145.5121  158.9122 H   0  0  0  0  0  0  0  0  0  0  0  0
  148.6620  145.4791  159.0395 H   0  0  0  0  0  0  0  0  0  0  0  0
  150.5015  145.7196  160.7333 H   0  0  0  0  0  0  0  0  0  0  0  0
  149.9363  144.2179  161.4262 H   0  0  0  0  0  0  0  0  0  0  0  0
  150.3392  143.1609  159.0518 H   0  0  0  0  0  0  0  0  0  0  0  0
  152.6085  144.1353  160.8251 H   0  0  0  0  0  0  0  0  0  0  0  0
  152.0255  142.4775  160.6292 H   0  0  0  0  0  0  0  0  0  0  0  0
  154.1387  143.2572  159.1578 H   0  0  0  0  0  0  0  0  0  0  0  0
  152.8207  142.4121  158.3345 H   0  0  0  0  0  0  0  0  0  0  0  0
  153.3136  145.4052  158.4445 H   0  0  0  0  0  0  0  0  0  0  0  0
  152.8509  144.4337  157.0452 H   0  0  0  0  0  0  0  0  0  0  0  0
  144.5795  146.2787  158.4177 H   0  0  0  0  0  0  0  0  0  0  0  0
  1  2  1  0  0  0  0
  1 21  1  0  0  0  0
  1 22  1  0  0  0  0
  1 23  1  0  0  0  0
  2  3  2  0  0  0  0
  2  4  2  0  0  0  0
  2  5  1  0  0  0  0
  5 20  1  0  0  0  0
  5  6  2  0  0  0  0
  6  7  1  0  0  0  0
  6 24  1  0  0  0  0
  7  8  2  0  0  0  0
  7 25  1  0  0  0  0
  8  9  1  0  0  0  0
  8 19  1  0  0  0  0
  9 10  1  0  0  0  0
  9 26  1  0  0  0  0
 10 11  2  0  0  0  0
 10 12  1  0  0  0  0
 12 13  1  0  0  0  0
 12 27  1  0  0  0  0
 13 14  1  0  0  0  0
 13 28  1  0  0  0  0
 13 29  1  0  0  0  0
 14 18  1  0  0  0  0
 14 15  1  0  0  0  0
 14 30  1  0  0  0  0
 15 16  1  0  0  0  0
 15 31  1  0  0  0  0
 15 32  1  0  0  0  0
 16 17  1  0  0  0  0
 16 33  1  0  0  0  0
 16 34  1  0  0  0  0
 17 18  1  0  0  0  0
 17 35  1  0  0  0  0
 17 36  1  0  0  0  0
 19 20  2  0  0  0  0
 19 37  1  0  0  0  0
M  END
> <s_m_source_file>
AV-unprocessed.smi

> <i_m_source_file_index>
1580

> <i_lp_mmshare_version>
43012

> <i_f3d_flags>
0

> <s_epik_input>
W0NIM11TKD1PKSg9TyljMVtjSF1bY0hdYyhbY0hdbjEpW05IXUMoPU8pW05IXVtDSDJdW0NAQEhdMltDSDJdW0NIMl1bQ0gyXU8y

> <s_epik_cmdline>
J2VwaWtfcHl0aG9uJywgJy1waCcsICc3LjAnLCAnLXRuJywgJzgnLCAnLW1hJywgJzIwMCcsICctbWV0YWxfYmluZGluZycsICctaW1hZScsICc8aW5maWxlLm1hZT4nLCAnLW9tYWUnLCAnPG91dGZpbGUubWFlPic=

> <r_lp_tautomer_probability>
1

> <r_epik_Ionization_Penalty>
3.28405e-05

> <r_epik_Ionization_Penalty_Charging>
0

> <r_epik_Ionization_Penalty_Neutral>
3.28405e-05

> <r_epik_State_Penalty>
-0

> <r_epik_Charging_Adjusted_Penalty>
0

> <i_epik_Tot_Q>
0

> <i_epik_Tot_abs_Q>
0

> <r_epik_Metal_State_Penalty>
-0

> <b_epik_Metal_Only>
0

> <s_lp_Force_Field>
OPLS_2005

> <r_lp_Energy>
18.5173

> <b_lp_Chiralities_Consistent>
1

> <s_lp_Variant>
AV-unprocessed.smi:1580-1

> <Gold.Version>
5.8.1

> <Gold.Id.Protein>
6NUR|6NUR_protein|mol2

> <Gold.PLP.Fitness>
42.7465

> <Gold.PLP.PLP>
-34.4354

> <Gold.PLP.part.hbond>
-4.4868

> <Gold.PLP.part.metal>
0.0000

> <Gold.PLP.part.buried>
-7.6833

> <Gold.PLP.part.nonpolar>
-23.7526

> <Gold.PLP.part.repulsive>
0.6108

> <Gold.PLP.ligand.clash>
0.0000

> <Gold.PLP.ligand.torsion>
1.3616

> <Gold.PLP.Chemscore.Hbond>
3.0000

> <Gold.PLP.Chemscore.CHOScore>
0.0000

> <Gold.PLP.Chemscore.Metal>
0.0000

> <Gold.Chemscore.Hbonds>
donor molecule, donor type, donor heavy atom, donor atom, acceptor molecule, acceptor atom, score
      L1  H     9    26       P1  8029  0.99
      L1  H    12    27       P1  8029  1.00
      P1  H  6933  6944       L1    11  0.81

> <Gold.PLP.Chemscore.Internal.Correction>
2.0344

> <Gold.Rescore>
     Score         DG    S(hbond)    S(metal)    S(lipo)     H(rot)  DE(clash)    DE(int)     intcor
     18.69     -21.20       2.79        0.00      82.45       1.27       0.02       2.49       ----

> <Gold.Chemscore.Fitness>
18.6899

> <Gold.Chemscore.DG>
-21.2017

> <Gold.Chemscore.ZeroCoef>
-5.4800

> <Gold.Chemscore.Hbond>
2.7941

> <Gold.Chemscore.Metal>
0.0000

> <Gold.Chemscore.Lipo>
82.4544

> <Gold.Chemscore.Internal_Hbond>
0.0000

> <Gold.Chemscore.DEClash>
0.0190

> <Gold.Chemscore.DEInternal>
2.4928

> <Gold.Chemscore.Rot>
1.2725

> <Gold.Chemscore.Internal.Correction>
   9.000000E+99

> <Gold.Chemscore.Hbonds>
donor molecule, donor type, donor heavy atom, donor atom, acceptor molecule, acceptor atom, score
      L1  H     9    26       P1  8029  0.92
      L1  H    12    27       P1  8029  0.97
      P1  H  6933  6944       L1    11  0.44

> <Gold.Chemscore.Hbond.Weighted>
-9.3322

> <Gold.Chemscore.Metal.Weighted>
-0.0000

> <Gold.Chemscore.Lipo.Weighted>
-9.6472

> <Gold.Chemscore.Internal_Hbond.Weighted>
0.0000

> <Gold.Chemscore.DEClash.Weighted>
0.0190

> <Gold.Chemscore.DEInternal.Weighted>
2.4928

> <Gold.Chemscore.Rot.Weighted>
3.2576

> <Gold.Chemscore.Internal.Correction.Weighted>
   9.000000E+99

> <Gold.Protein.RotatedTorsions>
[ 6907 6896 6895 6894 ] final   95.47 input  -60.11 | X-H torsion
[ 7974 7965 7964 7962 ] final  -50.06 input  175.53 | X-H torsion
[ 8008 7997 7996 7995 ] final -118.92 input   59.86 | X-H torsion
[ 10167 10162 10161 10158 ] final  -47.70 input  -65.29 | X-H torsion
[ 10718 10713 10712 10709 ] final   27.90 input   66.30 | X-H torsion
[ 10763 10752 10751 10750 ] final  116.16 input  -60.55 | X-H torsion
[ 11005 11000 10999 10996 ] final    8.34 input  -57.11 | X-H torsion

> <Gold.Protein.ActiveResidues>
 VAL166  LYS551  ARG553  GLY616  TRP617  ASP618  TYR619  PRO620  LYS621  CYS622 
 ASP623  PHE694  ASN695  SER759  ASP760  ASP761  ALA762  ILE779  LEU786  VAL792 
 PHE793  MET794  SER795  GLU796  ALA797  LYS798  CYS799  TRP800  GLU811  SER814 

> <Gold.Protein.RotatedAtoms>
  152.5443  134.1035  159.8327 H   0  0  0  0  0  0  0  0  0  0  0  0  # atno 6907 bound_to 6896
  151.1110  133.5165  159.2613 H   0  0  0  0  0  0  0  0  0  0  0  0  # atno 6908 bound_to 6896
  151.1884  135.0401  159.8876 H   0  0  0  0  0  0  0  0  0  0  0  0  # atno 6909 bound_to 6896
  145.9339  140.7724  142.9586 H   0  0  0  0  0  0  0  0  0  0  0  0  # atno 7974 bound_to 7965
  155.1074  140.0397  157.2714 H   0  0  0  0  0  0  0  0  0  0  0  0  # atno 8008 bound_to 7997
  154.6711  140.2612  155.6980 H   0  0  0  0  0  0  0  0  0  0  0  0  # atno 8009 bound_to 7997
  156.2658  140.2797  156.1221 H   0  0  0  0  0  0  0  0  0  0  0  0  # atno 8010 bound_to 7997
  140.6764  143.2773  151.3964 H   0  0  0  0  0  0  0  0  0  0  0  0  # atno 10167 bound_to 10162
  157.2263  130.7002  149.6293 H   0  0  0  0  0  0  0  0  0  0  0  0  # atno 10718 bound_to 10713
  153.5330  135.3574  155.2684 H   0  0  0  0  0  0  0  0  0  0  0  0  # atno 10763 bound_to 10752
  154.8725  135.4073  154.3130 H   0  0  0  0  0  0  0  0  0  0  0  0  # atno 10764 bound_to 10752
  153.3822  135.7068  153.6624 H   0  0  0  0  0  0  0  0  0  0  0  0  # atno 10765 bound_to 10752
  140.5381  134.0401  155.7895 H   0  0  0  0  0  0  0  0  0  0  0  0  # atno 11005 bound_to 11000
  144.6769  140.2171  143.7370 LP  0  0  0  0  0  0  0  0  0  0  0  0  # atno 17320 bound_to 7965
  145.8390  139.2121  143.1839 LP  0  0  0  0  0  0  0  0  0  0  0  0  # atno 17321 bound_to 7965
  139.6058  144.1199  152.2248 LP  0  0  0  0  0  0  0  0  0  0  0  0  # atno 17342 bound_to 10162
  140.0598  144.5866  150.7272 LP  0  0  0  0  0  0  0  0  0  0  0  0  # atno 17343 bound_to 10162
  155.9678  130.4503  150.5693 LP  0  0  0  0  0  0  0  0  0  0  0  0  # atno 17370 bound_to 10713
  157.3524  131.0736  151.1702 LP  0  0  0  0  0  0  0  0  0  0  0  0  # atno 17371 bound_to 10713
  141.1243  133.9409  157.2667 LP  0  0  0  0  0  0  0  0  0  0  0  0  # atno 17394 bound_to 11000
  139.9518  135.0174  156.9016 LP  0  0  0  0  0  0  0  0  0  0  0  0  # atno 17395 bound_to 11000

$$$$
