AV-unprocessed.smi:3105|AV-procd|sdf|11822|dock5
  -GOLD-   2272017193D 1   1.00000     0.00000
 Structure written by MMmdl.
 34 34  0  0  0  0  0  0  0  0  2 V2000
  149.4782  144.9652  159.2985 C   0  0  0  0  0  0  0  0  0  0  0  0
  150.5310  143.8578  159.1052 C   0  0  1  0  0  0  0  0  0  0  0  0
  150.5842  143.4600  157.6790 N   0  3  0  0  0  0  0  0  0  0  0  0
  150.8051  142.0184  157.4298 C   0  0  0  0  0  0  0  0  0  0  0  0
  150.6461  141.6603  155.9387 C   0  0  0  0  0  0  0  0  0  0  0  0
  150.9218  140.1878  155.6011 C   0  0  0  0  0  0  0  0  0  0  0  0
  151.3004  139.4045  156.6133 N   0  0  0  0  0  0  0  0  0  0  0  0
  150.7943  139.7562  154.4564 O   0  0  0  0  0  0  0  0  0  0  0  0
  151.9443  144.2877  159.5848 C   0  0  1  0  0  0  0  0  0  0  0  0
  151.9464  145.6270  160.3453 C   0  0  0  0  0  0  0  0  0  0  0  0
  152.5685  143.2577  160.4091 N   0  0  0  0  0  0  0  0  0  0  0  0
  153.2246  142.1164  159.9954 C   0  0  0  0  0  0  0  0  0  0  0  0
  153.6437  141.4569  161.1150 C   0  0  0  0  0  0  0  0  0  0  0  0
  153.2008  142.2864  162.1823 C   0  0  0  0  0  0  0  0  0  0  0  0
  152.5614  143.3639  161.7575 N   0  0  0  0  0  0  0  0  0  0  0  0
  149.3472  145.2169  160.3504 H   0  0  0  0  0  0  0  0  0  0  0  0
  148.4999  144.6579  158.9290 H   0  0  0  0  0  0  0  0  0  0  0  0
  149.7595  145.8765  158.7699 H   0  0  0  0  0  0  0  0  0  0  0  0
  150.2262  142.9890  159.6910 H   0  0  0  0  0  0  0  0  0  0  0  0
  149.7417  143.7652  157.2138 H   0  0  0  0  0  0  0  0  0  0  0  0
  151.8017  141.7358  157.7729 H   0  0  0  0  0  0  0  0  0  0  0  0
  150.0939  141.4386  158.0178 H   0  0  0  0  0  0  0  0  0  0  0  0
  149.6258  141.8928  155.6308 H   0  0  0  0  0  0  0  0  0  0  0  0
  151.3002  142.2879  155.3324 H   0  0  0  0  0  0  0  0  0  0  0  0
  151.4933  138.4260  156.4539 H   0  0  0  0  0  0  0  0  0  0  0  0
  151.3908  139.7936  157.5411 H   0  0  0  0  0  0  0  0  0  0  0  0
  152.5765  144.4105  158.7038 H   0  0  0  0  0  0  0  0  0  0  0  0
  151.6442  146.4563  159.7066 H   0  0  0  0  0  0  0  0  0  0  0  0
  152.9440  145.8615  160.7183 H   0  0  0  0  0  0  0  0  0  0  0  0
  151.2716  145.6013  161.2017 H   0  0  0  0  0  0  0  0  0  0  0  0
  153.3358  141.8686  158.9500 H   0  0  0  0  0  0  0  0  0  0  0  0
  154.1870  140.5249  161.1643 H   0  0  0  0  0  0  0  0  0  0  0  0
  153.3243  142.1392  163.2450 H   0  0  0  0  0  0  0  0  0  0  0  0
  151.3708  143.9433  157.2673 H   0  0  0  0  0  0  0  0  0  0  0  0
  1  2  1  0  0  0  0
  1 16  1  0  0  0  0
  1 17  1  0  0  0  0
  1 18  1  0  0  0  0
  2  3  1  0  0  0  0
  2  9  1  0  0  0  0
  2 19  1  0  0  0  0
  3  4  1  0  0  0  0
  3 20  1  0  0  0  0
  3 34  1  0  0  0  0
  4  5  1  0  0  0  0
  4 21  1  0  0  0  0
  4 22  1  0  0  0  0
  5  6  1  0  0  0  0
  5 23  1  0  0  0  0
  5 24  1  0  0  0  0
  6  7  1  0  0  0  0
  6  8  2  0  0  0  0
  7 25  1  0  0  0  0
  7 26  1  0  0  0  0
  9 10  1  0  0  0  0
  9 11  1  0  0  0  0
  9 27  1  0  0  0  0
 10 28  1  0  0  0  0
 10 29  1  0  0  0  0
 10 30  1  0  0  0  0
 11 15  1  0  0  0  0
 11 12  1  0  0  0  0
 12 13  2  0  0  0  0
 12 31  1  0  0  0  0
 13 14  1  0  0  0  0
 13 32  1  0  0  0  0
 14 15  2  0  0  0  0
 14 33  1  0  0  0  0
M  CHG  1   3   1
M  END
> <s_m_source_file>
AV-unprocessed.smi

> <i_m_source_file_index>
3105

> <i_lp_mmshare_version>
43012

> <i_f3d_flags>
0

> <s_epik_input>
W05IMl1DKD1PKVtDSDJdW0NIMl1bTkhdW0NAQEhdKFtDSDNdKVtDQEhdKFtDSDNdKW4xW2NIXVtjSF1bY0hdbjE=

> <s_epik_cmdline>
J2VwaWtfcHl0aG9uJywgJy1waCcsICc3LjAnLCAnLXRuJywgJzgnLCAnLW1hJywgJzIwMCcsICctbWV0YWxfYmluZGluZycsICctaW1hZScsICc8aW5maWxlLm1hZT4nLCAnLW9tYWUnLCAnPG91dGZpbGUubWFlPic=

> <r_lp_tautomer_probability>
1

> <r_epik_Ionization_Penalty>
0.00475669

> <r_epik_Ionization_Penalty_Charging>
0.00474654

> <r_epik_Ionization_Penalty_Neutral>
1.01546e-05

> <r_epik_State_Penalty>
-0

> <r_epik_Charging_Adjusted_Penalty>
0.00474654

> <i_epik_Tot_Q>
1

> <i_epik_Tot_abs_Q>
1

> <r_epik_Metal_State_Penalty>
-0

> <b_epik_Metal_Only>
0

> <s_lp_Force_Field>
OPLS_2005

> <r_lp_Energy>
4.89455

> <b_lp_Chiralities_Consistent>
1

> <s_lp_Variant>
AV-unprocessed.smi:3105-4

> <Gold.Version>
5.8.1

> <Gold.Id.Protein>
6NUR|6NUR_protein|mol2

> <Gold.PLP.Fitness>
41.5831

> <Gold.PLP.PLP>
-37.4109

> <Gold.PLP.part.hbond>
-2.0000

> <Gold.PLP.part.metal>
0.0000

> <Gold.PLP.part.buried>
-3.0299

> <Gold.PLP.part.nonpolar>
-32.5577

> <Gold.PLP.part.repulsive>
0.3334

> <Gold.PLP.ligand.clash>
0.0000

> <Gold.PLP.ligand.torsion>
2.4835

> <Gold.PLP.Chemscore.Hbond>
3.0000

> <Gold.PLP.Chemscore.CHOScore>
0.0000

> <Gold.PLP.Chemscore.Metal>
0.0000

> <Gold.Chemscore.Hbonds>
donor molecule, donor type, donor heavy atom, donor atom, acceptor molecule, acceptor atom, score
      L1  H     3    20       P1  8028  1.95
      P1  H  7989  7998       L1     8  1.00

> <Gold.PLP.Chemscore.Internal.Correction>
0.1392

> <Gold.Rescore>
     Score         DG    S(hbond)    S(metal)    S(lipo)     H(rot)  DE(clash)    DE(int)     intcor
     10.54     -14.27       1.78        0.00      86.73       2.85       1.60       2.13       ----

> <Gold.Chemscore.Fitness>
10.5392

> <Gold.Chemscore.DG>
-14.2668

> <Gold.Chemscore.ZeroCoef>
-5.4800

> <Gold.Chemscore.Hbond>
1.7752

> <Gold.Chemscore.Metal>
0.0000

> <Gold.Chemscore.Lipo>
86.7255

> <Gold.Chemscore.Internal_Hbond>
0.0000

> <Gold.Chemscore.DEClash>
1.5999

> <Gold.Chemscore.DEInternal>
2.1277

> <Gold.Chemscore.Rot>
2.8473

> <Gold.Chemscore.Internal.Correction>
   9.000000E+99

> <Gold.Chemscore.Hbonds>
donor molecule, donor type, donor heavy atom, donor atom, acceptor molecule, acceptor atom, score
      L1  H     3    20       P1  8028  0.77
      P1  H  7989  7998       L1     8  0.50

> <Gold.Chemscore.Hbond.Weighted>
-5.9291

> <Gold.Chemscore.Metal.Weighted>
-0.0000

> <Gold.Chemscore.Lipo.Weighted>
-10.1469

> <Gold.Chemscore.Internal_Hbond.Weighted>
0.0000

> <Gold.Chemscore.DEClash.Weighted>
1.5999

> <Gold.Chemscore.DEInternal.Weighted>
2.1277

> <Gold.Chemscore.Rot.Weighted>
7.2892

> <Gold.Chemscore.Internal.Correction.Weighted>
   9.000000E+99

> <Gold.Protein.RotatedTorsions>
[ 6907 6896 6895 6894 ] final -109.78 input  -60.11 | X-H torsion
[ 7974 7965 7964 7962 ] final  101.38 input  175.53 | X-H torsion
[ 8008 7997 7996 7995 ] final -116.40 input   59.86 | X-H torsion
[ 10167 10162 10161 10158 ] final  140.03 input  -65.29 | X-H torsion
[ 10718 10713 10712 10709 ] final  177.51 input   66.30 | X-H torsion
[ 10763 10752 10751 10750 ] final  102.14 input  -60.55 | X-H torsion
[ 11005 11000 10999 10996 ] final  144.29 input  -57.11 | X-H torsion

> <Gold.Protein.ActiveResidues>
 VAL166  LYS551  ARG553  GLY616  TRP617  ASP618  TYR619  PRO620  LYS621  CYS622 
 ASP623  PHE694  ASN695  SER759  ASP760  ASP761  ALA762  ILE779  LEU786  VAL792 
 PHE793  MET794  SER795  GLU796  ALA797  LYS798  CYS799  TRP800  GLU811  SER814 

> <Gold.Protein.RotatedAtoms>
  150.7583  133.9478  159.3475 H   0  0  0  0  0  0  0  0  0  0  0  0  # atno 6907 bound_to 6896
  151.7392  135.0856  160.0322 H   0  0  0  0  0  0  0  0  0  0  0  0  # atno 6908 bound_to 6896
  152.3539  133.6176  159.6001 H   0  0  0  0  0  0  0  0  0  0  0  0  # atno 6909 bound_to 6896
  145.3731  139.2394  143.3444 H   0  0  0  0  0  0  0  0  0  0  0  0  # atno 7974 bound_to 7965
  155.0672  140.0393  157.2596 H   0  0  0  0  0  0  0  0  0  0  0  0  # atno 8008 bound_to 7997
  154.7011  140.2673  155.6694 H   0  0  0  0  0  0  0  0  0  0  0  0  # atno 8009 bound_to 7997
  156.2760  140.2740  156.1622 H   0  0  0  0  0  0  0  0  0  0  0  0  # atno 8010 bound_to 7997
  139.5061  144.6259  151.5938 H   0  0  0  0  0  0  0  0  0  0  0  0  # atno 10167 bound_to 10162
  156.9043  130.9889  151.3031 H   0  0  0  0  0  0  0  0  0  0  0  0  # atno 10718 bound_to 10713
  153.3358  135.4020  155.1532 H   0  0  0  0  0  0  0  0  0  0  0  0  # atno 10763 bound_to 10752
  154.8633  135.3621  154.5411 H   0  0  0  0  0  0  0  0  0  0  0  0  # atno 10764 bound_to 10752
  153.5852  135.7075  153.5506 H   0  0  0  0  0  0  0  0  0  0  0  0  # atno 10765 bound_to 10752
  140.0621  134.9199  157.1201 H   0  0  0  0  0  0  0  0  0  0  0  0  # atno 11005 bound_to 11000
  146.2876  140.4386  142.8752 LP  0  0  0  0  0  0  0  0  0  0  0  0  # atno 17320 bound_to 7965
  144.8562  140.7073  143.6137 LP  0  0  0  0  0  0  0  0  0  0  0  0  # atno 17321 bound_to 7965
  140.5976  143.9668  150.6365 LP  0  0  0  0  0  0  0  0  0  0  0  0  # atno 17342 bound_to 10162
  140.2869  143.3351  152.1099 LP  0  0  0  0  0  0  0  0  0  0  0  0  # atno 17343 bound_to 10162
  157.6007  130.8510  149.8797 LP  0  0  0  0  0  0  0  0  0  0  0  0  # atno 17370 bound_to 10713
  156.0566  130.3707  150.1076 LP  0  0  0  0  0  0  0  0  0  0  0  0  # atno 17371 bound_to 10713
  140.3755  134.2344  155.7174 LP  0  0  0  0  0  0  0  0  0  0  0  0  # atno 17394 bound_to 11000
  141.1977  133.8052  157.0615 LP  0  0  0  0  0  0  0  0  0  0  0  0  # atno 17395 bound_to 11000

$$$$
