AV-unprocessed.smi:650|AV-procd|sdf|3183|dock3
  -GOLD-   22720 0113D 1   1.00000     0.00000
 Structure written by MMmdl.
 43 44  0  0  0  0  0  0  0  0  2 V2000
  153.5566  141.9667  160.9227 C   0  0  0  0  0  0  0  0  0  0  0  0
  152.7956  142.5483  159.7809 C   0  0  0  0  0  0  0  0  0  0  0  0
  151.9262  142.0106  158.8743 C   0  0  0  0  0  0  0  0  0  0  0  0
  151.5740  143.1258  158.0685 C   0  0  0  0  0  0  0  0  0  0  0  0
  150.6667  142.9839  156.9879 N   0  0  0  0  0  0  0  0  0  0  0  0
  150.3741  141.8636  156.3062 C   0  0  0  0  0  0  0  0  0  0  0  0
  150.8510  140.7504  156.5295 O   0  0  0  0  0  0  0  0  0  0  0  0
  149.4807  142.1038  155.3359 N   0  0  0  0  0  0  0  0  0  0  0  0
  148.9554  141.1006  154.4157 C   0  0  0  0  0  0  0  0  0  0  0  0
  147.5793  141.4938  153.8259 C   0  0  2  0  0  0  0  0  0  0  0  0
  146.4477  141.3812  154.8637 C   0  0  0  0  0  0  0  0  0  0  0  0
  146.0668  139.9186  155.1564 C   0  0  0  0  0  0  0  0  0  0  0  0
  145.7040  139.1936  153.9116 N   0  3  2  0  0  0  0  0  0  0  0  0
  145.2146  137.8184  154.1861 C   0  0  0  0  0  0  0  0  0  0  0  0
  144.6921  137.1132  152.9232 C   0  0  0  0  0  0  0  0  0  0  0  0
  143.5650  137.7989  152.4206 O   0  0  0  0  0  0  0  0  0  0  0  0
  146.8005  139.2393  152.9081 C   0  0  0  0  0  0  0  0  0  0  0  0
  147.1837  140.6905  152.5700 C   0  0  0  0  0  0  0  0  0  0  0  0
  152.1739  144.2433  158.4483 N   0  0  0  0  0  0  0  0  0  0  0  0
  152.9590  143.8793  159.5488 O   0  0  0  0  0  0  0  0  0  0  0  0
  153.7772  140.9140  160.7460 H   0  0  0  0  0  0  0  0  0  0  0  0
  152.9826  142.0421  161.8462 H   0  0  0  0  0  0  0  0  0  0  0  0
  154.5024  142.4891  161.0682 H   0  0  0  0  0  0  0  0  0  0  0  0
  151.5972  140.9846  158.8027 H   0  0  0  0  0  0  0  0  0  0  0  0
  150.1945  143.8280  156.7005 H   0  0  0  0  0  0  0  0  0  0  0  0
  149.1456  143.0493  155.2209 H   0  0  0  0  0  0  0  0  0  0  0  0
  149.6919  140.9615  153.6252 H   0  0  0  0  0  0  0  0  0  0  0  0
  148.8832  140.1411  154.9309 H   0  0  0  0  0  0  0  0  0  0  0  0
  147.6442  142.5436  153.5367 H   0  0  0  0  0  0  0  0  0  0  0  0
  146.7308  141.8868  155.7877 H   0  0  0  0  0  0  0  0  0  0  0  0
  145.5681  141.9077  154.4908 H   0  0  0  0  0  0  0  0  0  0  0  0
  146.8849  139.4003  155.6583 H   0  0  0  0  0  0  0  0  0  0  0  0
  145.2209  139.9068  155.8450 H   0  0  0  0  0  0  0  0  0  0  0  0
  146.0131  137.2334  154.6449 H   0  0  0  0  0  0  0  0  0  0  0  0
  144.4046  137.8518  154.9165 H   0  0  0  0  0  0  0  0  0  0  0  0
  145.4528  137.0352  152.1472 H   0  0  0  0  0  0  0  0  0  0  0  0
  144.3897  136.0952  153.1696 H   0  0  0  0  0  0  0  0  0  0  0  0
  143.6248  138.7075  152.6762 H   0  0  0  0  0  0  0  0  0  0  0  0
  147.6670  138.6935  153.2839 H   0  0  0  0  0  0  0  0  0  0  0  0
  146.4932  138.7390  151.9907 H   0  0  0  0  0  0  0  0  0  0  0  0
  146.3318  141.1763  152.0922 H   0  0  0  0  0  0  0  0  0  0  0  0
  147.9840  140.7048  151.8300 H   0  0  0  0  0  0  0  0  0  0  0  0
  144.9205  139.6937  153.5153 H   0  0  0  0  0  0  0  0  0  0  0  0
  1  2  1  0  0  0  0
  1 21  1  0  0  0  0
  1 22  1  0  0  0  0
  1 23  1  0  0  0  0
  2 20  1  0  0  0  0
  2  3  2  0  0  0  0
  3  4  1  0  0  0  0
  3 24  1  0  0  0  0
  4  5  1  0  0  0  0
  4 19  2  0  0  0  0
  5  6  1  0  0  0  0
  5 25  1  0  0  0  0
  6  7  2  0  0  0  0
  6  8  1  0  0  0  0
  8  9  1  0  0  0  0
  8 26  1  0  0  0  0
  9 10  1  0  0  0  0
  9 27  1  0  0  0  0
  9 28  1  0  0  0  0
 10 18  1  0  0  0  0
 10 11  1  0  0  0  0
 10 29  1  0  0  0  0
 11 12  1  0  0  0  0
 11 30  1  0  0  0  0
 11 31  1  0  0  0  0
 12 13  1  0  0  0  0
 12 32  1  0  0  0  0
 12 33  1  0  0  0  0
 13 14  1  0  0  0  0
 13 17  1  0  0  0  0
 13 43  1  0  0  0  0
 14 15  1  0  0  0  0
 14 34  1  0  0  0  0
 14 35  1  0  0  0  0
 15 16  1  0  0  0  0
 15 36  1  0  0  0  0
 15 37  1  0  0  0  0
 16 38  1  0  0  0  0
 17 18  1  0  0  0  0
 17 39  1  0  0  0  0
 17 40  1  0  0  0  0
 18 41  1  0  0  0  0
 18 42  1  0  0  0  0
 19 20  1  0  0  0  0
M  CHG  1  13   1
M  END
> <s_m_source_file>
AV-unprocessed.smi

> <i_m_source_file_index>
650

> <i_lp_mmshare_version>
43012

> <i_f3d_flags>
0

> <s_epik_input>
W0NIM11jMVtjSF1jKG5vMSlbTkhdQyg9TylbTkhdW0NIMl1bQ0hdMltDSDJdW0NIMl1OKFtDSDJdW0NIMl0yKVtDSDJdW0NIMl1bT0hd

> <s_epik_cmdline>
J2VwaWtfcHl0aG9uJywgJy1waCcsICc3LjAnLCAnLXRuJywgJzgnLCAnLW1hJywgJzIwMCcsICctbWV0YWxfYmluZGluZycsICctaW1hZScsICc8aW5maWxlLm1hZT4nLCAnLW9tYWUnLCAnPG91dGZpbGUubWFlPic=

> <r_epik_Ionization_Penalty>
0.00179437

> <r_epik_Ionization_Penalty_Charging>
0.00177223

> <r_epik_Ionization_Penalty_Neutral>
2.21418e-05

> <r_epik_State_Penalty>
0.00120075

> <r_epik_Charging_Adjusted_Penalty>
0.00297297

> <i_epik_Tot_Q>
1

> <i_epik_Tot_abs_Q>
1

> <r_epik_Metal_State_Penalty>
-0

> <b_epik_Metal_Only>
0

> <s_lp_Force_Field>
OPLS_2005

> <r_lp_Energy>
17.0512

> <b_lp_Chiralities_Consistent>
1

> <s_lp_Variant>
AV-unprocessed.smi:650-2

> <Gold.Version>
5.8.1

> <Gold.Id.Protein>
6NUR|6NUR_protein|mol2

> <Gold.PLP.Fitness>
51.6283

> <Gold.PLP.PLP>
-37.3714

> <Gold.PLP.part.hbond>
-5.0000

> <Gold.PLP.part.metal>
0.0000

> <Gold.PLP.part.buried>
-6.2884

> <Gold.PLP.part.nonpolar>
-26.6287

> <Gold.PLP.part.repulsive>
0.2799

> <Gold.PLP.ligand.clash>
0.0000

> <Gold.PLP.ligand.torsion>
0.4048

> <Gold.PLP.Chemscore.Hbond>
5.0000

> <Gold.PLP.Chemscore.CHOScore>
0.0000

> <Gold.PLP.Chemscore.Metal>
0.0000

> <Gold.Chemscore.Hbonds>
donor molecule, donor type, donor heavy atom, donor atom, acceptor molecule, acceptor atom, score
      L1  H     5    25       P1  8028  1.00
      L1  H     8    26       P1  8028  1.00
      L1  H    13    43       P1 10175  2.00
      L1  H    16    38       P1 10175  1.00

> <Gold.PLP.Chemscore.Internal.Correction>
0.0665

> <Gold.Rescore>
     Score         DG    S(hbond)    S(metal)    S(lipo)     H(rot)  DE(clash)    DE(int)     intcor
     18.55     -20.98       3.95        0.00      75.50       2.55       0.73       1.70       ----

> <Gold.Chemscore.Fitness>
18.5540

> <Gold.Chemscore.DG>
-20.9837

> <Gold.Chemscore.ZeroCoef>
-5.4800

> <Gold.Chemscore.Hbond>
3.9510

> <Gold.Chemscore.Metal>
0.0000

> <Gold.Chemscore.Lipo>
75.4982

> <Gold.Chemscore.Internal_Hbond>
0.0000

> <Gold.Chemscore.DEClash>
0.7254

> <Gold.Chemscore.DEInternal>
1.7043

> <Gold.Chemscore.Rot>
2.5492

> <Gold.Chemscore.Internal.Correction>
   9.000000E+99

> <Gold.Chemscore.Hbonds>
donor molecule, donor type, donor heavy atom, donor atom, acceptor molecule, acceptor atom, score
      L1  H     5    25       P1  8028  0.96
      L1  H     8    26       P1  8028  0.99
      L1  H    13    43       P1 10175  1.00
      L1  H    16    38       P1 10175  0.99

> <Gold.Chemscore.Hbond.Weighted>
-13.1964

> <Gold.Chemscore.Metal.Weighted>
-0.0000

> <Gold.Chemscore.Lipo.Weighted>
-8.8333

> <Gold.Chemscore.Internal_Hbond.Weighted>
0.0000

> <Gold.Chemscore.DEClash.Weighted>
0.7254

> <Gold.Chemscore.DEInternal.Weighted>
1.7043

> <Gold.Chemscore.Rot.Weighted>
6.5260

> <Gold.Chemscore.Internal.Correction.Weighted>
   9.000000E+99

> <Gold.Protein.RotatedTorsions>
[ 6907 6896 6895 6894 ] final   80.53 input  -60.11 | X-H torsion
[ 7974 7965 7964 7962 ] final  -92.66 input  175.53 | X-H torsion
[ 8008 7997 7996 7995 ] final  -54.78 input   59.86 | X-H torsion
[ 10167 10162 10161 10158 ] final -114.69 input  -65.29 | X-H torsion
[ 10718 10713 10712 10709 ] final  110.68 input   66.30 | X-H torsion
[ 10763 10752 10751 10750 ] final   -7.46 input  -60.55 | X-H torsion
[ 11005 11000 10999 10996 ] final  -49.66 input  -57.11 | X-H torsion

> <Gold.Protein.ActiveResidues>
 VAL166  LYS551  ARG553  GLY616  TRP617  ASP618  TYR619  PRO620  LYS621  CYS622 
 ASP623  PHE694  ASN695  SER759  ASP760  ASP761  ALA762  ILE779  LEU786  VAL792 
 PHE793  MET794  SER795  GLU796  ALA797  LYS798  CYS799  TRP800  GLU811  SER814 

> <Gold.Protein.RotatedAtoms>
  152.5238  134.3343  159.9193 H   0  0  0  0  0  0  0  0  0  0  0  0  # atno 6907 bound_to 6896
  151.3292  133.4001  159.2669 H   0  0  0  0  0  0  0  0  0  0  0  0  # atno 6908 bound_to 6896
  150.9895  134.9250  159.7949 H   0  0  0  0  0  0  0  0  0  0  0  0  # atno 6909 bound_to 6896
  145.3969  140.9533  143.2309 H   0  0  0  0  0  0  0  0  0  0  0  0  # atno 7974 bound_to 7965
  154.4173  140.1168  156.5371 H   0  0  0  0  0  0  0  0  0  0  0  0  # atno 8008 bound_to 7997
  155.6546  140.3496  155.4741 H   0  0  0  0  0  0  0  0  0  0  0  0  # atno 8009 bound_to 7997
  155.9764  140.1151  157.0756 H   0  0  0  0  0  0  0  0  0  0  0  0  # atno 8010 bound_to 7997
  140.0983  143.4636  152.1828 H   0  0  0  0  0  0  0  0  0  0  0  0  # atno 10167 bound_to 10162
  157.6482  131.0937  150.6637 H   0  0  0  0  0  0  0  0  0  0  0  0  # atno 10718 bound_to 10713
  153.4266  135.7011  153.6258 H   0  0  0  0  0  0  0  0  0  0  0  0  # atno 10763 bound_to 10752
  153.4690  135.3719  155.2381 H   0  0  0  0  0  0  0  0  0  0  0  0  # atno 10764 bound_to 10752
  154.8724  135.4038  154.3644 H   0  0  0  0  0  0  0  0  0  0  0  0  # atno 10765 bound_to 10752
  141.0772  133.6663  156.3617 H   0  0  0  0  0  0  0  0  0  0  0  0  # atno 11005 bound_to 11000
  144.8401  139.5486  143.6904 LP  0  0  0  0  0  0  0  0  0  0  0  0  # atno 17320 bound_to 7965
  146.2771  139.6780  142.9255 LP  0  0  0  0  0  0  0  0  0  0  0  0  # atno 17321 bound_to 7965
  139.5686  144.7449  151.3954 LP  0  0  0  0  0  0  0  0  0  0  0  0  # atno 17342 bound_to 10162
  140.6992  143.7674  150.7375 LP  0  0  0  0  0  0  0  0  0  0  0  0  # atno 17343 bound_to 10162
  156.6952  130.4607  149.5588 LP  0  0  0  0  0  0  0  0  0  0  0  0  # atno 17370 bound_to 10713
  156.1834  130.6513  151.0978 LP  0  0  0  0  0  0  0  0  0  0  0  0  # atno 17371 bound_to 10713
  140.5548  134.5992  157.5418 LP  0  0  0  0  0  0  0  0  0  0  0  0  # atno 17394 bound_to 11000
  139.9584  134.7495  156.0290 LP  0  0  0  0  0  0  0  0  0  0  0  0  # atno 17395 bound_to 11000

$$$$
