AV-unprocessed.smi:3290|AV-procd|sdf|12613|dock5
  -GOLD-   2272018543D 1   1.00000     0.00000
 Structure written by MMmdl.
 43 44  0  0  0  0  0  0  0  0  2 V2000
  152.2962  145.4070  158.5822 C   0  0  0  0  0  0  0  0  0  0  0  0
  151.2708  144.3401  159.0168 C   0  0  2  0  0  0  0  0  0  0  0  0
  150.9582  144.4346  160.5254 C   0  0  0  0  0  0  0  0  0  0  0  0
  152.1184  143.9234  161.3960 C   0  0  0  0  0  0  0  0  0  0  0  0
  152.5145  142.4913  161.0091 C   0  0  0  0  0  0  0  0  0  0  0  0
  152.8362  142.3804  159.5099 C   0  0  0  0  0  0  0  0  0  0  0  0
  151.6644  142.8867  158.6383 C   0  0  2  0  0  0  0  0  0  0  0  0
  151.9395  142.7185  157.1303 C   0  0  0  0  0  0  0  0  0  0  0  0
  150.6860  142.6215  156.3562 N   0  3  0  0  0  0  0  0  0  0  0  0
  149.8678  141.4351  156.6790 C   0  0  0  0  0  0  0  0  0  0  0  0
  149.5632  140.6010  155.4223 C   0  0  2  0  0  0  0  0  0  0  0  0
  148.3078  139.9710  155.5881 O   0  0  0  0  0  0  0  0  0  0  0  0
  150.6654  139.5896  155.1503 C   0  0  0  0  0  0  0  0  0  0  0  0
  151.8993  139.6752  155.8290 C   0  0  0  0  0  0  0  0  0  0  0  0
  152.8915  138.7148  155.5471 C   0  0  0  0  0  0  0  0  0  0  0  0
  152.7212  137.7112  154.6603 N   0  0  0  0  0  0  0  0  0  0  0  0
  151.5382  137.6323  154.0148 C   0  0  0  0  0  0  0  0  0  0  0  0
  150.4817  138.5414  154.2225 C   0  0  0  0  0  0  0  0  0  0  0  0
  153.2823  145.2315  159.0112 H   0  0  0  0  0  0  0  0  0  0  0  0
  151.9768  146.4012  158.8963 H   0  0  0  0  0  0  0  0  0  0  0  0
  152.4069  145.4386  157.4985 H   0  0  0  0  0  0  0  0  0  0  0  0
  150.3450  144.5747  158.4893 H   0  0  0  0  0  0  0  0  0  0  0  0
  150.7138  145.4619  160.7981 H   0  0  0  0  0  0  0  0  0  0  0  0
  150.0658  143.8466  160.7445 H   0  0  0  0  0  0  0  0  0  0  0  0
  152.9799  144.5842  161.2947 H   0  0  0  0  0  0  0  0  0  0  0  0
  151.8324  143.9561  162.4476 H   0  0  0  0  0  0  0  0  0  0  0  0
  153.3742  142.1718  161.5989 H   0  0  0  0  0  0  0  0  0  0  0  0
  151.7002  141.8097  161.2577 H   0  0  0  0  0  0  0  0  0  0  0  0
  153.7438  142.9418  159.2863 H   0  0  0  0  0  0  0  0  0  0  0  0
  153.0603  141.3398  159.2742 H   0  0  0  0  0  0  0  0  0  0  0  0
  150.7981  142.2651  158.8719 H   0  0  0  0  0  0  0  0  0  0  0  0
  152.5058  143.5741  156.7598 H   0  0  0  0  0  0  0  0  0  0  0  0
  152.5438  141.8291  156.9473 H   0  0  0  0  0  0  0  0  0  0  0  0
  150.1314  143.4462  156.5388 H   0  0  0  0  0  0  0  0  0  0  0  0
  150.4126  140.8256  157.4013 H   0  0  0  0  0  0  0  0  0  0  0  0
  148.9410  141.7507  157.1613 H   0  0  0  0  0  0  0  0  0  0  0  0
  149.4829  141.2650  154.5601 H   0  0  0  0  0  0  0  0  0  0  0  0
  148.0540  139.5867  154.7622 H   0  0  0  0  0  0  0  0  0  0  0  0
  152.0880  140.4576  156.5495 H   0  0  0  0  0  0  0  0  0  0  0  0
  153.8473  138.7541  156.0483 H   0  0  0  0  0  0  0  0  0  0  0  0
  151.4297  136.8197  153.3116 H   0  0  0  0  0  0  0  0  0  0  0  0
  149.5541  138.4321  153.6798 H   0  0  0  0  0  0  0  0  0  0  0  0
  150.9141  142.5979  155.3728 H   0  0  0  0  0  0  0  0  0  0  0  0
  1  2  1  0  0  0  0
  1 19  1  0  0  0  0
  1 20  1  0  0  0  0
  1 21  1  0  0  0  0
  2  7  1  0  0  0  0
  2  3  1  0  0  0  0
  2 22  1  0  0  0  0
  3  4  1  0  0  0  0
  3 23  1  0  0  0  0
  3 24  1  0  0  0  0
  4  5  1  0  0  0  0
  4 25  1  0  0  0  0
  4 26  1  0  0  0  0
  5  6  1  0  0  0  0
  5 27  1  0  0  0  0
  5 28  1  0  0  0  0
  6  7  1  0  0  0  0
  6 29  1  0  0  0  0
  6 30  1  0  0  0  0
  7  8  1  0  0  0  0
  7 31  1  0  0  0  0
  8  9  1  0  0  0  0
  8 32  1  0  0  0  0
  8 33  1  0  0  0  0
  9 10  1  0  0  0  0
  9 34  1  0  0  0  0
  9 43  1  0  0  0  0
 10 11  1  0  0  0  0
 10 35  1  0  0  0  0
 10 36  1  0  0  0  0
 11 12  1  0  0  0  0
 11 13  1  0  0  0  0
 11 37  1  0  0  0  0
 12 38  1  0  0  0  0
 13 18  1  0  0  0  0
 13 14  2  0  0  0  0
 14 15  1  0  0  0  0
 14 39  1  0  0  0  0
 15 16  2  0  0  0  0
 15 40  1  0  0  0  0
 16 17  1  0  0  0  0
 17 18  2  0  0  0  0
 17 41  1  0  0  0  0
 18 42  1  0  0  0  0
M  CHG  1   9   1
M  END
> <s_m_source_file>
AV-unprocessed.smi

> <i_m_source_file_index>
3290

> <i_lp_mmshare_version>
43012

> <i_f3d_flags>
0

> <s_epik_input>
W0NIM11bQ0BASF0xW0NIMl1bQ0gyXVtDSDJdW0NIMl1bQ0BIXTFbQ0gyXVtOSF1bQ0gyXVtDQEhdKFtPSF0pYzJbY0hdW2NIXW5bY0hdW2NIXTI=

> <s_epik_cmdline>
J2VwaWtfcHl0aG9uJywgJy1waCcsICc3LjAnLCAnLXRuJywgJzgnLCAnLW1hJywgJzIwMCcsICctbWV0YWxfYmluZGluZycsICctaW1hZScsICc8aW5maWxlLm1hZT4nLCAnLW9tYWUnLCAnPG91dGZpbGUubWFlPic=

> <r_lp_tautomer_probability>
1

> <r_epik_Ionization_Penalty>
0.00420552

> <r_epik_Ionization_Penalty_Charging>
0.00207255

> <r_epik_Ionization_Penalty_Neutral>
0.00213297

> <r_epik_State_Penalty>
-0

> <r_epik_Charging_Adjusted_Penalty>
0.00207255

> <i_epik_Tot_Q>
1

> <i_epik_Tot_abs_Q>
1

> <r_epik_Metal_State_Penalty>
-0

> <b_epik_Metal_Only>
0

> <s_lp_Force_Field>
OPLS_2005

> <r_lp_Energy>
18.6683

> <b_lp_Chiralities_Consistent>
1

> <s_lp_Variant>
AV-unprocessed.smi:3290-3

> <Gold.Version>
5.8.1

> <Gold.Id.Protein>
6NUR|6NUR_protein|mol2

> <Gold.PLP.Fitness>
47.6047

> <Gold.PLP.PLP>
-40.4538

> <Gold.PLP.part.hbond>
-2.0000

> <Gold.PLP.part.metal>
0.0000

> <Gold.PLP.part.buried>
-5.2384

> <Gold.PLP.part.nonpolar>
-33.5294

> <Gold.PLP.part.repulsive>
0.1620

> <Gold.PLP.ligand.clash>
0.0000

> <Gold.PLP.ligand.torsion>
1.2780

> <Gold.PLP.Chemscore.Hbond>
2.2194

> <Gold.PLP.Chemscore.CHOScore>
1.0000

> <Gold.PLP.Chemscore.Metal>
0.0000

> <Gold.Chemscore.Hbonds>
donor molecule, donor type, donor heavy atom, donor atom, acceptor molecule, acceptor atom, score
      L1  H     9    34       P1  8028  1.70
      P1  H 10752 10763       L1    16  0.19
      L1  C    17    41       P1  7949  0.97

> <Gold.PLP.Chemscore.Internal.Correction>
0.0488

> <Gold.Rescore>
     Score         DG    S(hbond)    S(metal)    S(lipo)     H(rot)  DE(clash)    DE(int)     intcor
     18.51     -21.77       1.69        0.00     135.89       2.05       1.98       1.28       ----

> <Gold.Chemscore.Fitness>
18.5099

> <Gold.Chemscore.DG>
-21.7651

> <Gold.Chemscore.ZeroCoef>
-5.4800

> <Gold.Chemscore.Hbond>
1.6868

> <Gold.Chemscore.Metal>
0.0000

> <Gold.Chemscore.Lipo>
135.8869

> <Gold.Chemscore.Internal_Hbond>
0.0000

> <Gold.Chemscore.DEClash>
1.9764

> <Gold.Chemscore.DEInternal>
1.2788

> <Gold.Chemscore.Rot>
2.0498

> <Gold.Chemscore.Internal.Correction>
   9.000000E+99

> <Gold.Chemscore.Hbonds>
donor molecule, donor type, donor heavy atom, donor atom, acceptor molecule, acceptor atom, score
      L1  H     9    34       P1  8028  0.83
      P1  H 10752 10763       L1    16  0.02

> <Gold.Chemscore.Hbond.Weighted>
-5.6338

> <Gold.Chemscore.Metal.Weighted>
-0.0000

> <Gold.Chemscore.Lipo.Weighted>
-15.8988

> <Gold.Chemscore.Internal_Hbond.Weighted>
0.0000

> <Gold.Chemscore.DEClash.Weighted>
1.9764

> <Gold.Chemscore.DEInternal.Weighted>
1.2788

> <Gold.Chemscore.Rot.Weighted>
5.2475

> <Gold.Chemscore.Internal.Correction.Weighted>
   9.000000E+99

> <Gold.Protein.RotatedTorsions>
[ 6907 6896 6895 6894 ] final -174.56 input  -60.11 | X-H torsion
[ 7974 7965 7964 7962 ] final -164.35 input  175.53 | X-H torsion
[ 8008 7997 7996 7995 ] final  155.54 input   59.86 | X-H torsion
[ 10167 10162 10161 10158 ] final  150.71 input  -65.29 | X-H torsion
[ 10718 10713 10712 10709 ] final -162.48 input   66.30 | X-H torsion
[ 10763 10752 10751 10750 ] final   63.83 input  -60.55 | X-H torsion
[ 11005 11000 10999 10996 ] final -164.79 input  -57.11 | X-H torsion

> <Gold.Protein.ActiveResidues>
 VAL166  LYS551  ARG553  GLY616  TRP617  ASP618  TYR619  PRO620  LYS621  CYS622 
 ASP623  PHE694  ASN695  SER759  ASP760  ASP761  ALA762  ILE779  LEU786  VAL792 
 PHE793  MET794  SER795  GLU796  ALA797  LYS798  CYS799  TRP800  GLU811  SER814 

> <Gold.Protein.RotatedAtoms>
  151.5744  133.3386  159.2995 H   0  0  0  0  0  0  0  0  0  0  0  0  # atno 6907 bound_to 6896
  150.8349  134.7621  159.6896 H   0  0  0  0  0  0  0  0  0  0  0  0  # atno 6908 bound_to 6896
  152.4427  134.5565  159.9933 H   0  0  0  0  0  0  0  0  0  0  0  0  # atno 6909 bound_to 6896
  144.7299  140.2974  143.6210 H   0  0  0  0  0  0  0  0  0  0  0  0  # atno 7974 bound_to 7965
  156.2472  140.1937  156.6817 H   0  0  0  0  0  0  0  0  0  0  0  0  # atno 8008 bound_to 7997
  154.6317  140.0595  156.9766 H   0  0  0  0  0  0  0  0  0  0  0  0  # atno 8009 bound_to 7997
  155.1700  140.3267  155.4397 H   0  0  0  0  0  0  0  0  0  0  0  0  # atno 8010 bound_to 7997
  139.4847  144.5500  151.7417 H   0  0  0  0  0  0  0  0  0  0  0  0  # atno 10167 bound_to 10162
  156.6111  130.8851  151.2936 H   0  0  0  0  0  0  0  0  0  0  0  0  # atno 10718 bound_to 10713
  153.0032  135.5415  154.6414 H   0  0  0  0  0  0  0  0  0  0  0  0  # atno 10763 bound_to 10752
  154.5668  135.2838  155.0868 H   0  0  0  0  0  0  0  0  0  0  0  0  # atno 10764 bound_to 10752
  154.2049  135.6477  153.5150 H   0  0  0  0  0  0  0  0  0  0  0  0  # atno 10765 bound_to 10752
  140.5830  134.5122  157.5181 H   0  0  0  0  0  0  0  0  0  0  0  0  # atno 11005 bound_to 11000
  145.7795  139.1886  143.2166 LP  0  0  0  0  0  0  0  0  0  0  0  0  # atno 17320 bound_to 7965
  146.0846  140.7726  142.9625 LP  0  0  0  0  0  0  0  0  0  0  0  0  # atno 17321 bound_to 7965
  140.5053  144.1108  150.5981 LP  0  0  0  0  0  0  0  0  0  0  0  0  # atno 17342 bound_to 10162
  140.4015  143.2701  151.9942 LP  0  0  0  0  0  0  0  0  0  0  0  0  # atno 17343 bound_to 10162
  157.7254  130.9615  150.1612 LP  0  0  0  0  0  0  0  0  0  0  0  0  # atno 17370 bound_to 10713
  156.2389  130.3689  149.8359 LP  0  0  0  0  0  0  0  0  0  0  0  0  # atno 17371 bound_to 10713
  139.9308  134.7967  156.0935 LP  0  0  0  0  0  0  0  0  0  0  0  0  # atno 17394 bound_to 11000
  141.0984  133.6686  156.2698 LP  0  0  0  0  0  0  0  0  0  0  0  0  # atno 17395 bound_to 11000

$$$$
