AV-unprocessed.smi:671|AV-procd|sdf|3287|dock3
  -GOLD-   22720 0243D 1   1.00000     0.00000
 Structure written by MMmdl.
 50 51  0  0  0  0  0  0  0  0  2 V2000
  147.8693  141.6138  154.1253 C   0  0  0  0  0  0  0  0  0  0  0  0
  149.0748  141.3944  154.9768 C   0  0  0  0  0  0  0  0  0  0  0  0
  149.5849  142.3112  155.8417 N   0  3  0  0  0  0  0  0  0  0  0  0
  150.6660  141.8134  156.4589 N   0  0  0  0  0  0  0  0  0  0  0  0
  151.3705  142.6434  157.4363 C   0  0  0  0  0  0  0  0  0  0  0  0
  150.9181  140.5467  156.0221 C   0  0  0  0  0  0  0  0  0  0  0  0
  152.0511  139.7009  156.5060 C   0  0  0  0  0  0  0  0  0  0  0  0
  149.9099  140.2770  155.0863 C   0  0  0  0  0  0  0  0  0  0  0  0
  149.7307  139.0035  154.3091 C   0  0  0  0  0  0  0  0  0  0  0  0
  148.5941  138.1145  154.8600 C   0  0  2  0  0  0  0  0  0  0  0  0
  149.1032  137.0420  155.8353 C   0  0  0  0  0  0  0  0  0  0  0  0
  147.8921  137.4549  153.7564 N   0  0  0  0  0  0  0  0  0  0  0  0
  146.5700  137.4361  153.5047 C   0  0  0  0  0  0  0  0  0  0  0  0
  145.7640  138.0149  154.2300 O   0  0  0  0  0  0  0  0  0  0  0  0
  146.2183  136.7420  152.4090 N   0  0  0  0  0  0  0  0  0  0  0  0
  144.8545  136.5474  151.9265 C   0  0  1  0  0  0  0  0  0  0  0  0
  144.8282  135.4944  150.8016 C   0  0  0  0  0  0  0  0  0  0  0  0
  144.0742  134.2869  151.3603 C   0  0  0  0  0  0  0  0  0  0  0  0
  143.1245  134.8837  152.3932 C   0  0  0  0  0  0  0  0  0  0  0  0
  143.9368  136.0062  153.0457 C   0  0  2  0  0  0  0  0  0  0  0  0
  143.0660  137.0820  153.7098 C   0  0  0  0  0  0  0  0  0  0  0  0
  147.0974  140.8844  154.3711 H   0  0  0  0  0  0  0  0  0  0  0  0
  148.1275  141.5033  153.0719 H   0  0  0  0  0  0  0  0  0  0  0  0
  147.4631  142.6138  154.2804 H   0  0  0  0  0  0  0  0  0  0  0  0
  151.7187  142.0162  158.2574 H   0  0  0  0  0  0  0  0  0  0  0  0
  150.7004  143.4093  157.8293 H   0  0  0  0  0  0  0  0  0  0  0  0
  152.2244  143.1167  156.9509 H   0  0  0  0  0  0  0  0  0  0  0  0
  152.1779  138.8180  155.8808 H   0  0  0  0  0  0  0  0  0  0  0  0
  151.8629  139.3748  157.5290 H   0  0  0  0  0  0  0  0  0  0  0  0
  152.9810  140.2695  156.4879 H   0  0  0  0  0  0  0  0  0  0  0  0
  149.5233  139.2578  153.2691 H   0  0  0  0  0  0  0  0  0  0  0  0
  150.6600  138.4348  154.2755 H   0  0  0  0  0  0  0  0  0  0  0  0
  147.8838  138.7366  155.4072 H   0  0  0  0  0  0  0  0  0  0  0  0
  149.5659  137.4906  156.7142 H   0  0  0  0  0  0  0  0  0  0  0  0
  149.8418  136.3928  155.3637 H   0  0  0  0  0  0  0  0  0  0  0  0
  148.2848  136.4130  156.1874 H   0  0  0  0  0  0  0  0  0  0  0  0
  148.4796  136.9756  153.0891 H   0  0  0  0  0  0  0  0  0  0  0  0
  146.9535  136.3063  151.8721 H   0  0  0  0  0  0  0  0  0  0  0  0
  144.4602  137.4832  151.5248 H   0  0  0  0  0  0  0  0  0  0  0  0
  144.2809  135.8969  149.9482 H   0  0  0  0  0  0  0  0  0  0  0  0
  145.8206  135.2195  150.4412 H   0  0  0  0  0  0  0  0  0  0  0  0
  143.5535  133.7229  150.5859 H   0  0  0  0  0  0  0  0  0  0  0  0
  144.7724  133.6095  151.8524 H   0  0  0  0  0  0  0  0  0  0  0  0
  142.2504  135.2960  151.8868 H   0  0  0  0  0  0  0  0  0  0  0  0
  142.7736  134.1459  153.1152 H   0  0  0  0  0  0  0  0  0  0  0  0
  144.5558  135.5443  153.8176 H   0  0  0  0  0  0  0  0  0  0  0  0
  142.4166  137.5715  152.9833 H   0  0  0  0  0  0  0  0  0  0  0  0
  143.6825  137.8506  154.1764 H   0  0  0  0  0  0  0  0  0  0  0  0
  142.4331  136.6494  154.4846 H   0  0  0  0  0  0  0  0  0  0  0  0
  149.2518  143.2459  156.0417 H   0  0  0  0  0  0  0  0  0  0  0  0
  1  2  1  0  0  0  0
  1 22  1  0  0  0  0
  1 23  1  0  0  0  0
  1 24  1  0  0  0  0
  2  8  1  0  0  0  0
  2  3  2  0  0  0  0
  3  4  1  0  0  0  0
  3 50  1  0  0  0  0
  4  5  1  0  0  0  0
  4  6  1  0  0  0  0
  5 25  1  0  0  0  0
  5 26  1  0  0  0  0
  5 27  1  0  0  0  0
  6  7  1  0  0  0  0
  6  8  2  0  0  0  0
  7 28  1  0  0  0  0
  7 29  1  0  0  0  0
  7 30  1  0  0  0  0
  8  9  1  0  0  0  0
  9 10  1  0  0  0  0
  9 31  1  0  0  0  0
  9 32  1  0  0  0  0
 10 11  1  0  0  0  0
 10 12  1  0  0  0  0
 10 33  1  0  0  0  0
 11 34  1  0  0  0  0
 11 35  1  0  0  0  0
 11 36  1  0  0  0  0
 12 13  1  0  0  0  0
 12 37  1  0  0  0  0
 13 14  2  0  0  0  0
 13 15  1  0  0  0  0
 15 16  1  0  0  0  0
 15 38  1  0  0  0  0
 16 20  1  0  0  0  0
 16 17  1  0  0  0  0
 16 39  1  0  0  0  0
 17 18  1  0  0  0  0
 17 40  1  0  0  0  0
 17 41  1  0  0  0  0
 18 19  1  0  0  0  0
 18 42  1  0  0  0  0
 18 43  1  0  0  0  0
 19 20  1  0  0  0  0
 19 44  1  0  0  0  0
 19 45  1  0  0  0  0
 20 21  1  0  0  0  0
 20 46  1  0  0  0  0
 21 47  1  0  0  0  0
 21 48  1  0  0  0  0
 21 49  1  0  0  0  0
M  CHG  1   3   1
M  END
> <s_m_source_file>
AV-unprocessed.smi

> <i_m_source_file_index>
671

> <i_lp_mmshare_version>
43012

> <i_f3d_flags>
0

> <s_epik_input>
W0NIM11jMW5uKFtDSDNdKWMoW0NIM10pYzFbQ0gyXVtDQEhdKFtDSDNdKVtOSF1DKD1PKVtOSF1bQ0BASF0yW0NIMl1bQ0gyXVtDSDJdW0NASF0yW0NIM10=

> <s_epik_cmdline>
J2VwaWtfcHl0aG9uJywgJy1waCcsICc3LjAnLCAnLXRuJywgJzgnLCAnLW1hJywgJzIwMCcsICctbWV0YWxfYmluZGluZycsICctaW1hZScsICc8aW5maWxlLm1hZT4nLCAnLW9tYWUnLCAnPG91dGZpbGUubWFlPic=

> <r_lp_tautomer_probability>
1

> <r_epik_Ionization_Penalty>
2.28705

> <r_epik_Ionization_Penalty_Charging>
2.28698

> <r_epik_Ionization_Penalty_Neutral>
6.23157e-05

> <r_epik_State_Penalty>
2.43671

> <r_epik_Charging_Adjusted_Penalty>
4.72369

> <i_epik_Tot_Q>
1

> <i_epik_Tot_abs_Q>
1

> <r_epik_Metal_State_Penalty>
2.44911

> <b_epik_Metal_Only>
0

> <s_lp_Force_Field>
OPLS_2005

> <r_lp_Energy>
34.681

> <b_lp_Chiralities_Consistent>
1

> <s_lp_Variant>
AV-unprocessed.smi:671-15

> <Gold.Version>
5.8.1

> <Gold.Id.Protein>
6NUR|6NUR_protein|mol2

> <Gold.PLP.Fitness>
46.8263

> <Gold.PLP.PLP>
-37.1526

> <Gold.PLP.part.hbond>
-2.8475

> <Gold.PLP.part.metal>
0.0000

> <Gold.PLP.part.buried>
-5.2847

> <Gold.PLP.part.nonpolar>
-31.2207

> <Gold.PLP.part.repulsive>
0.2978

> <Gold.PLP.ligand.clash>
0.0000

> <Gold.PLP.ligand.torsion>
0.8755

> <Gold.PLP.Chemscore.Hbond>
3.8000

> <Gold.PLP.Chemscore.CHOScore>
0.0000

> <Gold.PLP.Chemscore.Metal>
0.0000

> <Gold.Chemscore.Hbonds>
donor molecule, donor type, donor heavy atom, donor atom, acceptor molecule, acceptor atom, score
      L1  H     3    50       P1  8028  2.00
      L1  H    12    37       P1  7948  0.94
      L1  H    15    38       P1  7948  0.80

> <Gold.PLP.Chemscore.Internal.Correction>
0.0247

> <Gold.Rescore>
     Score         DG    S(hbond)    S(metal)    S(lipo)     H(rot)  DE(clash)    DE(int)     intcor
     19.72     -20.69       2.82        0.00      82.52       1.51       0.07       0.90       ----

> <Gold.Chemscore.Fitness>
19.7228

> <Gold.Chemscore.DG>
-20.6887

> <Gold.Chemscore.ZeroCoef>
-5.4800

> <Gold.Chemscore.Hbond>
2.8168

> <Gold.Chemscore.Metal>
0.0000

> <Gold.Chemscore.Lipo>
82.5223

> <Gold.Chemscore.Internal_Hbond>
0.0000

> <Gold.Chemscore.DEClash>
0.0691

> <Gold.Chemscore.DEInternal>
0.8968

> <Gold.Chemscore.Rot>
1.5057

> <Gold.Chemscore.Internal.Correction>
   9.000000E+99

> <Gold.Chemscore.Hbonds>
donor molecule, donor type, donor heavy atom, donor atom, acceptor molecule, acceptor atom, score
      L1  H     3    50       P1  8028  0.94
      L1  H    12    37       P1  7948  0.90
      L1  H    15    38       P1  7948  0.78

> <Gold.Chemscore.Hbond.Weighted>
-9.4082

> <Gold.Chemscore.Metal.Weighted>
-0.0000

> <Gold.Chemscore.Lipo.Weighted>
-9.6551

> <Gold.Chemscore.Internal_Hbond.Weighted>
0.0000

> <Gold.Chemscore.DEClash.Weighted>
0.0691

> <Gold.Chemscore.DEInternal.Weighted>
0.8968

> <Gold.Chemscore.Rot.Weighted>
3.8547

> <Gold.Chemscore.Internal.Correction.Weighted>
   9.000000E+99

> <Gold.Protein.RotatedTorsions>
[ 6907 6896 6895 6894 ] final   20.37 input  -60.11 | X-H torsion
[ 7974 7965 7964 7962 ] final  131.86 input  175.53 | X-H torsion
[ 8008 7997 7996 7995 ] final    1.61 input   59.86 | X-H torsion
[ 10167 10162 10161 10158 ] final  -81.26 input  -65.29 | X-H torsion
[ 10718 10713 10712 10709 ] final  100.06 input   66.30 | X-H torsion
[ 10763 10752 10751 10750 ] final  152.50 input  -60.55 | X-H torsion
[ 11005 11000 10999 10996 ] final -109.94 input  -57.11 | X-H torsion

> <Gold.Protein.ActiveResidues>
 VAL166  LYS551  ARG553  GLY616  TRP617  ASP618  TYR619  PRO620  LYS621  CYS622 
 ASP623  PHE694  ASN695  SER759  ASP760  ASP761  ALA762  ILE779  LEU786  VAL792 
 PHE793  MET794  SER795  GLU796  ALA797  LYS798  CYS799  TRP800  GLU811  SER814 

> <Gold.Protein.RotatedAtoms>
  151.8954  135.0400  160.0501 H   0  0  0  0  0  0  0  0  0  0  0  0  # atno 6907 bound_to 6896
  152.2402  133.5124  159.5274 H   0  0  0  0  0  0  0  0  0  0  0  0  # atno 6908 bound_to 6896
  150.7051  134.1016  159.4010 H   0  0  0  0  0  0  0  0  0  0  0  0  # atno 6909 bound_to 6896
  145.0029  139.4294  143.5283 H   0  0  0  0  0  0  0  0  0  0  0  0  # atno 7974 bound_to 7965
  154.6818  140.2634  155.6901 H   0  0  0  0  0  0  0  0  0  0  0  0  # atno 8008 bound_to 7997
  156.2699  140.2808  156.1288 H   0  0  0  0  0  0  0  0  0  0  0  0  # atno 8009 bound_to 7997
  155.1020  140.0374  157.2690 H   0  0  0  0  0  0  0  0  0  0  0  0  # atno 8010 bound_to 7997
  140.4428  143.2509  151.8601 H   0  0  0  0  0  0  0  0  0  0  0  0  # atno 10167 bound_to 10162
  157.6862  131.0688  150.5043 H   0  0  0  0  0  0  0  0  0  0  0  0  # atno 10718 bound_to 10713
  154.1210  135.2833  155.3208 H   0  0  0  0  0  0  0  0  0  0  0  0  # atno 10763 bound_to 10752
  154.6423  135.5398  153.7807 H   0  0  0  0  0  0  0  0  0  0  0  0  # atno 10764 bound_to 10752
  153.0313  135.6489  154.1364 H   0  0  0  0  0  0  0  0  0  0  0  0  # atno 10765 bound_to 10752
  141.0819  133.9204  157.2269 H   0  0  0  0  0  0  0  0  0  0  0  0  # atno 11005 bound_to 11000
  146.3455  139.9428  142.8739 LP  0  0  0  0  0  0  0  0  0  0  0  0  # atno 17320 bound_to 7965
  145.2128  140.9903  143.4090 LP  0  0  0  0  0  0  0  0  0  0  0  0  # atno 17321 bound_to 7965
  139.4791  144.5209  151.8802 LP  0  0  0  0  0  0  0  0  0  0  0  0  # atno 17342 bound_to 10162
  140.4298  144.2130  150.5888 LP  0  0  0  0  0  0  0  0  0  0  0  0  # atno 17343 bound_to 10162
  156.5363  130.4197  149.6176 LP  0  0  0  0  0  0  0  0  0  0  0  0  # atno 17370 bound_to 10713
  156.3024  130.7184  151.2059 LP  0  0  0  0  0  0  0  0  0  0  0  0  # atno 17371 bound_to 10713
  139.9634  135.0148  156.9322 LP  0  0  0  0  0  0  0  0  0  0  0  0  # atno 17394 bound_to 11000
  140.5448  134.0684  155.7352 LP  0  0  0  0  0  0  0  0  0  0  0  0  # atno 17395 bound_to 11000

$$$$
