AV-unprocessed.smi:2060|AV-procd|sdf|8357|dock2
  -GOLD-   2272011 23D 1   1.00000     0.00000
 Structure written by MMmdl.
 46 47  0  0  0  0  0  0  0  0  2 V2000
  146.9351  141.0205  153.5639 C   0  0  0  0  0  0  0  0  0  0  0  0
  147.1187  139.4941  153.4835 C   0  0  0  0  0  0  0  0  0  0  0  0
  148.0438  138.8672  154.5719 C   0  0  2  0  0  0  0  0  0  0  0  0
  147.4641  139.2663  155.9547 C   0  0  0  0  0  0  0  0  0  0  0  0
  149.4827  139.4528  154.4177 C   0  0  0  0  0  0  0  0  0  0  0  0
  149.6857  140.7156  155.1276 N   0  0  0  0  0  0  0  0  0  0  0  0
  150.5778  140.9262  156.1068 C   0  0  0  0  0  0  0  0  0  0  0  0
  151.3321  140.0540  156.5385 O   0  0  0  0  0  0  0  0  0  0  0  0
  150.5312  142.1958  156.5442 N   0  0  0  0  0  0  0  0  0  0  0  0
  151.3092  142.7843  157.5734 C   0  0  0  0  0  0  0  0  0  0  0  0
  152.0196  141.9770  158.5010 C   0  0  0  0  0  0  0  0  0  0  0  0
  152.6274  142.8976  159.3076 C   0  0  0  0  0  0  0  0  0  0  0  0
  153.5270  142.7725  160.4894 C   0  0  0  0  0  0  0  0  0  0  0  0
  152.3171  144.1595  158.9040 O   0  0  0  0  0  0  0  0  0  0  0  0
  151.4712  144.0805  157.7914 N   0  0  0  0  0  0  0  0  0  0  0  0
  148.0645  137.3641  154.4387 N   0  3  0  0  0  0  0  0  0  0  0  0
  149.0468  136.6466  155.3005 C   0  0  0  0  0  0  0  0  0  0  0  0
  149.1113  135.1585  154.9201 C   0  0  0  0  0  0  0  0  0  0  0  0
  147.8208  134.5786  155.0480 O   0  0  0  0  0  0  0  0  0  0  0  0
  146.8818  135.1893  154.1744 C   0  0  0  0  0  0  0  0  0  0  0  0
  146.7415  136.6814  154.5203 C   0  0  0  0  0  0  0  0  0  0  0  0
  146.2769  141.3655  152.7663 H   0  0  0  0  0  0  0  0  0  0  0  0
  147.8810  141.5496  153.4516 H   0  0  0  0  0  0  0  0  0  0  0  0
  146.4863  141.3281  154.5082 H   0  0  0  0  0  0  0  0  0  0  0  0
  146.1381  139.0189  153.4958 H   0  0  0  0  0  0  0  0  0  0  0  0
  147.5149  139.2656  152.4935 H   0  0  0  0  0  0  0  0  0  0  0  0
  147.2129  140.3265  155.9978 H   0  0  0  0  0  0  0  0  0  0  0  0
  148.1734  139.0883  156.7631 H   0  0  0  0  0  0  0  0  0  0  0  0
  146.5547  138.7125  156.1885 H   0  0  0  0  0  0  0  0  0  0  0  0
  150.2356  138.7303  154.7334 H   0  0  0  0  0  0  0  0  0  0  0  0
  149.6976  139.6638  153.3708 H   0  0  0  0  0  0  0  0  0  0  0  0
  149.1080  141.4924  154.8413 H   0  0  0  0  0  0  0  0  0  0  0  0
  149.8685  142.8092  156.0932 H   0  0  0  0  0  0  0  0  0  0  0  0
  152.0757  140.9006  158.5673 H   0  0  0  0  0  0  0  0  0  0  0  0
  153.3917  141.8087  160.9804 H   0  0  0  0  0  0  0  0  0  0  0  0
  153.3213  143.5548  161.2205 H   0  0  0  0  0  0  0  0  0  0  0  0
  154.5716  142.8556  160.1890 H   0  0  0  0  0  0  0  0  0  0  0  0
  150.0477  137.0611  155.1999 H   0  0  0  0  0  0  0  0  0  0  0  0
  148.7660  136.7342  156.3503 H   0  0  0  0  0  0  0  0  0  0  0  0
  149.4857  135.0308  153.9031 H   0  0  0  0  0  0  0  0  0  0  0  0
  149.8000  134.6322  155.5814 H   0  0  0  0  0  0  0  0  0  0  0  0
  147.1919  135.0580  153.1364 H   0  0  0  0  0  0  0  0  0  0  0  0
  145.9204  134.6872  154.2846 H   0  0  0  0  0  0  0  0  0  0  0  0
  146.3242  136.7832  155.5223 H   0  0  0  0  0  0  0  0  0  0  0  0
  146.0215  137.1113  153.8269 H   0  0  0  0  0  0  0  0  0  0  0  0
  148.3793  137.2037  153.4925 H   0  0  0  0  0  0  0  0  0  0  0  0
  1  2  1  0  0  0  0
  1 22  1  0  0  0  0
  1 23  1  0  0  0  0
  1 24  1  0  0  0  0
  2  3  1  0  0  0  0
  2 25  1  0  0  0  0
  2 26  1  0  0  0  0
  3  4  1  0  0  0  0
  3  5  1  0  0  0  0
  3 16  1  0  0  0  0
  4 27  1  0  0  0  0
  4 28  1  0  0  0  0
  4 29  1  0  0  0  0
  5  6  1  0  0  0  0
  5 30  1  0  0  0  0
  5 31  1  0  0  0  0
  6  7  1  0  0  0  0
  6 32  1  0  0  0  0
  7  8  2  0  0  0  0
  7  9  1  0  0  0  0
  9 10  1  0  0  0  0
  9 33  1  0  0  0  0
 10 15  2  0  0  0  0
 10 11  1  0  0  0  0
 11 12  2  0  0  0  0
 11 34  1  0  0  0  0
 12 13  1  0  0  0  0
 12 14  1  0  0  0  0
 13 35  1  0  0  0  0
 13 36  1  0  0  0  0
 13 37  1  0  0  0  0
 14 15  1  0  0  0  0
 16 21  1  0  0  0  0
 16 17  1  0  0  0  0
 16 46  1  0  0  0  0
 17 18  1  0  0  0  0
 17 38  1  0  0  0  0
 17 39  1  0  0  0  0
 18 19  1  0  0  0  0
 18 40  1  0  0  0  0
 18 41  1  0  0  0  0
 19 20  1  0  0  0  0
 20 21  1  0  0  0  0
 20 42  1  0  0  0  0
 20 43  1  0  0  0  0
 21 44  1  0  0  0  0
 21 45  1  0  0  0  0
M  CHG  1  16   1
M  END
> <s_m_source_file>
AV-unprocessed.smi

> <i_m_source_file_index>
2060

> <i_lp_mmshare_version>
43012

> <i_f3d_flags>
0

> <s_epik_input>
W0NIMl0xW0NIMl1PW0NIMl1bQ0gyXU4xW0NAQF0oW0NIM10pKFtDSDJdW0NIM10pW0NIMl1bTkhdQyg9TylbTkhdYzJbY0hdYyhbQ0gzXSlvbjI=

> <s_epik_cmdline>
J2VwaWtfcHl0aG9uJywgJy1waCcsICc3LjAnLCAnLXRuJywgJzgnLCAnLW1hJywgJzIwMCcsICctbWV0YWxfYmluZGluZycsICctaW1hZScsICc8aW5maWxlLm1hZT4nLCAnLW9tYWUnLCAnPG91dGZpbGUubWFlPic=

> <r_epik_Ionization_Penalty>
0.563843

> <r_epik_Ionization_Penalty_Charging>
0.563819

> <r_epik_Ionization_Penalty_Neutral>
2.4442e-05

> <r_epik_State_Penalty>
0.575199

> <r_epik_Charging_Adjusted_Penalty>
1.13902

> <i_epik_Tot_Q>
1

> <i_epik_Tot_abs_Q>
1

> <r_epik_Metal_State_Penalty>
0.577669

> <b_epik_Metal_Only>
0

> <s_lp_Force_Field>
OPLS_2005

> <r_lp_Energy>
25.7644

> <b_lp_Chiralities_Consistent>
1

> <s_lp_Variant>
AV-unprocessed.smi:2060-4

> <Gold.Version>
5.8.1

> <Gold.Id.Protein>
6NUR|6NUR_protein|mol2

> <Gold.PLP.Fitness>
37.6032

> <Gold.PLP.PLP>
-29.5916

> <Gold.PLP.part.hbond>
-2.0000

> <Gold.PLP.part.metal>
0.0000

> <Gold.PLP.part.buried>
-5.7071

> <Gold.PLP.part.nonpolar>
-22.0460

> <Gold.PLP.part.repulsive>
0.4813

> <Gold.PLP.ligand.clash>
0.0000

> <Gold.PLP.ligand.torsion>
0.6167

> <Gold.PLP.Chemscore.Hbond>
3.0000

> <Gold.PLP.Chemscore.CHOScore>
0.0000

> <Gold.PLP.Chemscore.Metal>
0.0000

> <Gold.Chemscore.Hbonds>
donor molecule, donor type, donor heavy atom, donor atom, acceptor molecule, acceptor atom, score
      L1  H     9    33       P1  8028  0.60
      L1  H    16    46       P1  7948  2.00

> <Gold.PLP.Chemscore.Internal.Correction>
0.2450

> <Gold.Rescore>
     Score         DG    S(hbond)    S(metal)    S(lipo)     H(rot)  DE(clash)    DE(int)     intcor
     13.46     -15.52       1.89        0.00      70.42       1.77       0.06       1.99       ----

> <Gold.Chemscore.Fitness>
13.4587

> <Gold.Chemscore.DG>
-15.5168

> <Gold.Chemscore.ZeroCoef>
-5.4800

> <Gold.Chemscore.Hbond>
1.8927

> <Gold.Chemscore.Metal>
0.0000

> <Gold.Chemscore.Lipo>
70.4152

> <Gold.Chemscore.Internal_Hbond>
0.0000

> <Gold.Chemscore.DEClash>
0.0632

> <Gold.Chemscore.DEInternal>
1.9950

> <Gold.Chemscore.Rot>
1.7670

> <Gold.Chemscore.Internal.Correction>
   9.000000E+99

> <Gold.Chemscore.Hbonds>
donor molecule, donor type, donor heavy atom, donor atom, acceptor molecule, acceptor atom, score
      L1  H     9    33       P1  8028  0.60
      L1  H    16    46       P1  7948  0.97

> <Gold.Chemscore.Hbond.Weighted>
-6.3218

> <Gold.Chemscore.Metal.Weighted>
-0.0000

> <Gold.Chemscore.Lipo.Weighted>
-8.2386

> <Gold.Chemscore.Internal_Hbond.Weighted>
0.0000

> <Gold.Chemscore.DEClash.Weighted>
0.0632

> <Gold.Chemscore.DEInternal.Weighted>
1.9950

> <Gold.Chemscore.Rot.Weighted>
4.5235

> <Gold.Chemscore.Internal.Correction.Weighted>
   9.000000E+99

> <Gold.Protein.RotatedTorsions>
[ 6907 6896 6895 6894 ] final  -79.89 input  -60.11 | X-H torsion
[ 7974 7965 7964 7962 ] final  -89.92 input  175.53 | X-H torsion
[ 8008 7997 7996 7995 ] final  -11.91 input   59.86 | X-H torsion
[ 10167 10162 10161 10158 ] final -134.65 input  -65.29 | X-H torsion
[ 10718 10713 10712 10709 ] final  147.96 input   66.30 | X-H torsion
[ 10763 10752 10751 10750 ] final  -52.88 input  -60.55 | X-H torsion
[ 11005 11000 10999 10996 ] final  -92.42 input  -57.11 | X-H torsion

> <Gold.Protein.ActiveResidues>
 VAL166  LYS551  ARG553  GLY616  TRP617  ASP618  TYR619  PRO620  LYS621  CYS622 
 ASP623  PHE694  ASN695  SER759  ASP760  ASP761  ALA762  ILE779  LEU786  VAL792 
 PHE793  MET794  SER795  GLU796  ALA797  LYS798  CYS799  TRP800  GLU811  SER814 

> <Gold.Protein.RotatedAtoms>
  150.6940  134.4053  159.5137 H   0  0  0  0  0  0  0  0  0  0  0  0  # atno 6907 bound_to 6896
  152.1820  134.8743  160.0534 H   0  0  0  0  0  0  0  0  0  0  0  0  # atno 6908 bound_to 6896
  151.9730  133.3697  159.4115 H   0  0  0  0  0  0  0  0  0  0  0  0  # atno 6909 bound_to 6896
  145.4334  140.9556  143.2115 H   0  0  0  0  0  0  0  0  0  0  0  0  # atno 7974 bound_to 7965
  154.5423  140.2290  155.8620 H   0  0  0  0  0  0  0  0  0  0  0  0  # atno 8008 bound_to 7997
  156.1870  140.3086  155.9220 H   0  0  0  0  0  0  0  0  0  0  0  0  # atno 8009 bound_to 7997
  155.3233  140.0441  157.3030 H   0  0  0  0  0  0  0  0  0  0  0  0  # atno 8010 bound_to 7997
  139.8859  143.6782  152.2620 H   0  0  0  0  0  0  0  0  0  0  0  0  # atno 10167 bound_to 10162
  157.3145  131.0893  151.1290 H   0  0  0  0  0  0  0  0  0  0  0  0  # atno 10718 bound_to 10713
  154.1498  135.6492  153.4961 H   0  0  0  0  0  0  0  0  0  0  0  0  # atno 10763 bound_to 10752
  153.0141  135.5335  154.6820 H   0  0  0  0  0  0  0  0  0  0  0  0  # atno 10764 bound_to 10752
  154.6104  135.2953  155.0409 H   0  0  0  0  0  0  0  0  0  0  0  0  # atno 10765 bound_to 10752
  141.1522  133.7820  157.0017 H   0  0  0  0  0  0  0  0  0  0  0  0  # atno 11005 bound_to 11000
  144.8168  139.5862  143.7005 LP  0  0  0  0  0  0  0  0  0  0  0  0  # atno 17320 bound_to 7965
  146.2595  139.6378  142.9372 LP  0  0  0  0  0  0  0  0  0  0  0  0  # atno 17321 bound_to 7965
  139.7154  144.7613  151.1043 LP  0  0  0  0  0  0  0  0  0  0  0  0  # atno 17342 bound_to 10162
  140.7736  143.5276  150.9461 LP  0  0  0  0  0  0  0  0  0  0  0  0  # atno 17343 bound_to 10162
  157.2598  130.6654  149.5969 LP  0  0  0  0  0  0  0  0  0  0  0  0  # atno 17370 bound_to 10713
  155.9680  130.4512  150.5726 LP  0  0  0  0  0  0  0  0  0  0  0  0  # atno 17371 bound_to 10713
  140.0935  134.9578  157.1814 LP  0  0  0  0  0  0  0  0  0  0  0  0  # atno 17394 bound_to 11000
  140.3413  134.2701  155.7212 LP  0  0  0  0  0  0  0  0  0  0  0  0  # atno 17395 bound_to 11000

$$$$
