AV-unprocessed.smi:773|AV-procd|sdf|3690|dock8
  -GOLD-   22720 1113D 1   1.00000     0.00000
 Structure written by MMmdl.
 39 40  0  0  0  0  0  0  0  0  1 V2000
  150.4461  136.6510  154.5217 C   0  0  0  0  0  0  0  0  0  0  0  0
  150.3200  138.1273  154.2791 C   0  0  0  0  0  0  0  0  0  0  0  0
  151.3760  138.8166  153.8813 N   0  0  0  0  0  0  0  0  0  0  0  0
  150.9468  140.1424  153.7683 O   0  0  0  0  0  0  0  0  0  0  0  0
  149.6333  140.1989  154.1054 C   0  0  0  0  0  0  0  0  0  0  0  0
  148.9883  141.5426  154.0698 C   0  0  0  0  0  0  0  0  0  0  0  0
  149.1713  138.9552  154.4363 C   0  0  0  0  0  0  0  0  0  0  0  0
  147.7893  138.5539  154.8919 C   0  0  0  0  0  0  0  0  0  0  0  0
  146.7518  138.5339  153.7464 C   0  0  1  0  0  0  0  0  0  0  0  0
  146.8710  139.7743  152.8507 C   0  0  0  0  0  0  0  0  0  0  0  0
  146.8924  137.3300  152.9263 N   0  0  0  0  0  0  0  0  0  0  0  0
  145.9627  136.3752  152.7736 C   0  0  0  0  0  0  0  0  0  0  0  0
  144.8260  136.4314  153.2436 O   0  0  0  0  0  0  0  0  0  0  0  0
  146.4362  135.3283  152.0863 N   0  0  0  0  0  0  0  0  0  0  0  0
  145.6979  134.0903  151.8747 C   0  0  0  0  0  0  0  0  0  0  0  0
  146.3034  133.1957  150.7816 C   0  0  0  0  0  0  0  0  0  0  0  0
  144.8683  132.9281  150.3124 C   0  0  0  0  0  0  0  0  0  0  0  0
  144.4833  134.2674  150.9541 C   0  0  0  0  0  0  0  0  0  0  0  0
  149.9988  136.3739  155.4763 H   0  0  0  0  0  0  0  0  0  0  0  0
  151.4889  136.3323  154.5434 H   0  0  0  0  0  0  0  0  0  0  0  0
  149.9402  136.0840  153.7402 H   0  0  0  0  0  0  0  0  0  0  0  0
  148.0232  141.4951  153.5654 H   0  0  0  0  0  0  0  0  0  0  0  0
  149.6110  142.2645  153.5411 H   0  0  0  0  0  0  0  0  0  0  0  0
  148.8239  141.9154  155.0808 H   0  0  0  0  0  0  0  0  0  0  0  0
  147.8178  137.5696  155.3605 H   0  0  0  0  0  0  0  0  0  0  0  0
  147.4413  139.2313  155.6725 H   0  0  0  0  0  0  0  0  0  0  0  0
  145.7562  138.5507  154.1931 H   0  0  0  0  0  0  0  0  0  0  0  0
  146.7470  140.6893  153.4304 H   0  0  0  0  0  0  0  0  0  0  0  0
  146.1063  139.7717  152.0731 H   0  0  0  0  0  0  0  0  0  0  0  0
  147.8442  139.8200  152.3607 H   0  0  0  0  0  0  0  0  0  0  0  0
  147.7921  137.1834  152.4932 H   0  0  0  0  0  0  0  0  0  0  0  0
  147.3821  135.3670  151.7362 H   0  0  0  0  0  0  0  0  0  0  0  0
  145.4556  133.5402  152.7864 H   0  0  0  0  0  0  0  0  0  0  0  0
  146.8938  133.7433  150.0438 H   0  0  0  0  0  0  0  0  0  0  0  0
  146.8350  132.3192  151.1529 H   0  0  0  0  0  0  0  0  0  0  0  0
  144.7415  132.8850  149.2304 H   0  0  0  0  0  0  0  0  0  0  0  0
  144.4116  132.0707  150.8099 H   0  0  0  0  0  0  0  0  0  0  0  0
  143.5193  134.2679  151.4636 H   0  0  0  0  0  0  0  0  0  0  0  0
  144.5765  135.1064  150.2618 H   0  0  0  0  0  0  0  0  0  0  0  0
  1  2  1  0  0  0  0
  1 19  1  0  0  0  0
  1 20  1  0  0  0  0
  1 21  1  0  0  0  0
  2  7  1  0  0  0  0
  2  3  2  0  0  0  0
  3  4  1  0  0  0  0
  4  5  1  0  0  0  0
  5  6  1  0  0  0  0
  5  7  2  0  0  0  0
  6 22  1  0  0  0  0
  6 23  1  0  0  0  0
  6 24  1  0  0  0  0
  7  8  1  0  0  0  0
  8  9  1  0  0  0  0
  8 25  1  0  0  0  0
  8 26  1  0  0  0  0
  9 10  1  0  0  0  0
  9 11  1  0  0  0  0
  9 27  1  0  0  0  0
 10 28  1  0  0  0  0
 10 29  1  0  0  0  0
 10 30  1  0  0  0  0
 11 12  1  0  0  0  0
 11 31  1  0  0  0  0
 12 13  2  0  0  0  0
 12 14  1  0  0  0  0
 14 15  1  0  0  0  0
 14 32  1  0  0  0  0
 15 18  1  0  0  0  0
 15 16  1  0  0  0  0
 15 33  1  0  0  0  0
 16 17  1  0  0  0  0
 16 34  1  0  0  0  0
 16 35  1  0  0  0  0
 17 18  1  0  0  0  0
 17 36  1  0  0  0  0
 17 37  1  0  0  0  0
 18 38  1  0  0  0  0
 18 39  1  0  0  0  0
M  END
> <s_m_source_file>
AV-unprocessed.smi

> <i_m_source_file_index>
773

> <i_lp_mmshare_version>
43012

> <i_f3d_flags>
0

> <s_epik_input>
W0NIM11jMW5vYyhbQ0gzXSljMVtDSDJdW0NASF0oW0NIM10pW05IXUMoPU8pW05IXVtDSF0yW0NIMl1bQ0gyXVtDSDJdMg==

> <s_epik_cmdline>
J2VwaWtfcHl0aG9uJywgJy1waCcsICc3LjAnLCAnLXRuJywgJzgnLCAnLW1hJywgJzIwMCcsICctbWV0YWxfYmluZGluZycsICctaW1hZScsICc8aW5maWxlLm1hZT4nLCAnLW9tYWUnLCAnPG91dGZpbGUubWFlPic=

> <r_lp_tautomer_probability>
1

> <r_epik_Ionization_Penalty>
6.63278e-05

> <r_epik_Ionization_Penalty_Charging>
0

> <r_epik_Ionization_Penalty_Neutral>
6.63278e-05

> <r_epik_State_Penalty>
-0

> <r_epik_Charging_Adjusted_Penalty>
0

> <i_epik_Tot_Q>
0

> <i_epik_Tot_abs_Q>
0

> <r_epik_Metal_State_Penalty>
-0

> <b_epik_Metal_Only>
0

> <s_lp_Force_Field>
OPLS_2005

> <r_lp_Energy>
6.89309

> <b_lp_Chiralities_Consistent>
1

> <s_lp_Variant>
AV-unprocessed.smi:773-2

> <Gold.Version>
5.8.1

> <Gold.Id.Protein>
6NUR|6NUR_protein|mol2

> <Gold.PLP.Fitness>
36.5250

> <Gold.PLP.PLP>
-28.2495

> <Gold.PLP.part.hbond>
-3.0000

> <Gold.PLP.part.metal>
0.0000

> <Gold.PLP.part.buried>
-2.3978

> <Gold.PLP.part.nonpolar>
-22.6453

> <Gold.PLP.part.repulsive>
0.4799

> <Gold.PLP.ligand.clash>
0.0000

> <Gold.PLP.ligand.torsion>
0.4294

> <Gold.PLP.Chemscore.Hbond>
2.9600

> <Gold.PLP.Chemscore.CHOScore>
0.0000

> <Gold.PLP.Chemscore.Metal>
0.0000

> <Gold.Chemscore.Hbonds>
donor molecule, donor type, donor heavy atom, donor atom, acceptor molecule, acceptor atom, score
      L1  H    11    31       P1  7948  1.00
      L1  H    14    32       P1  7948  0.93

> <Gold.PLP.Chemscore.Internal.Correction>
0.2544

> <Gold.Rescore>
     Score         DG    S(hbond)    S(metal)    S(lipo)     H(rot)  DE(clash)    DE(int)     intcor
     18.78     -19.27       2.86        0.00      70.53       1.56       0.01       0.49       ----

> <Gold.Chemscore.Fitness>
18.7819

> <Gold.Chemscore.DG>
-19.2745

> <Gold.Chemscore.ZeroCoef>
-5.4800

> <Gold.Chemscore.Hbond>
2.8572

> <Gold.Chemscore.Metal>
0.0000

> <Gold.Chemscore.Lipo>
70.5271

> <Gold.Chemscore.Internal_Hbond>
0.0000

> <Gold.Chemscore.DEClash>
0.0073

> <Gold.Chemscore.DEInternal>
0.4853

> <Gold.Chemscore.Rot>
1.5625

> <Gold.Chemscore.Internal.Correction>
   9.000000E+99

> <Gold.Chemscore.Hbonds>
donor molecule, donor type, donor heavy atom, donor atom, acceptor molecule, acceptor atom, score
      L1  H    11    31       P1  7948  0.96
      L1  H    14    32       P1  7948  0.88

> <Gold.Chemscore.Hbond.Weighted>
-9.5429

> <Gold.Chemscore.Metal.Weighted>
-0.0000

> <Gold.Chemscore.Lipo.Weighted>
-8.2517

> <Gold.Chemscore.Internal_Hbond.Weighted>
0.0000

> <Gold.Chemscore.DEClash.Weighted>
0.0073

> <Gold.Chemscore.DEInternal.Weighted>
0.4853

> <Gold.Chemscore.Rot.Weighted>
4.0000

> <Gold.Chemscore.Internal.Correction.Weighted>
   9.000000E+99

> <Gold.Protein.RotatedTorsions>
[ 6907 6896 6895 6894 ] final    0.51 input  -60.11 | X-H torsion
[ 7974 7965 7964 7962 ] final -161.66 input  175.53 | X-H torsion
[ 8008 7997 7996 7995 ] final  128.31 input   59.86 | X-H torsion
[ 10167 10162 10161 10158 ] final  -55.19 input  -65.29 | X-H torsion
[ 10718 10713 10712 10709 ] final   80.52 input   66.30 | X-H torsion
[ 10763 10752 10751 10750 ] final -177.55 input  -60.55 | X-H torsion
[ 11005 11000 10999 10996 ] final   24.47 input  -57.11 | X-H torsion

> <Gold.Protein.ActiveResidues>
 VAL166  LYS551  ARG553  GLY616  TRP617  ASP618  TYR619  PRO620  LYS621  CYS622 
 ASP623  PHE694  ASN695  SER759  ASP760  ASP761  ALA762  ILE779  LEU786  VAL792 
 PHE793  MET794  SER795  GLU796  ALA797  LYS798  CYS799  TRP800  GLU811  SER814 

> <Gold.Protein.RotatedAtoms>
  151.5777  135.1060  160.0009 H   0  0  0  0  0  0  0  0  0  0  0  0  # atno 6907 bound_to 6896
  152.4370  133.7374  159.6632 H   0  0  0  0  0  0  0  0  0  0  0  0  # atno 6908 bound_to 6896
  150.8269  133.8087  159.3138 H   0  0  0  0  0  0  0  0  0  0  0  0  # atno 6909 bound_to 6896
  144.7383  140.3366  143.6143 H   0  0  0  0  0  0  0  0  0  0  0  0  # atno 7974 bound_to 7965
  156.2912  140.2648  156.2416 H   0  0  0  0  0  0  0  0  0  0  0  0  # atno 8008 bound_to 7997
  154.9972  140.0388  157.2363 H   0  0  0  0  0  0  0  0  0  0  0  0  # atno 8009 bound_to 7997
  154.7633  140.2765  155.6201 H   0  0  0  0  0  0  0  0  0  0  0  0  # atno 8010 bound_to 7997
  140.6389  143.2497  151.5044 H   0  0  0  0  0  0  0  0  0  0  0  0  # atno 10167 bound_to 10162
  157.6808  130.9963  150.2091 H   0  0  0  0  0  0  0  0  0  0  0  0  # atno 10718 bound_to 10713
  154.5588  135.2818  155.0939 H   0  0  0  0  0  0  0  0  0  0  0  0  # atno 10763 bound_to 10752
  154.2356  135.6366  153.5194 H   0  0  0  0  0  0  0  0  0  0  0  0  # atno 10764 bound_to 10752
  153.0023  135.5548  154.6175 H   0  0  0  0  0  0  0  0  0  0  0  0  # atno 10765 bound_to 10752
  140.3584  134.2152  155.7674 H   0  0  0  0  0  0  0  0  0  0  0  0  # atno 11005 bound_to 11000
  145.7417  139.1766  143.2372 LP  0  0  0  0  0  0  0  0  0  0  0  0  # atno 17320 bound_to 7965
  146.1129  140.7406  142.9495 LP  0  0  0  0  0  0  0  0  0  0  0  0  # atno 17321 bound_to 7965
  139.5598  144.2184  152.1673 LP  0  0  0  0  0  0  0  0  0  0  0  0  # atno 17342 bound_to 10162
  140.1449  144.5168  150.6722 LP  0  0  0  0  0  0  0  0  0  0  0  0  # atno 17343 bound_to 10162
  156.2766  130.3728  149.7978 LP  0  0  0  0  0  0  0  0  0  0  0  0  # atno 17370 bound_to 10713
  156.5679  130.8412  151.3348 LP  0  0  0  0  0  0  0  0  0  0  0  0  # atno 17371 bound_to 10713
  141.1991  133.8018  157.0550 LP  0  0  0  0  0  0  0  0  0  0  0  0  # atno 17394 bound_to 11000
  140.0647  134.9736  157.1365 LP  0  0  0  0  0  0  0  0  0  0  0  0  # atno 17395 bound_to 11000

$$$$
