AV-unprocessed.smi:61|AV-procd|sdf|595|dock1
  -GOLD-   2262016493D 1   1.00000     0.00000
 Structure written by MMmdl.
 29 30  0  0  0  0  0  0  0  0  2 V2000
  146.7743  138.2621  152.0507 N   0  0  0  0  0  0  0  0  0  0  0  0
  147.2170  139.2498  152.8977 C   0  0  0  0  0  0  0  0  0  0  0  0
  146.5514  140.4126  152.9318 N   0  3  0  0  0  0  0  0  0  0  0  0
  146.9740  141.3971  153.7608 C   0  0  0  0  0  0  0  0  0  0  0  0
  148.1026  141.2023  154.5779 C   0  0  0  0  0  0  0  0  0  0  0  0
  148.7576  139.9560  154.4923 C   0  0  0  0  0  0  0  0  0  0  0  0
  149.8994  139.6863  155.2767 N   0  0  0  0  0  0  0  0  0  0  0  0
  150.2895  140.7034  156.2482 C   0  0  0  0  0  0  0  0  0  0  0  0
  151.8203  140.7189  156.2623 C   0  0  0  0  0  0  0  0  0  0  0  0
  152.1984  139.3440  155.7236 C   0  0  0  0  0  0  0  0  0  0  0  0
  151.0903  139.0590  154.7042 C   0  0  1  0  0  0  0  0  0  0  0  0
  150.9045  137.5544  154.4202 C   0  0  0  0  0  0  0  0  0  0  0  0
  152.0583  137.0369  153.7940 O   0  0  0  0  0  0  0  0  0  0  0  0
  148.2950  139.0038  153.6496 N   0  0  0  0  0  0  0  0  0  0  0  0
  147.2570  137.3762  152.0040 H   0  0  0  0  0  0  0  0  0  0  0  0
  146.0026  138.4314  151.4219 H   0  0  0  0  0  0  0  0  0  0  0  0
  146.3945  142.3086  153.7446 H   0  0  0  0  0  0  0  0  0  0  0  0
  148.4404  141.9813  155.2459 H   0  0  0  0  0  0  0  0  0  0  0  0
  149.8951  141.6910  156.0050 H   0  0  0  0  0  0  0  0  0  0  0  0
  149.9019  140.4152  157.2259 H   0  0  0  0  0  0  0  0  0  0  0  0
  152.1867  141.4901  155.5833 H   0  0  0  0  0  0  0  0  0  0  0  0
  152.2328  140.9181  157.2516 H   0  0  0  0  0  0  0  0  0  0  0  0
  153.1958  139.3205  155.2833 H   0  0  0  0  0  0  0  0  0  0  0  0
  152.1704  138.6144  156.5345 H   0  0  0  0  0  0  0  0  0  0  0  0
  151.3325  139.5787  153.7756 H   0  0  0  0  0  0  0  0  0  0  0  0
  150.7168  137.0046  155.3432 H   0  0  0  0  0  0  0  0  0  0  0  0
  150.0555  137.3709  153.7626 H   0  0  0  0  0  0  0  0  0  0  0  0
  151.8317  136.7741  152.9148 H   0  0  0  0  0  0  0  0  0  0  0  0
  145.7314  140.5664  152.3443 H   0  0  0  0  0  0  0  0  0  0  0  0
  1  2  1  0  0  0  0
  1 15  1  0  0  0  0
  1 16  1  0  0  0  0
  2 14  1  0  0  0  0
  2  3  2  0  0  0  0
  3  4  1  0  0  0  0
  3 29  1  0  0  0  0
  4  5  2  0  0  0  0
  4 17  1  0  0  0  0
  5  6  1  0  0  0  0
  5 18  1  0  0  0  0
  6  7  1  0  0  0  0
  6 14  2  0  0  0  0
  7 11  1  0  0  0  0
  7  8  1  0  0  0  0
  8  9  1  0  0  0  0
  8 19  1  0  0  0  0
  8 20  1  0  0  0  0
  9 10  1  0  0  0  0
  9 21  1  0  0  0  0
  9 22  1  0  0  0  0
 10 11  1  0  0  0  0
 10 23  1  0  0  0  0
 10 24  1  0  0  0  0
 11 12  1  0  0  0  0
 11 25  1  0  0  0  0
 12 13  1  0  0  0  0
 12 26  1  0  0  0  0
 12 27  1  0  0  0  0
 13 28  1  0  0  0  0
M  CHG  1   3   1
M  END
> <s_m_source_file>
AV-unprocessed.smi

> <i_m_source_file_index>
61

> <i_lp_mmshare_version>
43012

> <i_f3d_flags>
0

> <s_epik_input>
W05IMl1jMW5bY0hdW2NIXWMobjEpTjJbQ0gyXVtDSDJdW0NIMl1bQ0BIXTJbQ0gyXVtPSF0=

> <s_epik_cmdline>
J2VwaWtfcHl0aG9uJywgJy1waCcsICc3LjAnLCAnLXRuJywgJzgnLCAnLW1hJywgJzIwMCcsICctbWV0YWxfYmluZGluZycsICctaW1hZScsICc8aW5maWxlLm1hZT4nLCAnLW9tYWUnLCAnPG91dGZpbGUubWFlPic=

> <r_lp_tautomer_probability>
0.575011

> <r_epik_Ionization_Penalty>
0.303659

> <r_epik_Ionization_Penalty_Charging>
0.303655

> <r_epik_Ionization_Penalty_Neutral>
4.42648e-06

> <r_epik_State_Penalty>
0.524608

> <r_epik_Charging_Adjusted_Penalty>
0.828263

> <i_epik_Tot_Q>
1

> <i_epik_Tot_abs_Q>
1

> <r_epik_Metal_State_Penalty>
0.785265

> <b_epik_Metal_Only>
0

> <s_lp_Force_Field>
OPLS_2005

> <r_lp_Energy>
27.124

> <b_lp_Chiralities_Consistent>
1

> <s_lp_Variant>
AV-unprocessed.smi:61-1

> <Gold.Version>
5.8.1

> <Gold.Id.Protein>
6NUR|6NUR_protein|mol2

> <Gold.PLP.Fitness>
44.0586

> <Gold.PLP.PLP>
-27.2541

> <Gold.PLP.part.hbond>
-4.0000

> <Gold.PLP.part.metal>
0.0000

> <Gold.PLP.part.buried>
-4.5782

> <Gold.PLP.part.nonpolar>
-20.1064

> <Gold.PLP.part.repulsive>
1.2107

> <Gold.PLP.ligand.clash>
0.0000

> <Gold.PLP.ligand.torsion>
0.2152

> <Gold.PLP.Chemscore.Hbond>
5.6240

> <Gold.PLP.Chemscore.CHOScore>
0.0000

> <Gold.PLP.Chemscore.Metal>
0.0000

> <Gold.Chemscore.Hbonds>
donor molecule, donor type, donor heavy atom, donor atom, acceptor molecule, acceptor atom, score
      L1  H     1    15       P1  7948  2.00
      L1  H     3    29       P1 10175  1.59
      L1  H    13    28       P1  7949  1.00
      P1  H 10752 10765       L1    13  0.93

> <Gold.PLP.Chemscore.Internal.Correction>
0.3630

> <Gold.Rescore>
     Score         DG    S(hbond)    S(metal)    S(lipo)     H(rot)  DE(clash)    DE(int)     intcor
     16.29     -17.22       3.54        0.00      42.70       1.98       0.09       0.83       ----

> <Gold.Chemscore.Fitness>
16.2925

> <Gold.Chemscore.DG>
-17.2163

> <Gold.Chemscore.ZeroCoef>
-5.4800

> <Gold.Chemscore.Hbond>
3.5386

> <Gold.Chemscore.Metal>
0.0000

> <Gold.Chemscore.Lipo>
42.7004

> <Gold.Chemscore.Internal_Hbond>
0.0000

> <Gold.Chemscore.DEClash>
0.0934

> <Gold.Chemscore.DEInternal>
0.8304

> <Gold.Chemscore.Rot>
1.9838

> <Gold.Chemscore.Internal.Correction>
   9.000000E+99

> <Gold.Chemscore.Hbonds>
donor molecule, donor type, donor heavy atom, donor atom, acceptor molecule, acceptor atom, score
      L1  H     1    15       P1  7948  0.90
      L1  H     3    29       P1 10175  0.22
      L1  H    13    28       P1  7949  1.00
      P1  H 10752 10765       L1    13  0.20

> <Gold.Chemscore.Hbond.Weighted>
-11.8189

> <Gold.Chemscore.Metal.Weighted>
-0.0000

> <Gold.Chemscore.Lipo.Weighted>
-4.9960

> <Gold.Chemscore.Internal_Hbond.Weighted>
0.0000

> <Gold.Chemscore.DEClash.Weighted>
0.0934

> <Gold.Chemscore.DEInternal.Weighted>
0.8304

> <Gold.Chemscore.Rot.Weighted>
5.0786

> <Gold.Chemscore.Internal.Correction.Weighted>
   9.000000E+99

> <Gold.Protein.RotatedTorsions>
[ 6907 6896 6895 6894 ] final -178.34 input  -60.11 | X-H torsion
[ 7974 7965 7964 7962 ] final   64.17 input  175.53 | X-H torsion
[ 8008 7997 7996 7995 ] final  -44.76 input   59.86 | X-H torsion
[ 10167 10162 10161 10158 ] final -163.09 input  -65.29 | X-H torsion
[ 10718 10713 10712 10709 ] final  139.40 input   66.30 | X-H torsion
[ 10763 10752 10751 10750 ] final  161.38 input  -60.55 | X-H torsion
[ 11005 11000 10999 10996 ] final  -77.90 input  -57.11 | X-H torsion

> <Gold.Protein.ActiveResidues>
 VAL166  LYS551  ARG553  GLY616  TRP617  ASP618  TYR619  PRO620  LYS621  CYS622 
 ASP623  PHE694  ASN695  SER759  ASP760  ASP761  ALA762  ILE779  LEU786  VAL792 
 PHE793  MET794  SER795  GLU796  ALA797  LYS798  CYS799  TRP800  GLU811  SER814 

> <Gold.Protein.RotatedAtoms>
  151.6357  133.3329  159.3118 H   0  0  0  0  0  0  0  0  0  0  0  0  # atno 6907 bound_to 6896
  150.8033  134.7146  159.6632 H   0  0  0  0  0  0  0  0  0  0  0  0  # atno 6908 bound_to 6896
  152.4127  134.6100  160.0074 H   0  0  0  0  0  0  0  0  0  0  0  0  # atno 6909 bound_to 6896
  145.8533  139.3268  143.0862 H   0  0  0  0  0  0  0  0  0  0  0  0  # atno 7974 bound_to 7965
  154.3998  140.1414  156.3736 H   0  0  0  0  0  0  0  0  0  0  0  0  # atno 8008 bound_to 7997
  155.8070  140.3474  155.5414 H   0  0  0  0  0  0  0  0  0  0  0  0  # atno 8009 bound_to 7997
  155.8426  140.0929  157.1715 H   0  0  0  0  0  0  0  0  0  0  0  0  # atno 8010 bound_to 7997
  139.6345  144.0376  152.2043 H   0  0  0  0  0  0  0  0  0  0  0  0  # atno 10167 bound_to 10162
  157.4148  131.1032  151.0416 H   0  0  0  0  0  0  0  0  0  0  0  0  # atno 10718 bound_to 10713
  154.2620  135.2768  155.2774 H   0  0  0  0  0  0  0  0  0  0  0  0  # atno 10763 bound_to 10752
  154.5376  135.5712  153.6815 H   0  0  0  0  0  0  0  0  0  0  0  0  # atno 10764 bound_to 10752
  152.9960  135.6243  154.2771 H   0  0  0  0  0  0  0  0  0  0  0  0  # atno 10765 bound_to 10752
  141.1662  133.7041  156.7891 H   0  0  0  0  0  0  0  0  0  0  0  0  # atno 11005 bound_to 11000
  145.9332  140.9033  143.0345 LP  0  0  0  0  0  0  0  0  0  0  0  0  # atno 17320 bound_to 7965
  144.6728  140.1447  143.7434 LP  0  0  0  0  0  0  0  0  0  0  0  0  # atno 17321 bound_to 7965
  140.0050  144.6266  150.7697 LP  0  0  0  0  0  0  0  0  0  0  0  0  # atno 17342 bound_to 10162
  140.7458  143.2880  151.3408 LP  0  0  0  0  0  0  0  0  0  0  0  0  # atno 17343 bound_to 10162
  157.1367  130.6125  149.5544 LP  0  0  0  0  0  0  0  0  0  0  0  0  # atno 17370 bound_to 10713
  155.9862  130.4895  150.7067 LP  0  0  0  0  0  0  0  0  0  0  0  0  # atno 17371 bound_to 10713
  140.2338  134.8665  157.3504 LP  0  0  0  0  0  0  0  0  0  0  0  0  # atno 17394 bound_to 11000
  140.1864  134.4426  155.7741 LP  0  0  0  0  0  0  0  0  0  0  0  0  # atno 17395 bound_to 11000

$$$$
