#       Name:                AV-unprocessed.smi:2909
#       Creating user name   scv26
#       Creation time:       Fri Mar 27 16:06:32 2020


#       File generated by GOLD software.
#

@<TRIPOS>MOLECULE
AV-unprocessed.smi:2909
    47    48     1
SMALL
NO_CHARGES


@<TRIPOS>ATOM
      1 ****        -5.2090  -1.8075  -2.9183 C.3            1 S1                 0.0000
      2 ****        -4.8058  -0.5430  -2.2185 C.2            1 S1                 0.0000
      3 ****        -4.3643  -0.3835  -0.8720 C.2            1 S1                 0.0000
      4 ****        -4.1222   0.9565  -0.7518 C.2            1 S1                 0.0000
      5 ****        -3.6336   1.7731   0.4010 C.3            1 S1                 0.0000
      6 ****        -2.1222   1.9811   0.3125 C.2            1 S1                 0.0000
      7 ****        -1.6718   2.9854  -0.2386 O.2            1 S1                 0.0000
      8 ****        -1.3530   1.0198   0.8479 N.am           1 S1                 0.0000
      9 ****         0.1062   1.0010   0.8297 C.3            1 S1                 0.0000
     10 ****         0.6193   0.3787  -0.4796 C.3            1 S1                 0.0000
     11 ****         2.1531   0.2883  -0.4973 C.3            1 S1                 0.0000
     12 ****         2.7193  -0.4989   0.7103 C.3            1 S1                 0.0000
     13 ****         4.2753  -0.5634   0.6939 C.3            1 S1                 0.0000
     14 ****         4.8310  -1.1873  -0.6013 C.3            1 S1                 0.0000
     15 ****         4.8542  -1.3283   1.9000 C.3            1 S1                 0.0000
     16 ****         2.1674   0.1166   2.0202 C.3            1 S1                 0.0000
     17 ****         0.6328   0.2032   2.0315 C.3            1 S1                 0.0000
     18 ****        -4.4212   1.5106  -1.9762 N.pl3          1 S1                 0.0000
     19 ****        -4.8377   0.6045  -2.8797 N.2            1 S1                 0.0000
     20 ****        -4.3399   2.4907  -2.2069 H              1 S1                 0.0000
     21 ****        -5.3469  -2.6234  -2.2085 H              1 S1                 0.0000
     22 ****        -4.4487  -2.1163  -3.6359 H              1 S1                 0.0000
     23 ****        -6.1465  -1.6783  -3.4599 H              1 S1                 0.0000
     24 ****        -4.2406  -1.1398  -0.1113 H              1 S1                 0.0000
     25 ****        -3.8840   1.2830   1.3428 H              1 S1                 0.0000
     26 ****        -4.1319   2.7434   0.4139 H              1 S1                 0.0000
     27 ****        -1.8126   0.2309   1.2795 H              1 S1                 0.0000
     28 ****         0.4809   2.0234   0.9097 H              1 S1                 0.0000
     29 ****         0.1969  -0.6193  -0.6059 H              1 S1                 0.0000
     30 ****         0.2799   0.9664  -1.3334 H              1 S1                 0.0000
     31 ****         2.4446  -0.1820  -1.4354 H              1 S1                 0.0000
     32 ****         2.5748   1.2941  -0.5105 H              1 S1                 0.0000
     33 ****         2.3435  -1.5212   0.6437 H              1 S1                 0.0000
     34 ****         4.6562   0.4574   0.7483 H              1 S1                 0.0000
     35 ****         4.4109  -2.1782  -0.7767 H              1 S1                 0.0000
     36 ****         5.9152  -1.2931  -0.5534 H              1 S1                 0.0000
     37 ****         4.6223  -0.5714  -1.4752 H              1 S1                 0.0000
     38 ****         4.4355  -2.3325   1.9720 H              1 S1                 0.0000
     39 ****         4.6635  -0.8128   2.8406 H              1 S1                 0.0000
     40 ****         5.9371  -1.4277   1.8198 H              1 S1                 0.0000
     41 ****         2.4709  -0.4754   2.8825 H              1 S1                 0.0000
     42 ****         2.5886   1.1124   2.1645 H              1 S1                 0.0000
     43 ****         0.2998   0.6662   2.9612 H              1 S1                 0.0000
     44 ****         0.2144  -0.8045   2.0209 H              1 S1                 0.0000
     45 ****        -2.2947   3.6641  -0.6278 LP             1 S1                 0.0000
     46 ****        -0.6830   3.1227  -0.2972 LP             1 S1                 0.0000
     47 ****        -5.1084   0.7610  -3.8296 LP             1 S1                 0.0000
@<TRIPOS>BOND
    1    1   21 1     
    2    1   22 1     
    3    1   23 1     
    4    1    2 1     
    5    2   19 2     
    6    2    3 1     
    7    3    4 2     
    8    3   24 1     
    9    4   18 1     
   10    4    5 1     
   11    5    6 1     
   12    5   25 1     
   13    5   26 1     
   14    6    7 2     
   15    6    8 am    
   16    8    9 1     
   17    8   27 1     
   18    9   17 1     
   19    9   10 1     
   20    9   28 1     
   21   10   11 1     
   22   10   29 1     
   23   10   30 1     
   24   11   12 1     
   25   11   31 1     
   26   11   32 1     
   27   12   13 1     
   28   12   16 1     
   29   12   33 1     
   30   13   14 1     
   31   13   15 1     
   32   13   34 1     
   33   14   35 1     
   34   14   36 1     
   35   14   37 1     
   36   15   38 1     
   37   15   39 1     
   38   15   40 1     
   39   16   17 1     
   40   16   41 1     
   41   16   42 1     
   42   17   43 1     
   43   17   44 1     
   44   18   19 1     
   45   18   20 1     
   46    7   45 1     
   47    7   46 1     
   48   19   47 1     
@<TRIPOS>SUBSTRUCTURE
      1 S1             1
@<TRIPOS>SET
LONE_PAIRS      STATIC     ATOMS    <user>   **** ""
3 45 46 47
DONOR_HYDROGENS      STATIC     ATOMS    <user>   **** ""
2 27 20
ATOM$BLUE        STATIC     ATOMS    COLORGROUP SYSTEM
3 45 46 47
ATOM$RED        STATIC     ATOMS    COLORGROUP SYSTEM
2 27 20
