AV-unprocessed.smi:568|AV-procd|sdf|2958|dock6
  -GOLD-   2262023463D 1   1.00000     0.00000
 Structure written by MMmdl.
 35 36  0  0  0  0  0  0  0  0  1 V2000
  151.3455  137.0278  155.6778 C   0  0  0  0  0  0  0  0  0  0  0  0
  151.0845  138.5060  155.6254 C   0  0  0  0  0  0  0  0  0  0  0  0
  150.8073  139.0710  154.4625 N   0  0  0  0  0  0  0  0  0  0  0  0
  150.6160  140.4292  154.7318 O   0  0  0  0  0  0  0  0  0  0  0  0
  150.7885  140.6321  156.0623 C   0  0  0  0  0  0  0  0  0  0  0  0
  150.6208  142.0326  156.5460 C   0  0  0  0  0  0  0  0  0  0  0  0
  151.0898  139.4540  156.6898 C   0  0  0  0  0  0  0  0  0  0  0  0
  151.3601  139.2069  158.1518 C   0  0  0  0  0  0  0  0  0  0  0  0
  152.6406  139.9327  158.5652 C   0  0  0  0  0  0  0  0  0  0  0  0
  153.7320  139.3814  158.4246 O   0  0  0  0  0  0  0  0  0  0  0  0
  152.4924  141.1644  159.0778 N   0  0  0  0  0  0  0  0  0  0  0  0
  153.5742  142.0219  159.5521 C   0  0  0  0  0  0  0  0  0  0  0  0
  153.0809  143.4424  159.8867 C   0  0  1  0  0  0  0  0  0  0  0  0
  152.2419  144.0720  158.7935 C   0  0  0  0  0  0  0  0  0  0  0  0
  151.5341  145.1993  159.5405 C   0  0  0  0  0  0  0  0  0  0  0  0
  151.4065  144.7573  160.8891 O   0  0  0  0  0  0  0  0  0  0  0  0
  152.1182  143.5375  161.0717 C   0  0  0  0  0  0  0  0  0  0  0  0
  151.2971  136.6493  156.6986 H   0  0  0  0  0  0  0  0  0  0  0  0
  152.3340  136.7919  155.2836 H   0  0  0  0  0  0  0  0  0  0  0  0
  150.6114  136.4765  155.0900 H   0  0  0  0  0  0  0  0  0  0  0  0
  150.5758  142.0702  157.6343 H   0  0  0  0  0  0  0  0  0  0  0  0
  149.7002  142.4681  156.1569 H   0  0  0  0  0  0  0  0  0  0  0  0
  151.4541  142.6551  156.2205 H   0  0  0  0  0  0  0  0  0  0  0  0
  150.5379  139.5629  158.7734 H   0  0  0  0  0  0  0  0  0  0  0  0
  151.4555  138.1417  158.3659 H   0  0  0  0  0  0  0  0  0  0  0  0
  151.5555  141.5330  159.1536 H   0  0  0  0  0  0  0  0  0  0  0  0
  153.9871  141.5614  160.4498 H   0  0  0  0  0  0  0  0  0  0  0  0
  154.3892  142.0561  158.8270 H   0  0  0  0  0  0  0  0  0  0  0  0
  153.9388  144.0893  160.0786 H   0  0  0  0  0  0  0  0  0  0  0  0
  152.8330  144.4292  157.9499 H   0  0  0  0  0  0  0  0  0  0  0  0
  151.5083  143.3570  158.4176 H   0  0  0  0  0  0  0  0  0  0  0  0
  152.1420  146.1048  159.5292 H   0  0  0  0  0  0  0  0  0  0  0  0
  150.5630  145.4383  159.1065 H   0  0  0  0  0  0  0  0  0  0  0  0
  151.4009  142.7156  161.0533 H   0  0  0  0  0  0  0  0  0  0  0  0
  152.6313  143.5174  162.0334 H   0  0  0  0  0  0  0  0  0  0  0  0
  1  2  1  0  0  0  0
  1 18  1  0  0  0  0
  1 19  1  0  0  0  0
  1 20  1  0  0  0  0
  2  7  1  0  0  0  0
  2  3  2  0  0  0  0
  3  4  1  0  0  0  0
  4  5  1  0  0  0  0
  5  6  1  0  0  0  0
  5  7  2  0  0  0  0
  6 21  1  0  0  0  0
  6 22  1  0  0  0  0
  6 23  1  0  0  0  0
  7  8  1  0  0  0  0
  8  9  1  0  0  0  0
  8 24  1  0  0  0  0
  8 25  1  0  0  0  0
  9 10  2  0  0  0  0
  9 11  1  0  0  0  0
 11 12  1  0  0  0  0
 11 26  1  0  0  0  0
 12 13  1  0  0  0  0
 12 27  1  0  0  0  0
 12 28  1  0  0  0  0
 13 17  1  0  0  0  0
 13 14  1  0  0  0  0
 13 29  1  0  0  0  0
 14 15  1  0  0  0  0
 14 30  1  0  0  0  0
 14 31  1  0  0  0  0
 15 16  1  0  0  0  0
 15 32  1  0  0  0  0
 15 33  1  0  0  0  0
 16 17  1  0  0  0  0
 17 34  1  0  0  0  0
 17 35  1  0  0  0  0
M  END
> <s_m_source_file>
AV-unprocessed.smi

> <i_m_source_file_index>
568

> <i_lp_mmshare_version>
43012

> <i_f3d_flags>
0

> <s_epik_input>
W0NIM11jMW5vYyhbQ0gzXSljMVtDSDJdQyg9TylbTkhdW0NIMl1bQ0BASF0yW0NIMl1bQ0gyXU9bQ0gyXTI=

> <s_epik_cmdline>
J2VwaWtfcHl0aG9uJywgJy1waCcsICc3LjAnLCAnLXRuJywgJzgnLCAnLW1hJywgJzIwMCcsICctbWV0YWxfYmluZGluZycsICctaW1hZScsICc8aW5maWxlLm1hZT4nLCAnLW9tYWUnLCAnPG91dGZpbGUubWFlPic=

> <r_lp_tautomer_probability>
1

> <r_epik_Ionization_Penalty>
2.07075e-08

> <r_epik_Ionization_Penalty_Charging>
0

> <r_epik_Ionization_Penalty_Neutral>
2.07075e-08

> <r_epik_State_Penalty>
-0

> <r_epik_Charging_Adjusted_Penalty>
0

> <i_epik_Tot_Q>
0

> <i_epik_Tot_abs_Q>
0

> <r_epik_Metal_State_Penalty>
-0

> <b_epik_Metal_Only>
0

> <s_lp_Force_Field>
OPLS_2005

> <r_lp_Energy>
12.1953

> <b_lp_Chiralities_Consistent>
1

> <s_lp_Variant>
AV-unprocessed.smi:568-2

> <Gold.Version>
5.8.1

> <Gold.Id.Protein>
6NUR|6NUR_protein|mol2

> <Gold.PLP.Fitness>
40.8422

> <Gold.PLP.PLP>
-35.7452

> <Gold.PLP.part.hbond>
-2.3158

> <Gold.PLP.part.metal>
0.0000

> <Gold.PLP.part.buried>
-6.1616

> <Gold.PLP.part.nonpolar>
-28.7239

> <Gold.PLP.part.repulsive>
0.5415

> <Gold.PLP.ligand.clash>
0.0000

> <Gold.PLP.ligand.torsion>
0.4590

> <Gold.PLP.Chemscore.Hbond>
2.0000

> <Gold.PLP.Chemscore.CHOScore>
0.0000

> <Gold.PLP.Chemscore.Metal>
0.0000

> <Gold.Chemscore.Hbonds>
donor molecule, donor type, donor heavy atom, donor atom, acceptor molecule, acceptor atom, score
      P1  H  7989  7998       L1     4  0.60
      P1  H  7997  8009       L1    10  1.00

> <Gold.PLP.Chemscore.Internal.Correction>
0.0150

> <Gold.Rescore>
     Score         DG    S(hbond)    S(metal)    S(lipo)     H(rot)  DE(clash)    DE(int)     intcor
     17.96     -18.46       1.79        0.00      93.84       1.56       0.03       0.47       ----

> <Gold.Chemscore.Fitness>
17.9592

> <Gold.Chemscore.DG>
-18.4563

> <Gold.Chemscore.ZeroCoef>
-5.4800

> <Gold.Chemscore.Hbond>
1.7898

> <Gold.Chemscore.Metal>
0.0000

> <Gold.Chemscore.Lipo>
93.8418

> <Gold.Chemscore.Internal_Hbond>
0.0000

> <Gold.Chemscore.DEClash>
0.0310

> <Gold.Chemscore.DEInternal>
0.4662

> <Gold.Chemscore.Rot>
1.5551

> <Gold.Chemscore.Internal.Correction>
   9.000000E+99

> <Gold.Chemscore.Hbonds>
donor molecule, donor type, donor heavy atom, donor atom, acceptor molecule, acceptor atom, score
      P1  H  7989  7998       L1     4  0.04
      P1  H  7997  8009       L1    10  0.73

> <Gold.Chemscore.Hbond.Weighted>
-5.9778

> <Gold.Chemscore.Metal.Weighted>
-0.0000

> <Gold.Chemscore.Lipo.Weighted>
-10.9795

> <Gold.Chemscore.Internal_Hbond.Weighted>
0.0000

> <Gold.Chemscore.DEClash.Weighted>
0.0310

> <Gold.Chemscore.DEInternal.Weighted>
0.4662

> <Gold.Chemscore.Rot.Weighted>
3.9809

> <Gold.Chemscore.Internal.Correction.Weighted>
   9.000000E+99

> <Gold.Protein.RotatedTorsions>
[ 6907 6896 6895 6894 ] final  -96.82 input  -60.11 | X-H torsion
[ 7974 7965 7964 7962 ] final  179.63 input  175.53 | X-H torsion
[ 8008 7997 7996 7995 ] final  159.53 input   59.86 | X-H torsion
[ 10167 10162 10161 10158 ] final  121.52 input  -65.29 | X-H torsion
[ 10718 10713 10712 10709 ] final   58.45 input   66.30 | X-H torsion
[ 10763 10752 10751 10750 ] final    1.09 input  -60.55 | X-H torsion
[ 11005 11000 10999 10996 ] final  138.21 input  -57.11 | X-H torsion

> <Gold.Protein.ActiveResidues>
 VAL166  LYS551  ARG553  GLY616  TRP617  ASP618  TYR619  PRO620  LYS621  CYS622 
 ASP623  PHE694  ASN695  SER759  ASP760  ASP761  ALA762  ILE779  LEU786  VAL792 
 PHE793  MET794  SER795  GLU796  ALA797  LYS798  CYS799  TRP800  GLU811  SER814 

> <Gold.Protein.RotatedAtoms>
  150.6999  134.1445  159.4116 H   0  0  0  0  0  0  0  0  0  0  0  0  # atno 6907 bound_to 6896
  151.9428  135.0203  160.0546 H   0  0  0  0  0  0  0  0  0  0  0  0  # atno 6908 bound_to 6896
  152.2078  133.4853  159.5130 H   0  0  0  0  0  0  0  0  0  0  0  0  # atno 6909 bound_to 6896
  144.7144  140.0577  143.6433 H   0  0  0  0  0  0  0  0  0  0  0  0  # atno 7974 bound_to 7965
  156.2233  140.1829  156.7425 H   0  0  0  0  0  0  0  0  0  0  0  0  # atno 8008 bound_to 7997
  154.5900  140.0652  156.9253 H   0  0  0  0  0  0  0  0  0  0  0  0  # atno 8009 bound_to 7997
  155.2353  140.3318  155.4301 H   0  0  0  0  0  0  0  0  0  0  0  0  # atno 8010 bound_to 7997
  139.5914  144.7026  151.3280 H   0  0  0  0  0  0  0  0  0  0  0  0  # atno 10167 bound_to 10162
  157.5597  130.8826  149.9091 H   0  0  0  0  0  0  0  0  0  0  0  0  # atno 10718 bound_to 10713
  153.3124  135.6963  153.7103 H   0  0  0  0  0  0  0  0  0  0  0  0  # atno 10763 bound_to 10752
  153.5975  135.3468  155.2934 H   0  0  0  0  0  0  0  0  0  0  0  0  # atno 10764 bound_to 10752
  154.8578  135.4332  154.2266 H   0  0  0  0  0  0  0  0  0  0  0  0  # atno 10765 bound_to 10752
  140.0168  134.9415  157.0392 H   0  0  0  0  0  0  0  0  0  0  0  0  # atno 11005 bound_to 11000
  145.9890  139.3000  143.0996 LP  0  0  0  0  0  0  0  0  0  0  0  0  # atno 17320 bound_to 7965
  145.8924  140.9295  143.0545 LP  0  0  0  0  0  0  0  0  0  0  0  0  # atno 17321 bound_to 7965
  140.7176  143.7223  150.7686 LP  0  0  0  0  0  0  0  0  0  0  0  0  # atno 17342 bound_to 10162
  140.0779  143.4997  152.2545 LP  0  0  0  0  0  0  0  0  0  0  0  0  # atno 17343 bound_to 10162
  156.0651  130.3693  150.0896 LP  0  0  0  0  0  0  0  0  0  0  0  0  # atno 17370 bound_to 10713
  156.9062  130.9636  151.3569 LP  0  0  0  0  0  0  0  0  0  0  0  0  # atno 17371 bound_to 10713
  140.4457  134.1634  155.7177 LP  0  0  0  0  0  0  0  0  0  0  0  0  # atno 17394 bound_to 11000
  141.1748  133.8537  157.1457 LP  0  0  0  0  0  0  0  0  0  0  0  0  # atno 17395 bound_to 11000

$$$$
