AV-unprocessed.smi:347|AV-procd|sdf|2394|dock6
  -GOLD-   2262022323D 1   1.00000     0.00000
 Structure written by MMmdl.
 45 46  0  0  0  0  0  0  0  0  2 V2000
  147.5232  134.8612  162.1939 C   0  0  0  0  0  0  0  0  0  0  0  0
  147.0583  135.8858  161.2168 C   0  0  0  0  0  0  0  0  0  0  0  0
  147.1433  135.9788  159.8560 C   0  0  0  0  0  0  0  0  0  0  0  0
  146.4954  137.2118  159.5787 C   0  0  0  0  0  0  0  0  0  0  0  0
  146.3651  137.6816  158.2471 N   0  0  0  0  0  0  0  0  0  0  0  0
  147.0957  138.6316  157.6394 C   0  0  0  0  0  0  0  0  0  0  0  0
  148.0411  139.2350  158.1468 O   0  0  0  0  0  0  0  0  0  0  0  0
  146.6611  138.8531  156.3903 N   0  0  0  0  0  0  0  0  0  0  0  0
  147.2179  139.8279  155.4546 C   0  0  0  0  0  0  0  0  0  0  0  0
  146.5715  139.7882  154.0561 C   0  0  0  0  0  0  0  0  0  0  0  0
  147.0136  138.6048  153.1589 C   0  0  0  0  0  0  0  0  0  0  0  0
  146.2892  137.2897  153.5222 C   0  0  0  0  0  0  0  0  0  0  0  0
  146.6179  138.9367  151.7067 C   0  0  0  0  0  0  0  0  0  0  0  0
  148.4946  138.4391  153.1740 N   0  3  0  0  0  0  0  0  0  0  0  0
  149.2422  138.5185  154.4612 C   0  0  0  0  0  0  0  0  0  0  0  0
  149.2095  137.1732  155.2202 C   0  0  0  0  0  0  0  0  0  0  0  0
  150.7171  138.7830  154.1002 C   0  0  0  0  0  0  0  0  0  0  0  0
  148.7451  139.7011  155.3335 C   0  0  0  0  0  0  0  0  0  0  0  0
  146.0539  137.8167  160.6705 N   0  0  0  0  0  0  0  0  0  0  0  0
  146.4135  136.9705  161.7262 O   0  0  0  0  0  0  0  0  0  0  0  0
  147.7094  133.9080  161.6988 H   0  0  0  0  0  0  0  0  0  0  0  0
  146.7766  134.6974  162.9711 H   0  0  0  0  0  0  0  0  0  0  0  0
  148.4484  135.1792  162.6746 H   0  0  0  0  0  0  0  0  0  0  0  0
  147.5965  135.2759  159.1731 H   0  0  0  0  0  0  0  0  0  0  0  0
  145.6269  137.2580  157.7051 H   0  0  0  0  0  0  0  0  0  0  0  0
  145.8841  138.3002  156.0584 H   0  0  0  0  0  0  0  0  0  0  0  0
  147.0140  140.8097  155.8865 H   0  0  0  0  0  0  0  0  0  0  0  0
  145.4838  139.8207  154.1300 H   0  0  0  0  0  0  0  0  0  0  0  0
  146.8469  140.7193  153.5579 H   0  0  0  0  0  0  0  0  0  0  0  0
  145.2155  137.3806  153.3535 H   0  0  0  0  0  0  0  0  0  0  0  0
  146.4046  136.9967  154.5602 H   0  0  0  0  0  0  0  0  0  0  0  0
  146.6428  136.4605  152.9085 H   0  0  0  0  0  0  0  0  0  0  0  0
  145.5425  139.0942  151.6130 H   0  0  0  0  0  0  0  0  0  0  0  0
  146.8902  138.1310  151.0232 H   0  0  0  0  0  0  0  0  0  0  0  0
  147.1112  139.8427  151.3519 H   0  0  0  0  0  0  0  0  0  0  0  0
  148.7332  137.5753  152.7078 H   0  0  0  0  0  0  0  0  0  0  0  0
  149.8877  137.1939  156.0740 H   0  0  0  0  0  0  0  0  0  0  0  0
  149.5248  136.3494  154.5787 H   0  0  0  0  0  0  0  0  0  0  0  0
  148.2336  136.9169  155.6185 H   0  0  0  0  0  0  0  0  0  0  0  0
  151.3353  138.8811  154.9936 H   0  0  0  0  0  0  0  0  0  0  0  0
  150.8307  139.7022  153.5238 H   0  0  0  0  0  0  0  0  0  0  0  0
  151.1341  137.9721  153.5012 H   0  0  0  0  0  0  0  0  0  0  0  0
  149.1042  140.6316  154.8907 H   0  0  0  0  0  0  0  0  0  0  0  0
  149.2002  139.6613  156.3245 H   0  0  0  0  0  0  0  0  0  0  0  0
  148.8524  139.1977  152.6114 H   0  0  0  0  0  0  0  0  0  0  0  0
  1  2  1  0  0  0  0
  1 21  1  0  0  0  0
  1 22  1  0  0  0  0
  1 23  1  0  0  0  0
  2 20  1  0  0  0  0
  2  3  2  0  0  0  0
  3  4  1  0  0  0  0
  3 24  1  0  0  0  0
  4  5  1  0  0  0  0
  4 19  2  0  0  0  0
  5  6  1  0  0  0  0
  5 25  1  0  0  0  0
  6  7  2  0  0  0  0
  6  8  1  0  0  0  0
  8  9  1  0  0  0  0
  8 26  1  0  0  0  0
  9 18  1  0  0  0  0
  9 10  1  0  0  0  0
  9 27  1  0  0  0  0
 10 11  1  0  0  0  0
 10 28  1  0  0  0  0
 10 29  1  0  0  0  0
 11 12  1  0  0  0  0
 11 13  1  0  0  0  0
 11 14  1  0  0  0  0
 12 30  1  0  0  0  0
 12 31  1  0  0  0  0
 12 32  1  0  0  0  0
 13 33  1  0  0  0  0
 13 34  1  0  0  0  0
 13 35  1  0  0  0  0
 14 15  1  0  0  0  0
 14 36  1  0  0  0  0
 14 45  1  0  0  0  0
 15 16  1  0  0  0  0
 15 17  1  0  0  0  0
 15 18  1  0  0  0  0
 16 37  1  0  0  0  0
 16 38  1  0  0  0  0
 16 39  1  0  0  0  0
 17 40  1  0  0  0  0
 17 41  1  0  0  0  0
 17 42  1  0  0  0  0
 18 43  1  0  0  0  0
 18 44  1  0  0  0  0
 19 20  1  0  0  0  0
M  CHG  1  14   1
M  END
> <s_m_source_file>
AV-unprocessed.smi

> <i_m_source_file_index>
347

> <i_lp_mmshare_version>
43012

> <i_f3d_flags>
0

> <s_epik_input>
W0NIM11jMVtjSF1jKG5vMSlbTkhdQyg9TylbTkhdW0NIXShbQ0gyXUMyKFtDSDNdKVtDSDNdKVtDSDJdQyhbTkhdMikoW0NIM10pW0NIM10=

> <s_epik_cmdline>
J2VwaWtfcHl0aG9uJywgJy1waCcsICc3LjAnLCAnLXRuJywgJzgnLCAnLW1hJywgJzIwMCcsICctbWV0YWxfYmluZGluZycsICctaW1hZScsICc8aW5maWxlLm1hZT4nLCAnLW9tYWUnLCAnPG91dGZpbGUubWFlPic=

> <r_lp_tautomer_probability>
1

> <r_epik_Ionization_Penalty>
0.000125139

> <r_epik_Ionization_Penalty_Charging>
0.000103024

> <r_epik_Ionization_Penalty_Neutral>
2.21147e-05

> <r_epik_State_Penalty>
-0

> <r_epik_Charging_Adjusted_Penalty>
0.000103024

> <i_epik_Tot_Q>
1

> <i_epik_Tot_abs_Q>
1

> <r_epik_Metal_State_Penalty>
-0

> <b_epik_Metal_Only>
0

> <s_lp_Force_Field>
OPLS_2005

> <r_lp_Energy>
23.9758

> <b_lp_Chiralities_Consistent>
1

> <s_lp_Variant>
AV-unprocessed.smi:347-1

> <Gold.Version>
5.8.1

> <Gold.Id.Protein>
6NUR|6NUR_protein|mol2

> <Gold.PLP.Fitness>
36.3216

> <Gold.PLP.PLP>
-25.8450

> <Gold.PLP.part.hbond>
-4.2577

> <Gold.PLP.part.metal>
0.0000

> <Gold.PLP.part.buried>
-2.8821

> <Gold.PLP.part.nonpolar>
-19.0885

> <Gold.PLP.part.repulsive>
0.1394

> <Gold.PLP.ligand.clash>
0.0000

> <Gold.PLP.ligand.torsion>
0.7698

> <Gold.PLP.Chemscore.Hbond>
4.0000

> <Gold.PLP.Chemscore.CHOScore>
0.0000

> <Gold.PLP.Chemscore.Metal>
0.0000

> <Gold.Chemscore.Hbonds>
donor molecule, donor type, donor heavy atom, donor atom, acceptor molecule, acceptor atom, score
      L1  H    14    36       P1  7948  2.00
      L1  H    14    45       P1  7957  1.00
      P1  H  6934  6947       L1    19  0.95

> <Gold.PLP.Chemscore.Internal.Correction>
0.0162

> <Gold.Rescore>
     Score         DG    S(hbond)    S(metal)    S(lipo)     H(rot)  DE(clash)    DE(int)     intcor
     17.77     -20.21       2.95        0.00      63.65       1.00       0.17       2.27       ----

> <Gold.Chemscore.Fitness>
17.7707

> <Gold.Chemscore.DG>
-20.2103

> <Gold.Chemscore.ZeroCoef>
-5.4800

> <Gold.Chemscore.Hbond>
2.9470

> <Gold.Chemscore.Metal>
0.0000

> <Gold.Chemscore.Lipo>
63.6529

> <Gold.Chemscore.Internal_Hbond>
0.0000

> <Gold.Chemscore.DEClash>
0.1717

> <Gold.Chemscore.DEInternal>
2.2679

> <Gold.Chemscore.Rot>
1.0000

> <Gold.Chemscore.Internal.Correction>
   9.000000E+99

> <Gold.Chemscore.Hbonds>
donor molecule, donor type, donor heavy atom, donor atom, acceptor molecule, acceptor atom, score
      L1  H    14    36       P1  7948  0.98
      L1  H    14    45       P1  7957  0.99
      P1  H  6934  6947       L1    19  0.10

> <Gold.Chemscore.Hbond.Weighted>
-9.8429

> <Gold.Chemscore.Metal.Weighted>
-0.0000

> <Gold.Chemscore.Lipo.Weighted>
-7.4474

> <Gold.Chemscore.Internal_Hbond.Weighted>
0.0000

> <Gold.Chemscore.DEClash.Weighted>
0.1717

> <Gold.Chemscore.DEInternal.Weighted>
2.2679

> <Gold.Chemscore.Rot.Weighted>
2.5600

> <Gold.Chemscore.Internal.Correction.Weighted>
   9.000000E+99

> <Gold.Protein.RotatedTorsions>
[ 6907 6896 6895 6894 ] final  138.73 input  -60.11 | X-H torsion
[ 7974 7965 7964 7962 ] final  -37.88 input  175.53 | X-H torsion
[ 8008 7997 7996 7995 ] final   83.70 input   59.86 | X-H torsion
[ 10167 10162 10161 10158 ] final   -5.45 input  -65.29 | X-H torsion
[ 10718 10713 10712 10709 ] final   45.04 input   66.30 | X-H torsion
[ 10763 10752 10751 10750 ] final -100.81 input  -60.55 | X-H torsion
[ 11005 11000 10999 10996 ] final  120.67 input  -57.11 | X-H torsion

> <Gold.Protein.ActiveResidues>
 VAL166  LYS551  ARG553  GLY616  TRP617  ASP618  TYR619  PRO620  LYS621  CYS622 
 ASP623  PHE694  ASN695  SER759  ASP760  ASP761  ALA762  ILE779  LEU786  VAL792 
 PHE793  MET794  SER795  GLU796  ALA797  LYS798  CYS799  TRP800  GLU811  SER814 

> <Gold.Protein.RotatedAtoms>
  152.2632  133.5316  159.5394 H   0  0  0  0  0  0  0  0  0  0  0  0  # atno 6907 bound_to 6896
  150.7132  134.0800  159.3903 H   0  0  0  0  0  0  0  0  0  0  0  0  # atno 6908 bound_to 6896
  151.8717  135.0487  160.0531 H   0  0  0  0  0  0  0  0  0  0  0  0  # atno 6909 bound_to 6896
  146.0536  140.6447  142.9030 H   0  0  0  0  0  0  0  0  0  0  0  0  # atno 7974 bound_to 7965
  155.9274  140.3417  155.6221 H   0  0  0  0  0  0  0  0  0  0  0  0  # atno 8008 bound_to 7997
  155.7199  140.0782  157.2354 H   0  0  0  0  0  0  0  0  0  0  0  0  # atno 8009 bound_to 7997
  154.4079  140.1607  156.2378 H   0  0  0  0  0  0  0  0  0  0  0  0  # atno 8010 bound_to 7997
  140.6963  143.6306  150.8526 H   0  0  0  0  0  0  0  0  0  0  0  0  # atno 10167 bound_to 10162
  157.4333  130.8038  149.7624 H   0  0  0  0  0  0  0  0  0  0  0  0  # atno 10718 bound_to 10713
  154.7608  135.4921  153.9461 H   0  0  0  0  0  0  0  0  0  0  0  0  # atno 10763 bound_to 10752
  153.1249  135.6740  153.9281 H   0  0  0  0  0  0  0  0  0  0  0  0  # atno 10764 bound_to 10752
  153.9001  135.3111  155.3427 H   0  0  0  0  0  0  0  0  0  0  0  0  # atno 10765 bound_to 10752
  139.9194  134.9636  156.7842 H   0  0  0  0  0  0  0  0  0  0  0  0  # atno 11005 bound_to 11000
  144.7136  140.4129  143.7061 LP  0  0  0  0  0  0  0  0  0  0  0  0  # atno 17320 bound_to 7965
  145.6682  139.1594  143.2770 LP  0  0  0  0  0  0  0  0  0  0  0  0  # atno 17321 bound_to 7965
  140.0025  143.5729  152.2870 LP  0  0  0  0  0  0  0  0  0  0  0  0  # atno 17342 bound_to 10162
  139.6424  144.7655  151.2313 LP  0  0  0  0  0  0  0  0  0  0  0  0  # atno 17343 bound_to 10162
  155.9921  130.3933  150.2955 LP  0  0  0  0  0  0  0  0  0  0  0  0  # atno 17370 bound_to 10713
  157.1114  131.0222  151.3046 LP  0  0  0  0  0  0  0  0  0  0  0  0  # atno 17371 bound_to 10713
  140.6520  133.9723  155.7760 LP  0  0  0  0  0  0  0  0  0  0  0  0  # atno 17394 bound_to 11000
  141.0702  134.0217  157.3537 LP  0  0  0  0  0  0  0  0  0  0  0  0  # atno 17395 bound_to 11000

$$$$
