#       Name:                AV-unprocessed.smi:2032
#       Creating user name   scv26
#       Creation time:       Fri Mar 27 10:50:15 2020


#       File generated by GOLD software.
#

@<TRIPOS>MOLECULE
AV-unprocessed.smi:2032
    48    49     1
SMALL
NO_CHARGES


@<TRIPOS>ATOM
      1 ****        -4.3128   1.7137  -0.8764 C.3            1 S1                 0.0000
      2 ****        -3.5979   2.1324   0.4200 C.3            1 S1                 0.0000
      3 ****        -2.0615   2.0520   0.3224 C.3            1 S1                 0.0000
      4 ****        -1.5402   0.6801   0.3423 N.3            1 S1                 0.0000
      5 ****        -0.0600   0.6297   0.2655 C.3            1 S1                 0.0000
      6 ****         0.5003   1.3726  -0.9747 C.3            1 S1                 0.0000
      7 ****         0.5039  -0.8203   0.2878 C.3            1 S1                 0.0000
      8 ****         1.9649  -0.8707   0.2687 N.am           1 S1                 0.0000
      9 ****         2.7167  -1.3483  -0.7346 C.2            1 S1                 0.0000
     10 ****         2.2498  -1.8034  -1.7791 O.2            1 S1                 0.0000
     11 ****         4.0269  -1.2546  -0.4466 N.am           1 S1                 0.0000
     12 ****         5.1320  -1.6415  -1.2497 C.2            1 S1                 0.0000
     13 ****         5.0266  -2.1829  -2.4691 N.2            1 S1                 0.0000
     14 ****         6.2757  -2.4649  -3.0279 C.2            1 S1                 0.0000
     15 ****         7.3293  -2.1292  -2.2147 C.2            1 S1                 0.0000
     16 ****         6.7913  -1.4404  -0.7060 S.3            1 S1                 0.0000
     17 ****        -2.0732   0.0133   1.5343 C.3            1 S1                 0.0000
     18 ****        -3.6109   0.0462   1.6029 C.3            1 S1                 0.0000
     19 ****        -4.1437  -0.5780   2.8972 C.3            1 S1                 0.0000
     20 ****        -4.0627   1.3948   1.5476 O.3            1 S1                 0.0000
     21 ****        -4.0359   2.3720  -1.7002 H              1 S1                 0.0000
     22 ****        -5.3952   1.7686  -0.7593 H              1 S1                 0.0000
     23 ****        -4.0597   0.6967  -1.1757 H              1 S1                 0.0000
     24 ****        -3.8660   3.1727   0.6064 H              1 S1                 0.0000
     25 ****        -1.7730   2.5652  -0.5929 H              1 S1                 0.0000
     26 ****        -1.6246   2.6160   1.1478 H              1 S1                 0.0000
     27 ****         0.3383   1.1388   1.1445 H              1 S1                 0.0000
     28 ****         1.5853   1.3108  -1.0420 H              1 S1                 0.0000
     29 ****         0.2861   2.4399  -0.9534 H              1 S1                 0.0000
     30 ****         0.0910   0.9625  -1.8986 H              1 S1                 0.0000
     31 ****         0.2291  -1.3364   1.2053 H              1 S1                 0.0000
     32 ****         0.0723  -1.4001  -0.5299 H              1 S1                 0.0000
     33 ****         2.4382  -0.5136   1.0857 H              1 S1                 0.0000
     34 ****         4.2621  -0.8573   0.4507 H              1 S1                 0.0000
     35 ****         6.3229  -2.9059  -4.0125 H              1 S1                 0.0000
     36 ****         8.3848  -2.2446  -2.4120 H              1 S1                 0.0000
     37 ****        -1.7843  -1.0353   1.5510 H              1 S1                 0.0000
     38 ****        -1.6553   0.4726   2.4316 H              1 S1                 0.0000
     39 ****        -4.0242  -0.5107   0.7616 H              1 S1                 0.0000
     40 ****        -3.8456  -1.6233   2.9807 H              1 S1                 0.0000
     41 ****        -5.2328  -0.5396   2.9288 H              1 S1                 0.0000
     42 ****        -3.7669  -0.0508   3.7741 H              1 S1                 0.0000
     43 ****        -1.8458   0.1924  -0.4755 LP             1 S1                 0.0000
     44 ****         1.2593  -1.8307  -1.9139 LP             1 S1                 0.0000
     45 ****         2.8611  -2.1456  -2.4927 LP             1 S1                 0.0000
     46 ****         4.1560  -2.3643  -2.9266 LP             1 S1                 0.0000
     47 ****        -5.0624   1.3878   1.5247 LP             1 S1                 0.0000
     48 ****        -3.7515   1.8619   2.3752 LP             1 S1                 0.0000
@<TRIPOS>BOND
    1    1    2 1     
    2    1   21 1     
    3    1   22 1     
    4    1   23 1     
    5    2   20 1     
    6    2    3 1     
    7    2   24 1     
    8    3    4 1     
    9    3   25 1     
   10    3   26 1     
   11    4    5 1     
   12    4   17 1     
   13    5    6 1     
   14    5    7 1     
   15    5   27 1     
   16    6   28 1     
   17    6   29 1     
   18    6   30 1     
   19    7    8 1     
   20    7   31 1     
   21    7   32 1     
   22    8    9 am    
   23    8   33 1     
   24    9   10 2     
   25    9   11 am    
   26   11   12 1     
   27   11   34 1     
   28   12   16 1     
   29   12   13 2     
   30   13   14 1     
   31   14   15 2     
   32   14   35 1     
   33   15   16 1     
   34   15   36 1     
   35   17   18 1     
   36   17   37 1     
   37   17   38 1     
   38   18   19 1     
   39   18   20 1     
   40   18   39 1     
   41   19   40 1     
   42   19   41 1     
   43   19   42 1     
   44    4   43 1     
   45   10   44 1     
   46   10   45 1     
   47   13   46 1     
   48   20   47 1     
   49   20   48 1     
@<TRIPOS>SUBSTRUCTURE
      1 S1             1
@<TRIPOS>SET
LONE_PAIRS      STATIC     ATOMS    <user>   **** ""
6 43 44 45 46 47 48
DONOR_HYDROGENS      STATIC     ATOMS    <user>   **** ""
2 33 34
ATOM$BLUE        STATIC     ATOMS    COLORGROUP SYSTEM
6 43 44 45 46 47 48
ATOM$RED        STATIC     ATOMS    COLORGROUP SYSTEM
2 33 34
