AV-unprocessed.smi:3187|AV-procd|sdf|12180|dock7
  -GOLD-   2272018 23D 1   1.00000     0.00000
 Structure written by MMmdl.
 42 43  0  0  0  0  0  0  0  0  3 V2000
  151.3962  145.2077  158.9043 C   0  0  0  0  0  0  0  0  0  0  0  0
  151.8788  144.0208  159.7216 C   0  0  0  0  0  0  0  0  0  0  0  0
  152.2552  144.2007  161.0022 C   0  0  0  0  0  0  0  0  0  0  0  0
  152.8203  143.1123  161.8851 C   0  0  0  0  0  0  0  0  0  0  0  0
  153.3823  141.9631  161.0455 C   0  0  0  0  0  0  0  0  0  0  0  0
  152.3710  141.4943  159.9865 C   0  0  2  0  0  0  0  0  0  0  0  0
  152.9477  140.2811  159.2310 C   0  0  0  0  0  0  0  0  0  0  0  0
  151.9383  142.6453  159.0257 C   0  0  1  0  0  0  0  0  0  0  0  0
  150.6084  142.2742  158.3169 C   0  0  0  0  0  0  0  0  0  0  0  0
  150.6324  142.5547  156.8645 N   0  3  0  0  0  0  0  0  0  0  0  0
  150.3801  141.3862  155.9940 C   0  0  0  0  0  0  0  0  0  0  0  0
  151.5397  140.3748  156.0074 C   0  0  0  0  0  0  0  0  0  0  0  0
  151.1285  139.0710  155.4806 N   0  0  0  0  0  0  0  0  0  0  0  0
  151.3118  137.8442  156.0667 C   0  0  0  0  0  0  0  0  0  0  0  0
  150.7667  136.9184  155.2144 C   0  0  0  0  0  0  0  0  0  0  0  0
  150.2745  137.6182  154.1451 N   0  3  0  0  0  0  0  0  0  0  0  0
  150.4946  138.9268  154.3091 C   0  0  0  0  0  0  0  0  0  0  0  0
  151.9330  145.2636  157.9570 H   0  0  0  0  0  0  0  0  0  0  0  0
  151.5641  146.1467  159.4332 H   0  0  0  0  0  0  0  0  0  0  0  0
  150.3274  145.1356  158.7050 H   0  0  0  0  0  0  0  0  0  0  0  0
  152.1755  145.1780  161.4562 H   0  0  0  0  0  0  0  0  0  0  0  0
  153.6089  143.5317  162.5103 H   0  0  0  0  0  0  0  0  0  0  0  0
  152.0340  142.7593  162.5531 H   0  0  0  0  0  0  0  0  0  0  0  0
  154.3013  142.2870  160.5546 H   0  0  0  0  0  0  0  0  0  0  0  0
  153.6588  141.1374  161.7025 H   0  0  0  0  0  0  0  0  0  0  0  0
  151.4856  141.1561  160.5276 H   0  0  0  0  0  0  0  0  0  0  0  0
  153.8364  140.5564  158.6623 H   0  0  0  0  0  0  0  0  0  0  0  0
  152.2332  139.8430  158.5358 H   0  0  0  0  0  0  0  0  0  0  0  0
  153.2361  139.4915  159.9256 H   0  0  0  0  0  0  0  0  0  0  0  0
  152.7166  142.7387  158.2664 H   0  0  0  0  0  0  0  0  0  0  0  0
  150.3877  141.2161  158.4399 H   0  0  0  0  0  0  0  0  0  0  0  0
  149.7836  142.8146  158.7837 H   0  0  0  0  0  0  0  0  0  0  0  0
  149.9072  143.2339  156.6808 H   0  0  0  0  0  0  0  0  0  0  0  0
  149.4428  140.9084  156.2825 H   0  0  0  0  0  0  0  0  0  0  0  0
  150.2394  141.7586  154.9788 H   0  0  0  0  0  0  0  0  0  0  0  0
  152.3783  140.7374  155.4103 H   0  0  0  0  0  0  0  0  0  0  0  0
  151.9121  140.2127  157.0192 H   0  0  0  0  0  0  0  0  0  0  0  0
  151.8037  137.7221  157.0213 H   0  0  0  0  0  0  0  0  0  0  0  0
  150.6945  135.8428  155.2862 H   0  0  0  0  0  0  0  0  0  0  0  0
  150.2147  139.7102  153.6272 H   0  0  0  0  0  0  0  0  0  0  0  0
  151.5221  142.9667  156.6214 H   0  0  0  0  0  0  0  0  0  0  0  0
  149.8118  137.2059  153.3442 H   0  0  0  0  0  0  0  0  0  0  0  0
  1  2  1  0  0  0  0
  1 18  1  0  0  0  0
  1 19  1  0  0  0  0
  1 20  1  0  0  0  0
  2  8  1  0  0  0  0
  2  3  2  0  0  0  0
  3  4  1  0  0  0  0
  3 21  1  0  0  0  0
  4  5  1  0  0  0  0
  4 22  1  0  0  0  0
  4 23  1  0  0  0  0
  5  6  1  0  0  0  0
  5 24  1  0  0  0  0
  5 25  1  0  0  0  0
  6  7  1  0  0  0  0
  6  8  1  0  0  0  0
  6 26  1  0  0  0  0
  7 27  1  0  0  0  0
  7 28  1  0  0  0  0
  7 29  1  0  0  0  0
  8  9  1  0  0  0  0
  8 30  1  0  0  0  0
  9 10  1  0  0  0  0
  9 31  1  0  0  0  0
  9 32  1  0  0  0  0
 10 11  1  0  0  0  0
 10 33  1  0  0  0  0
 10 41  1  0  0  0  0
 11 12  1  0  0  0  0
 11 34  1  0  0  0  0
 11 35  1  0  0  0  0
 12 13  1  0  0  0  0
 12 36  1  0  0  0  0
 12 37  1  0  0  0  0
 13 17  1  0  0  0  0
 13 14  1  0  0  0  0
 14 15  2  0  0  0  0
 14 38  1  0  0  0  0
 15 16  1  0  0  0  0
 15 39  1  0  0  0  0
 16 17  2  0  0  0  0
 16 42  1  0  0  0  0
 17 40  1  0  0  0  0
M  CHG  1  10   1
M  CHG  1  16   1
M  END
> <s_m_source_file>
AV-unprocessed.smi

> <i_m_source_file_index>
3187

> <i_lp_mmshare_version>
43012

> <i_f3d_flags>
0

> <s_epik_input>
W0NIM11DMT1bQ0hdW0NIMl1bQ0gyXVtDQEBIXShbQ0gzXSlbQ0BIXTFbQ0gyXVtOSF1bQ0gyXVtDSDJdbjJbY0hdW2NIXW5bY0hdMg==

> <s_epik_cmdline>
J2VwaWtfcHl0aG9uJywgJy1waCcsICc3LjAnLCAnLXRuJywgJzgnLCAnLW1hJywgJzIwMCcsICctbWV0YWxfYmluZGluZycsICctaW1hZScsICc8aW5maWxlLm1hZT4nLCAnLW9tYWUnLCAnPG91dGZpbGUubWFlPic=

> <r_lp_tautomer_probability>
1

> <r_epik_Ionization_Penalty>
1.51066

> <r_epik_Ionization_Penalty_Charging>
0.0026721

> <r_epik_Ionization_Penalty_Neutral>
1.50798

> <r_epik_State_Penalty>
1.12593

> <r_epik_Charging_Adjusted_Penalty>
1.12861

> <i_epik_Tot_Q>
2

> <i_epik_Tot_abs_Q>
2

> <r_epik_Metal_State_Penalty>
5.12155

> <b_epik_Metal_Only>
0

> <s_lp_Force_Field>
OPLS_2005

> <r_lp_Energy>
26.137

> <b_lp_Chiralities_Consistent>
1

> <s_lp_Variant>
AV-unprocessed.smi:3187-6

> <Gold.Version>
5.8.1

> <Gold.Id.Protein>
6NUR|6NUR_protein|mol2

> <Gold.PLP.Fitness>
58.5352

> <Gold.PLP.PLP>
-45.7128

> <Gold.PLP.part.hbond>
-2.7412

> <Gold.PLP.part.metal>
0.0000

> <Gold.PLP.part.buried>
-4.8893

> <Gold.PLP.part.nonpolar>
-37.2548

> <Gold.PLP.part.repulsive>
0.1161

> <Gold.PLP.ligand.clash>
0.0000

> <Gold.PLP.ligand.torsion>
1.1427

> <Gold.PLP.Chemscore.Hbond>
4.0000

> <Gold.PLP.Chemscore.CHOScore>
1.0000

> <Gold.PLP.Chemscore.Metal>
0.0000

> <Gold.Chemscore.Hbonds>
donor molecule, donor type, donor heavy atom, donor atom, acceptor molecule, acceptor atom, score
      L1  H    10    33       P1  8028  1.82
      L1  H    16    42       P1  7948  2.00
      L1  C    17    40       P1  7957  0.94

> <Gold.PLP.Chemscore.Internal.Correction>
0.1077

> <Gold.Rescore>
     Score         DG    S(hbond)    S(metal)    S(lipo)     H(rot)  DE(clash)    DE(int)     intcor
     19.60     -20.70       1.96        0.00     117.22       1.97       0.02       1.08       ----

> <Gold.Chemscore.Fitness>
19.6001

> <Gold.Chemscore.DG>
-20.6974

> <Gold.Chemscore.ZeroCoef>
-5.4800

> <Gold.Chemscore.Hbond>
1.9622

> <Gold.Chemscore.Metal>
0.0000

> <Gold.Chemscore.Lipo>
117.2218

> <Gold.Chemscore.Internal_Hbond>
0.0000

> <Gold.Chemscore.DEClash>
0.0208

> <Gold.Chemscore.DEInternal>
1.0766

> <Gold.Chemscore.Rot>
1.9732

> <Gold.Chemscore.Internal.Correction>
   9.000000E+99

> <Gold.Chemscore.Hbonds>
donor molecule, donor type, donor heavy atom, donor atom, acceptor molecule, acceptor atom, score
      L1  H    10    33       P1  8028  0.86
      L1  H    16    42       P1  7948  0.50

> <Gold.Chemscore.Hbond.Weighted>
-6.5538

> <Gold.Chemscore.Metal.Weighted>
-0.0000

> <Gold.Chemscore.Lipo.Weighted>
-13.7150

> <Gold.Chemscore.Internal_Hbond.Weighted>
0.0000

> <Gold.Chemscore.DEClash.Weighted>
0.0208

> <Gold.Chemscore.DEInternal.Weighted>
1.0766

> <Gold.Chemscore.Rot.Weighted>
5.0514

> <Gold.Chemscore.Internal.Correction.Weighted>
   9.000000E+99

> <Gold.Protein.RotatedTorsions>
[ 6907 6896 6895 6894 ] final   -3.58 input  -60.11 | X-H torsion
[ 7974 7965 7964 7962 ] final  142.45 input  175.53 | X-H torsion
[ 8008 7997 7996 7995 ] final  -23.56 input   59.86 | X-H torsion
[ 10167 10162 10161 10158 ] final   55.85 input  -65.29 | X-H torsion
[ 10718 10713 10712 10709 ] final   72.42 input   66.30 | X-H torsion
[ 10763 10752 10751 10750 ] final  -95.12 input  -60.55 | X-H torsion
[ 11005 11000 10999 10996 ] final    4.33 input  -57.11 | X-H torsion

> <Gold.Protein.ActiveResidues>
 VAL166  LYS551  ARG553  GLY616  TRP617  ASP618  TYR619  PRO620  LYS621  CYS622 
 ASP623  PHE694  ASN695  SER759  ASP760  ASP761  ALA762  ILE779  LEU786  VAL792 
 PHE793  MET794  SER795  GLU796  ALA797  LYS798  CYS799  TRP800  GLU811  SER814 

> <Gold.Protein.RotatedAtoms>
  151.5114  135.1065  159.9854 H   0  0  0  0  0  0  0  0  0  0  0  0  # atno 6907 bound_to 6896
  152.4660  133.7919  159.6917 H   0  0  0  0  0  0  0  0  0  0  0  0  # atno 6908 bound_to 6896
  150.8643  133.7533  159.3007 H   0  0  0  0  0  0  0  0  0  0  0  0  # atno 6909 bound_to 6896
  144.9006  139.5428  143.5755 H   0  0  0  0  0  0  0  0  0  0  0  0  # atno 7974 bound_to 7965
  154.4578  140.1977  156.0330 H   0  0  0  0  0  0  0  0  0  0  0  0  # atno 8008 bound_to 7997
  156.0781  140.3275  155.7631 H   0  0  0  0  0  0  0  0  0  0  0  0  # atno 8009 bound_to 7997
  155.5156  140.0565  157.2906 H   0  0  0  0  0  0  0  0  0  0  0  0  # atno 8010 bound_to 7997
  140.2151  144.3848  150.6473 H   0  0  0  0  0  0  0  0  0  0  0  0  # atno 10167 bound_to 10162
  157.6500  130.9578  150.0926 H   0  0  0  0  0  0  0  0  0  0  0  0  # atno 10718 bound_to 10713
  154.7119  135.5132  153.8679 H   0  0  0  0  0  0  0  0  0  0  0  0  # atno 10763 bound_to 10752
  153.0788  135.6625  154.0098 H   0  0  0  0  0  0  0  0  0  0  0  0  # atno 10764 bound_to 10752
  153.9938  135.3017  155.3389 H   0  0  0  0  0  0  0  0  0  0  0  0  # atno 10765 bound_to 10752
  140.5831  133.9994  155.8056 H   0  0  0  0  0  0  0  0  0  0  0  0  # atno 11005 bound_to 11000
  146.3106  139.7733  142.9022 LP  0  0  0  0  0  0  0  0  0  0  0  0  # atno 17320 bound_to 7965
  145.3623  141.0328  143.3278 LP  0  0  0  0  0  0  0  0  0  0  0  0  # atno 17321 bound_to 7965
  140.6296  143.2185  151.6524 LP  0  0  0  0  0  0  0  0  0  0  0  0  # atno 17342 bound_to 10162
  139.5165  144.3344  152.0797 LP  0  0  0  0  0  0  0  0  0  0  0  0  # atno 17343 bound_to 10162
  156.1871  130.3653  149.8958 LP  0  0  0  0  0  0  0  0  0  0  0  0  # atno 17370 bound_to 10713
  156.6896  130.8890  151.3586 LP  0  0  0  0  0  0  0  0  0  0  0  0  # atno 17371 bound_to 10713
  141.0983  133.9808  157.3122 LP  0  0  0  0  0  0  0  0  0  0  0  0  # atno 17394 bound_to 11000
  139.9308  135.0200  156.8393 LP  0  0  0  0  0  0  0  0  0  0  0  0  # atno 17395 bound_to 11000

$$$$
