AV-unprocessed.smi:148|AV-procd|sdf|1230|dock3
  -GOLD-   2262018433D 1   1.00000     0.00000
 Structure written by MMmdl.
 63 67  0  0  0  0  0  0  0  0  1 V2000
  148.0835  135.4882  154.6035 O   0  0  0  0  0  0  0  0  0  0  0  0
  148.4040  134.1134  154.6203 C   0  0  0  0  0  0  0  0  0  0  0  0
  149.2856  133.7408  155.8407 C   0  0  2  0  0  0  0  0  0  0  0  0
  150.6428  134.4905  155.8074 C   0  0  0  0  0  0  0  0  0  0  0  0
  150.5525  135.8798  156.2234 N   0  0  0  0  0  0  0  0  0  0  0  0
  149.8904  136.3693  157.3266 C   0  0  0  0  0  0  0  0  0  0  0  0
  149.9645  137.6617  157.4907 N   0  0  0  0  0  0  0  0  0  0  0  0
  150.7197  138.0991  156.4089 C   0  0  0  0  0  0  0  0  0  0  0  0
  151.1809  139.3711  155.9630 C   0  0  0  0  0  0  0  0  0  0  0  0
  150.9513  140.5471  156.5923 N   0  0  0  0  0  0  0  0  0  0  0  0
  151.9343  140.7246  157.6622 C   0  0  0  0  0  0  0  0  0  0  0  0
  151.8774  142.1383  158.2557 C   0  0  0  0  0  0  0  0  0  0  0  0
  150.4561  142.4624  158.7257 C   0  0  0  0  0  0  0  0  0  0  0  0
  149.4744  142.2886  157.5604 C   0  0  0  0  0  0  0  0  0  0  0  0
  149.5562  140.8621  156.9522 C   0  0  1  0  0  0  0  0  0  0  0  0
  148.5443  140.6369  155.7833 C   0  0  1  0  0  0  0  0  0  0  0  0
  147.0670  140.7589  156.2148 C   0  0  0  0  0  0  0  0  0  0  0  0
  146.4965  141.9553  155.4520 C   0  0  0  0  0  0  0  0  0  0  0  0
  147.2808  141.9622  154.1446 C   0  0  0  0  0  0  0  0  0  0  0  0
  148.7025  141.5840  154.5676 C   0  0  2  0  0  0  0  0  0  0  0  0
  149.3918  140.9719  153.4971 O   0  0  0  0  0  0  0  0  0  0  0  0
  151.9374  139.4133  154.8384 N   0  0  0  0  0  0  0  0  0  0  0  0
  152.2081  138.2875  154.1713 C   0  0  0  0  0  0  0  0  0  0  0  0
  151.8388  137.0372  154.4580 N   0  0  0  0  0  0  0  0  0  0  0  0
  151.0941  136.9898  155.5997 C   0  0  0  0  0  0  0  0  0  0  0  0
  149.5185  132.2079  155.9496 C   0  0  1  0  0  0  0  0  0  0  0  0
  149.9907  131.5387  154.6691 C   0  0  0  0  0  0  0  0  0  0  0  0
  150.5454  130.2124  155.1767 C   0  0  0  0  0  0  0  0  0  0  0  0
  151.0569  130.4821  156.4760 O   0  0  0  0  0  0  0  0  0  0  0  0
  150.6370  131.7734  156.9042 C   0  0  0  0  0  0  0  0  0  0  0  0
  148.0707  135.7842  153.7060 H   0  0  0  0  0  0  0  0  0  0  0  0
  147.4872  133.5233  154.6097 H   0  0  0  0  0  0  0  0  0  0  0  0
  148.9145  133.9160  153.6787 H   0  0  0  0  0  0  0  0  0  0  0  0
  148.7627  134.0691  156.7405 H   0  0  0  0  0  0  0  0  0  0  0  0
  151.3679  134.0081  156.4628 H   0  0  0  0  0  0  0  0  0  0  0  0
  151.0636  134.4572  154.8017 H   0  0  0  0  0  0  0  0  0  0  0  0
  149.3568  135.7323  158.0170 H   0  0  0  0  0  0  0  0  0  0  0  0
  151.7480  139.9888  158.4463 H   0  0  0  0  0  0  0  0  0  0  0  0
  152.9399  140.5345  157.2831 H   0  0  0  0  0  0  0  0  0  0  0  0
  152.5771  142.2228  159.0875 H   0  0  0  0  0  0  0  0  0  0  0  0
  152.1931  142.8653  157.5062 H   0  0  0  0  0  0  0  0  0  0  0  0
  150.1762  141.8036  159.5486 H   0  0  0  0  0  0  0  0  0  0  0  0
  150.4093  143.4820  159.1091 H   0  0  0  0  0  0  0  0  0  0  0  0
  148.4682  142.5053  157.9163 H   0  0  0  0  0  0  0  0  0  0  0  0
  149.6996  143.0451  156.8100 H   0  0  0  0  0  0  0  0  0  0  0  0
  149.2760  140.1758  157.7516 H   0  0  0  0  0  0  0  0  0  0  0  0
  148.6462  139.6100  155.4306 H   0  0  0  0  0  0  0  0  0  0  0  0
  146.5311  139.8582  155.9115 H   0  0  0  0  0  0  0  0  0  0  0  0
  146.9289  140.8495  157.2920 H   0  0  0  0  0  0  0  0  0  0  0  0
  145.4200  141.8793  155.2966 H   0  0  0  0  0  0  0  0  0  0  0  0
  146.6913  142.8756  156.0042 H   0  0  0  0  0  0  0  0  0  0  0  0
  146.8677  141.2060  153.4747 H   0  0  0  0  0  0  0  0  0  0  0  0
  147.2368  142.9230  153.6306 H   0  0  0  0  0  0  0  0  0  0  0  0
  149.2408  142.4903  154.8378 H   0  0  0  0  0  0  0  0  0  0  0  0
  150.1313  140.4987  153.8486 H   0  0  0  0  0  0  0  0  0  0  0  0
  152.8088  138.4048  153.2813 H   0  0  0  0  0  0  0  0  0  0  0  0
  148.5915  131.7252  156.2637 H   0  0  0  0  0  0  0  0  0  0  0  0
  149.1968  131.3967  153.9355 H   0  0  0  0  0  0  0  0  0  0  0  0
  150.7858  132.1238  154.2042 H   0  0  0  0  0  0  0  0  0  0  0  0
  149.7468  129.4750  155.2657 H   0  0  0  0  0  0  0  0  0  0  0  0
  151.3141  129.8029  154.5210 H   0  0  0  0  0  0  0  0  0  0  0  0
  151.4909  132.4485  156.8327 H   0  0  0  0  0  0  0  0  0  0  0  0
  150.3124  131.7471  157.9445 H   0  0  0  0  0  0  0  0  0  0  0  0
  1  2  1  0  0  0  0
  1 31  1  0  0  0  0
  2  3  1  0  0  0  0
  2 32  1  0  0  0  0
  2 33  1  0  0  0  0
  3  4  1  0  0  0  0
  3 26  1  0  0  0  0
  3 34  1  0  0  0  0
  4  5  1  0  0  0  0
  4 35  1  0  0  0  0
  4 36  1  0  0  0  0
  5 25  1  0  0  0  0
  5  6  1  0  0  0  0
  6  7  2  0  0  0  0
  6 37  1  0  0  0  0
  7  8  1  0  0  0  0
  8 25  2  0  0  0  0
  8  9  1  0  0  0  0
  9 10  1  0  0  0  0
  9 22  2  0  0  0  0
 10 15  1  0  0  0  0
 10 11  1  0  0  0  0
 11 12  1  0  0  0  0
 11 38  1  0  0  0  0
 11 39  1  0  0  0  0
 12 13  1  0  0  0  0
 12 40  1  0  0  0  0
 12 41  1  0  0  0  0
 13 14  1  0  0  0  0
 13 42  1  0  0  0  0
 13 43  1  0  0  0  0
 14 15  1  0  0  0  0
 14 44  1  0  0  0  0
 14 45  1  0  0  0  0
 15 16  1  0  0  0  0
 15 46  1  0  0  0  0
 16 20  1  0  0  0  0
 16 17  1  0  0  0  0
 16 47  1  0  0  0  0
 17 18  1  0  0  0  0
 17 48  1  0  0  0  0
 17 49  1  0  0  0  0
 18 19  1  0  0  0  0
 18 50  1  0  0  0  0
 18 51  1  0  0  0  0
 19 20  1  0  0  0  0
 19 52  1  0  0  0  0
 19 53  1  0  0  0  0
 20 21  1  0  0  0  0
 20 54  1  0  0  0  0
 21 55  1  0  0  0  0
 22 23  1  0  0  0  0
 23 24  2  0  0  0  0
 23 56  1  0  0  0  0
 24 25  1  0  0  0  0
 26 30  1  0  0  0  0
 26 27  1  0  0  0  0
 26 57  1  0  0  0  0
 27 28  1  0  0  0  0
 27 58  1  0  0  0  0
 27 59  1  0  0  0  0
 28 29  1  0  0  0  0
 28 60  1  0  0  0  0
 28 61  1  0  0  0  0
 29 30  1  0  0  0  0
 30 62  1  0  0  0  0
 30 63  1  0  0  0  0
M  END
> <s_m_source_file>
AV-unprocessed.smi

> <i_m_source_file_index>
148

> <i_lp_mmshare_version>
43012

> <i_f3d_flags>
0

> <s_epik_input>
W0NIMl0xT1tDSDJdW0NIMl1bQ0BIXTFbQ0BIXShbQ0gyXVtPSF0pW0NIMl1uKFtjSF1uMiljKGMyMyluW2NIXW5jM040W0NIMl1bQ0gyXVtDSDJdW0NIMl1bQ0BIXTRbQ0BASF01W0NIMl1bQ0gyXVtDSDJdW0NASF01W09IXQ==

> <s_epik_cmdline>
J2VwaWtfcHl0aG9uJywgJy1waCcsICc3LjAnLCAnLXRuJywgJzgnLCAnLW1hJywgJzIwMCcsICctbWV0YWxfYmluZGluZycsICctaW1hZScsICc8aW5maWxlLm1hZT4nLCAnLW9tYWUnLCAnPG91dGZpbGUubWFlPic=

> <r_lp_tautomer_probability>
1

> <r_epik_Ionization_Penalty>
0.00556303

> <r_epik_Ionization_Penalty_Charging>
0

> <r_epik_Ionization_Penalty_Neutral>
0.00556303

> <r_epik_State_Penalty>
0.00401767

> <r_epik_Charging_Adjusted_Penalty>
0.00401767

> <i_epik_Tot_Q>
0

> <i_epik_Tot_abs_Q>
0

> <r_epik_Metal_State_Penalty>
-0

> <b_epik_Metal_Only>
0

> <s_lp_Force_Field>
OPLS_2005

> <r_lp_Energy>
68.4818

> <b_lp_Chiralities_Consistent>
1

> <s_lp_Variant>
AV-unprocessed.smi:148-29

> <Gold.Version>
5.8.1

> <Gold.Id.Protein>
6NUR|6NUR_protein|mol2

> <Gold.PLP.Fitness>
53.1915

> <Gold.PLP.PLP>
-42.9516

> <Gold.PLP.part.hbond>
-5.9656

> <Gold.PLP.part.metal>
0.0000

> <Gold.PLP.part.buried>
-7.2046

> <Gold.PLP.part.nonpolar>
-29.3772

> <Gold.PLP.part.repulsive>
0.2185

> <Gold.PLP.ligand.clash>
0.0000

> <Gold.PLP.ligand.torsion>
1.0249

> <Gold.PLP.Chemscore.Hbond>
3.9360

> <Gold.PLP.Chemscore.CHOScore>
0.0000

> <Gold.PLP.Chemscore.Metal>
0.0000

> <Gold.Chemscore.Hbonds>
donor molecule, donor type, donor heavy atom, donor atom, acceptor molecule, acceptor atom, score
      L1  H     1    31       P1  7948  0.86
      P1  H  7989  7998       L1    22  0.96
      P1  H  8011  8017       L1    21  1.00
      P1  H 10752 10765       L1    24  0.98

> <Gold.PLP.Chemscore.Internal.Correction>
0.4817

> <Gold.Rescore>
     Score         DG    S(hbond)    S(metal)    S(lipo)     H(rot)  DE(clash)    DE(int)     intcor
     15.50     -17.15       2.87        0.00      90.45       3.32       0.67       0.99       ----

> <Gold.Chemscore.Fitness>
15.4957

> <Gold.Chemscore.DG>
-17.1513

> <Gold.Chemscore.ZeroCoef>
-5.4800

> <Gold.Chemscore.Hbond>
2.8707

> <Gold.Chemscore.Metal>
0.0000

> <Gold.Chemscore.Lipo>
90.4540

> <Gold.Chemscore.Internal_Hbond>
0.0000

> <Gold.Chemscore.DEClash>
0.6666

> <Gold.Chemscore.DEInternal>
0.9890

> <Gold.Chemscore.Rot>
3.3203

> <Gold.Chemscore.Internal.Correction>
   9.000000E+99

> <Gold.Chemscore.Hbonds>
donor molecule, donor type, donor heavy atom, donor atom, acceptor molecule, acceptor atom, score
      L1  H     1    31       P1  7948  0.81
      P1  H  7989  7998       L1    22  0.53
      P1  H  8011  8017       L1    21  0.41
      P1  H 10752 10765       L1    24  0.87

> <Gold.Chemscore.Hbond.Weighted>
-9.5882

> <Gold.Chemscore.Metal.Weighted>
-0.0000

> <Gold.Chemscore.Lipo.Weighted>
-10.5831

> <Gold.Chemscore.Internal_Hbond.Weighted>
0.0000

> <Gold.Chemscore.DEClash.Weighted>
0.6666

> <Gold.Chemscore.DEInternal.Weighted>
0.9890

> <Gold.Chemscore.Rot.Weighted>
8.5000

> <Gold.Chemscore.Internal.Correction.Weighted>
   9.000000E+99

> <Gold.Protein.RotatedTorsions>
[ 6907 6896 6895 6894 ] final  129.58 input  -60.11 | X-H torsion
[ 7974 7965 7964 7962 ] final  -53.57 input  175.53 | X-H torsion
[ 8008 7997 7996 7995 ] final  165.31 input   59.86 | X-H torsion
[ 10167 10162 10161 10158 ] final   -8.48 input  -65.29 | X-H torsion
[ 10718 10713 10712 10709 ] final   31.39 input   66.30 | X-H torsion
[ 10763 10752 10751 10750 ] final  150.21 input  -60.55 | X-H torsion
[ 11005 11000 10999 10996 ] final -152.49 input  -57.11 | X-H torsion

> <Gold.Protein.ActiveResidues>
 VAL166  LYS551  ARG553  GLY616  TRP617  ASP618  TYR619  PRO620  LYS621  CYS622 
 ASP623  PHE694  ASN695  SER759  ASP760  ASP761  ALA762  ILE779  LEU786  VAL792 
 PHE793  MET794  SER795  GLU796  ALA797  LYS798  CYS799  TRP800  GLU811  SER814 

> <Gold.Protein.RotatedAtoms>
  152.3610  133.6297  159.6014 H   0  0  0  0  0  0  0  0  0  0  0  0  # atno 6907 bound_to 6896
  150.7601  133.9424  159.3469 H   0  0  0  0  0  0  0  0  0  0  0  0  # atno 6908 bound_to 6896
  151.7262  135.0885  160.0343 H   0  0  0  0  0  0  0  0  0  0  0  0  # atno 6909 bound_to 6896
  145.8953  140.8038  142.9771 H   0  0  0  0  0  0  0  0  0  0  0  0  # atno 7974 bound_to 7965
  156.1810  140.1673  156.8273 H   0  0  0  0  0  0  0  0  0  0  0  0  # atno 8008 bound_to 7997
  154.5360  140.0746  156.8462 H   0  0  0  0  0  0  0  0  0  0  0  0  # atno 8009 bound_to 7997
  155.3309  140.3379  155.4242 H   0  0  0  0  0  0  0  0  0  0  0  0  # atno 8010 bound_to 7997
  140.7060  143.5964  150.8841 H   0  0  0  0  0  0  0  0  0  0  0  0  # atno 10167 bound_to 10162
  157.2718  130.7212  149.6508 H   0  0  0  0  0  0  0  0  0  0  0  0  # atno 10718 bound_to 10713
  154.0838  135.2857  155.3285 H   0  0  0  0  0  0  0  0  0  0  0  0  # atno 10763 bound_to 10752
  154.6666  135.5315  153.8088 H   0  0  0  0  0  0  0  0  0  0  0  0  # atno 10764 bound_to 10752
  153.0439  135.6547  154.1011 H   0  0  0  0  0  0  0  0  0  0  0  0  # atno 10765 bound_to 10752
  140.7183  134.3756  157.5187 H   0  0  0  0  0  0  0  0  0  0  0  0  # atno 11005 bound_to 11000
  144.6732  140.1593  143.7424 LP  0  0  0  0  0  0  0  0  0  0  0  0  # atno 17320 bound_to 7965
  145.8858  139.2348  143.1578 LP  0  0  0  0  0  0  0  0  0  0  0  0  # atno 17321 bound_to 7965
  139.9689  143.6079  152.2980 LP  0  0  0  0  0  0  0  0  0  0  0  0  # atno 17342 bound_to 10162
  139.6659  144.7662  151.1875 LP  0  0  0  0  0  0  0  0  0  0  0  0  # atno 17343 bound_to 10162
  155.9663  130.4365  150.5137 LP  0  0  0  0  0  0  0  0  0  0  0  0  # atno 17370 bound_to 10713
  157.3063  131.0655  151.2033 LP  0  0  0  0  0  0  0  0  0  0  0  0  # atno 17371 bound_to 10713
  139.8854  134.8937  156.2643 LP  0  0  0  0  0  0  0  0  0  0  0  0  # atno 17394 bound_to 11000
  141.0026  133.7143  156.0984 LP  0  0  0  0  0  0  0  0  0  0  0  0  # atno 17395 bound_to 11000

$$$$
