AV-unprocessed.smi:2982|AV-procd|sdf|11376|dock7
  -GOLD-   2272016293D 1   1.00000     0.00000
 Structure written by MMmdl.
 36 37  0  0  0  0  0  0  0  0  1 V2000
  152.9334  141.8188  159.7941 C   0  0  0  0  0  0  0  0  0  0  0  0
  152.0409  141.0974  158.7758 C   0  0  0  0  0  0  0  0  0  0  0  0
  151.5330  141.9897  157.6250 C   0  0  0  0  0  0  0  0  0  0  0  0
  150.7278  141.2858  156.6425 N   0  0  0  0  0  0  0  0  0  0  0  0
  149.3938  141.6080  156.3768 C   0  0  0  0  0  0  0  0  0  0  0  0
  148.8171  142.6454  157.0920 N   0  0  0  0  0  0  0  0  0  0  0  0
  148.6589  140.9323  155.4471 C   0  0  0  0  0  0  0  0  0  0  0  0
  147.3307  141.2197  155.1548 N   0  0  0  0  0  0  0  0  0  0  0  0
  146.2903  141.3114  156.1702 C   0  0  0  0  0  0  0  0  0  0  0  0
  145.6755  142.7225  156.1842 C   0  0  0  0  0  0  0  0  0  0  0  0
  145.2107  143.0571  154.8795 O   0  0  0  0  0  0  0  0  0  0  0  0
  146.2600  143.0524  153.9157 C   0  0  0  0  0  0  0  0  0  0  0  0
  146.8806  141.6466  153.8372 C   0  0  0  0  0  0  0  0  0  0  0  0
  149.2543  139.8295  154.6865 C   0  0  0  0  0  0  0  0  0  0  0  0
  148.6833  139.1612  153.8252 O   0  0  0  0  0  0  0  0  0  0  0  0
  150.5812  139.5479  155.0018 N   0  0  0  0  0  0  0  0  0  0  0  0
  151.3487  140.2186  155.9473 C   0  0  0  0  0  0  0  0  0  0  0  0
  152.5105  139.8600  156.1410 O   0  0  0  0  0  0  0  0  0  0  0  0
  151.0225  138.7890  154.5033 H   0  0  0  0  0  0  0  0  0  0  0  0
  153.1977  141.1531  160.6159 H   0  0  0  0  0  0  0  0  0  0  0  0
  152.4261  142.6856  160.2184 H   0  0  0  0  0  0  0  0  0  0  0  0
  153.8625  142.1602  159.3379 H   0  0  0  0  0  0  0  0  0  0  0  0
  152.5813  140.2415  158.3708 H   0  0  0  0  0  0  0  0  0  0  0  0
  151.1781  140.6857  159.2999 H   0  0  0  0  0  0  0  0  0  0  0  0
  150.9013  142.7919  158.0070 H   0  0  0  0  0  0  0  0  0  0  0  0
  152.3522  142.5008  157.1176 H   0  0  0  0  0  0  0  0  0  0  0  0
  149.3372  143.1605  157.7877 H   0  0  0  0  0  0  0  0  0  0  0  0
  147.8582  142.9270  156.9471 H   0  0  0  0  0  0  0  0  0  0  0  0
  145.5226  140.5667  155.9562 H   0  0  0  0  0  0  0  0  0  0  0  0
  146.6997  141.0699  157.1520 H   0  0  0  0  0  0  0  0  0  0  0  0
  144.8373  142.7590  156.8802 H   0  0  0  0  0  0  0  0  0  0  0  0
  146.4003  143.4636  156.5231 H   0  0  0  0  0  0  0  0  0  0  0  0
  145.8527  143.3384  152.9459 H   0  0  0  0  0  0  0  0  0  0  0  0
  147.0114  143.7987  154.1771 H   0  0  0  0  0  0  0  0  0  0  0  0
  147.7147  141.6424  153.1343 H   0  0  0  0  0  0  0  0  0  0  0  0
  146.1487  140.9295  153.4637 H   0  0  0  0  0  0  0  0  0  0  0  0
  1  2  1  0  0  0  0
  1 20  1  0  0  0  0
  1 21  1  0  0  0  0
  1 22  1  0  0  0  0
  2  3  1  0  0  0  0
  2 23  1  0  0  0  0
  2 24  1  0  0  0  0
  3  4  1  0  0  0  0
  3 25  1  0  0  0  0
  3 26  1  0  0  0  0
  4 17  1  0  0  0  0
  4  5  1  0  0  0  0
  5  6  1  0  0  0  0
  5  7  2  0  0  0  0
  6 27  1  0  0  0  0
  6 28  1  0  0  0  0
  7  8  1  0  0  0  0
  7 14  1  0  0  0  0
  8 13  1  0  0  0  0
  8  9  1  0  0  0  0
  9 10  1  0  0  0  0
  9 29  1  0  0  0  0
  9 30  1  0  0  0  0
 10 11  1  0  0  0  0
 10 31  1  0  0  0  0
 10 32  1  0  0  0  0
 11 12  1  0  0  0  0
 12 13  1  0  0  0  0
 12 33  1  0  0  0  0
 12 34  1  0  0  0  0
 13 35  1  0  0  0  0
 13 36  1  0  0  0  0
 14 15  2  0  0  0  0
 14 16  1  0  0  0  0
 16 19  1  0  0  0  0
 16 17  1  0  0  0  0
 17 18  2  0  0  0  0
M  END
> <s_m_source_file>
AV-unprocessed.smi

> <i_m_source_file_index>
2982

> <i_lp_mmshare_version>
43012

> <i_f3d_flags>
0

> <s_epik_input>
W0NIM11bQ0gyXVtDSDJdbjFjKFtOSDJdKWMoYyg9TylbbkhdYzE9TylOMltDSDJdW0NIMl1PW0NIMl1bQ0gyXTI=

> <s_epik_cmdline>
J2VwaWtfcHl0aG9uJywgJy1waCcsICc3LjAnLCAnLXRuJywgJzgnLCAnLW1hJywgJzIwMCcsICctbWV0YWxfYmluZGluZycsICctaW1hZScsICc8aW5maWxlLm1hZT4nLCAnLW9tYWUnLCAnPG91dGZpbGUubWFlPic=

> <r_lp_tautomer_probability>
1

> <r_epik_Ionization_Penalty>
1.08155e-05

> <r_epik_Ionization_Penalty_Charging>
2.81443e-06

> <r_epik_Ionization_Penalty_Neutral>
8.00112e-06

> <r_epik_State_Penalty>
-0

> <r_epik_Charging_Adjusted_Penalty>
2.81443e-06

> <i_epik_Tot_Q>
0

> <i_epik_Tot_abs_Q>
0

> <r_epik_Metal_State_Penalty>
-0

> <b_epik_Metal_Only>
0

> <s_epik_Chemistry_Notes>
This compound has an imine and may undergo hydrolysis.

> <s_lp_Force_Field>
OPLS_2005

> <r_lp_Energy>
28.8877

> <b_lp_Chiralities_Consistent>
1

> <s_lp_Variant>
AV-unprocessed.smi:2982-1

> <Gold.Version>
5.8.1

> <Gold.Id.Protein>
6NUR|6NUR_protein|mol2

> <Gold.PLP.Fitness>
32.7686

> <Gold.PLP.PLP>
-30.2405

> <Gold.PLP.part.hbond>
-2.0000

> <Gold.PLP.part.metal>
0.0000

> <Gold.PLP.part.buried>
-5.6289

> <Gold.PLP.part.nonpolar>
-24.0366

> <Gold.PLP.part.repulsive>
1.8229

> <Gold.PLP.ligand.clash>
0.0000

> <Gold.PLP.ligand.torsion>
1.0486

> <Gold.PLP.Chemscore.Hbond>
1.0000

> <Gold.PLP.Chemscore.CHOScore>
0.0000

> <Gold.PLP.Chemscore.Metal>
0.0000

> <Gold.Chemscore.Hbonds>
donor molecule, donor type, donor heavy atom, donor atom, acceptor molecule, acceptor atom, score
      P1  H  7997  8009       L1    18  1.00

> <Gold.PLP.Chemscore.Internal.Correction>
1.6253

> <Gold.Rescore>
     Score         DG    S(hbond)    S(metal)    S(lipo)     H(rot)  DE(clash)    DE(int)     intcor
     10.17     -11.56       0.98        0.00      51.02       1.24       0.07       1.32       ----

> <Gold.Chemscore.Fitness>
10.1700

> <Gold.Chemscore.DG>
-11.5578

> <Gold.Chemscore.ZeroCoef>
-5.4800

> <Gold.Chemscore.Hbond>
0.9807

> <Gold.Chemscore.Metal>
0.0000

> <Gold.Chemscore.Lipo>
51.0188

> <Gold.Chemscore.Internal_Hbond>
0.0000

> <Gold.Chemscore.DEClash>
0.0718

> <Gold.Chemscore.DEInternal>
1.3159

> <Gold.Chemscore.Rot>
1.2371

> <Gold.Chemscore.Internal.Correction>
   9.000000E+99

> <Gold.Chemscore.Hbonds>
donor molecule, donor type, donor heavy atom, donor atom, acceptor molecule, acceptor atom, score
      P1  H  7997  8009       L1    18  0.97

> <Gold.Chemscore.Hbond.Weighted>
-3.2755

> <Gold.Chemscore.Metal.Weighted>
-0.0000

> <Gold.Chemscore.Lipo.Weighted>
-5.9692

> <Gold.Chemscore.Internal_Hbond.Weighted>
0.0000

> <Gold.Chemscore.DEClash.Weighted>
0.0718

> <Gold.Chemscore.DEInternal.Weighted>
1.3159

> <Gold.Chemscore.Rot.Weighted>
3.1669

> <Gold.Chemscore.Internal.Correction.Weighted>
   9.000000E+99

> <Gold.Protein.RotatedTorsions>
[ 6907 6896 6895 6894 ] final  -43.30 input  -60.11 | X-H torsion
[ 7974 7965 7964 7962 ] final -113.18 input  175.53 | X-H torsion
[ 8008 7997 7996 7995 ] final -144.70 input   59.86 | X-H torsion
[ 10167 10162 10161 10158 ] final  -11.57 input  -65.29 | X-H torsion
[ 10718 10713 10712 10709 ] final   28.74 input   66.30 | X-H torsion
[ 10763 10752 10751 10750 ] final   21.67 input  -60.55 | X-H torsion
[ 11005 11000 10999 10996 ] final  128.23 input  -57.11 | X-H torsion

> <Gold.Protein.ActiveResidues>
 VAL166  LYS551  ARG553  GLY616  TRP617  ASP618  TYR619  PRO620  LYS621  CYS622 
 ASP623  PHE694  ASN695  SER759  ASP760  ASP761  ALA762  ILE779  LEU786  VAL792 
 PHE793  MET794  SER795  GLU796  ALA797  LYS798  CYS799  TRP800  GLU811  SER814 

> <Gold.Protein.RotatedAtoms>
  150.9455  134.8860  159.7638 H   0  0  0  0  0  0  0  0  0  0  0  0  # atno 6907 bound_to 6896
  152.5098  134.3881  159.9384 H   0  0  0  0  0  0  0  0  0  0  0  0  # atno 6908 bound_to 6896
  151.3900  133.3752  159.2754 H   0  0  0  0  0  0  0  0  0  0  0  0  # atno 6909 bound_to 6896
  145.1352  140.8747  143.3735 H   0  0  0  0  0  0  0  0  0  0  0  0  # atno 7974 bound_to 7965
  155.5311  140.0600  157.2888 H   0  0  0  0  0  0  0  0  0  0  0  0  # atno 8008 bound_to 7997
  154.4484  140.1935  156.0540 H   0  0  0  0  0  0  0  0  0  0  0  0  # atno 8009 bound_to 7997
  156.0651  140.3267  155.7512 H   0  0  0  0  0  0  0  0  0  0  0  0  # atno 8010 bound_to 7997
  140.7141  143.5625  150.9180 H   0  0  0  0  0  0  0  0  0  0  0  0  # atno 10167 bound_to 10162
  157.2375  130.7053  149.6342 H   0  0  0  0  0  0  0  0  0  0  0  0  # atno 10718 bound_to 10713
  153.0977  135.6664  153.9732 H   0  0  0  0  0  0  0  0  0  0  0  0  # atno 10763 bound_to 10752
  153.9311  135.3004  155.3447 H   0  0  0  0  0  0  0  0  0  0  0  0  # atno 10764 bound_to 10752
  154.7396  135.5085  153.9175 H   0  0  0  0  0  0  0  0  0  0  0  0  # atno 10765 bound_to 10752
  139.9550  134.9615  156.8972 H   0  0  0  0  0  0  0  0  0  0  0  0  # atno 11005 bound_to 11000
  145.0592  139.3119  143.5889 LP  0  0  0  0  0  0  0  0  0  0  0  0  # atno 17320 bound_to 7965
  146.3510  140.0028  142.8674 LP  0  0  0  0  0  0  0  0  0  0  0  0  # atno 17321 bound_to 7965
  139.9351  143.6448  152.3067 LP  0  0  0  0  0  0  0  0  0  0  0  0  # atno 17342 bound_to 10162
  139.6912  144.7646  151.1435 LP  0  0  0  0  0  0  0  0  0  0  0  0  # atno 17343 bound_to 10162
  155.9672  130.4469  150.5558 LP  0  0  0  0  0  0  0  0  0  0  0  0  # atno 17370 bound_to 10713
  157.3414  131.0717  151.1785 LP  0  0  0  0  0  0  0  0  0  0  0  0  # atno 17371 bound_to 10713
  140.5631  134.0515  155.7405 LP  0  0  0  0  0  0  0  0  0  0  0  0  # atno 17394 bound_to 11000
  141.1219  133.9447  157.2712 LP  0  0  0  0  0  0  0  0  0  0  0  0  # atno 17395 bound_to 11000

$$$$
