AV-unprocessed.smi:1912|AV-procd|sdf|7751|dock4
  -GOLD-   22720 9493D 1   1.00000     0.00000
 Structure written by MMmdl.
 44 46  0  0  0  0  0  0  0  0  2 V2000
  146.1633  125.7148  155.5442 C   0  0  0  0  0  0  0  0  0  0  0  0
  147.1788  126.0851  156.4656 O   0  0  0  0  0  0  0  0  0  0  0  0
  148.1856  126.9147  156.0214 C   0  0  0  0  0  0  0  0  0  0  0  0
  149.4948  126.9349  156.5563 C   0  0  0  0  0  0  0  0  0  0  0  0
  150.4580  127.8266  156.0501 C   0  0  0  0  0  0  0  0  0  0  0  0
  150.1385  128.7224  154.9996 C   0  0  0  0  0  0  0  0  0  0  0  0
  151.0347  129.6361  154.4832 O   0  0  0  0  0  0  0  0  0  0  0  0
  152.3679  129.6277  154.9722 C   0  0  0  0  0  0  0  0  0  0  0  0
  148.8311  128.6994  154.4560 C   0  0  0  0  0  0  0  0  0  0  0  0
  148.4466  129.6733  153.3427 C   0  0  1  0  0  0  0  0  0  0  0  0
  148.2291  129.0368  152.0981 O   0  0  0  0  0  0  0  0  0  0  0  0
  147.2218  130.5427  153.7114 C   0  0  0  0  0  0  0  0  0  0  0  0
  147.1446  131.8137  152.9658 N   0  0  0  0  0  0  0  0  0  0  0  0
  147.9738  132.8986  152.9803 C   0  0  0  0  0  0  0  0  0  0  0  0
  149.2101  133.0818  153.7966 C   0  0  0  0  0  0  0  0  0  0  0  0
  147.4723  133.8029  152.0935 N   0  3  0  0  0  0  0  0  0  0  0  0
  146.3097  133.3001  151.5104 C   0  0  0  0  0  0  0  0  0  0  0  0
  145.4609  133.8504  150.5550 C   0  0  0  0  0  0  0  0  0  0  0  0
  144.3511  133.0703  150.1700 C   0  0  0  0  0  0  0  0  0  0  0  0
  144.1167  131.7998  150.7341 C   0  0  0  0  0  0  0  0  0  0  0  0
  144.9820  131.2553  151.7053 C   0  0  0  0  0  0  0  0  0  0  0  0
  146.0841  132.0278  152.0744 C   0  0  0  0  0  0  0  0  0  0  0  0
  147.8723  127.7972  154.9709 C   0  0  0  0  0  0  0  0  0  0  0  0
  145.4466  125.0621  156.0423 H   0  0  0  0  0  0  0  0  0  0  0  0
  146.5752  125.1658  154.6962 H   0  0  0  0  0  0  0  0  0  0  0  0
  145.6176  126.5862  155.1800 H   0  0  0  0  0  0  0  0  0  0  0  0
  149.7864  126.2779  157.3614 H   0  0  0  0  0  0  0  0  0  0  0  0
  151.4407  127.8066  156.4955 H   0  0  0  0  0  0  0  0  0  0  0  0
  152.9422  130.3997  154.4604 H   0  0  0  0  0  0  0  0  0  0  0  0
  152.8567  128.6716  154.7795 H   0  0  0  0  0  0  0  0  0  0  0  0
  152.4036  129.8448  156.0405 H   0  0  0  0  0  0  0  0  0  0  0  0
  149.2922  130.3403  153.1732 H   0  0  0  0  0  0  0  0  0  0  0  0
  148.2055  129.6994  151.4244 H   0  0  0  0  0  0  0  0  0  0  0  0
  146.2934  129.9880  153.5750 H   0  0  0  0  0  0  0  0  0  0  0  0
  147.2576  130.7932  154.7719 H   0  0  0  0  0  0  0  0  0  0  0  0
  149.4083  134.1424  153.9524 H   0  0  0  0  0  0  0  0  0  0  0  0
  150.0661  132.6425  153.2845 H   0  0  0  0  0  0  0  0  0  0  0  0
  149.1044  132.6074  154.7719 H   0  0  0  0  0  0  0  0  0  0  0  0
  145.6383  134.8242  150.1231 H   0  0  0  0  0  0  0  0  0  0  0  0
  143.6661  133.4546  149.4283 H   0  0  0  0  0  0  0  0  0  0  0  0
  143.2561  131.2299  150.4148 H   0  0  0  0  0  0  0  0  0  0  0  0
  144.7926  130.2790  152.1248 H   0  0  0  0  0  0  0  0  0  0  0  0
  146.8687  127.7892  154.5712 H   0  0  0  0  0  0  0  0  0  0  0  0
  147.8991  134.7000  151.9016 H   0  0  0  0  0  0  0  0  0  0  0  0
  1  2  1  0  0  0  0
  1 24  1  0  0  0  0
  1 25  1  0  0  0  0
  1 26  1  0  0  0  0
  2  3  1  0  0  0  0
  3 23  1  0  0  0  0
  3  4  2  0  0  0  0
  4  5  1  0  0  0  0
  4 27  1  0  0  0  0
  5  6  2  0  0  0  0
  5 28  1  0  0  0  0
  6  7  1  0  0  0  0
  6  9  1  0  0  0  0
  7  8  1  0  0  0  0
  8 29  1  0  0  0  0
  8 30  1  0  0  0  0
  8 31  1  0  0  0  0
  9 10  1  0  0  0  0
  9 23  2  0  0  0  0
 10 11  1  0  0  0  0
 10 12  1  0  0  0  0
 10 32  1  0  0  0  0
 11 33  1  0  0  0  0
 12 13  1  0  0  0  0
 12 34  1  0  0  0  0
 12 35  1  0  0  0  0
 13 22  1  0  0  0  0
 13 14  1  0  0  0  0
 14 15  1  0  0  0  0
 14 16  2  0  0  0  0
 15 36  1  0  0  0  0
 15 37  1  0  0  0  0
 15 38  1  0  0  0  0
 16 17  1  0  0  0  0
 16 44  1  0  0  0  0
 17 22  2  0  0  0  0
 17 18  1  0  0  0  0
 18 19  2  0  0  0  0
 18 39  1  0  0  0  0
 19 20  1  0  0  0  0
 19 40  1  0  0  0  0
 20 21  2  0  0  0  0
 20 41  1  0  0  0  0
 21 22  1  0  0  0  0
 21 42  1  0  0  0  0
 23 43  1  0  0  0  0
M  CHG  1  16   1
M  END
> <s_m_source_file>
AV-unprocessed.smi

> <i_m_source_file_index>
1912

> <i_lp_mmshare_version>
43012

> <i_f3d_flags>
0

> <s_epik_input>
W0NIM11PYzFbY0hdW2NIXWMoT1tDSDNdKWMoW2NIXTEpW0NASF0oW09IXSlbQ0gyXW4oYyhuMilbQ0gzXSljKGMyMylbY0hdW2NIXVtjSF1bY0hdMw==

> <s_epik_cmdline>
J2VwaWtfcHl0aG9uJywgJy1waCcsICc3LjAnLCAnLXRuJywgJzgnLCAnLW1hJywgJzIwMCcsICctbWV0YWxfYmluZGluZycsICctaW1hZScsICc8aW5maWxlLm1hZT4nLCAnLW9tYWUnLCAnPG91dGZpbGUubWFlPic=

> <r_lp_tautomer_probability>
1

> <r_epik_Ionization_Penalty>
0.963869

> <r_epik_Ionization_Penalty_Charging>
0.963868

> <r_epik_Ionization_Penalty_Neutral>
1.34362e-06

> <r_epik_State_Penalty>
1.00924

> <r_epik_Charging_Adjusted_Penalty>
1.9731

> <i_epik_Tot_Q>
1

> <i_epik_Tot_abs_Q>
1

> <r_epik_Metal_State_Penalty>
4.98304

> <b_epik_Metal_Only>
0

> <s_lp_Force_Field>
OPLS_2005

> <r_lp_Energy>
21.1539

> <b_lp_Chiralities_Consistent>
1

> <s_lp_Variant>
AV-unprocessed.smi:1912-4

> <Gold.Version>
5.8.1

> <Gold.Id.Protein>
6NUR|6NUR_protein|mol2

> <Gold.PLP.Fitness>
41.4459

> <Gold.PLP.PLP>
-33.7485

> <Gold.PLP.part.hbond>
-2.0000

> <Gold.PLP.part.metal>
0.0000

> <Gold.PLP.part.buried>
-2.5240

> <Gold.PLP.part.nonpolar>
-28.1324

> <Gold.PLP.part.repulsive>
0.1224

> <Gold.PLP.ligand.clash>
0.0000

> <Gold.PLP.ligand.torsion>
0.6998

> <Gold.PLP.Chemscore.Hbond>
3.0000

> <Gold.PLP.Chemscore.CHOScore>
0.0000

> <Gold.PLP.Chemscore.Metal>
0.0000

> <Gold.Chemscore.Hbonds>
donor molecule, donor type, donor heavy atom, donor atom, acceptor molecule, acceptor atom, score
      L1  H    11    33       P1 10747  1.00
      L1  H    16    44       P1  7948  2.00

> <Gold.PLP.Chemscore.Internal.Correction>
0.0971

> <Gold.Rescore>
     Score         DG    S(hbond)    S(metal)    S(lipo)     H(rot)  DE(clash)    DE(int)     intcor
     13.64     -14.56       1.65        0.00      79.68       2.24       0.15       0.78       ----

> <Gold.Chemscore.Fitness>
13.6388

> <Gold.Chemscore.DG>
-14.5640

> <Gold.Chemscore.ZeroCoef>
-5.4800

> <Gold.Chemscore.Hbond>
1.6491

> <Gold.Chemscore.Metal>
0.0000

> <Gold.Chemscore.Lipo>
79.6804

> <Gold.Chemscore.Internal_Hbond>
0.0000

> <Gold.Chemscore.DEClash>
0.1482

> <Gold.Chemscore.DEInternal>
0.7770

> <Gold.Chemscore.Rot>
2.2448

> <Gold.Chemscore.Internal.Correction>
   9.000000E+99

> <Gold.Chemscore.Hbonds>
donor molecule, donor type, donor heavy atom, donor atom, acceptor molecule, acceptor atom, score
      L1  H    11    33       P1 10747  0.63
      L1  H    16    44       P1  7948  0.30

> <Gold.Chemscore.Hbond.Weighted>
-5.5081

> <Gold.Chemscore.Metal.Weighted>
-0.0000

> <Gold.Chemscore.Lipo.Weighted>
-9.3226

> <Gold.Chemscore.Internal_Hbond.Weighted>
0.0000

> <Gold.Chemscore.DEClash.Weighted>
0.1482

> <Gold.Chemscore.DEInternal.Weighted>
0.7770

> <Gold.Chemscore.Rot.Weighted>
5.7467

> <Gold.Chemscore.Internal.Correction.Weighted>
   9.000000E+99

> <Gold.Protein.RotatedTorsions>
[ 6907 6896 6895 6894 ] final  -95.19 input  -60.11 | X-H torsion
[ 7974 7965 7964 7962 ] final   74.90 input  175.53 | X-H torsion
[ 8008 7997 7996 7995 ] final  127.99 input   59.86 | X-H torsion
[ 10167 10162 10161 10158 ] final   15.91 input  -65.29 | X-H torsion
[ 10718 10713 10712 10709 ] final  -96.63 input   66.30 | X-H torsion
[ 10763 10752 10751 10750 ] final  170.13 input  -60.55 | X-H torsion
[ 11005 11000 10999 10996 ] final  -88.03 input  -57.11 | X-H torsion

> <Gold.Protein.ActiveResidues>
 VAL166  LYS551  ARG553  GLY616  TRP617  ASP618  TYR619  PRO620  LYS621  CYS622 
 ASP623  PHE694  ASN695  SER759  ASP760  ASP761  ALA762  ILE779  LEU786  VAL792 
 PHE793  MET794  SER795  GLU796  ALA797  LYS798  CYS799  TRP800  GLU811  SER814 

> <Gold.Protein.RotatedAtoms>
  150.6958  134.1695  159.4206 H   0  0  0  0  0  0  0  0  0  0  0  0  # atno 6907 bound_to 6896
  151.9674  135.0091  160.0560 H   0  0  0  0  0  0  0  0  0  0  0  0  # atno 6908 bound_to 6896
  152.1873  133.4713  159.5026 H   0  0  0  0  0  0  0  0  0  0  0  0  # atno 6909 bound_to 6896
  145.7224  139.2653  143.1588 H   0  0  0  0  0  0  0  0  0  0  0  0  # atno 7974 bound_to 7965
  156.2904  140.2655  156.2363 H   0  0  0  0  0  0  0  0  0  0  0  0  # atno 8008 bound_to 7997
  155.0022  140.0387  157.2383 H   0  0  0  0  0  0  0  0  0  0  0  0  # atno 8009 bound_to 7997
  154.7591  140.2757  155.6234 H   0  0  0  0  0  0  0  0  0  0  0  0  # atno 8010 bound_to 7997
  140.5834  143.8936  150.6809 H   0  0  0  0  0  0  0  0  0  0  0  0  # atno 10167 bound_to 10162
  156.0066  130.5159  150.6254 H   0  0  0  0  0  0  0  0  0  0  0  0  # atno 10718 bound_to 10713
  154.3931  135.2754  155.2142 H   0  0  0  0  0  0  0  0  0  0  0  0  # atno 10763 bound_to 10752
  154.4200  135.6002  153.6007 H   0  0  0  0  0  0  0  0  0  0  0  0  # atno 10764 bound_to 10752
  152.9832  135.5970  154.4189 H   0  0  0  0  0  0  0  0  0  0  0  0  # atno 10765 bound_to 10752
  141.1608  133.7546  156.9392 H   0  0  0  0  0  0  0  0  0  0  0  0  # atno 11005 bound_to 11000
  146.0614  140.7967  142.9733 LP  0  0  0  0  0  0  0  0  0  0  0  0  # atno 17320 bound_to 7965
  144.6913  140.3202  143.7233 LP  0  0  0  0  0  0  0  0  0  0  0  0  # atno 17321 bound_to 7965
  140.2441  143.3642  152.1461 LP  0  0  0  0  0  0  0  0  0  0  0  0  # atno 17342 bound_to 10162
  139.5183  144.7004  151.5509 LP  0  0  0  0  0  0  0  0  0  0  0  0  # atno 17343 bound_to 10162
  157.4062  131.0817  151.1263 LP  0  0  0  0  0  0  0  0  0  0  0  0  # atno 17370 bound_to 10713
  157.1909  130.6351  149.5704 LP  0  0  0  0  0  0  0  0  0  0  0  0  # atno 17371 bound_to 10713
  140.1333  134.9341  157.2367 LP  0  0  0  0  0  0  0  0  0  0  0  0  # atno 17394 bound_to 11000
  140.2926  134.3223  155.7311 LP  0  0  0  0  0  0  0  0  0  0  0  0  # atno 17395 bound_to 11000

$$$$
