#       Name:                AV-unprocessed.smi:2895
#       Creating user name   scv26
#       Creation time:       Fri Mar 27 16:00:40 2020


#       File generated by GOLD software.
#

@<TRIPOS>MOLECULE
AV-unprocessed.smi:2895
    56    59     1
SMALL
NO_CHARGES


@<TRIPOS>ATOM
      1 ****         1.9258   1.6035  -1.1232 O.2            1 S1                 0.0000
      2 ****         1.6375   0.8272  -0.2114 C.2            1 S1                 0.0000
      3 ****         2.4700  -0.1550   0.1744 N.am           1 S1                 0.0000
      4 ****         3.7820  -0.4220  -0.4047 C.3            1 S1                 0.0000
      5 ****         3.6752  -1.1423  -1.7598 C.3            1 S1                 0.0000
      6 ****         5.0363  -1.4458  -2.3564 C.ar           1 S1                 0.0000
      7 ****         5.7696  -0.4323  -3.0122 C.ar           1 S1                 0.0000
      8 ****         7.0335  -0.7393  -3.5565 C.ar           1 S1                 0.0000
      9 ****         7.5267  -1.9925  -3.4468 N.pl3          1 S1                 1.0000
     10 ****         6.8580  -2.9905  -2.8283 C.ar           1 S1                 0.0000
     11 ****         5.5901  -2.7420  -2.2635 C.ar           1 S1                 0.0000
     12 ****         0.4815   0.9089   0.4962 N.am           1 S1                 0.0000
     13 ****        -0.0179  -0.0745   1.4710 C.3            1 S1                 0.0000
     14 ****        -1.2882  -0.7513   0.9137 C.3            1 S1                 0.0000
     15 ****        -2.3354   0.2386   0.5278 N.4            1 S1                 1.0000
     16 ****        -3.1154   0.7624   1.6903 C.3            1 S1                 0.0000
     17 ****        -3.9122  -0.3231   2.4559 C.3            1 S1                 0.0000
     18 ****        -5.3266   0.2791   2.5526 C.3            1 S1                 0.0000
     19 ****        -6.0101   0.1623   1.1795 C.3            1 S1                 0.0000
     20 ****        -5.2438   1.1969   0.3366 C.3            1 S1                 0.0000
     21 ****        -4.2298   1.7829   1.3434 C.3            1 S1                 0.0000
     22 ****        -5.0443   1.7741   2.6329 C.3            1 S1                 0.0000
     23 ****        -1.7795   1.2923  -0.3686 C.3            1 S1                 0.0000
     24 ****        -0.5193   1.9478   0.2278 C.3            1 S1                 0.0000
     25 ****         2.1801  -0.7481   0.9384 H              1 S1                 0.0000
     26 ****         4.3364   0.5124  -0.5083 H              1 S1                 0.0000
     27 ****         4.3417  -1.0383   0.2995 H              1 S1                 0.0000
     28 ****         3.1151  -2.0715  -1.6458 H              1 S1                 0.0000
     29 ****         3.1163  -0.5337  -2.4717 H              1 S1                 0.0000
     30 ****         5.3700   0.5682  -3.0958 H              1 S1                 0.0000
     31 ****         7.6598  -0.0259  -4.0719 H              1 S1                 0.0000
     32 ****         7.3539  -3.9500  -2.8043 H              1 S1                 0.0000
     33 ****         5.0528  -3.5372  -1.7672 H              1 S1                 0.0000
     34 ****         0.7061  -0.8445   1.7359 H              1 S1                 0.0000
     35 ****        -0.2393   0.4397   2.4069 H              1 S1                 0.0000
     36 ****        -1.0230  -1.3217   0.0226 H              1 S1                 0.0000
     37 ****        -1.6692  -1.4805   1.6278 H              1 S1                 0.0000
     38 ****        -2.4251   1.2438   2.3843 H              1 S1                 0.0000
     39 ****        -3.9342  -1.2874   1.9468 H              1 S1                 0.0000
     40 ****        -3.4846  -0.4813   3.4468 H              1 S1                 0.0000
     41 ****        -5.9218  -0.1246   3.3721 H              1 S1                 0.0000
     42 ****        -5.9461  -0.8444   0.7650 H              1 S1                 0.0000
     43 ****        -7.0657   0.4289   1.2473 H              1 S1                 0.0000
     44 ****        -4.7687   0.7507  -0.5370 H              1 S1                 0.0000
     45 ****        -5.9230   1.9724  -0.0197 H              1 S1                 0.0000
     46 ****        -3.8577   2.7704   1.0691 H              1 S1                 0.0000
     47 ****        -5.9453   2.3883   2.5809 H              1 S1                 0.0000
     48 ****        -4.4684   2.0593   3.5152 H              1 S1                 0.0000
     49 ****        -1.5161   0.8184  -1.3153 H              1 S1                 0.0000
     50 ****        -2.5232   2.0456  -0.6227 H              1 S1                 0.0000
     51 ****        -0.7592   2.4660   1.1571 H              1 S1                 0.0000
     52 ****        -0.1564   2.7212  -0.4505 H              1 S1                 0.0000
     53 ****        -3.0116  -0.2666  -0.0271 H              1 S1                 0.0000
     54 ****         8.4431  -2.1937  -3.8480 H              1 S1                 0.0000
     55 ****         2.8005   1.5128  -1.5993 LP             1 S1                 0.0000
     56 ****         1.2851   2.3244  -1.3874 LP             1 S1                 0.0000
@<TRIPOS>BOND
    1    1    2 2     
    2    2    3 am    
    3    2   12 am    
    4    3    4 1     
    5    3   25 1     
    6    4    5 1     
    7    4   26 1     
    8    4   27 1     
    9    5    6 1     
   10    5   28 1     
   11    5   29 1     
   12    6   11 ar    
   13    6    7 ar    
   14    7    8 ar    
   15    7   30 1     
   16    8    9 ar    
   17    8   31 1     
   18    9   10 ar    
   19    9   54 1     
   20   10   11 ar    
   21   10   32 1     
   22   11   33 1     
   23   12   24 1     
   24   12   13 1     
   25   13   14 1     
   26   13   34 1     
   27   13   35 1     
   28   14   15 1     
   29   14   36 1     
   30   14   37 1     
   31   15   16 1     
   32   15   23 1     
   33   15   53 1     
   34   16   21 1     
   35   16   17 1     
   36   16   38 1     
   37   17   18 1     
   38   17   39 1     
   39   17   40 1     
   40   18   22 1     
   41   18   19 1     
   42   18   41 1     
   43   19   20 1     
   44   19   42 1     
   45   19   43 1     
   46   20   21 1     
   47   20   44 1     
   48   20   45 1     
   49   21   22 1     
   50   21   46 1     
   51   22   47 1     
   52   22   48 1     
   53   23   24 1     
   54   23   49 1     
   55   23   50 1     
   56   24   51 1     
   57   24   52 1     
   58    1   55 1     
   59    1   56 1     
@<TRIPOS>SUBSTRUCTURE
      1 S1             1
@<TRIPOS>SET
LONE_PAIRS      STATIC     ATOMS    <user>   **** ""
2 55 56
DONOR_HYDROGENS      STATIC     ATOMS    <user>   **** ""
3 25 54 53
ATOM$BLUE        STATIC     ATOMS    COLORGROUP SYSTEM
2 55 56
ATOM$RED        STATIC     ATOMS    COLORGROUP SYSTEM
3 25 54 53
