#       Name:                AV-unprocessed.smi:2785
#       Creating user name   scv26
#       Creation time:       Fri Mar 27 15:18:21 2020


#       File generated by GOLD software.
#

@<TRIPOS>MOLECULE
AV-unprocessed.smi:2785
    42    43     1
SMALL
NO_CHARGES


@<TRIPOS>ATOM
      1 ****        -4.2545  -1.9308  -0.4777 C.3            1 S1                 0.0000
      2 ****        -3.5697  -0.7796  -1.2368 C.3            1 S1                 0.0000
      3 ****        -4.1938  -0.5583  -2.6237 C.3            1 S1                 0.0000
      4 ****        -2.1166  -0.9636  -1.3568 N.am           1 S1                 0.0000
      5 ****        -1.4989  -2.2786  -1.4163 C.3            1 S1                 0.0000
      6 ****        -0.0385  -2.0117  -1.7936 C.3            1 S1                 0.0000
      7 ****         0.2138  -0.5142  -1.5547 C.3            1 S1                 0.0000
      8 ****         0.9546  -0.3272  -0.3091 N.am           1 S1                 0.0000
      9 ****         1.6976   0.7471  -0.0045 C.2            1 S1                 0.0000
     10 ****         1.8613   1.6982  -0.7691 O.2            1 S1                 0.0000
     11 ****         2.2223   0.6403   1.2290 N.am           1 S1                 0.0000
     12 ****         3.0487   1.5694   1.9153 C.ar           1 S1                 0.0000
     13 ****         3.4213   1.1853   3.2236 C.ar           1 S1                 0.0000
     14 ****         4.2393   2.0383   3.9901 C.ar           1 S1                 0.0000
     15 ****         4.6638   3.2542   3.4255 C.ar           1 S1                 0.0000
     16 ****         5.4508   4.1066   4.1239 F              1 S1                 0.0000
     17 ****         4.2494   3.5618   2.1165 C.ar           1 S1                 0.0000
     18 ****         3.4653   2.7451   1.3810 N.ar           1 S1                 0.0000
     19 ****        -1.2087   0.0214  -1.4010 C.2            1 S1                 0.0000
     20 ****        -1.4557   1.2260  -1.3476 O.2            1 S1                 0.0000
     21 ****        -5.3131  -1.7179  -0.3267 H              1 S1                 0.0000
     22 ****        -3.8084  -2.0746   0.5069 H              1 S1                 0.0000
     23 ****        -4.1878  -2.8740  -1.0208 H              1 S1                 0.0000
     24 ****        -3.7444   0.1239  -0.6493 H              1 S1                 0.0000
     25 ****        -5.2663  -0.3786  -2.5462 H              1 S1                 0.0000
     26 ****        -4.0476  -1.4269  -3.2666 H              1 S1                 0.0000
     27 ****        -3.7526   0.3044  -3.1236 H              1 S1                 0.0000
     28 ****        -1.5593  -2.7560  -0.4374 H              1 S1                 0.0000
     29 ****        -1.9911  -2.9225  -2.1463 H              1 S1                 0.0000
     30 ****         0.6492  -2.6574  -1.2454 H              1 S1                 0.0000
     31 ****         0.1029  -2.2308  -2.8530 H              1 S1                 0.0000
     32 ****         0.7219  -0.0558  -2.4050 H              1 S1                 0.0000
     33 ****         0.8746  -1.0609   0.3794 H              1 S1                 0.0000
     34 ****         1.9968  -0.1997   1.7407 H              1 S1                 0.0000
     35 ****         3.0846   0.2472   3.6407 H              1 S1                 0.0000
     36 ****         4.5346   1.7639   4.9920 H              1 S1                 0.0000
     37 ****         4.5543   4.4856   1.6473 H              1 S1                 0.0000
     38 ****         1.4288   1.6951  -1.6708 LP             1 S1                 0.0000
     39 ****         2.4267   2.4738  -0.4885 LP             1 S1                 0.0000
     40 ****         3.1948   3.0035   0.4536 LP             1 S1                 0.0000
     41 ****        -2.4017   1.5392  -1.2639 LP             1 S1                 0.0000
     42 ****        -0.7104   1.8915  -1.3879 LP             1 S1                 0.0000
@<TRIPOS>BOND
    1    1    2 1     
    2    1   21 1     
    3    1   22 1     
    4    1   23 1     
    5    2    3 1     
    6    2    4 1     
    7    2   24 1     
    8    3   25 1     
    9    3   26 1     
   10    3   27 1     
   11    4   19 am    
   12    4    5 1     
   13    5    6 1     
   14    5   28 1     
   15    5   29 1     
   16    6    7 1     
   17    6   30 1     
   18    6   31 1     
   19    7    8 1     
   20    7   19 1     
   21    7   32 1     
   22    8    9 am    
   23    8   33 1     
   24    9   10 2     
   25    9   11 am    
   26   11   12 1     
   27   11   34 1     
   28   12   18 ar    
   29   12   13 ar    
   30   13   14 ar    
   31   13   35 1     
   32   14   15 ar    
   33   14   36 1     
   34   15   16 1     
   35   15   17 ar    
   36   17   18 ar    
   37   17   37 1     
   38   19   20 2     
   39   10   38 1     
   40   10   39 1     
   41   18   40 1     
   42   20   41 1     
   43   20   42 1     
@<TRIPOS>SUBSTRUCTURE
      1 S1             1
@<TRIPOS>SET
LONE_PAIRS      STATIC     ATOMS    <user>   **** ""
5 38 39 40 41 42
DONOR_HYDROGENS      STATIC     ATOMS    <user>   **** ""
2 33 34
ATOM$BLUE        STATIC     ATOMS    COLORGROUP SYSTEM
5 38 39 40 41 42
ATOM$RED        STATIC     ATOMS    COLORGROUP SYSTEM
2 33 34
