#       Name:                AV-unprocessed.smi:2850
#       Creating user name   scv26
#       Creation time:       Fri Mar 27 15:41:54 2020


#       File generated by GOLD software.
#

@<TRIPOS>MOLECULE
AV-unprocessed.smi:2850
    49    50     1
SMALL
NO_CHARGES


@<TRIPOS>ATOM
      1 ****        -2.1717   3.1260   4.8376 C.3            1 S1                 0.0000
      2 ****        -2.9026   4.1467   3.5279 S.3            1 S1                 0.0000
      3 ****        -3.0124   3.1410   2.0792 C.ar           1 S1                 0.0000
      4 ****        -3.6279   3.6300   0.9131 C.ar           1 S1                 0.0000
      5 ****        -3.6698   2.7678  -0.1962 C.ar           1 S1                 0.0000
      6 ****        -3.0946   1.4887  -0.0552 C.ar           1 S1                 0.0000
      7 ****        -3.1202   0.6121  -1.1495 N.pl3          1 S1                 0.0000
      8 ****        -2.4456  -0.6800  -1.1126 C.3            1 S1                 0.0000
      9 ****        -0.9216  -0.5545  -1.2809 C.3            1 S1                 0.0000
     10 ****        -0.2129  -1.9076  -1.0673 C.3            1 S1                 0.0000
     11 ****         1.2476  -1.7945  -1.3022 N.4            1 S1                 1.0000
     12 ****         1.9844  -1.1551  -0.1781 C.3            1 S1                 0.0000
     13 ****         3.4682  -1.5763  -0.1143 C.3            1 S1                 0.0000
     14 ****         3.6273  -3.0840   0.1438 C.3            1 S1                 0.0000
     15 ****         4.2105  -0.7686   0.9606 C.3            1 S1                 0.0000
     16 ****         1.5136  -1.2012  -2.6376 C.3            1 S1                 0.0000
     17 ****         0.7301   0.1099  -2.8400 C.3            1 S1                 0.0000
     18 ****        -0.6548  -0.1177  -2.6100 O.3            1 S1                 0.0000
     19 ****        -2.5183   1.0858   1.1063 N.ar           1 S1                 0.0000
     20 ****        -2.4746   1.9028   2.1644 N.ar           1 S1                 0.0000
     21 ****        -2.0869   3.7033   5.7581 H              1 S1                 0.0000
     22 ****        -1.1760   2.7880   4.5505 H              1 S1                 0.0000
     23 ****        -2.7952   2.2536   5.0341 H              1 S1                 0.0000
     24 ****        -4.0503   4.6231   0.8701 H              1 S1                 0.0000
     25 ****        -4.1276   3.0811  -1.1231 H              1 S1                 0.0000
     26 ****        -3.5353   0.9152  -2.0190 H              1 S1                 0.0000
     27 ****        -2.6838  -1.1836  -0.1748 H              1 S1                 0.0000
     28 ****        -2.8559  -1.3061  -1.9054 H              1 S1                 0.0000
     29 ****        -0.5349   0.1763  -0.5689 H              1 S1                 0.0000
     30 ****        -0.4082  -2.2971  -0.0675 H              1 S1                 0.0000
     31 ****        -0.6156  -2.6441  -1.7643 H              1 S1                 0.0000
     32 ****         1.9005  -0.0704  -0.2475 H              1 S1                 0.0000
     33 ****         1.5144  -1.4297   0.7675 H              1 S1                 0.0000
     34 ****         3.9475  -1.3477  -1.0658 H              1 S1                 0.0000
     35 ****         3.1688  -3.3754   1.0894 H              1 S1                 0.0000
     36 ****         4.6801  -3.3650   0.1861 H              1 S1                 0.0000
     37 ****         3.1665  -3.6763  -0.6469 H              1 S1                 0.0000
     38 ****         3.7922  -0.9477   1.9516 H              1 S1                 0.0000
     39 ****         4.1485   0.3017   0.7618 H              1 S1                 0.0000
     40 ****         5.2675  -1.0343   0.9929 H              1 S1                 0.0000
     41 ****         2.5790  -1.0395  -2.7963 H              1 S1                 0.0000
     42 ****         1.2008  -1.9218  -3.3946 H              1 S1                 0.0000
     43 ****         1.0954   0.9011  -2.1842 H              1 S1                 0.0000
     44 ****         0.8605   0.4670  -3.8616 H              1 S1                 0.0000
     45 ****         1.5938  -2.7430  -1.3331 H              1 S1                 0.0000
     46 ****        -1.1515   0.7347  -2.7733 LP             1 S1                 0.0000
     47 ****        -0.9752  -0.8177  -3.2481 LP             1 S1                 0.0000
     48 ****        -2.1228   0.1696   1.1713 LP             1 S1                 0.0000
     49 ****        -2.0459   1.5993   3.0154 LP             1 S1                 0.0000
@<TRIPOS>BOND
    1    1    2 1     
    2    1   21 1     
    3    1   22 1     
    4    1   23 1     
    5    2    3 1     
    6    3   20 ar    
    7    3    4 ar    
    8    4    5 ar    
    9    4   24 1     
   10    5    6 ar    
   11    5   25 1     
   12    6    7 1     
   13    6   19 ar    
   14    7    8 1     
   15    7   26 1     
   16    8    9 1     
   17    8   27 1     
   18    8   28 1     
   19    9   18 1     
   20    9   10 1     
   21    9   29 1     
   22   10   11 1     
   23   10   30 1     
   24   10   31 1     
   25   11   12 1     
   26   11   16 1     
   27   11   45 1     
   28   12   13 1     
   29   12   32 1     
   30   12   33 1     
   31   13   14 1     
   32   13   15 1     
   33   13   34 1     
   34   14   35 1     
   35   14   36 1     
   36   14   37 1     
   37   15   38 1     
   38   15   39 1     
   39   15   40 1     
   40   16   17 1     
   41   16   41 1     
   42   16   42 1     
   43   17   18 1     
   44   17   43 1     
   45   17   44 1     
   46   19   20 ar    
   47   18   46 1     
   48   18   47 1     
   49   19   48 1     
   50   20   49 1     
@<TRIPOS>SUBSTRUCTURE
      1 S1             1
@<TRIPOS>SET
LONE_PAIRS      STATIC     ATOMS    <user>   **** ""
4 46 47 48 49
DONOR_HYDROGENS      STATIC     ATOMS    <user>   **** ""
2 26 45
ATOM$BLUE        STATIC     ATOMS    COLORGROUP SYSTEM
4 46 47 48 49
ATOM$RED        STATIC     ATOMS    COLORGROUP SYSTEM
2 26 45
