AV-unprocessed.smi:3149|AV-procd|sdf|12002|dock3
  -GOLD-   2272017403D 1   1.00000     0.00000
 Structure written by MMmdl.
 38 39  0  0  0  0  0  0  0  0  2 V2000
  147.6514  141.9604  154.6256 C   0  0  0  0  0  0  0  0  0  0  0  0
  149.0699  141.3635  154.5460 C   0  0  1  0  0  0  0  0  0  0  0  0
  149.9356  141.9775  155.5804 N   0  3  0  0  0  0  0  0  0  0  0  0
  149.7045  141.5106  156.9633 C   0  0  0  0  0  0  0  0  0  0  0  0
  151.0253  141.3208  157.7148 C   0  0  0  0  0  0  0  0  0  0  0  0
  151.3546  140.2100  158.1323 O   0  0  0  0  0  0  0  0  0  0  0  0
  151.8700  142.4277  157.8188 N   0  0  0  0  0  0  0  0  0  0  0  0
  152.6633  142.6695  159.0147 C   0  0  0  0  0  0  0  0  0  0  0  0
  152.5251  144.1568  158.6742 C   0  0  0  0  0  0  0  0  0  0  0  0
  151.3424  143.7833  157.7742 C   0  0  0  0  0  0  0  0  0  0  0  0
  149.0729  139.8180  154.7051 C   0  0  1  0  0  0  0  0  0  0  0  0
  148.0806  139.1080  153.7654 C   0  0  0  0  0  0  0  0  0  0  0  0
  150.4057  139.2543  154.5153 N   0  0  0  0  0  0  0  0  0  0  0  0
  150.7418  138.0135  154.0135 C   0  0  0  0  0  0  0  0  0  0  0  0
  152.1047  137.9321  154.0027 C   0  0  0  0  0  0  0  0  0  0  0  0
  152.5235  139.1929  154.5105 C   0  0  0  0  0  0  0  0  0  0  0  0
  151.5060  139.9833  154.8112 N   0  0  0  0  0  0  0  0  0  0  0  0
  147.0115  141.5863  153.8272 H   0  0  0  0  0  0  0  0  0  0  0  0
  147.6641  143.0455  154.5261 H   0  0  0  0  0  0  0  0  0  0  0  0
  147.1731  141.7213  155.5761 H   0  0  0  0  0  0  0  0  0  0  0  0
  149.4881  141.6047  153.5673 H   0  0  0  0  0  0  0  0  0  0  0  0
  150.9049  141.8378  155.3342 H   0  0  0  0  0  0  0  0  0  0  0  0
  149.1005  142.2416  157.5021 H   0  0  0  0  0  0  0  0  0  0  0  0
  149.1522  140.5712  156.9456 H   0  0  0  0  0  0  0  0  0  0  0  0
  152.1552  142.3932  159.9410 H   0  0  0  0  0  0  0  0  0  0  0  0
  153.6822  142.2846  158.9599 H   0  0  0  0  0  0  0  0  0  0  0  0
  152.2601  144.7878  159.5233 H   0  0  0  0  0  0  0  0  0  0  0  0
  153.3790  144.5561  158.1234 H   0  0  0  0  0  0  0  0  0  0  0  0
  151.3647  144.2351  156.7818 H   0  0  0  0  0  0  0  0  0  0  0  0
  150.3749  143.8954  158.2679 H   0  0  0  0  0  0  0  0  0  0  0  0
  148.7782  139.5846  155.7296 H   0  0  0  0  0  0  0  0  0  0  0  0
  147.0478  139.3694  153.9930 H   0  0  0  0  0  0  0  0  0  0  0  0
  148.1602  138.0244  153.8607 H   0  0  0  0  0  0  0  0  0  0  0  0
  148.2690  139.3620  152.7217 H   0  0  0  0  0  0  0  0  0  0  0  0
  149.9919  137.2979  153.7097 H   0  0  0  0  0  0  0  0  0  0  0  0
  152.7107  137.1000  153.6754 H   0  0  0  0  0  0  0  0  0  0  0  0
  153.5289  139.5555  154.6657 H   0  0  0  0  0  0  0  0  0  0  0  0
  149.7475  142.9703  155.5779 H   0  0  0  0  0  0  0  0  0  0  0  0
  1  2  1  0  0  0  0
  1 18  1  0  0  0  0
  1 19  1  0  0  0  0
  1 20  1  0  0  0  0
  2  3  1  0  0  0  0
  2 11  1  0  0  0  0
  2 21  1  0  0  0  0
  3  4  1  0  0  0  0
  3 22  1  0  0  0  0
  3 38  1  0  0  0  0
  4  5  1  0  0  0  0
  4 23  1  0  0  0  0
  4 24  1  0  0  0  0
  5  6  2  0  0  0  0
  5  7  1  0  0  0  0
  7 10  1  0  0  0  0
  7  8  1  0  0  0  0
  8  9  1  0  0  0  0
  8 25  1  0  0  0  0
  8 26  1  0  0  0  0
  9 10  1  0  0  0  0
  9 27  1  0  0  0  0
  9 28  1  0  0  0  0
 10 29  1  0  0  0  0
 10 30  1  0  0  0  0
 11 12  1  0  0  0  0
 11 13  1  0  0  0  0
 11 31  1  0  0  0  0
 12 32  1  0  0  0  0
 12 33  1  0  0  0  0
 12 34  1  0  0  0  0
 13 17  1  0  0  0  0
 13 14  1  0  0  0  0
 14 15  2  0  0  0  0
 14 35  1  0  0  0  0
 15 16  1  0  0  0  0
 15 36  1  0  0  0  0
 16 17  2  0  0  0  0
 16 37  1  0  0  0  0
M  CHG  1   3   1
M  END
> <s_m_source_file>
AV-unprocessed.smi

> <i_m_source_file_index>
3149

> <i_lp_mmshare_version>
43012

> <i_f3d_flags>
0

> <s_epik_input>
bjFbY0hdW2NIXVtjSF1uMVtDQEBIXShbQ0gzXSlbQ0BIXShbQ0gzXSlbTkhdW0NIMl1DKD1PKU4yW0NIMl1bQ0gyXVtDSDJdMg==

> <s_epik_cmdline>
J2VwaWtfcHl0aG9uJywgJy1waCcsICc3LjAnLCAnLXRuJywgJzgnLCAnLW1hJywgJzIwMCcsICctbWV0YWxfYmluZGluZycsICctaW1hZScsICc8aW5maWxlLm1hZT4nLCAnLW9tYWUnLCAnPG91dGZpbGUubWFlPic=

> <r_lp_tautomer_probability>
1

> <r_epik_Ionization_Penalty>
0.141739

> <r_epik_Ionization_Penalty_Charging>
0.141731

> <r_epik_Ionization_Penalty_Neutral>
8.82171e-06

> <r_epik_State_Penalty>
0.131043

> <r_epik_Charging_Adjusted_Penalty>
0.272773

> <i_epik_Tot_Q>
1

> <i_epik_Tot_abs_Q>
1

> <r_epik_Metal_State_Penalty>
0.131384

> <b_epik_Metal_Only>
0

> <s_lp_Force_Field>
OPLS_2005

> <r_lp_Energy>
20.424

> <b_lp_Chiralities_Consistent>
1

> <s_lp_Variant>
AV-unprocessed.smi:3149-4

> <Gold.Version>
5.8.1

> <Gold.Id.Protein>
6NUR|6NUR_protein|mol2

> <Gold.PLP.Fitness>
50.2083

> <Gold.PLP.PLP>
-40.2667

> <Gold.PLP.part.hbond>
-2.0000

> <Gold.PLP.part.metal>
0.0000

> <Gold.PLP.part.buried>
-0.6215

> <Gold.PLP.part.nonpolar>
-37.6211

> <Gold.PLP.part.repulsive>
0.2210

> <Gold.PLP.ligand.clash>
0.0000

> <Gold.PLP.ligand.torsion>
1.5402

> <Gold.PLP.Chemscore.Hbond>
3.0000

> <Gold.PLP.Chemscore.CHOScore>
1.0000

> <Gold.PLP.Chemscore.Metal>
0.0000

> <Gold.Chemscore.Hbonds>
donor molecule, donor type, donor heavy atom, donor atom, acceptor molecule, acceptor atom, score
      L1  H     3    38       P1  8028  2.00
      P1  H  7989  7998       L1    17  0.70
      L1  C    14    35       P1  7948  1.00
      L1  C    14    35       P1  7949  0.01

> <Gold.PLP.Chemscore.Internal.Correction>
1.0220

> <Gold.Rescore>
     Score         DG    S(hbond)    S(metal)    S(lipo)     H(rot)  DE(clash)    DE(int)     intcor
     12.62     -15.81       1.25        0.00      93.12       1.85       0.05       3.14       ----

> <Gold.Chemscore.Fitness>
12.6232

> <Gold.Chemscore.DG>
-15.8145

> <Gold.Chemscore.ZeroCoef>
-5.4800

> <Gold.Chemscore.Hbond>
1.2535

> <Gold.Chemscore.Metal>
0.0000

> <Gold.Chemscore.Lipo>
93.1191

> <Gold.Chemscore.Internal_Hbond>
0.0000

> <Gold.Chemscore.DEClash>
0.0531

> <Gold.Chemscore.DEInternal>
3.1383

> <Gold.Chemscore.Rot>
1.8544

> <Gold.Chemscore.Internal.Correction>
   9.000000E+99

> <Gold.Chemscore.Hbonds>
donor molecule, donor type, donor heavy atom, donor atom, acceptor molecule, acceptor atom, score
      L1  H     3    38       P1  8028  0.99
      P1  H  7989  7998       L1    17  0.02

> <Gold.Chemscore.Hbond.Weighted>
-4.1867

> <Gold.Chemscore.Metal.Weighted>
-0.0000

> <Gold.Chemscore.Lipo.Weighted>
-10.8949

> <Gold.Chemscore.Internal_Hbond.Weighted>
0.0000

> <Gold.Chemscore.DEClash.Weighted>
0.0531

> <Gold.Chemscore.DEInternal.Weighted>
3.1383

> <Gold.Chemscore.Rot.Weighted>
4.7472

> <Gold.Chemscore.Internal.Correction.Weighted>
   9.000000E+99

> <Gold.Protein.RotatedTorsions>
[ 6907 6896 6895 6894 ] final   90.92 input  -60.11 | X-H torsion
[ 7974 7965 7964 7962 ] final  -46.69 input  175.53 | X-H torsion
[ 8008 7997 7996 7995 ] final   -9.06 input   59.86 | X-H torsion
[ 10167 10162 10161 10158 ] final  -14.52 input  -65.29 | X-H torsion
[ 10718 10713 10712 10709 ] final   -3.67 input   66.30 | X-H torsion
[ 10763 10752 10751 10750 ] final   78.91 input  -60.55 | X-H torsion
[ 11005 11000 10999 10996 ] final  -73.58 input  -57.11 | X-H torsion

> <Gold.Protein.ActiveResidues>
 VAL166  LYS551  ARG553  GLY616  TRP617  ASP618  TYR619  PRO620  LYS621  CYS622 
 ASP623  PHE694  ASN695  SER759  ASP760  ASP761  ALA762  ILE779  LEU786  VAL792 
 PHE793  MET794  SER795  GLU796  ALA797  LYS798  CYS799  TRP800  GLU811  SER814 

> <Gold.Protein.RotatedAtoms>
  152.5447  134.1737  159.8607 H   0  0  0  0  0  0  0  0  0  0  0  0  # atno 6907 bound_to 6896
  151.1745  133.4756  159.2601 H   0  0  0  0  0  0  0  0  0  0  0  0  # atno 6908 bound_to 6896
  151.1241  135.0106  159.8607 H   0  0  0  0  0  0  0  0  0  0  0  0  # atno 6909 bound_to 6896
  145.9694  140.7399  142.9418 H   0  0  0  0  0  0  0  0  0  0  0  0  # atno 7974 bound_to 7965
  154.5682  140.2365  155.8232 H   0  0  0  0  0  0  0  0  0  0  0  0  # atno 8008 bound_to 7997
  156.2085  140.3033  155.9638 H   0  0  0  0  0  0  0  0  0  0  0  0  # atno 8009 bound_to 7997
  155.2762  140.0420  157.3002 H   0  0  0  0  0  0  0  0  0  0  0  0  # atno 8010 bound_to 7997
  140.7202  143.5313  150.9517 H   0  0  0  0  0  0  0  0  0  0  0  0  # atno 10167 bound_to 10162
  156.7726  130.5305  149.5764 H   0  0  0  0  0  0  0  0  0  0  0  0  # atno 10718 bound_to 10713
  153.0911  135.4859  154.8691 H   0  0  0  0  0  0  0  0  0  0  0  0  # atno 10763 bound_to 10752
  154.7270  135.3051  154.8957 H   0  0  0  0  0  0  0  0  0  0  0  0  # atno 10764 bound_to 10752
  153.9604  135.6813  153.4798 H   0  0  0  0  0  0  0  0  0  0  0  0  # atno 10765 bound_to 10752
  141.1624  133.6883  156.7233 H   0  0  0  0  0  0  0  0  0  0  0  0  # atno 11005 bound_to 11000
  144.6833  140.2723  143.7304 LP  0  0  0  0  0  0  0  0  0  0  0  0  # atno 17320 bound_to 7965
  145.7928  139.1933  143.2093 LP  0  0  0  0  0  0  0  0  0  0  0  0  # atno 17321 bound_to 7965
  139.9033  143.6809  152.3127 LP  0  0  0  0  0  0  0  0  0  0  0  0  # atno 17342 bound_to 10162
  139.7166  144.7610  151.1024 LP  0  0  0  0  0  0  0  0  0  0  0  0  # atno 17343 bound_to 10162
  156.1268  130.6149  151.0275 LP  0  0  0  0  0  0  0  0  0  0  0  0  # atno 17370 bound_to 10713
  157.6684  131.0867  150.7673 LP  0  0  0  0  0  0  0  0  0  0  0  0  # atno 17371 bound_to 10713
  140.2799  134.8325  157.3924 LP  0  0  0  0  0  0  0  0  0  0  0  0  # atno 17394 bound_to 11000
  140.1443  134.4932  155.8008 LP  0  0  0  0  0  0  0  0  0  0  0  0  # atno 17395 bound_to 11000

$$$$
