#       Name:                AV-unprocessed.smi:3335
#       Creating user name   scv26
#       Creation time:       Fri Mar 27 19:23:37 2020


#       File generated by GOLD software.
#

@<TRIPOS>MOLECULE
AV-unprocessed.smi:3335
    50    51     1
SMALL
NO_CHARGES


@<TRIPOS>ATOM
      1 ****        -4.9604  -2.4930  -1.7843 C.3            1 S1                 0.0000
      2 ****        -4.2466  -1.3547  -1.1141 C.2            1 S1                 0.0000
      3 ****        -4.0350  -0.0399  -1.6157 C.2            1 S1                 0.0000
      4 ****        -3.3608   0.7275  -0.7760 N.2            1 S1                 0.0000
      5 ****        -3.1216  -0.0623   0.2956 N.pl3          1 S1                 0.0000
      6 ****        -2.3573   0.4367   1.4372 C.3            1 S1                 0.0000
      7 ****        -2.8108   1.8436   1.8763 C.3            1 S1                 0.0000
      8 ****        -0.8203   0.3218   1.2440 C.3            1 S1                 0.0000
      9 ****        -0.3765  -1.1326   0.9854 C.3            1 S1                 0.0000
     10 ****        -0.3903   1.2211   0.1693 N.3            1 S1                 0.0000
     11 ****         1.0636   1.4486   0.0742 C.3            1 S1                 0.0000
     12 ****         1.3204   2.8854  -0.4056 C.3            1 S1                 0.0000
     13 ****         1.7497   0.4565  -0.8898 C.2            1 S1                 0.0000
     14 ****         1.1786   0.1563  -1.9399 O.2            1 S1                 0.0000
     15 ****         2.9518  -0.0655  -0.5619 N.am           1 S1                 0.0000
     16 ****         3.6539  -1.0398  -1.3962 C.3            1 S1                 0.0000
     17 ****         4.8278  -1.5408  -0.5550 C.3            1 S1                 0.0000
     18 ****         5.1066  -0.3967   0.4083 C.3            1 S1                 0.0000
     19 ****         3.7367   0.2432   0.6331 C.3            1 S1                 0.0000
     20 ****        -3.6431  -1.3267   0.1110 C.2            1 S1                 0.0000
     21 ****        -4.9003  -2.4235  -2.8706 H              1 S1                 0.0000
     22 ****        -6.0180  -2.5138  -1.5212 H              1 S1                 0.0000
     23 ****        -4.5381  -3.4575  -1.5015 H              1 S1                 0.0000
     24 ****        -4.3474   0.3764  -2.5621 H              1 S1                 0.0000
     25 ****        -2.6107  -0.2208   2.2703 H              1 S1                 0.0000
     26 ****        -2.2958   2.1527   2.7861 H              1 S1                 0.0000
     27 ****        -3.8811   1.8602   2.0842 H              1 S1                 0.0000
     28 ****        -2.6113   2.5970   1.1137 H              1 S1                 0.0000
     29 ****        -0.3603   0.6574   2.1746 H              1 S1                 0.0000
     30 ****        -0.8258  -1.8113   1.7106 H              1 S1                 0.0000
     31 ****         0.7029  -1.2473   1.0793 H              1 S1                 0.0000
     32 ****        -0.6653  -1.4728  -0.0097 H              1 S1                 0.0000
     33 ****        -0.8889   2.0944   0.2622 H              1 S1                 0.0000
     34 ****         1.4836   1.3704   1.0761 H              1 S1                 0.0000
     35 ****         2.3883   3.1009  -0.4599 H              1 S1                 0.0000
     36 ****         0.8775   3.6103   0.2781 H              1 S1                 0.0000
     37 ****         0.8947   3.0615  -1.3946 H              1 S1                 0.0000
     38 ****         3.0053  -1.8634  -1.6993 H              1 S1                 0.0000
     39 ****         4.0133  -0.5414  -2.2978 H              1 S1                 0.0000
     40 ****         4.5239  -2.4247   0.0074 H              1 S1                 0.0000
     41 ****         5.6963  -1.8099  -1.1568 H              1 S1                 0.0000
     42 ****         5.5767  -0.7278   1.3348 H              1 S1                 0.0000
     43 ****         5.7737   0.3246  -0.0658 H              1 S1                 0.0000
     44 ****         3.8306   1.3169   0.8010 H              1 S1                 0.0000
     45 ****         3.2495  -0.2002   1.5028 H              1 S1                 0.0000
     46 ****        -3.5383  -2.0978   0.8601 H              1 S1                 0.0000
     47 ****        -3.0881   1.6810  -0.9047 LP             1 S1                 0.0000
     48 ****        -0.6151   0.7627  -0.6905 LP             1 S1                 0.0000
     49 ****         0.2865   0.5536  -2.1551 LP             1 S1                 0.0000
     50 ****         1.6073  -0.4845  -2.5766 LP             1 S1                 0.0000
@<TRIPOS>BOND
    1    1    2 1     
    2    1   21 1     
    3    1   22 1     
    4    1   23 1     
    5    2   20 2     
    6    2    3 1     
    7    3    4 2     
    8    3   24 1     
    9    4    5 1     
   10    5    6 1     
   11    5   20 1     
   12    6    7 1     
   13    6    8 1     
   14    6   25 1     
   15    7   26 1     
   16    7   27 1     
   17    7   28 1     
   18    8    9 1     
   19    8   10 1     
   20    8   29 1     
   21    9   30 1     
   22    9   31 1     
   23    9   32 1     
   24   10   11 1     
   25   10   33 1     
   26   11   12 1     
   27   11   13 1     
   28   11   34 1     
   29   12   35 1     
   30   12   36 1     
   31   12   37 1     
   32   13   14 2     
   33   13   15 am    
   34   15   19 1     
   35   15   16 1     
   36   16   17 1     
   37   16   38 1     
   38   16   39 1     
   39   17   18 1     
   40   17   40 1     
   41   17   41 1     
   42   18   19 1     
   43   18   42 1     
   44   18   43 1     
   45   19   44 1     
   46   19   45 1     
   47   20   46 1     
   48    4   47 1     
   49   10   48 1     
   50   14   49 1     
   51   14   50 1     
@<TRIPOS>SUBSTRUCTURE
      1 S1             1
@<TRIPOS>SET
LONE_PAIRS      STATIC     ATOMS    <user>   **** ""
4 47 48 49 50
DONOR_HYDROGENS      STATIC     ATOMS    <user>   **** ""
1 33
ATOM$BLUE        STATIC     ATOMS    COLORGROUP SYSTEM
4 47 48 49 50
ATOM$RED        STATIC     ATOMS    COLORGROUP SYSTEM
1 33
