#       Name:                AV-unprocessed.smi:695
#       Creating user name   scv26
#       Creation time:       Fri Mar 27 00:36:42 2020


#       File generated by GOLD software.
#

@<TRIPOS>MOLECULE
AV-unprocessed.smi:695
    41    42     1
SMALL
NO_CHARGES


@<TRIPOS>ATOM
      1 ****        -2.4119   1.0549   0.9898 C.3            1 S1                 0.0000
      2 ****        -2.2084   0.9311   2.5068 C.3            1 S1                 0.0000
      3 ****        -1.0955   0.0450   2.8277 N.am           1 S1                 0.0000
      4 ****         0.1982   0.3864   2.7567 C.2            1 S1                 0.0000
      5 ****         0.5975   1.5099   2.4485 O.2            1 S1                 0.0000
      6 ****         1.0050  -0.6537   3.0159 N.am           1 S1                 0.0000
      7 ****         2.4640  -0.6361   2.9168 C.3            1 S1                 0.0000
      8 ****         2.9731  -1.1038   1.5370 C.3            1 S1                 0.0000
      9 ****         2.4186  -0.3058   0.3927 C.2            1 S1                 0.0000
     10 ****         2.9726   0.8680  -0.0558 C.2            1 S1                 0.0000
     11 ****         2.0405   1.5967  -1.3302 S.3            1 S1                 0.0000
     12 ****         0.9059   0.2816  -1.2580 C.2            1 S1                 0.0000
     13 ****        -0.2137   0.1446  -1.9872 N.pl3          1 S1                 0.0000
     14 ****        -0.4827   1.0228  -3.1113 C.3            1 S1                 0.0000
     15 ****        -1.7356   0.4364  -3.7607 C.3            1 S1                 0.0000
     16 ****        -1.5924  -1.0646  -3.5024 C.3            1 S1                 0.0000
     17 ****        -0.8686  -1.1457  -2.1532 C.3            1 S1                 0.0000
     18 ****         1.2634  -0.6102  -0.3224 N.pl3          1 S1                 1.0000
     19 ****        -3.2722   1.6858   0.7657 H              1 S1                 0.0000
     20 ****        -2.5879   0.0802   0.5342 H              1 S1                 0.0000
     21 ****        -1.5419   1.4995   0.5056 H              1 S1                 0.0000
     22 ****        -2.0480   1.9152   2.9503 H              1 S1                 0.0000
     23 ****        -3.1096   0.5259   2.9669 H              1 S1                 0.0000
     24 ****        -1.3273  -0.9016   3.0911 H              1 S1                 0.0000
     25 ****         0.5782  -1.5345   3.2636 H              1 S1                 0.0000
     26 ****         2.8454   0.3626   3.1360 H              1 S1                 0.0000
     27 ****         2.8646  -1.2886   3.6928 H              1 S1                 0.0000
     28 ****         4.0629  -1.0622   1.5272 H              1 S1                 0.0000
     29 ****         2.7193  -2.1561   1.4039 H              1 S1                 0.0000
     30 ****         3.8614   1.3626   0.3076 H              1 S1                 0.0000
     31 ****        -0.6390   2.0534  -2.7910 H              1 S1                 0.0000
     32 ****         0.3590   0.9979  -3.8049 H              1 S1                 0.0000
     33 ****        -2.6253   0.8135  -3.2540 H              1 S1                 0.0000
     34 ****        -1.8201   0.6828  -4.8195 H              1 S1                 0.0000
     35 ****        -2.5478  -1.5900  -3.5020 H              1 S1                 0.0000
     36 ****        -0.9677  -1.5082  -4.2790 H              1 S1                 0.0000
     37 ****        -0.1628  -1.9772  -2.1350 H              1 S1                 0.0000
     38 ****        -1.5816  -1.2842  -1.3401 H              1 S1                 0.0000
     39 ****         0.7114  -1.4361  -0.1287 H              1 S1                 0.0000
     40 ****        -0.0595   2.2323   2.2326 LP             1 S1                 0.0000
     41 ****         1.5787   1.6999   2.4140 LP             1 S1                 0.0000
@<TRIPOS>BOND
    1    1    2 1     
    2    1   19 1     
    3    1   20 1     
    4    1   21 1     
    5    2    3 1     
    6    2   22 1     
    7    2   23 1     
    8    3    4 am    
    9    3   24 1     
   10    4    5 2     
   11    4    6 am    
   12    6    7 1     
   13    6   25 1     
   14    7    8 1     
   15    7   26 1     
   16    7   27 1     
   17    8    9 1     
   18    8   28 1     
   19    8   29 1     
   20    9   18 1     
   21    9   10 2     
   22   10   11 1     
   23   10   30 1     
   24   11   12 1     
   25   12   13 1     
   26   12   18 2     
   27   13   17 1     
   28   13   14 1     
   29   14   15 1     
   30   14   31 1     
   31   14   32 1     
   32   15   16 1     
   33   15   33 1     
   34   15   34 1     
   35   16   17 1     
   36   16   35 1     
   37   16   36 1     
   38   17   37 1     
   39   17   38 1     
   40   18   39 1     
   41    5   40 1     
   42    5   41 1     
@<TRIPOS>SUBSTRUCTURE
      1 S1             1
@<TRIPOS>SET
LONE_PAIRS      STATIC     ATOMS    <user>   **** ""
2 40 41
DONOR_HYDROGENS      STATIC     ATOMS    <user>   **** ""
3 24 25 39
ATOM$BLUE        STATIC     ATOMS    COLORGROUP SYSTEM
2 40 41
ATOM$RED        STATIC     ATOMS    COLORGROUP SYSTEM
3 24 25 39
