AV-unprocessed.smi:2287|AV-procd|sdf|9205|dock4
  -GOLD-   2272012423D 1   1.00000     0.00000
 Structure written by MMmdl.
 38 39  0  0  0  0  0  0  0  0  2 V2000
  146.1511  134.6112  153.0436 C   0  0  0  0  0  0  0  0  0  0  0  0
  146.4266  134.9253  151.6226 N   0  3  0  0  0  0  0  0  0  0  0  0
  146.4277  133.7035  150.7879 C   0  0  0  0  0  0  0  0  0  0  0  0
  145.5385  135.9784  151.0685 C   0  0  0  0  0  0  0  0  0  0  0  0
  145.5357  137.2572  151.9218 C   0  0  0  0  0  0  0  0  0  0  0  0
  146.8736  137.5399  152.4253 N   0  0  0  0  0  0  0  0  0  0  0  0
  147.1879  138.6058  153.1737 C   0  0  0  0  0  0  0  0  0  0  0  0
  146.3713  139.4678  153.4961 O   0  0  0  0  0  0  0  0  0  0  0  0
  148.4919  138.6061  153.4985 N   0  0  0  0  0  0  0  0  0  0  0  0
  149.1971  139.5142  154.3339 C   0  0  0  0  0  0  0  0  0  0  0  0
  150.5726  139.4254  154.6641 C   0  0  0  0  0  0  0  0  0  0  0  0
  151.1760  140.3477  155.4448 N   0  0  0  0  0  0  0  0  0  0  0  0
  150.4169  141.3475  155.9012 C   0  0  0  0  0  0  0  0  0  0  0  0
  151.1054  142.3933  156.7225 C   0  0  0  0  0  0  0  0  0  0  0  0
  151.7923  142.0314  158.0235 C   0  0  0  0  0  0  0  0  0  0  0  0
  150.5288  142.8456  158.0486 C   0  0  0  0  0  0  0  0  0  0  0  0
  149.1208  141.5432  155.6438 N   0  0  0  0  0  0  0  0  0  0  0  0
  148.5095  140.6268  154.8630 C   0  0  0  0  0  0  0  0  0  0  0  0
  145.1350  134.2354  153.1716 H   0  0  0  0  0  0  0  0  0  0  0  0
  146.2751  135.4872  153.6793 H   0  0  0  0  0  0  0  0  0  0  0  0
  146.8417  133.8498  153.4078 H   0  0  0  0  0  0  0  0  0  0  0  0
  145.4349  133.2529  150.7539 H   0  0  0  0  0  0  0  0  0  0  0  0
  147.1251  132.9647  151.1843 H   0  0  0  0  0  0  0  0  0  0  0  0
  146.7362  133.9314  149.7671 H   0  0  0  0  0  0  0  0  0  0  0  0
  145.8842  136.2407  150.0671 H   0  0  0  0  0  0  0  0  0  0  0  0
  144.5266  135.5861  150.9536 H   0  0  0  0  0  0  0  0  0  0  0  0
  145.2017  138.1176  151.3415 H   0  0  0  0  0  0  0  0  0  0  0  0
  144.8441  137.1418  152.7582 H   0  0  0  0  0  0  0  0  0  0  0  0
  147.6040  136.8814  152.1971 H   0  0  0  0  0  0  0  0  0  0  0  0
  149.0525  137.8719  153.0914 H   0  0  0  0  0  0  0  0  0  0  0  0
  151.2147  138.6407  154.2971 H   0  0  0  0  0  0  0  0  0  0  0  0
  151.5769  143.1438  156.0910 H   0  0  0  0  0  0  0  0  0  0  0  0
  151.7292  140.9991  158.3623 H   0  0  0  0  0  0  0  0  0  0  0  0
  152.7250  142.5417  158.2553 H   0  0  0  0  0  0  0  0  0  0  0  0
  150.6150  143.9012  158.2977 H   0  0  0  0  0  0  0  0  0  0  0  0
  149.6247  142.3549  158.4044 H   0  0  0  0  0  0  0  0  0  0  0  0
  147.4614  140.7871  154.6562 H   0  0  0  0  0  0  0  0  0  0  0  0
  147.3674  135.2912  151.5807 H   0  0  0  0  0  0  0  0  0  0  0  0
  1  2  1  0  0  0  0
  1 19  1  0  0  0  0
  1 20  1  0  0  0  0
  1 21  1  0  0  0  0
  2  3  1  0  0  0  0
  2  4  1  0  0  0  0
  2 38  1  0  0  0  0
  3 22  1  0  0  0  0
  3 23  1  0  0  0  0
  3 24  1  0  0  0  0
  4  5  1  0  0  0  0
  4 25  1  0  0  0  0
  4 26  1  0  0  0  0
  5  6  1  0  0  0  0
  5 27  1  0  0  0  0
  5 28  1  0  0  0  0
  6  7  1  0  0  0  0
  6 29  1  0  0  0  0
  7  8  2  0  0  0  0
  7  9  1  0  0  0  0
  9 10  1  0  0  0  0
  9 30  1  0  0  0  0
 10 18  1  0  0  0  0
 10 11  2  0  0  0  0
 11 12  1  0  0  0  0
 11 31  1  0  0  0  0
 12 13  2  0  0  0  0
 13 14  1  0  0  0  0
 13 17  1  0  0  0  0
 14 16  1  0  0  0  0
 14 15  1  0  0  0  0
 14 32  1  0  0  0  0
 15 16  1  0  0  0  0
 15 33  1  0  0  0  0
 15 34  1  0  0  0  0
 16 35  1  0  0  0  0
 16 36  1  0  0  0  0
 17 18  2  0  0  0  0
 18 37  1  0  0  0  0
M  CHG  1   2   1
M  END
> <s_m_source_file>
AV-unprocessed.smi

> <i_m_source_file_index>
2287

> <i_lp_mmshare_version>
43012

> <i_f3d_flags>
0

> <s_epik_input>
W0NIM11OKFtDSDNdKVtDSDJdW0NIMl1bTkhdQyg9TylbTkhdYzFbY0hdbmMobltjSF0xKVtDSF0yW0NIMl1bQ0gyXTI=

> <s_epik_cmdline>
J2VwaWtfcHl0aG9uJywgJy1waCcsICc3LjAnLCAnLXRuJywgJzgnLCAnLW1hJywgJzIwMCcsICctbWV0YWxfYmluZGluZycsICctaW1hZScsICc8aW5maWxlLm1hZT4nLCAnLW9tYWUnLCAnPG91dGZpbGUubWFlPic=

> <r_lp_tautomer_probability>
1

> <r_epik_Ionization_Penalty>
0.00435795

> <r_epik_Ionization_Penalty_Charging>
0.00433655

> <r_epik_Ionization_Penalty_Neutral>
2.14019e-05

> <r_epik_State_Penalty>
0.00312208

> <r_epik_Charging_Adjusted_Penalty>
0.00745864

> <i_epik_Tot_Q>
1

> <i_epik_Tot_abs_Q>
1

> <r_epik_Metal_State_Penalty>
-0

> <b_epik_Metal_Only>
0

> <s_lp_Force_Field>
OPLS_2005

> <r_lp_Energy>
7.96618

> <b_lp_Chiralities_Consistent>
1

> <s_lp_Variant>
AV-unprocessed.smi:2287-1

> <Gold.Version>
5.8.1

> <Gold.Id.Protein>
6NUR|6NUR_protein|mol2

> <Gold.PLP.Fitness>
41.4667

> <Gold.PLP.PLP>
-30.1262

> <Gold.PLP.part.hbond>
-4.9314

> <Gold.PLP.part.metal>
0.0000

> <Gold.PLP.part.buried>
-2.9696

> <Gold.PLP.part.nonpolar>
-24.0333

> <Gold.PLP.part.repulsive>
1.1796

> <Gold.PLP.ligand.clash>
0.0000

> <Gold.PLP.ligand.torsion>
0.2189

> <Gold.PLP.Chemscore.Hbond>
3.8636

> <Gold.PLP.Chemscore.CHOScore>
0.0000

> <Gold.PLP.Chemscore.Metal>
0.0000

> <Gold.Chemscore.Hbonds>
donor molecule, donor type, donor heavy atom, donor atom, acceptor molecule, acceptor atom, score
      L1  H     2    38       P1  7948  2.00
      L1  H     6    29       P1  7948  0.98
      L1  H     9    30       P1  7948  0.88

> <Gold.PLP.Chemscore.Internal.Correction>
0.1877

> <Gold.Rescore>
     Score         DG    S(hbond)    S(metal)    S(lipo)     H(rot)  DE(clash)    DE(int)     intcor
     16.01     -17.93       2.71        0.00      66.70       1.73       0.31       1.61       ----

> <Gold.Chemscore.Fitness>
16.0065

> <Gold.Chemscore.DG>
-17.9258

> <Gold.Chemscore.ZeroCoef>
-5.4800

> <Gold.Chemscore.Hbond>
2.7126

> <Gold.Chemscore.Metal>
0.0000

> <Gold.Chemscore.Lipo>
66.7044

> <Gold.Chemscore.Internal_Hbond>
0.0000

> <Gold.Chemscore.DEClash>
0.3096

> <Gold.Chemscore.DEInternal>
1.6097

> <Gold.Chemscore.Rot>
1.7260

> <Gold.Chemscore.Internal.Correction>
   9.000000E+99

> <Gold.Chemscore.Hbonds>
donor molecule, donor type, donor heavy atom, donor atom, acceptor molecule, acceptor atom, score
      L1  H     2    38       P1  7948  0.91
      L1  H     6    29       P1  7948  0.92
      L1  H     9    30       P1  7948  0.81

> <Gold.Chemscore.Hbond.Weighted>
-9.0600

> <Gold.Chemscore.Metal.Weighted>
-0.0000

> <Gold.Chemscore.Lipo.Weighted>
-7.8044

> <Gold.Chemscore.Internal_Hbond.Weighted>
0.0000

> <Gold.Chemscore.DEClash.Weighted>
0.3096

> <Gold.Chemscore.DEInternal.Weighted>
1.6097

> <Gold.Chemscore.Rot.Weighted>
4.4186

> <Gold.Chemscore.Internal.Correction.Weighted>
   9.000000E+99

> <Gold.Protein.RotatedTorsions>
[ 6907 6896 6895 6894 ] final   84.28 input  -60.11 | X-H torsion
[ 7974 7965 7964 7962 ] final  106.38 input  175.53 | X-H torsion
[ 8008 7997 7996 7995 ] final  124.03 input   59.86 | X-H torsion
[ 10167 10162 10161 10158 ] final -135.01 input  -65.29 | X-H torsion
[ 10718 10713 10712 10709 ] final  -46.25 input   66.30 | X-H torsion
[ 10763 10752 10751 10750 ] final  -45.46 input  -60.55 | X-H torsion
[ 11005 11000 10999 10996 ] final   90.41 input  -57.11 | X-H torsion

> <Gold.Protein.ActiveResidues>
 VAL166  LYS551  ARG553  GLY616  TRP617  ASP618  TYR619  PRO620  LYS621  CYS622 
 ASP623  PHE694  ASN695  SER759  ASP760  ASP761  ALA762  ILE779  LEU786  VAL792 
 PHE793  MET794  SER795  GLU796  ALA797  LYS798  CYS799  TRP800  GLU811  SER814 

> <Gold.Protein.RotatedAtoms>
  152.5348  134.2765  159.8990 H   0  0  0  0  0  0  0  0  0  0  0  0  # atno 6907 bound_to 6896
  151.2720  133.4244  159.2629 H   0  0  0  0  0  0  0  0  0  0  0  0  # atno 6908 bound_to 6896
  151.0359  134.9588  159.8192 H   0  0  0  0  0  0  0  0  0  0  0  0  # atno 6909 bound_to 6896
  145.3074  139.2550  143.3781 H   0  0  0  0  0  0  0  0  0  0  0  0  # atno 7974 bound_to 7965
  156.2787  140.2749  156.1722 H   0  0  0  0  0  0  0  0  0  0  0  0  # atno 8008 bound_to 7997
  155.0643  140.0387  157.2605 H   0  0  0  0  0  0  0  0  0  0  0  0  # atno 8009 bound_to 7997
  154.7092  140.2665  155.6651 H   0  0  0  0  0  0  0  0  0  0  0  0  # atno 8010 bound_to 7997
  139.8822  143.6825  152.2625 H   0  0  0  0  0  0  0  0  0  0  0  0  # atno 10167 bound_to 10162
  156.2202  130.4165  149.9002 H   0  0  0  0  0  0  0  0  0  0  0  0  # atno 10718 bound_to 10713
  154.0290  135.6659  153.4779 H   0  0  0  0  0  0  0  0  0  0  0  0  # atno 10763 bound_to 10752
  153.0548  135.5062  154.7951 H   0  0  0  0  0  0  0  0  0  0  0  0  # atno 10764 bound_to 10752
  154.6890  135.3058  154.9471 H   0  0  0  0  0  0  0  0  0  0  0  0  # atno 10765 bound_to 10752
  139.8856  134.8612  156.3281 H   0  0  0  0  0  0  0  0  0  0  0  0  # atno 11005 bound_to 11000
  146.3130  140.3602  142.8664 LP  0  0  0  0  0  0  0  0  0  0  0  0  # atno 17320 bound_to 7965
  144.9044  140.7681  143.5847 LP  0  0  0  0  0  0  0  0  0  0  0  0  # atno 17321 bound_to 7965
  139.7185  144.7607  151.0993 LP  0  0  0  0  0  0  0  0  0  0  0  0  # atno 17342 bound_to 10162
  140.7742  143.5237  150.9505 LP  0  0  0  0  0  0  0  0  0  0  0  0  # atno 17343 bound_to 10162
  156.6651  130.8798  151.3553 LP  0  0  0  0  0  0  0  0  0  0  0  0  # atno 17370 bound_to 10713
  157.7083  130.9411  150.1005 LP  0  0  0  0  0  0  0  0  0  0  0  0  # atno 17371 bound_to 10713
  140.9741  133.7308  156.0577 LP  0  0  0  0  0  0  0  0  0  0  0  0  # atno 17394 bound_to 11000
  140.7833  134.3701  157.5482 LP  0  0  0  0  0  0  0  0  0  0  0  0  # atno 17395 bound_to 11000

$$$$
