AV-unprocessed.smi:1636|AV-procd|sdf|6542|dock4
  -GOLD-   22720 7223D 1   1.00000     0.00000
 Structure written by MMmdl.
 43 44  0  0  0  0  0  0  0  0  1 V2000
  151.5673  145.0195  159.4724 C   0  0  0  0  0  0  0  0  0  0  0  0
  152.4708  143.7928  159.3088 C   0  0  2  0  0  0  0  0  0  0  0  0
  151.6962  142.5685  158.7844 C   0  0  0  0  0  0  0  0  0  0  0  0
  152.5656  141.3946  158.7400 N   0  0  0  0  0  0  0  0  0  0  0  0
  152.1002  140.2530  158.0526 C   0  0  0  0  0  0  0  0  0  0  0  0
  151.1182  139.4219  158.6413 C   0  0  0  0  0  0  0  0  0  0  0  0
  150.6662  138.2895  157.9379 C   0  0  0  0  0  0  0  0  0  0  0  0
  151.2036  138.0090  156.6665 C   0  0  0  0  0  0  0  0  0  0  0  0
  150.7114  136.7927  155.8913 C   0  0  0  0  0  0  0  0  0  0  0  0
  149.5796  137.0369  155.0018 N   0  0  0  0  0  0  0  0  0  0  0  0
  148.5361  137.8281  155.2873 C   0  0  0  0  0  0  0  0  0  0  0  0
  148.4027  138.4372  156.3490 O   0  0  0  0  0  0  0  0  0  0  0  0
  147.6522  137.8691  154.2807 N   0  0  0  0  0  0  0  0  0  0  0  0
  146.4020  138.6212  154.2914 C   0  0  0  0  0  0  0  0  0  0  0  0
  146.5906  140.0326  154.8739 C   0  0  0  0  0  0  0  0  0  0  0  0
  147.7951  140.5971  154.4009 O   0  0  0  0  0  0  0  0  0  0  0  0
  152.1789  138.8952  156.1583 C   0  0  0  0  0  0  0  0  0  0  0  0
  152.6183  139.9808  156.8294 N   0  0  0  0  0  0  0  0  0  0  0  0
  153.2475  141.1317  160.0044 C   0  0  0  0  0  0  0  0  0  0  0  0
  153.9618  142.4001  160.5015 C   0  0  0  0  0  0  0  0  0  0  0  0
  153.0346  143.4780  160.5788 O   0  0  0  0  0  0  0  0  0  0  0  0
  151.1238  145.3095  158.5194 H   0  0  0  0  0  0  0  0  0  0  0  0
  152.1330  145.8721  159.8486 H   0  0  0  0  0  0  0  0  0  0  0  0
  150.7559  144.8218  160.1734 H   0  0  0  0  0  0  0  0  0  0  0  0
  153.2739  144.0446  158.6136 H   0  0  0  0  0  0  0  0  0  0  0  0
  150.8413  142.3589  159.4291 H   0  0  0  0  0  0  0  0  0  0  0  0
  151.3089  142.7846  157.7876 H   0  0  0  0  0  0  0  0  0  0  0  0
  150.7198  139.6312  159.6229 H   0  0  0  0  0  0  0  0  0  0  0  0
  149.9172  137.6441  158.3728 H   0  0  0  0  0  0  0  0  0  0  0  0
  151.5393  136.3683  155.3202 H   0  0  0  0  0  0  0  0  0  0  0  0
  150.4139  136.0302  156.6113 H   0  0  0  0  0  0  0  0  0  0  0  0
  149.5980  136.5774  154.1030 H   0  0  0  0  0  0  0  0  0  0  0  0
  147.8493  137.3301  153.4502 H   0  0  0  0  0  0  0  0  0  0  0  0
  146.0335  138.6991  153.2670 H   0  0  0  0  0  0  0  0  0  0  0  0
  145.6412  138.0646  154.8398 H   0  0  0  0  0  0  0  0  0  0  0  0
  145.7488  140.6892  154.6502 H   0  0  0  0  0  0  0  0  0  0  0  0
  146.6650  139.9723  155.9599 H   0  0  0  0  0  0  0  0  0  0  0  0
  148.2777  139.9293  153.9383 H   0  0  0  0  0  0  0  0  0  0  0  0
  152.6231  138.7410  155.1862 H   0  0  0  0  0  0  0  0  0  0  0  0
  152.5103  140.8069  160.7399 H   0  0  0  0  0  0  0  0  0  0  0  0
  153.9765  140.3279  159.9104 H   0  0  0  0  0  0  0  0  0  0  0  0
  154.3868  142.2274  161.4904 H   0  0  0  0  0  0  0  0  0  0  0  0
  154.7896  142.6647  159.8415 H   0  0  0  0  0  0  0  0  0  0  0  0
  1  2  1  0  0  0  0
  1 22  1  0  0  0  0
  1 23  1  0  0  0  0
  1 24  1  0  0  0  0
  2 21  1  0  0  0  0
  2  3  1  0  0  0  0
  2 25  1  0  0  0  0
  3  4  1  0  0  0  0
  3 26  1  0  0  0  0
  3 27  1  0  0  0  0
  4  5  1  0  0  0  0
  4 19  1  0  0  0  0
  5 18  1  0  0  0  0
  5  6  2  0  0  0  0
  6  7  1  0  0  0  0
  6 28  1  0  0  0  0
  7  8  2  0  0  0  0
  7 29  1  0  0  0  0
  8  9  1  0  0  0  0
  8 17  1  0  0  0  0
  9 10  1  0  0  0  0
  9 30  1  0  0  0  0
  9 31  1  0  0  0  0
 10 11  1  0  0  0  0
 10 32  1  0  0  0  0
 11 12  2  0  0  0  0
 11 13  1  0  0  0  0
 13 14  1  0  0  0  0
 13 33  1  0  0  0  0
 14 15  1  0  0  0  0
 14 34  1  0  0  0  0
 14 35  1  0  0  0  0
 15 16  1  0  0  0  0
 15 36  1  0  0  0  0
 15 37  1  0  0  0  0
 16 38  1  0  0  0  0
 17 18  2  0  0  0  0
 17 39  1  0  0  0  0
 19 20  1  0  0  0  0
 19 40  1  0  0  0  0
 19 41  1  0  0  0  0
 20 21  1  0  0  0  0
 20 42  1  0  0  0  0
 20 43  1  0  0  0  0
M  END
> <s_m_source_file>
AV-unprocessed.smi

> <i_m_source_file_index>
1636

> <i_lp_mmshare_version>
43012

> <i_f3d_flags>
0

> <s_epik_input>
W0NIM11bQ0BASF0xW0NIMl1OKFtDSDJdW0NIMl1PMSljMltjSF1bY0hdYyhbY0hdbjIpW0NIMl1bTkhdQyg9TylbTkhdW0NIMl1bQ0gyXVtPSF0=

> <s_epik_cmdline>
J2VwaWtfcHl0aG9uJywgJy1waCcsICc3LjAnLCAnLXRuJywgJzgnLCAnLW1hJywgJzIwMCcsICctbWV0YWxfYmluZGluZycsICctaW1hZScsICc8aW5maWxlLm1hZT4nLCAnLW9tYWUnLCAnPG91dGZpbGUubWFlPic=

> <r_lp_tautomer_probability>
1

> <r_epik_Ionization_Penalty>
0.00695222

> <r_epik_Ionization_Penalty_Charging>
0

> <r_epik_Ionization_Penalty_Neutral>
0.00695222

> <r_epik_State_Penalty>
0.00513345

> <r_epik_Charging_Adjusted_Penalty>
0.00513345

> <i_epik_Tot_Q>
0

> <i_epik_Tot_abs_Q>
0

> <r_epik_Metal_State_Penalty>
-0

> <b_epik_Metal_Only>
0

> <s_lp_Force_Field>
OPLS_2005

> <r_lp_Energy>
15.2616

> <b_lp_Chiralities_Consistent>
1

> <s_lp_Variant>
AV-unprocessed.smi:1636-1

> <Gold.Version>
5.8.1

> <Gold.Id.Protein>
6NUR|6NUR_protein|mol2

> <Gold.PLP.Fitness>
50.2406

> <Gold.PLP.PLP>
-38.4491

> <Gold.PLP.part.hbond>
-6.0813

> <Gold.PLP.part.metal>
0.0000

> <Gold.PLP.part.buried>
-3.5793

> <Gold.PLP.part.nonpolar>
-28.8407

> <Gold.PLP.part.repulsive>
0.1209

> <Gold.PLP.ligand.clash>
0.0000

> <Gold.PLP.ligand.torsion>
0.9181

> <Gold.PLP.Chemscore.Hbond>
4.4240

> <Gold.PLP.Chemscore.CHOScore>
0.0000

> <Gold.PLP.Chemscore.Metal>
0.0000

> <Gold.Chemscore.Hbonds>
donor molecule, donor type, donor heavy atom, donor atom, acceptor molecule, acceptor atom, score
      L1  H    10    32       P1  7948  0.26
      L1  H    13    33       P1  7948  0.52
      P1  H  7997  8008       L1    18  1.00

> <Gold.PLP.Chemscore.Internal.Correction>
0.3556

> <Gold.Rescore>
     Score         DG    S(hbond)    S(metal)    S(lipo)     H(rot)  DE(clash)    DE(int)     intcor
     17.21     -22.42       4.02        0.00      90.94       2.78       0.26       4.94       ----

> <Gold.Chemscore.Fitness>
17.2144

> <Gold.Chemscore.DG>
-22.4181

> <Gold.Chemscore.ZeroCoef>
-5.4800

> <Gold.Chemscore.Hbond>
4.0185

> <Gold.Chemscore.Metal>
0.0000

> <Gold.Chemscore.Lipo>
90.9434

> <Gold.Chemscore.Internal_Hbond>
0.0000

> <Gold.Chemscore.DEClash>
0.2637

> <Gold.Chemscore.DEInternal>
4.9401

> <Gold.Chemscore.Rot>
2.7828

> <Gold.Chemscore.Internal.Correction>
   9.000000E+99

> <Gold.Chemscore.Hbonds>
donor molecule, donor type, donor heavy atom, donor atom, acceptor molecule, acceptor atom, score
      L1  H    10    32       P1  7948  0.19
      L1  H    13    33       P1  7948  0.52
      P1  H  7997  8008       L1    18  0.64

> <Gold.Chemscore.Hbond.Weighted>
-13.4219

> <Gold.Chemscore.Metal.Weighted>
-0.0000

> <Gold.Chemscore.Lipo.Weighted>
-10.6404

> <Gold.Chemscore.Internal_Hbond.Weighted>
0.0000

> <Gold.Chemscore.DEClash.Weighted>
0.2637

> <Gold.Chemscore.DEInternal.Weighted>
4.9401

> <Gold.Chemscore.Rot.Weighted>
7.1241

> <Gold.Chemscore.Internal.Correction.Weighted>
   9.000000E+99

> <Gold.Protein.RotatedTorsions>
[ 6907 6896 6895 6894 ] final   71.49 input  -60.11 | X-H torsion
[ 7974 7965 7964 7962 ] final   90.55 input  175.53 | X-H torsion
[ 8008 7997 7996 7995 ] final  -56.29 input   59.86 | X-H torsion
[ 10167 10162 10161 10158 ] final -146.52 input  -65.29 | X-H torsion
[ 10718 10713 10712 10709 ] final -179.65 input   66.30 | X-H torsion
[ 10763 10752 10751 10750 ] final  108.88 input  -60.55 | X-H torsion
[ 11005 11000 10999 10996 ] final  129.69 input  -57.11 | X-H torsion

> <Gold.Protein.ActiveResidues>
 VAL166  LYS551  ARG553  GLY616  TRP617  ASP618  TYR619  PRO620  LYS621  CYS622 
 ASP623  PHE694  ASN695  SER759  ASP760  ASP761  ALA762  ILE779  LEU786  VAL792 
 PHE793  MET794  SER795  GLU796  ALA797  LYS798  CYS799  TRP800  GLU811  SER814 

> <Gold.Protein.RotatedAtoms>
  152.4813  134.4712  159.9635 H   0  0  0  0  0  0  0  0  0  0  0  0  # atno 6907 bound_to 6896
  151.4717  133.3561  159.2832 H   0  0  0  0  0  0  0  0  0  0  0  0  # atno 6908 bound_to 6896
  150.8888  134.8314  159.7339 H   0  0  0  0  0  0  0  0  0  0  0  0  # atno 6909 bound_to 6896
  145.5175  139.2278  143.2690 H   0  0  0  0  0  0  0  0  0  0  0  0  # atno 7974 bound_to 7965
  154.4225  140.1133  156.5613 H   0  0  0  0  0  0  0  0  0  0  0  0  # atno 8008 bound_to 7997
  155.6308  140.3495  155.4663 H   0  0  0  0  0  0  0  0  0  0  0  0  # atno 8009 bound_to 7997
  155.9949  140.1187  157.0592 H   0  0  0  0  0  0  0  0  0  0  0  0  # atno 8010 bound_to 7997
  139.7705  143.8244  152.2623 H   0  0  0  0  0  0  0  0  0  0  0  0  # atno 10167 bound_to 10162
  156.8622  130.9755  151.3082 H   0  0  0  0  0  0  0  0  0  0  0  0  # atno 10718 bound_to 10713
  153.4269  135.3798  155.2146 H   0  0  0  0  0  0  0  0  0  0  0  0  # atno 10763 bound_to 10752
  154.8748  135.3830  154.4315 H   0  0  0  0  0  0  0  0  0  0  0  0  # atno 10764 bound_to 10752
  153.4842  135.7088  153.5983 H   0  0  0  0  0  0  0  0  0  0  0  0  # atno 10765 bound_to 10752
  139.9629  134.9598  156.9185 H   0  0  0  0  0  0  0  0  0  0  0  0  # atno 11005 bound_to 11000
  146.2127  140.5985  142.9052 LP  0  0  0  0  0  0  0  0  0  0  0  0  # atno 17320 bound_to 7965
  144.7694  140.5604  143.6680 LP  0  0  0  0  0  0  0  0  0  0  0  0  # atno 17321 bound_to 7965
  139.8277  144.7268  150.9490 LP  0  0  0  0  0  0  0  0  0  0  0  0  # atno 17342 bound_to 10162
  140.7813  143.4099  151.1010 LP  0  0  0  0  0  0  0  0  0  0  0  0  # atno 17343 bound_to 10162
  157.6243  130.8679  149.9163 LP  0  0  0  0  0  0  0  0  0  0  0  0  # atno 17370 bound_to 10713
  156.0770  130.3677  150.0657 LP  0  0  0  0  0  0  0  0  0  0  0  0  # atno 17371 bound_to 10713
  140.5459  134.0674  155.7355 LP  0  0  0  0  0  0  0  0  0  0  0  0  # atno 17394 bound_to 11000
  141.1308  133.9306  157.2540 LP  0  0  0  0  0  0  0  0  0  0  0  0  # atno 17395 bound_to 11000

$$$$
