AV-unprocessed.smi:1983|AV-procd|sdf|8035|dock8
  -GOLD-   2272010233D 1   1.00000     0.00000
 Structure written by MMmdl.
 50 51  0  0  0  0  0  0  0  0  2 V2000
  147.0971  135.3262  155.8142 C   0  0  0  0  0  0  0  0  0  0  0  0
  148.2436  134.9455  154.8643 C   0  0  1  0  0  0  0  0  0  0  0  0
  147.7917  134.0679  153.6782 C   0  0  0  0  0  0  0  0  0  0  0  0
  146.8732  134.7503  152.8485 O   0  0  0  0  0  0  0  0  0  0  0  0
  148.9387  136.1439  154.4001 N   0  0  0  0  0  0  0  0  0  0  0  0
  150.1586  136.5360  154.7929 C   0  0  0  0  0  0  0  0  0  0  0  0
  150.8530  135.9274  155.6076 O   0  0  0  0  0  0  0  0  0  0  0  0
  150.5382  137.6683  154.1843 N   0  0  0  0  0  0  0  0  0  0  0  0
  151.8109  138.3457  154.4103 C   0  0  0  0  0  0  0  0  0  0  0  0
  151.8343  139.2372  155.6440 C   0  0  0  0  0  0  0  0  0  0  0  0
  152.5148  138.8159  156.8070 C   0  0  0  0  0  0  0  0  0  0  0  0
  152.5337  139.6503  157.9433 C   0  0  0  0  0  0  0  0  0  0  0  0
  151.8665  140.8967  157.8990 C   0  0  0  0  0  0  0  0  0  0  0  0
  151.8303  141.7941  158.9742 N   0  0  0  0  0  0  0  0  0  0  0  0
  152.0434  143.1833  158.5895 C   0  0  0  0  0  0  0  0  0  0  0  0
  151.8648  144.1015  159.8127 C   0  0  2  0  0  0  0  0  0  0  0  0
  152.1696  145.5666  159.4835 C   0  0  0  0  0  0  0  0  0  0  0  0
  152.7571  143.6770  160.8406 O   0  0  0  0  0  0  0  0  0  0  0  0
  152.5047  142.3415  161.2729 C   0  0  2  0  0  0  0  0  0  0  0  0
  153.4650  142.0176  162.4219 C   0  0  0  0  0  0  0  0  0  0  0  0
  152.6845  141.3832  160.0799 C   0  0  0  0  0  0  0  0  0  0  0  0
  151.2159  141.2566  156.7709 N   0  3  0  0  0  0  0  0  0  0  0  0
  151.1752  140.4869  155.6617 C   0  0  0  0  0  0  0  0  0  0  0  0
  146.5857  134.4377  156.1853 H   0  0  0  0  0  0  0  0  0  0  0  0
  146.3554  135.9555  155.3209 H   0  0  0  0  0  0  0  0  0  0  0  0
  147.4721  135.8741  156.6792 H   0  0  0  0  0  0  0  0  0  0  0  0
  148.9539  134.3587  155.4501 H   0  0  0  0  0  0  0  0  0  0  0  0
  148.6433  133.7399  153.0811 H   0  0  0  0  0  0  0  0  0  0  0  0
  147.3046  133.1662  154.0505 H   0  0  0  0  0  0  0  0  0  0  0  0
  147.3594  135.2498  152.2103 H   0  0  0  0  0  0  0  0  0  0  0  0
  148.4523  136.7114  153.7215 H   0  0  0  0  0  0  0  0  0  0  0  0
  149.8988  138.0977  153.5313 H   0  0  0  0  0  0  0  0  0  0  0  0
  152.5856  137.5869  154.5220 H   0  0  0  0  0  0  0  0  0  0  0  0
  152.0729  138.9270  153.5243 H   0  0  0  0  0  0  0  0  0  0  0  0
  153.0233  137.8631  156.8294 H   0  0  0  0  0  0  0  0  0  0  0  0
  153.0533  139.3311  158.8350 H   0  0  0  0  0  0  0  0  0  0  0  0
  153.0466  143.3062  158.1793 H   0  0  0  0  0  0  0  0  0  0  0  0
  151.3365  143.4586  157.8056 H   0  0  0  0  0  0  0  0  0  0  0  0
  150.8386  144.0339  160.1786 H   0  0  0  0  0  0  0  0  0  0  0  0
  151.5033  145.9410  158.7060 H   0  0  0  0  0  0  0  0  0  0  0  0
  153.1951  145.6884  159.1334 H   0  0  0  0  0  0  0  0  0  0  0  0
  152.0409  146.1978  160.3631 H   0  0  0  0  0  0  0  0  0  0  0  0
  151.4811  142.2754  161.6467 H   0  0  0  0  0  0  0  0  0  0  0  0
  153.3057  141.0051  162.7937 H   0  0  0  0  0  0  0  0  0  0  0  0
  153.3188  142.7040  163.2564 H   0  0  0  0  0  0  0  0  0  0  0  0
  154.5047  142.0978  162.1033 H   0  0  0  0  0  0  0  0  0  0  0  0
  152.4361  140.3636  160.3778 H   0  0  0  0  0  0  0  0  0  0  0  0
  153.7263  141.3801  159.7553 H   0  0  0  0  0  0  0  0  0  0  0  0
  150.6228  140.8956  154.8281 H   0  0  0  0  0  0  0  0  0  0  0  0
  150.7349  142.1562  156.7540 H   0  0  0  0  0  0  0  0  0  0  0  0
  1  2  1  0  0  0  0
  1 24  1  0  0  0  0
  1 25  1  0  0  0  0
  1 26  1  0  0  0  0
  2  3  1  0  0  0  0
  2  5  1  0  0  0  0
  2 27  1  0  0  0  0
  3  4  1  0  0  0  0
  3 28  1  0  0  0  0
  3 29  1  0  0  0  0
  4 30  1  0  0  0  0
  5  6  1  0  0  0  0
  5 31  1  0  0  0  0
  6  7  2  0  0  0  0
  6  8  1  0  0  0  0
  8  9  1  0  0  0  0
  8 32  1  0  0  0  0
  9 10  1  0  0  0  0
  9 33  1  0  0  0  0
  9 34  1  0  0  0  0
 10 23  1  0  0  0  0
 10 11  2  0  0  0  0
 11 12  1  0  0  0  0
 11 35  1  0  0  0  0
 12 13  2  0  0  0  0
 12 36  1  0  0  0  0
 13 14  1  0  0  0  0
 13 22  1  0  0  0  0
 14 21  1  0  0  0  0
 14 15  1  0  0  0  0
 15 16  1  0  0  0  0
 15 37  1  0  0  0  0
 15 38  1  0  0  0  0
 16 17  1  0  0  0  0
 16 18  1  0  0  0  0
 16 39  1  0  0  0  0
 17 40  1  0  0  0  0
 17 41  1  0  0  0  0
 17 42  1  0  0  0  0
 18 19  1  0  0  0  0
 19 20  1  0  0  0  0
 19 21  1  0  0  0  0
 19 43  1  0  0  0  0
 20 44  1  0  0  0  0
 20 45  1  0  0  0  0
 20 46  1  0  0  0  0
 21 47  1  0  0  0  0
 21 48  1  0  0  0  0
 22 23  2  0  0  0  0
 22 50  1  0  0  0  0
 23 49  1  0  0  0  0
M  CHG  1  22   1
M  END
> <s_m_source_file>
AV-unprocessed.smi

> <i_m_source_file_index>
1983

> <i_lp_mmshare_version>
43012

> <i_f3d_flags>
0

> <s_epik_input>
W09IXVtDSDJdW0NAQEhdKFtDSDNdKVtOSF1DKD1PKVtOSF1bQ0gyXWMxW2NIXVtjSF1jKG5bY0hdMSlOMltDSDJdW0NAQEhdKFtDSDNdKU9bQ0BASF0oW0NIM10pW0NIMl0y

> <s_epik_cmdline>
J2VwaWtfcHl0aG9uJywgJy1waCcsICc3LjAnLCAnLXRuJywgJzgnLCAnLW1hJywgJzIwMCcsICctbWV0YWxfYmluZGluZycsICctaW1hZScsICc8aW5maWxlLm1hZT4nLCAnLW9tYWUnLCAnPG91dGZpbGUubWFlPic=

> <r_lp_tautomer_probability>
0.999994

> <r_epik_Ionization_Penalty>
2.55677

> <r_epik_Ionization_Penalty_Charging>
2.55673

> <r_epik_Ionization_Penalty_Neutral>
3.71772e-05

> <r_epik_State_Penalty>
2.72571

> <r_epik_Charging_Adjusted_Penalty>
5.28244

> <i_epik_Tot_Q>
1

> <i_epik_Tot_abs_Q>
1

> <r_epik_Metal_State_Penalty>
2.73364

> <b_epik_Metal_Only>
0

> <s_lp_Force_Field>
OPLS_2005

> <r_lp_Energy>
22.1941

> <b_lp_Chiralities_Consistent>
1

> <s_lp_Variant>
AV-unprocessed.smi:1983-8

> <Gold.Version>
5.8.1

> <Gold.Id.Protein>
6NUR|6NUR_protein|mol2

> <Gold.PLP.Fitness>
51.9477

> <Gold.PLP.PLP>
-45.1490

> <Gold.PLP.part.hbond>
-4.4069

> <Gold.PLP.part.metal>
0.0000

> <Gold.PLP.part.buried>
-2.0045

> <Gold.PLP.part.nonpolar>
-38.9153

> <Gold.PLP.part.repulsive>
0.3583

> <Gold.PLP.ligand.clash>
0.0000

> <Gold.PLP.ligand.torsion>
0.6982

> <Gold.PLP.Chemscore.Hbond>
2.6800

> <Gold.PLP.Chemscore.CHOScore>
0.0000

> <Gold.PLP.Chemscore.Metal>
0.0000

> <Gold.Chemscore.Hbonds>
donor molecule, donor type, donor heavy atom, donor atom, acceptor molecule, acceptor atom, score
      L1  H     4    30       P1  7948  0.93
      L1  H     5    31       P1  7948  0.22
      P1  H 10752 10764       L1     7  0.28

> <Gold.PLP.Chemscore.Internal.Correction>
0.1551

> <Gold.Rescore>
     Score         DG    S(hbond)    S(metal)    S(lipo)     H(rot)  DE(clash)    DE(int)     intcor
     17.71     -18.46       2.13        0.00     108.47       2.66       0.16       0.59       ----

> <Gold.Chemscore.Fitness>
17.7085

> <Gold.Chemscore.DG>
-18.4600

> <Gold.Chemscore.ZeroCoef>
-5.4800

> <Gold.Chemscore.Hbond>
2.1281

> <Gold.Chemscore.Metal>
0.0000

> <Gold.Chemscore.Lipo>
108.4718

> <Gold.Chemscore.Internal_Hbond>
0.0000

> <Gold.Chemscore.DEClash>
0.1626

> <Gold.Chemscore.DEInternal>
0.5890

> <Gold.Chemscore.Rot>
2.6637

> <Gold.Chemscore.Internal.Correction>
   9.000000E+99

> <Gold.Chemscore.Hbonds>
donor molecule, donor type, donor heavy atom, donor atom, acceptor molecule, acceptor atom, score
      L1  H     4    30       P1  7948  0.91
      L1  H     5    31       P1  7948  0.22
      P1  H 10752 10764       L1     7  0.24

> <Gold.Chemscore.Hbond.Weighted>
-7.1079

> <Gold.Chemscore.Metal.Weighted>
-0.0000

> <Gold.Chemscore.Lipo.Weighted>
-12.6912

> <Gold.Chemscore.Internal_Hbond.Weighted>
0.0000

> <Gold.Chemscore.DEClash.Weighted>
0.1626

> <Gold.Chemscore.DEInternal.Weighted>
0.5890

> <Gold.Chemscore.Rot.Weighted>
6.8191

> <Gold.Chemscore.Internal.Correction.Weighted>
   9.000000E+99

> <Gold.Protein.RotatedTorsions>
[ 6907 6896 6895 6894 ] final   32.65 input  -60.11 | X-H torsion
[ 7974 7965 7964 7962 ] final  175.61 input  175.53 | X-H torsion
[ 8008 7997 7996 7995 ] final  -14.02 input   59.86 | X-H torsion
[ 10167 10162 10161 10158 ] final -169.13 input  -65.29 | X-H torsion
[ 10718 10713 10712 10709 ] final  -54.51 input   66.30 | X-H torsion
[ 10763 10752 10751 10750 ] final  -41.93 input  -60.55 | X-H torsion
[ 11005 11000 10999 10996 ] final  167.95 input  -57.11 | X-H torsion

> <Gold.Protein.ActiveResidues>
 VAL166  LYS551  ARG553  GLY616  TRP617  ASP618  TYR619  PRO620  LYS621  CYS622 
 ASP623  PHE694  ASN695  SER759  ASP760  ASP761  ALA762  ILE779  LEU786  VAL792 
 PHE793  MET794  SER795  GLU796  ALA797  LYS798  CYS799  TRP800  GLU811  SER814 

> <Gold.Protein.RotatedAtoms>
  152.0774  134.9494  160.0573 H   0  0  0  0  0  0  0  0  0  0  0  0  # atno 6907 bound_to 6896
  152.0796  133.4141  159.4503 H   0  0  0  0  0  0  0  0  0  0  0  0  # atno 6908 bound_to 6896
  150.6836  134.2917  159.4713 H   0  0  0  0  0  0  0  0  0  0  0  0  # atno 6909 bound_to 6896
  144.7198  139.9972  143.6440 H   0  0  0  0  0  0  0  0  0  0  0  0  # atno 7974 bound_to 7965
  154.5244  140.2234  155.8916 H   0  0  0  0  0  0  0  0  0  0  0  0  # atno 8008 bound_to 7997
  156.1697  140.3124  155.8917 H   0  0  0  0  0  0  0  0  0  0  0  0  # atno 8009 bound_to 7997
  155.3583  140.0459  157.3037 H   0  0  0  0  0  0  0  0  0  0  0  0  # atno 8010 bound_to 7997
  139.5941  144.1149  152.1669 H   0  0  0  0  0  0  0  0  0  0  0  0  # atno 10167 bound_to 10162
  156.1444  130.4153  150.0048 H   0  0  0  0  0  0  0  0  0  0  0  0  # atno 10718 bound_to 10713
  153.9707  135.6728  153.4747 H   0  0  0  0  0  0  0  0  0  0  0  0  # atno 10763 bound_to 10752
  153.0794  135.4931  154.8468 H   0  0  0  0  0  0  0  0  0  0  0  0  # atno 10764 bound_to 10752
  154.7220  135.3119  154.8992 H   0  0  0  0  0  0  0  0  0  0  0  0  # atno 10765 bound_to 10752
  140.2822  134.7741  157.3767 H   0  0  0  0  0  0  0  0  0  0  0  0  # atno 11005 bound_to 11000
  146.0364  139.3381  143.0724 LP  0  0  0  0  0  0  0  0  0  0  0  0  # atno 17320 bound_to 7965
  145.8389  140.9591  143.0810 LP  0  0  0  0  0  0  0  0  0  0  0  0  # atno 17321 bound_to 7965
  140.0730  144.5763  150.7178 LP  0  0  0  0  0  0  0  0  0  0  0  0  # atno 17342 bound_to 10162
  140.7198  143.2578  151.4317 LP  0  0  0  0  0  0  0  0  0  0  0  0  # atno 17343 bound_to 10162
  156.7924  130.9261  151.3646 LP  0  0  0  0  0  0  0  0  0  0  0  0  # atno 17370 bound_to 10713
  157.6604  130.8961  149.9818 LP  0  0  0  0  0  0  0  0  0  0  0  0  # atno 17371 bound_to 10713
  140.1273  134.5141  155.8134 LP  0  0  0  0  0  0  0  0  0  0  0  0  # atno 17394 bound_to 11000
  141.2161  133.6777  156.6975 LP  0  0  0  0  0  0  0  0  0  0  0  0  # atno 17395 bound_to 11000

$$$$
