AV-unprocessed.smi:2837|AV-procd|sdf|10922|dock4
  -GOLD-   2272015373D 1   1.00000     0.00000
 Structure written by MMmdl.
 32 34  0  0  0  0  0  0  0  0  1 V2000
  154.4820  139.6846  160.7361 F   0  0  0  0  0  0  0  0  0  0  0  0
  153.5496  140.5329  160.2375 C   0  0  0  0  0  0  0  0  0  0  0  0
  153.8937  141.7873  160.6159 F   0  0  0  0  0  0  0  0  0  0  0  0
  153.5144  140.4558  158.8806 O   0  0  0  0  0  0  0  0  0  0  0  0
  152.4297  140.9693  158.2070 C   0  0  0  0  0  0  0  0  0  0  0  0
  151.9441  142.2858  158.3882 C   0  0  0  0  0  0  0  0  0  0  0  0
  150.8167  142.7056  157.6565 C   0  0  0  0  0  0  0  0  0  0  0  0
  150.2021  141.7967  156.7712 C   0  0  0  0  0  0  0  0  0  0  0  0
  149.0841  142.2244  156.0410 N   0  0  0  0  0  0  0  0  0  0  0  0
  148.2126  141.2693  155.3630 C   0  0  2  0  0  0  0  0  0  0  0  0
  148.2565  141.3975  153.8386 C   0  0  0  0  0  0  0  0  0  0  0  0
  146.7703  141.5645  153.4926 C   0  0  2  0  0  0  0  0  0  0  0  0
  146.2619  142.9656  153.8561 C   0  0  0  0  0  0  0  0  0  0  0  0
  146.2024  142.8884  155.3804 C   0  0  0  0  0  0  0  0  0  0  0  0
  146.7086  141.4604  155.6468 C   0  0  1  0  0  0  0  0  0  0  0  0
  146.1661  140.7946  154.5186 O   0  0  0  0  0  0  0  0  0  0  0  0
  150.6563  140.5334  156.6001 N   0  0  0  0  0  0  0  0  0  0  0  0
  151.7363  140.1367  157.3058 C   0  0  0  0  0  0  0  0  0  0  0  0
  152.5788  140.3063  160.6794 H   0  0  0  0  0  0  0  0  0  0  0  0
  152.4161  142.9705  159.0769 H   0  0  0  0  0  0  0  0  0  0  0  0
  150.4319  143.7077  157.7789 H   0  0  0  0  0  0  0  0  0  0  0  0
  148.7553  143.1719  156.1571 H   0  0  0  0  0  0  0  0  0  0  0  0
  148.5086  140.2543  155.6324 H   0  0  0  0  0  0  0  0  0  0  0  0
  148.8558  142.2368  153.4826 H   0  0  0  0  0  0  0  0  0  0  0  0
  148.6582  140.4853  153.3961 H   0  0  0  0  0  0  0  0  0  0  0  0
  146.5136  141.2497  152.4808 H   0  0  0  0  0  0  0  0  0  0  0  0
  146.9246  143.7539  153.4974 H   0  0  0  0  0  0  0  0  0  0  0  0
  145.2678  143.1389  153.4430 H   0  0  0  0  0  0  0  0  0  0  0  0
  146.8019  143.6553  155.8713 H   0  0  0  0  0  0  0  0  0  0  0  0
  145.1734  142.9985  155.7242 H   0  0  0  0  0  0  0  0  0  0  0  0
  146.3823  141.0496  156.6025 H   0  0  0  0  0  0  0  0  0  0  0  0
  152.0623  139.1201  157.1422 H   0  0  0  0  0  0  0  0  0  0  0  0
  1  2  1  0  0  0  0
  2  3  1  0  0  0  0
  2  4  1  0  0  0  0
  2 19  1  0  0  0  0
  4  5  1  0  0  0  0
  5 18  1  0  0  0  0
  5  6  2  0  0  0  0
  6  7  1  0  0  0  0
  6 20  1  0  0  0  0
  7  8  2  0  0  0  0
  7 21  1  0  0  0  0
  8  9  1  0  0  0  0
  8 17  1  0  0  0  0
  9 10  1  0  0  0  0
  9 22  1  0  0  0  0
 10 15  1  0  0  0  0
 10 11  1  0  0  0  0
 10 23  1  0  0  0  0
 11 12  1  0  0  0  0
 11 24  1  0  0  0  0
 11 25  1  0  0  0  0
 12 16  1  0  0  0  0
 12 13  1  0  0  0  0
 12 26  1  0  0  0  0
 13 14  1  0  0  0  0
 13 27  1  0  0  0  0
 13 28  1  0  0  0  0
 14 15  1  0  0  0  0
 14 29  1  0  0  0  0
 14 30  1  0  0  0  0
 15 16  1  0  0  0  0
 15 31  1  0  0  0  0
 17 18  2  0  0  0  0
 18 32  1  0  0  0  0
M  END
> <s_m_source_file>
AV-unprocessed.smi

> <i_m_source_file_index>
2837

> <i_lp_mmshare_version>
43012

> <i_f3d_flags>
0

> <s_epik_input>
RltDSF0oRilPYzFbY0hdW2NIXWMobltjSF0xKVtOSF1bQ0BIXShbQ0gyXVtDQEBIXTIzKVtDQEBIXShPMylbQ0gyXVtDSDJdMg==

> <s_epik_cmdline>
J2VwaWtfcHl0aG9uJywgJy1waCcsICc3LjAnLCAnLXRuJywgJzgnLCAnLW1hJywgJzIwMCcsICctbWV0YWxfYmluZGluZycsICctaW1hZScsICc8aW5maWxlLm1hZT4nLCAnLW9tYWUnLCAnPG91dGZpbGUubWFlPic=

> <r_lp_tautomer_probability>
1

> <r_epik_Ionization_Penalty>
0.0124072

> <r_epik_Ionization_Penalty_Charging>
0

> <r_epik_Ionization_Penalty_Neutral>
0.0124072

> <r_epik_State_Penalty>
0.00959565

> <r_epik_Charging_Adjusted_Penalty>
0.00959565

> <i_epik_Tot_Q>
0

> <i_epik_Tot_abs_Q>
0

> <r_epik_Metal_State_Penalty>
9.67369e-06

> <b_epik_Metal_Only>
0

> <s_lp_Force_Field>
OPLS_2005

> <r_lp_Energy>
39.9144

> <b_lp_Chiralities_Consistent>
1

> <s_lp_Variant>
AV-unprocessed.smi:2837-3

> <Gold.Version>
5.8.1

> <Gold.Id.Protein>
6NUR|6NUR_protein|mol2

> <Gold.PLP.Fitness>
37.5451

> <Gold.PLP.PLP>
-33.6144

> <Gold.PLP.part.hbond>
-1.9842

> <Gold.PLP.part.metal>
0.0000

> <Gold.PLP.part.buried>
-3.1111

> <Gold.PLP.part.nonpolar>
-26.9902

> <Gold.PLP.part.repulsive>
0.2327

> <Gold.PLP.ligand.clash>
0.0000

> <Gold.PLP.ligand.torsion>
0.3017

> <Gold.PLP.Chemscore.Hbond>
1.5030

> <Gold.PLP.Chemscore.CHOScore>
0.0000

> <Gold.PLP.Chemscore.Metal>
0.0000

> <Gold.Chemscore.Hbonds>
donor molecule, donor type, donor heavy atom, donor atom, acceptor molecule, acceptor atom, score
      L1  H     9    22       P1  8028  0.93
      P1  H  7997  8010       L1     4  0.53

> <Gold.PLP.Chemscore.Internal.Correction>
0.0251

> <Gold.Rescore>
     Score         DG    S(hbond)    S(metal)    S(lipo)     H(rot)  DE(clash)    DE(int)     intcor
     13.98     -14.46       1.10        0.00      74.22       1.32       0.03       0.45       ----

> <Gold.Chemscore.Fitness>
13.9772

> <Gold.Chemscore.DG>
-14.4562

> <Gold.Chemscore.ZeroCoef>
-5.4800

> <Gold.Chemscore.Hbond>
1.1004

> <Gold.Chemscore.Metal>
0.0000

> <Gold.Chemscore.Lipo>
74.2167

> <Gold.Chemscore.Internal_Hbond>
0.0000

> <Gold.Chemscore.DEClash>
0.0318

> <Gold.Chemscore.DEInternal>
0.4472

> <Gold.Chemscore.Rot>
1.3213

> <Gold.Chemscore.Internal.Correction>
   9.000000E+99

> <Gold.Chemscore.Hbonds>
donor molecule, donor type, donor heavy atom, donor atom, acceptor molecule, acceptor atom, score
      L1  H     9    22       P1  8028  0.89
      P1  H  7997  8010       L1     4  0.12

> <Gold.Chemscore.Hbond.Weighted>
-3.6753

> <Gold.Chemscore.Metal.Weighted>
-0.0000

> <Gold.Chemscore.Lipo.Weighted>
-8.6834

> <Gold.Chemscore.Internal_Hbond.Weighted>
0.0000

> <Gold.Chemscore.DEClash.Weighted>
0.0318

> <Gold.Chemscore.DEInternal.Weighted>
0.4472

> <Gold.Chemscore.Rot.Weighted>
3.3825

> <Gold.Chemscore.Internal.Correction.Weighted>
   9.000000E+99

> <Gold.Protein.RotatedTorsions>
[ 6907 6896 6895 6894 ] final   56.04 input  -60.11 | X-H torsion
[ 7974 7965 7964 7962 ] final   17.82 input  175.53 | X-H torsion
[ 8008 7997 7996 7995 ] final   18.45 input   59.86 | X-H torsion
[ 10167 10162 10161 10158 ] final  134.09 input  -65.29 | X-H torsion
[ 10718 10713 10712 10709 ] final  -43.01 input   66.30 | X-H torsion
[ 10763 10752 10751 10750 ] final  168.49 input  -60.55 | X-H torsion
[ 11005 11000 10999 10996 ] final   92.32 input  -57.11 | X-H torsion

> <Gold.Protein.ActiveResidues>
 VAL166  LYS551  ARG553  GLY616  TRP617  ASP618  TYR619  PRO620  LYS621  CYS622 
 ASP623  PHE694  ASN695  SER759  ASP760  ASP761  ALA762  ILE779  LEU786  VAL792 
 PHE793  MET794  SER795  GLU796  ALA797  LYS798  CYS799  TRP800  GLU811  SER814 

> <Gold.Protein.RotatedAtoms>
  152.3597  134.6889  160.0210 H   0  0  0  0  0  0  0  0  0  0  0  0  # atno 6907 bound_to 6896
  151.7216  133.3309  159.3325 H   0  0  0  0  0  0  0  0  0  0  0  0  # atno 6908 bound_to 6896
  150.7596  134.6377  159.6264 H   0  0  0  0  0  0  0  0  0  0  0  0  # atno 6909 bound_to 6896
  146.2206  139.8547  142.8616 H   0  0  0  0  0  0  0  0  0  0  0  0  # atno 7974 bound_to 7965
  154.9063  140.3007  155.5290 H   0  0  0  0  0  0  0  0  0  0  0  0  # atno 8008 bound_to 7997
  156.3017  140.2397  156.4032 H   0  0  0  0  0  0  0  0  0  0  0  0  # atno 8009 bound_to 7997
  154.8471  140.0411  157.1568 H   0  0  0  0  0  0  0  0  0  0  0  0  # atno 8010 bound_to 7997
  139.5270  144.6584  151.5090 H   0  0  0  0  0  0  0  0  0  0  0  0  # atno 10167 bound_to 10162
  156.2535  130.4190  149.8622 H   0  0  0  0  0  0  0  0  0  0  0  0  # atno 10718 bound_to 10713
  154.3693  135.2753  155.2275 H   0  0  0  0  0  0  0  0  0  0  0  0  # atno 10763 bound_to 10752
  154.4430  135.5949  153.6145 H   0  0  0  0  0  0  0  0  0  0  0  0  # atno 10764 bound_to 10752
  152.9839  135.6023  154.3922 H   0  0  0  0  0  0  0  0  0  0  0  0  # atno 10765 bound_to 10752
  139.8825  134.8726  156.3556 H   0  0  0  0  0  0  0  0  0  0  0  0  # atno 11005 bound_to 11000
  145.2766  141.0125  143.3741 LP  0  0  0  0  0  0  0  0  0  0  0  0  # atno 17320 bound_to 7965
  144.9182  139.4444  143.6554 LP  0  0  0  0  0  0  0  0  0  0  0  0  # atno 17321 bound_to 7965
  140.6420  143.8869  150.6701 LP  0  0  0  0  0  0  0  0  0  0  0  0  # atno 17342 bound_to 10162
  140.2207  143.3811  152.1645 LP  0  0  0  0  0  0  0  0  0  0  0  0  # atno 17343 bound_to 10162
  156.6162  130.8607  151.3465 LP  0  0  0  0  0  0  0  0  0  0  0  0  # atno 17370 bound_to 10713
  157.7224  130.9576  150.1492 LP  0  0  0  0  0  0  0  0  0  0  0  0  # atno 17371 bound_to 10713
  140.9564  133.7417  156.0341 LP  0  0  0  0  0  0  0  0  0  0  0  0  # atno 17394 bound_to 11000
  140.8043  134.3473  157.5430 LP  0  0  0  0  0  0  0  0  0  0  0  0  # atno 17395 bound_to 11000

$$$$
