AV-unprocessed.smi:3317|AV-procd|sdf|12761|dock6
  -GOLD-   2272019103D 1   1.00000     0.00000
 Structure written by MMmdl.
 36 37  0  0  0  0  0  0  0  0  1 V2000
  151.4795  145.0714  158.9993 C   0  0  0  0  0  0  0  0  0  0  0  0
  151.4253  143.7235  158.5558 O   0  0  0  0  0  0  0  0  0  0  0  0
  152.1429  142.7745  159.2578 C   0  0  0  0  0  0  0  0  0  0  0  0
  152.8688  143.0582  160.4428 C   0  0  0  0  0  0  0  0  0  0  0  0
  153.5686  142.0237  161.0872 C   0  0  0  0  0  0  0  0  0  0  0  0
  153.5196  140.7378  160.5244 C   0  0  0  0  0  0  0  0  0  0  0  0
  152.8355  140.4546  159.3988 N   0  0  0  0  0  0  0  0  0  0  0  0
  152.1550  141.4430  158.7664 C   0  0  0  0  0  0  0  0  0  0  0  0
  151.4117  141.2273  157.5739 N   0  0  0  0  0  0  0  0  0  0  0  0
  151.6668  140.3744  156.5637 C   0  0  0  0  0  0  0  0  0  0  0  0
  152.6366  139.6186  156.5102 O   0  0  0  0  0  0  0  0  0  0  0  0
  150.6669  140.3919  155.4080 C   0  0  0  0  0  0  0  0  0  0  0  0
  149.6305  141.3193  155.7019 O   0  0  0  0  0  0  0  0  0  0  0  0
  148.3390  140.7337  155.7995 C   0  0  0  0  0  0  0  0  0  0  0  0
  148.0501  140.0180  154.4799 C   0  0  0  0  0  0  0  0  0  0  0  0
  147.5812  141.1169  153.5198 C   0  0  0  0  0  0  0  0  0  0  0  0
  147.0474  142.2570  154.4005 C   0  0  0  0  0  0  0  0  0  0  0  0
  147.2490  141.8105  155.8535 C   0  0  0  0  0  0  0  0  0  0  0  0
  150.8622  145.6890  158.3471 H   0  0  0  0  0  0  0  0  0  0  0  0
  152.4968  145.4632  158.9578 H   0  0  0  0  0  0  0  0  0  0  0  0
  151.0921  145.1754  160.0137 H   0  0  0  0  0  0  0  0  0  0  0  0
  152.9032  144.0482  160.8715 H   0  0  0  0  0  0  0  0  0  0  0  0
  154.1293  142.2118  161.9908 H   0  0  0  0  0  0  0  0  0  0  0  0
  154.0433  139.9155  160.9888 H   0  0  0  0  0  0  0  0  0  0  0  0
  150.5754  141.7856  157.4811 H   0  0  0  0  0  0  0  0  0  0  0  0
  151.1895  140.6817  154.4955 H   0  0  0  0  0  0  0  0  0  0  0  0
  150.2651  139.3893  155.2580 H   0  0  0  0  0  0  0  0  0  0  0  0
  148.2881  140.0402  156.6408 H   0  0  0  0  0  0  0  0  0  0  0  0
  148.9104  139.4653  154.1007 H   0  0  0  0  0  0  0  0  0  0  0  0
  147.2411  139.3018  154.6291 H   0  0  0  0  0  0  0  0  0  0  0  0
  148.4219  141.4765  152.9253 H   0  0  0  0  0  0  0  0  0  0  0  0
  146.8260  140.7459  152.8263 H   0  0  0  0  0  0  0  0  0  0  0  0
  147.6139  143.1686  154.2058 H   0  0  0  0  0  0  0  0  0  0  0  0
  145.9990  142.4743  154.1946 H   0  0  0  0  0  0  0  0  0  0  0  0
  146.3249  141.3615  156.2199 H   0  0  0  0  0  0  0  0  0  0  0  0
  147.4853  142.6427  156.5159 H   0  0  0  0  0  0  0  0  0  0  0  0
  1  2  1  0  0  0  0
  1 19  1  0  0  0  0
  1 20  1  0  0  0  0
  1 21  1  0  0  0  0
  2  3  1  0  0  0  0
  3  8  1  0  0  0  0
  3  4  2  0  0  0  0
  4  5  1  0  0  0  0
  4 22  1  0  0  0  0
  5  6  2  0  0  0  0
  5 23  1  0  0  0  0
  6  7  1  0  0  0  0
  6 24  1  0  0  0  0
  7  8  2  0  0  0  0
  8  9  1  0  0  0  0
  9 10  1  0  0  0  0
  9 25  1  0  0  0  0
 10 11  2  0  0  0  0
 10 12  1  0  0  0  0
 12 13  1  0  0  0  0
 12 26  1  0  0  0  0
 12 27  1  0  0  0  0
 13 14  1  0  0  0  0
 14 18  1  0  0  0  0
 14 15  1  0  0  0  0
 14 28  1  0  0  0  0
 15 16  1  0  0  0  0
 15 29  1  0  0  0  0
 15 30  1  0  0  0  0
 16 17  1  0  0  0  0
 16 31  1  0  0  0  0
 16 32  1  0  0  0  0
 17 18  1  0  0  0  0
 17 33  1  0  0  0  0
 17 34  1  0  0  0  0
 18 35  1  0  0  0  0
 18 36  1  0  0  0  0
M  END
> <s_m_source_file>
AV-unprocessed.smi

> <i_m_source_file_index>
3317

> <i_lp_mmshare_version>
43012

> <i_f3d_flags>
0

> <s_epik_input>
W0NIM11PYzFbY0hdW2NIXVtjSF1uYzFbTkhdQyg9TylbQ0gyXU9bQ0hdMltDSDJdW0NIMl1bQ0gyXVtDSDJdMg==

> <s_epik_cmdline>
J2VwaWtfcHl0aG9uJywgJy1waCcsICc3LjAnLCAnLXRuJywgJzgnLCAnLW1hJywgJzIwMCcsICctbWV0YWxfYmluZGluZycsICctaW1hZScsICc8aW5maWxlLm1hZT4nLCAnLW9tYWUnLCAnPG91dGZpbGUubWFlPic=

> <r_lp_tautomer_probability>
1

> <r_epik_Ionization_Penalty>
0.000545986

> <r_epik_Ionization_Penalty_Charging>
0

> <r_epik_Ionization_Penalty_Neutral>
0.000545986

> <r_epik_State_Penalty>
-0

> <r_epik_Charging_Adjusted_Penalty>
0

> <i_epik_Tot_Q>
0

> <i_epik_Tot_abs_Q>
0

> <r_epik_Metal_State_Penalty>
-0

> <b_epik_Metal_Only>
0

> <s_lp_Force_Field>
OPLS_2005

> <r_lp_Energy>
28.4297

> <b_lp_Chiralities_Consistent>
1

> <s_lp_Variant>
AV-unprocessed.smi:3317-1

> <Gold.Version>
5.8.1

> <Gold.Id.Protein>
6NUR|6NUR_protein|mol2

> <Gold.PLP.Fitness>
38.3260

> <Gold.PLP.PLP>
-36.5850

> <Gold.PLP.part.hbond>
-1.0000

> <Gold.PLP.part.metal>
0.0000

> <Gold.PLP.part.buried>
-4.8575

> <Gold.PLP.part.nonpolar>
-31.3132

> <Gold.PLP.part.repulsive>
0.2476

> <Gold.PLP.ligand.clash>
0.0000

> <Gold.PLP.ligand.torsion>
0.6483

> <Gold.PLP.Chemscore.Hbond>
1.0000

> <Gold.PLP.Chemscore.CHOScore>
0.0000

> <Gold.PLP.Chemscore.Metal>
0.0000

> <Gold.Chemscore.Hbonds>
donor molecule, donor type, donor heavy atom, donor atom, acceptor molecule, acceptor atom, score
      P1  H  7997  8010       L1    11  1.00

> <Gold.PLP.Chemscore.Internal.Correction>
0.0375

> <Gold.Rescore>
     Score         DG    S(hbond)    S(metal)    S(lipo)     H(rot)  DE(clash)    DE(int)     intcor
     14.46     -15.40       1.00        0.00      91.61       1.61       0.14       0.81       ----

> <Gold.Chemscore.Fitness>
14.4589

> <Gold.Chemscore.DG>
-15.4048

> <Gold.Chemscore.ZeroCoef>
-5.4800

> <Gold.Chemscore.Hbond>
0.9984

> <Gold.Chemscore.Metal>
0.0000

> <Gold.Chemscore.Lipo>
91.6127

> <Gold.Chemscore.Internal_Hbond>
0.0000

> <Gold.Chemscore.DEClash>
0.1404

> <Gold.Chemscore.DEInternal>
0.8055

> <Gold.Chemscore.Rot>
1.6127

> <Gold.Chemscore.Internal.Correction>
   9.000000E+99

> <Gold.Chemscore.Hbonds>
donor molecule, donor type, donor heavy atom, donor atom, acceptor molecule, acceptor atom, score
      P1  H  7997  8010       L1    11  1.00

> <Gold.Chemscore.Hbond.Weighted>
-3.3346

> <Gold.Chemscore.Metal.Weighted>
-0.0000

> <Gold.Chemscore.Lipo.Weighted>
-10.7187

> <Gold.Chemscore.Internal_Hbond.Weighted>
0.0000

> <Gold.Chemscore.DEClash.Weighted>
0.1404

> <Gold.Chemscore.DEInternal.Weighted>
0.8055

> <Gold.Chemscore.Rot.Weighted>
4.1285

> <Gold.Chemscore.Internal.Correction.Weighted>
   9.000000E+99

> <Gold.Protein.RotatedTorsions>
[ 6907 6896 6895 6894 ] final   85.08 input  -60.11 | X-H torsion
[ 7974 7965 7964 7962 ] final    5.47 input  175.53 | X-H torsion
[ 8008 7997 7996 7995 ] final   81.21 input   59.86 | X-H torsion
[ 10167 10162 10161 10158 ] final  164.31 input  -65.29 | X-H torsion
[ 10718 10713 10712 10709 ] final   37.24 input   66.30 | X-H torsion
[ 10763 10752 10751 10750 ] final  -68.44 input  -60.55 | X-H torsion
[ 11005 11000 10999 10996 ] final   81.31 input  -57.11 | X-H torsion

> <Gold.Protein.ActiveResidues>
 VAL166  LYS551  ARG553  GLY616  TRP617  ASP618  TYR619  PRO620  LYS621  CYS622 
 ASP623  PHE694  ASN695  SER759  ASP760  ASP761  ALA762  ILE779  LEU786  VAL792 
 PHE793  MET794  SER795  GLU796  ALA797  LYS798  CYS799  TRP800  GLU811  SER814 

> <Gold.Protein.RotatedAtoms>
  152.5367  134.2641  159.8946 H   0  0  0  0  0  0  0  0  0  0  0  0  # atno 6907 bound_to 6896
  151.2600  133.4300  159.2623 H   0  0  0  0  0  0  0  0  0  0  0  0  # atno 6908 bound_to 6896
  151.0461  134.9655  159.8244 H   0  0  0  0  0  0  0  0  0  0  0  0  # atno 6909 bound_to 6896
  146.2440  140.0379  142.8384 H   0  0  0  0  0  0  0  0  0  0  0  0  # atno 7974 bound_to 7965
  155.8941  140.3437  155.5977 H   0  0  0  0  0  0  0  0  0  0  0  0  # atno 8008 bound_to 7997
  155.7577  140.0828  157.2189 H   0  0  0  0  0  0  0  0  0  0  0  0  # atno 8009 bound_to 7997
  154.4036  140.1541  156.2784 H   0  0  0  0  0  0  0  0  0  0  0  0  # atno 8010 bound_to 7997
  139.4887  144.4248  151.9143 H   0  0  0  0  0  0  0  0  0  0  0  0  # atno 10167 bound_to 10162
  157.3446  130.7566  149.6935 H   0  0  0  0  0  0  0  0  0  0  0  0  # atno 10718 bound_to 10713
  154.3890  135.6057  153.5833 H   0  0  0  0  0  0  0  0  0  0  0  0  # atno 10763 bound_to 10752
  152.9787  135.5879  154.4320 H   0  0  0  0  0  0  0  0  0  0  0  0  # atno 10764 bound_to 10752
  154.4101  135.2844  155.2020 H   0  0  0  0  0  0  0  0  0  0  0  0  # atno 10765 bound_to 10752
  139.9103  134.7987  156.2025 H   0  0  0  0  0  0  0  0  0  0  0  0  # atno 11005 bound_to 11000
  145.1096  140.9397  143.4664 LP  0  0  0  0  0  0  0  0  0  0  0  0  # atno 17320 bound_to 7965
  145.0590  139.3121  143.5890 LP  0  0  0  0  0  0  0  0  0  0  0  0  # atno 17321 bound_to 7965
  140.3693  144.2875  150.5922 LP  0  0  0  0  0  0  0  0  0  0  0  0  # atno 17342 bound_to 10162
  140.5333  143.2238  151.8204 LP  0  0  0  0  0  0  0  0  0  0  0  0  # atno 17343 bound_to 10162
  155.9712  130.4158  150.4198 LP  0  0  0  0  0  0  0  0  0  0  0  0  # atno 17370 bound_to 10713
  157.2252  131.0491  151.2524 LP  0  0  0  0  0  0  0  0  0  0  0  0  # atno 17371 bound_to 10713
  141.0516  133.6886  156.1783 LP  0  0  0  0  0  0  0  0  0  0  0  0  # atno 17394 bound_to 11000
  140.6801  134.4776  157.5589 LP  0  0  0  0  0  0  0  0  0  0  0  0  # atno 17395 bound_to 11000

$$$$
