AV-unprocessed.smi:1906|AV-procd|sdf|7729|dock2
  -GOLD-   22720 9473D 1   1.00000     0.00000
 Structure written by MMmdl.
 36 38  0  0  0  0  0  0  0  0  2 V2000
  151.9345  138.1155  154.8093 C   0  0  0  0  0  0  0  0  0  0  0  0
  150.7091  138.8942  154.4660 C   0  0  0  0  0  0  0  0  0  0  0  0
  149.7211  138.4998  153.6138 N   0  3  0  0  0  0  0  0  0  0  0  0
  148.7363  139.4865  153.5430 C   0  0  0  0  0  0  0  0  0  0  0  0
  147.5492  139.5410  152.8188 C   0  0  0  0  0  0  0  0  0  0  0  0
  146.7651  140.7030  152.9756 C   0  0  0  0  0  0  0  0  0  0  0  0
  147.1703  141.7535  153.8248 C   0  0  0  0  0  0  0  0  0  0  0  0
  148.3763  141.6873  154.5533 C   0  0  0  0  0  0  0  0  0  0  0  0
  149.1442  140.5344  154.3931 C   0  0  0  0  0  0  0  0  0  0  0  0
  150.3647  140.1256  154.9403 N   0  0  0  0  0  0  0  0  0  0  0  0
  151.0590  141.0128  155.8852 C   0  0  0  0  0  0  0  0  0  0  0  0
  150.8377  140.6150  157.3584 C   0  0  2  0  0  0  0  0  0  0  0  0
  149.4560  140.6440  157.6589 O   0  0  0  0  0  0  0  0  0  0  0  0
  151.6485  141.4977  158.2933 C   0  0  0  0  0  0  0  0  0  0  0  0
  152.5213  140.9261  159.2452 C   0  0  0  0  0  0  0  0  0  0  0  0
  153.2584  141.7508  160.1173 C   0  0  0  0  0  0  0  0  0  0  0  0
  153.1260  143.1508  160.0436 C   0  0  0  0  0  0  0  0  0  0  0  0
  152.2557  143.7257  159.0978 C   0  0  0  0  0  0  0  0  0  0  0  0
  152.1256  145.0716  159.0274 F   0  0  0  0  0  0  0  0  0  0  0  0
  151.5185  142.9015  158.2256 C   0  0  0  0  0  0  0  0  0  0  0  0
  151.9539  137.1715  154.2640 H   0  0  0  0  0  0  0  0  0  0  0  0
  151.9563  137.8993  155.8775 H   0  0  0  0  0  0  0  0  0  0  0  0
  152.8279  138.6836  154.5499 H   0  0  0  0  0  0  0  0  0  0  0  0
  147.2369  138.7374  152.1678 H   0  0  0  0  0  0  0  0  0  0  0  0
  145.8344  140.7902  152.4337 H   0  0  0  0  0  0  0  0  0  0  0  0
  146.5433  142.6282  153.9201 H   0  0  0  0  0  0  0  0  0  0  0  0
  148.6788  142.4972  155.2007 H   0  0  0  0  0  0  0  0  0  0  0  0
  152.1214  141.0096  155.6381 H   0  0  0  0  0  0  0  0  0  0  0  0
  150.7074  142.0300  155.7073 H   0  0  0  0  0  0  0  0  0  0  0  0
  151.1624  139.5834  157.4997 H   0  0  0  0  0  0  0  0  0  0  0  0
  149.0436  139.9016  157.2437 H   0  0  0  0  0  0  0  0  0  0  0  0
  152.6251  139.8529  159.3121 H   0  0  0  0  0  0  0  0  0  0  0  0
  153.9240  141.3090  160.8442 H   0  0  0  0  0  0  0  0  0  0  0  0
  153.6901  143.7831  160.7133 H   0  0  0  0  0  0  0  0  0  0  0  0
  150.8511  143.3531  157.5060 H   0  0  0  0  0  0  0  0  0  0  0  0
  149.7228  137.6181  153.1176 H   0  0  0  0  0  0  0  0  0  0  0  0
  1  2  1  0  0  0  0
  1 21  1  0  0  0  0
  1 22  1  0  0  0  0
  1 23  1  0  0  0  0
  2 10  1  0  0  0  0
  2  3  2  0  0  0  0
  3  4  1  0  0  0  0
  3 36  1  0  0  0  0
  4  9  2  0  0  0  0
  4  5  1  0  0  0  0
  5  6  2  0  0  0  0
  5 24  1  0  0  0  0
  6  7  1  0  0  0  0
  6 25  1  0  0  0  0
  7  8  2  0  0  0  0
  7 26  1  0  0  0  0
  8  9  1  0  0  0  0
  8 27  1  0  0  0  0
  9 10  1  0  0  0  0
 10 11  1  0  0  0  0
 11 12  1  0  0  0  0
 11 28  1  0  0  0  0
 11 29  1  0  0  0  0
 12 13  1  0  0  0  0
 12 14  1  0  0  0  0
 12 30  1  0  0  0  0
 13 31  1  0  0  0  0
 14 20  1  0  0  0  0
 14 15  2  0  0  0  0
 15 16  1  0  0  0  0
 15 32  1  0  0  0  0
 16 17  2  0  0  0  0
 16 33  1  0  0  0  0
 17 18  1  0  0  0  0
 17 34  1  0  0  0  0
 18 19  1  0  0  0  0
 18 20  2  0  0  0  0
 20 35  1  0  0  0  0
M  CHG  1   3   1
M  END
> <s_m_source_file>
AV-unprocessed.smi

> <i_m_source_file_index>
1906

> <i_lp_mmshare_version>
43012

> <i_f3d_flags>
0

> <s_epik_input>
W2NIXTFbY0hdW2NIXVtjSF1jKGMxMiluKGMobjIpW0NIM10pW0NIMl1bQ0BIXShbT0hdKWMzW2NIXVtjSF1bY0hdYyhGKVtjSF0z

> <s_epik_cmdline>
J2VwaWtfcHl0aG9uJywgJy1waCcsICc3LjAnLCAnLXRuJywgJzgnLCAnLW1hJywgJzIwMCcsICctbWV0YWxfYmluZGluZycsICctaW1hZScsICc8aW5maWxlLm1hZT4nLCAnLW9tYWUnLCAnPG91dGZpbGUubWFlPic=

> <r_epik_Ionization_Penalty>
0.963871

> <r_epik_Ionization_Penalty_Charging>
0.963868

> <r_epik_Ionization_Penalty_Neutral>
3.53208e-06

> <r_epik_State_Penalty>
1.00924

> <r_epik_Charging_Adjusted_Penalty>
1.9731

> <i_epik_Tot_Q>
1

> <i_epik_Tot_abs_Q>
1

> <r_epik_Metal_State_Penalty>
4.98304

> <b_epik_Metal_Only>
0

> <s_lp_Force_Field>
OPLS_2005

> <r_lp_Energy>
13.6568

> <b_lp_Chiralities_Consistent>
1

> <s_lp_Variant>
AV-unprocessed.smi:1906-3

> <Gold.Version>
5.8.1

> <Gold.Id.Protein>
6NUR|6NUR_protein|mol2

> <Gold.PLP.Fitness>
54.6413

> <Gold.PLP.PLP>
-49.4422

> <Gold.PLP.part.hbond>
-2.0000

> <Gold.PLP.part.metal>
0.0000

> <Gold.PLP.part.buried>
3.9747

> <Gold.PLP.part.nonpolar>
-51.0035

> <Gold.PLP.part.repulsive>
0.0731

> <Gold.PLP.ligand.clash>
0.0000

> <Gold.PLP.ligand.torsion>
0.4105

> <Gold.PLP.Chemscore.Hbond>
2.0000

> <Gold.PLP.Chemscore.CHOScore>
0.0000

> <Gold.PLP.Chemscore.Metal>
0.0000

> <Gold.Chemscore.Hbonds>
donor molecule, donor type, donor heavy atom, donor atom, acceptor molecule, acceptor atom, score
      L1  H     3    36       P1  7948  2.00

> <Gold.PLP.Chemscore.Internal.Correction>
0.0202

> <Gold.Rescore>
     Score         DG    S(hbond)    S(metal)    S(lipo)     H(rot)  DE(clash)    DE(int)     intcor
     17.25     -17.79       0.84        0.00     121.80       1.85       0.21       0.34       ----

> <Gold.Chemscore.Fitness>
17.2458

> <Gold.Chemscore.DG>
-17.7946

> <Gold.Chemscore.ZeroCoef>
-5.4800

> <Gold.Chemscore.Hbond>
0.8355

> <Gold.Chemscore.Metal>
0.0000

> <Gold.Chemscore.Lipo>
121.8030

> <Gold.Chemscore.Internal_Hbond>
0.0000

> <Gold.Chemscore.DEClash>
0.2117

> <Gold.Chemscore.DEInternal>
0.3371

> <Gold.Chemscore.Rot>
1.8465

> <Gold.Chemscore.Internal.Correction>
   9.000000E+99

> <Gold.Chemscore.Hbonds>
donor molecule, donor type, donor heavy atom, donor atom, acceptor molecule, acceptor atom, score
      L1  H     3    36       P1  7948  0.62

> <Gold.Chemscore.Hbond.Weighted>
-2.7907

> <Gold.Chemscore.Metal.Weighted>
-0.0000

> <Gold.Chemscore.Lipo.Weighted>
-14.2509

> <Gold.Chemscore.Internal_Hbond.Weighted>
0.0000

> <Gold.Chemscore.DEClash.Weighted>
0.2117

> <Gold.Chemscore.DEInternal.Weighted>
0.3371

> <Gold.Chemscore.Rot.Weighted>
4.7270

> <Gold.Chemscore.Internal.Correction.Weighted>
   9.000000E+99

> <Gold.Protein.RotatedTorsions>
[ 6907 6896 6895 6894 ] final -121.57 input  -60.11 | X-H torsion
[ 7974 7965 7964 7962 ] final  113.22 input  175.53 | X-H torsion
[ 8008 7997 7996 7995 ] final  -21.27 input   59.86 | X-H torsion
[ 10167 10162 10161 10158 ] final  119.95 input  -65.29 | X-H torsion
[ 10718 10713 10712 10709 ] final  -93.61 input   66.30 | X-H torsion
[ 10763 10752 10751 10750 ] final  -32.49 input  -60.55 | X-H torsion
[ 11005 11000 10999 10996 ] final -178.90 input  -57.11 | X-H torsion

> <Gold.Protein.ActiveResidues>
 VAL166  LYS551  ARG553  GLY616  TRP617  ASP618  TYR619  PRO620  LYS621  CYS622 
 ASP623  PHE694  ASN695  SER759  ASP760  ASP761  ALA762  ILE779  LEU786  VAL792 
 PHE793  MET794  SER795  GLU796  ALA797  LYS798  CYS799  TRP800  GLU811  SER814 

> <Gold.Protein.RotatedAtoms>
  150.8495  133.7808  159.3030 H   0  0  0  0  0  0  0  0  0  0  0  0  # atno 6907 bound_to 6896
  151.5485  135.1066  159.9953 H   0  0  0  0  0  0  0  0  0  0  0  0  # atno 6908 bound_to 6896
  152.4541  133.7645  159.6821 H   0  0  0  0  0  0  0  0  0  0  0  0  # atno 6909 bound_to 6896
  145.2197  139.2868  143.4225 H   0  0  0  0  0  0  0  0  0  0  0  0  # atno 7974 bound_to 7965
  154.4716  140.2039  155.9980 H   0  0  0  0  0  0  0  0  0  0  0  0  # atno 8008 bound_to 7997
  156.1020  140.3242  155.7926 H   0  0  0  0  0  0  0  0  0  0  0  0  # atno 8009 bound_to 7997
  155.4781  140.0536  157.2961 H   0  0  0  0  0  0  0  0  0  0  0  0  # atno 8010 bound_to 7997
  139.6013  144.7057  151.3056 H   0  0  0  0  0  0  0  0  0  0  0  0  # atno 10167 bound_to 10162
  156.0015  130.5034  150.5802 H   0  0  0  0  0  0  0  0  0  0  0  0  # atno 10718 bound_to 10713
  153.8147  135.6879  153.4836 H   0  0  0  0  0  0  0  0  0  0  0  0  # atno 10763 bound_to 10752
  153.1607  135.4581  154.9765 H   0  0  0  0  0  0  0  0  0  0  0  0  # atno 10764 bound_to 10752
  154.7953  135.3317  154.7624 H   0  0  0  0  0  0  0  0  0  0  0  0  # atno 10765 bound_to 10752
  140.4246  134.6575  157.4681 H   0  0  0  0  0  0  0  0  0  0  0  0  # atno 11005 bound_to 11000
  146.3379  140.2499  142.8598 LP  0  0  0  0  0  0  0  0  0  0  0  0  # atno 17320 bound_to 7965
  144.9777  140.8430  143.5416 LP  0  0  0  0  0  0  0  0  0  0  0  0  # atno 17321 bound_to 7965
  140.7252  143.7025  150.7834 LP  0  0  0  0  0  0  0  0  0  0  0  0  # atno 17342 bound_to 10162
  140.0602  143.5163  152.2631 LP  0  0  0  0  0  0  0  0  0  0  0  0  # atno 17343 bound_to 10162
  157.3684  131.0761  151.1579 LP  0  0  0  0  0  0  0  0  0  0  0  0  # atno 17370 bound_to 10713
  157.2340  130.6538  149.5862 LP  0  0  0  0  0  0  0  0  0  0  0  0  # atno 17371 bound_to 10713
  140.0176  134.6595  155.9286 LP  0  0  0  0  0  0  0  0  0  0  0  0  # atno 17394 bound_to 11000
  141.1770  133.6541  156.4869 LP  0  0  0  0  0  0  0  0  0  0  0  0  # atno 17395 bound_to 11000

$$$$
