AV-unprocessed.smi:103|AV-procd|sdf|990|dock5
  -GOLD-   2262017563D 1   1.00000     0.00000
 Structure written by MMmdl.
 53 55  0  0  0  0  0  0  0  0  1 V2000
  145.8699  142.5280  153.4503 C   0  0  0  0  0  0  0  0  0  0  0  0
  145.5473  142.5487  154.9390 C   0  0  0  0  0  0  0  0  0  0  0  0
  144.5086  143.0583  155.3599 O   0  0  0  0  0  0  0  0  0  0  0  0
  146.5044  141.9662  155.6814 O   0  0  0  0  0  0  0  0  0  0  0  0
  146.3195  141.7914  157.0782 C   0  0  0  0  0  0  0  0  0  0  0  0
  147.6334  141.3114  157.7083 C   0  0  1  0  0  0  0  0  0  0  0  0
  147.4321  139.9895  158.2150 O   0  0  0  0  0  0  0  0  0  0  0  0
  148.3815  139.1094  157.7034 C   0  0  1  0  0  0  0  0  0  0  0  0
  147.7379  137.7814  157.4674 N   0  0  0  0  0  0  0  0  0  0  0  0
  147.8951  136.5925  158.1512 C   0  0  0  0  0  0  0  0  0  0  0  0
  148.9247  136.3209  159.5895 S   0  0  0  0  0  0  0  0  0  0  0  0
  148.6088  134.5462  159.9517 C   0  0  0  0  0  0  0  0  0  0  0  0
  150.3211  136.4881  159.1570 O   0  0  0  0  0  0  0  0  0  0  0  0
  148.3774  137.1433  160.6791 O   0  0  0  0  0  0  0  0  0  0  0  0
  147.1460  135.5938  157.7690 N   0  0  0  0  0  0  0  0  0  0  0  0
  146.4529  136.1172  156.6865 C   0  0  0  0  0  0  0  0  0  0  0  0
  145.4919  135.5944  155.7848 C   0  0  0  0  0  0  0  0  0  0  0  0
  145.0416  134.3338  155.8463 N   0  0  0  0  0  0  0  0  0  0  0  0
  145.0048  136.4048  154.8162 N   0  0  0  0  0  0  0  0  0  0  0  0
  145.4377  137.6670  154.7342 C   0  0  0  0  0  0  0  0  0  0  0  0
  146.3296  138.2949  155.5045 N   0  0  0  0  0  0  0  0  0  0  0  0
  146.8201  137.4780  156.4818 C   0  0  0  0  0  0  0  0  0  0  0  0
  148.8897  139.7082  156.3985 C   0  0  2  0  0  0  0  0  0  0  0  0
  150.2120  139.2683  156.1208 O   0  0  0  0  0  0  0  0  0  0  0  0
  150.8159  139.6261  154.9779 C   0  0  0  0  0  0  0  0  0  0  0  0
  152.1832  138.9757  154.8185 C   0  0  0  0  0  0  0  0  0  0  0  0
  150.3620  140.3906  154.1264 O   0  0  0  0  0  0  0  0  0  0  0  0
  148.7650  141.2070  156.6653 C   0  0  2  0  0  0  0  0  0  0  0  0
  149.9832  141.8928  156.9936 O   0  0  0  0  0  0  0  0  0  0  0  0
  150.8803  141.4779  157.9183 C   0  0  0  0  0  0  0  0  0  0  0  0
  151.9084  142.5545  158.2377 C   0  0  0  0  0  0  0  0  0  0  0  0
  150.9157  140.3822  158.4749 O   0  0  0  0  0  0  0  0  0  0  0  0
  146.0738  143.5382  153.0961 H   0  0  0  0  0  0  0  0  0  0  0  0
  145.0268  142.1277  152.8874 H   0  0  0  0  0  0  0  0  0  0  0  0
  146.7440  141.9083  153.2484 H   0  0  0  0  0  0  0  0  0  0  0  0
  145.9890  142.7079  157.5678 H   0  0  0  0  0  0  0  0  0  0  0  0
  145.5364  141.0484  157.2314 H   0  0  0  0  0  0  0  0  0  0  0  0
  147.9033  141.9810  158.5251 H   0  0  0  0  0  0  0  0  0  0  0  0
  149.1537  138.9397  158.4488 H   0  0  0  0  0  0  0  0  0  0  0  0
  149.1924  134.2446  160.8210 H   0  0  0  0  0  0  0  0  0  0  0  0
  148.9002  133.9434  159.0917 H   0  0  0  0  0  0  0  0  0  0  0  0
  147.5491  134.3957  160.1562 H   0  0  0  0  0  0  0  0  0  0  0  0
  145.3896  133.7100  156.5602 H   0  0  0  0  0  0  0  0  0  0  0  0
  144.3570  134.0098  155.1784 H   0  0  0  0  0  0  0  0  0  0  0  0
  145.0072  138.2597  153.9402 H   0  0  0  0  0  0  0  0  0  0  0  0
  148.1955  139.4218  155.6066 H   0  0  0  0  0  0  0  0  0  0  0  0
  152.0729  137.9081  154.6276 H   0  0  0  0  0  0  0  0  0  0  0  0
  152.7743  139.1068  155.7250 H   0  0  0  0  0  0  0  0  0  0  0  0
  152.7250  139.4230  153.9851 H   0  0  0  0  0  0  0  0  0  0  0  0
  148.4386  141.6778  155.7377 H   0  0  0  0  0  0  0  0  0  0  0  0
  151.4132  143.4622  158.5822 H   0  0  0  0  0  0  0  0  0  0  0  0
  152.4933  142.7933  157.3494 H   0  0  0  0  0  0  0  0  0  0  0  0
  152.5894  142.2147  159.0183 H   0  0  0  0  0  0  0  0  0  0  0  0
  1  2  1  0  0  0  0
  1 33  1  0  0  0  0
  1 34  1  0  0  0  0
  1 35  1  0  0  0  0
  2  3  2  0  0  0  0
  2  4  1  0  0  0  0
  4  5  1  0  0  0  0
  5  6  1  0  0  0  0
  5 36  1  0  0  0  0
  5 37  1  0  0  0  0
  6 28  1  0  0  0  0
  6  7  1  0  0  0  0
  6 38  1  0  0  0  0
  7  8  1  0  0  0  0
  8  9  1  0  0  0  0
  8 23  1  0  0  0  0
  8 39  1  0  0  0  0
  9 22  1  0  0  0  0
  9 10  1  0  0  0  0
 10 11  1  0  0  0  0
 10 15  2  0  0  0  0
 11 12  1  0  0  0  0
 11 13  2  0  0  0  0
 11 14  2  0  0  0  0
 12 40  1  0  0  0  0
 12 41  1  0  0  0  0
 12 42  1  0  0  0  0
 15 16  1  0  0  0  0
 16 22  2  0  0  0  0
 16 17  1  0  0  0  0
 17 18  1  0  0  0  0
 17 19  2  0  0  0  0
 18 43  1  0  0  0  0
 18 44  1  0  0  0  0
 19 20  1  0  0  0  0
 20 21  2  0  0  0  0
 20 45  1  0  0  0  0
 21 22  1  0  0  0  0
 23 24  1  0  0  0  0
 23 28  1  0  0  0  0
 23 46  1  0  0  0  0
 24 25  1  0  0  0  0
 25 26  1  0  0  0  0
 25 27  2  0  0  0  0
 26 47  1  0  0  0  0
 26 48  1  0  0  0  0
 26 49  1  0  0  0  0
 28 29  1  0  0  0  0
 28 50  1  0  0  0  0
 29 30  1  0  0  0  0
 30 31  1  0  0  0  0
 30 32  2  0  0  0  0
 31 51  1  0  0  0  0
 31 52  1  0  0  0  0
 31 53  1  0  0  0  0
M  END
> <s_m_source_file>
AV-unprocessed.smi

> <i_m_source_file_index>
103

> <i_lp_mmshare_version>
43012

> <i_f3d_flags>
0

> <s_epik_input>
W0NIM11DKD1PKU9bQ0gyXVtDQEBIXTFPW0NASF0oW0NAQEhdKE9DKD1PKVtDSDNdKVtDQEhdMU9DKD1PKVtDSDNdKW4oYyhuMilTKD1PKSg9TylbQ0gzXSljKGMyMyluW2NIXW5jM1tOSDJd

> <s_epik_cmdline>
J2VwaWtfcHl0aG9uJywgJy1waCcsICc3LjAnLCAnLXRuJywgJzgnLCAnLW1hJywgJzIwMCcsICctbWV0YWxfYmluZGluZycsICctaW1hZScsICc8aW5maWxlLm1hZT4nLCAnLW9tYWUnLCAnPG91dGZpbGUubWFlPic=

> <r_lp_tautomer_probability>
1

> <r_epik_Ionization_Penalty>
1.51338e-05

> <r_epik_Ionization_Penalty_Charging>
0

> <r_epik_Ionization_Penalty_Neutral>
1.51338e-05

> <r_epik_State_Penalty>
-0

> <r_epik_Charging_Adjusted_Penalty>
0

> <i_epik_Tot_Q>
0

> <i_epik_Tot_abs_Q>
0

> <r_epik_Metal_State_Penalty>
-0

> <b_epik_Metal_Only>
0

> <s_epik_Chemistry_Notes>
This compound has an ester and may undergo hydrolysis at high or low pH. This compound contains an acetal/aminal-like group ( X-CH(R)-Y where X, Y are N, S, or O) that may be acid/base labile, releasing an aldehyde.

> <s_lp_Force_Field>
OPLS_2005

> <r_lp_Energy>
20.3067

> <b_lp_Chiralities_Consistent>
1

> <s_lp_Variant>
AV-unprocessed.smi:103-14

> <Gold.Version>
5.8.1

> <Gold.Id.Protein>
6NUR|6NUR_protein|mol2

> <Gold.PLP.Fitness>
41.3222

> <Gold.PLP.PLP>
-30.3530

> <Gold.PLP.part.hbond>
-4.7810

> <Gold.PLP.part.metal>
0.0000

> <Gold.PLP.part.buried>
-7.0990

> <Gold.PLP.part.nonpolar>
-18.1898

> <Gold.PLP.part.repulsive>
0.7679

> <Gold.PLP.ligand.clash>
0.0000

> <Gold.PLP.ligand.torsion>
2.5452

> <Gold.PLP.Chemscore.Hbond>
3.6000

> <Gold.PLP.Chemscore.CHOScore>
1.0000

> <Gold.PLP.Chemscore.Metal>
0.0000

> <Gold.Chemscore.Hbonds>
donor molecule, donor type, donor heavy atom, donor atom, acceptor molecule, acceptor atom, score
      P1  H  6896  6909       L1    13  0.80
      P1  H  6931  6943       L1    14  0.83
      P1  H  6934  6947       L1    14  0.30
      P1  H  7989  7998       L1    27  0.83

> <Gold.PLP.Chemscore.Internal.Correction>
2.2596

> <Gold.Rescore>
     Score         DG    S(hbond)    S(metal)    S(lipo)     H(rot)  DE(clash)    DE(int)     intcor
     -3.62      -9.71       3.21        0.00      37.46       4.25       1.91      11.41       ----

> <Gold.Chemscore.Fitness>
-3.6157

> <Gold.Chemscore.DG>
-9.7077

> <Gold.Chemscore.ZeroCoef>
-5.4800

> <Gold.Chemscore.Hbond>
3.2075

> <Gold.Chemscore.Metal>
0.0000

> <Gold.Chemscore.Lipo>
37.4640

> <Gold.Chemscore.Internal_Hbond>
0.0000

> <Gold.Chemscore.DEClash>
1.9117

> <Gold.Chemscore.DEInternal>
11.4117

> <Gold.Chemscore.Rot>
4.2456

> <Gold.Chemscore.Internal.Correction>
   9.000000E+99

> <Gold.Chemscore.Hbonds>
donor molecule, donor type, donor heavy atom, donor atom, acceptor molecule, acceptor atom, score
      P1  H  6896  6909       L1    13  0.12
      P1  H  6931  6943       L1    14  0.83
      P1  H  6934  6947       L1    14  0.30
      P1  H  7989  7998       L1    27  0.23

> <Gold.Chemscore.Hbond.Weighted>
-10.7131

> <Gold.Chemscore.Metal.Weighted>
-0.0000

> <Gold.Chemscore.Lipo.Weighted>
-4.3833

> <Gold.Chemscore.Internal_Hbond.Weighted>
0.0000

> <Gold.Chemscore.DEClash.Weighted>
1.9117

> <Gold.Chemscore.DEInternal.Weighted>
11.4117

> <Gold.Chemscore.Rot.Weighted>
10.8687

> <Gold.Chemscore.Internal.Correction.Weighted>
   9.000000E+99

> <Gold.Protein.RotatedTorsions>
[ 6907 6896 6895 6894 ] final   71.23 input  -60.11 | X-H torsion
[ 7974 7965 7964 7962 ] final   17.95 input  175.53 | X-H torsion
[ 8008 7997 7996 7995 ] final   58.88 input   59.86 | X-H torsion
[ 10167 10162 10161 10158 ] final  -68.50 input  -65.29 | X-H torsion
[ 10718 10713 10712 10709 ] final   10.92 input   66.30 | X-H torsion
[ 10763 10752 10751 10750 ] final -159.67 input  -60.55 | X-H torsion
[ 11005 11000 10999 10996 ] final -133.79 input  -57.11 | X-H torsion

> <Gold.Protein.ActiveResidues>
 VAL166  LYS551  ARG553  GLY616  TRP617  ASP618  TYR619  PRO620  LYS621  CYS622 
 ASP623  PHE694  ASN695  SER759  ASP760  ASP761  ALA762  ILE779  LEU786  VAL792 
 PHE793  MET794  SER795  GLU796  ALA797  LYS798  CYS799  TRP800  GLU811  SER814 

> <Gold.Protein.RotatedAtoms>
  152.4797  134.4751  159.9647 H   0  0  0  0  0  0  0  0  0  0  0  0  # atno 6907 bound_to 6896
  151.4760  133.3552  159.2838 H   0  0  0  0  0  0  0  0  0  0  0  0  # atno 6908 bound_to 6896
  150.8861  134.8285  159.7321 H   0  0  0  0  0  0  0  0  0  0  0  0  # atno 6909 bound_to 6896
  146.2201  139.8528  142.8619 H   0  0  0  0  0  0  0  0  0  0  0  0  # atno 7974 bound_to 7965
  155.5571  140.3487  155.4482 H   0  0  0  0  0  0  0  0  0  0  0  0  # atno 8008 bound_to 7997
  156.0541  140.1324  157.0042 H   0  0  0  0  0  0  0  0  0  0  0  0  # atno 8009 bound_to 7997
  154.4448  140.0998  156.6405 H   0  0  0  0  0  0  0  0  0  0  0  0  # atno 8010 bound_to 7997
  140.5503  143.2312  151.6924 H   0  0  0  0  0  0  0  0  0  0  0  0  # atno 10167 bound_to 10162
  156.9879  130.6031  149.5683 H   0  0  0  0  0  0  0  0  0  0  0  0  # atno 10718 bound_to 10713
  154.7455  135.3079  154.8652 H   0  0  0  0  0  0  0  0  0  0  0  0  # atno 10763 bound_to 10752
  153.9454  135.6770  153.4748 H   0  0  0  0  0  0  0  0  0  0  0  0  # atno 10764 bound_to 10752
  153.1052  135.4893  154.8864 H   0  0  0  0  0  0  0  0  0  0  0  0  # atno 10765 bound_to 10752
  140.9048  134.1643  157.4433 H   0  0  0  0  0  0  0  0  0  0  0  0  # atno 11005 bound_to 11000
  145.2784  141.0131  143.3732 LP  0  0  0  0  0  0  0  0  0  0  0  0  # atno 17320 bound_to 7965
  144.9169  139.4459  143.6560 LP  0  0  0  0  0  0  0  0  0  0  0  0  # atno 17321 bound_to 7965
  139.5024  144.3829  152.0358 LP  0  0  0  0  0  0  0  0  0  0  0  0  # atno 17342 bound_to 10162
  140.2945  144.3716  150.6078 LP  0  0  0  0  0  0  0  0  0  0  0  0  # atno 17343 bound_to 10162
  156.0218  130.5313  150.8298 LP  0  0  0  0  0  0  0  0  0  0  0  0  # atno 17370 bound_to 10713
  157.5479  131.0943  150.9736 LP  0  0  0  0  0  0  0  0  0  0  0  0  # atno 17371 bound_to 10713
  139.8748  134.9912  156.5541 LP  0  0  0  0  0  0  0  0  0  0  0  0  # atno 17394 bound_to 11000
  140.8184  133.8373  155.8873 LP  0  0  0  0  0  0  0  0  0  0  0  0  # atno 17395 bound_to 11000

$$$$
