AV-unprocessed.smi:1011|AV-procd|sdf|4419|dock1
  -GOLD-   22720 2363D 1   1.00000     0.00000
 Structure written by MMmdl.
 44 46  0  0  0  0  0  0  0  0  2 V2000
  143.2682  146.0966  154.0905 C   0  0  0  0  0  0  0  0  0  0  0  0
  144.2391  144.9605  154.2379 C   0  0  0  0  0  0  0  0  0  0  0  0
  144.3995  144.0894  155.3525 C   0  0  0  0  0  0  0  0  0  0  0  0
  145.3453  143.1835  155.1645 N   0  0  0  0  0  0  0  0  0  0  0  0
  145.8229  143.4451  153.9288 N   0  0  0  0  0  0  0  0  0  0  0  0
  146.8816  142.6205  153.3723 C   0  0  0  0  0  0  0  0  0  0  0  0
  147.2535  141.4606  154.3092 C   0  0  0  0  0  0  0  0  0  0  0  0
  148.3732  141.8299  155.1961 N   0  3  0  0  0  0  0  0  0  0  0  0
  149.6389  141.1344  154.9020 C   0  0  0  0  0  0  0  0  0  0  0  0
  150.3960  141.2532  156.1891 C   0  0  0  0  0  0  0  0  0  0  0  0
  150.3436  142.3585  156.9326 N   0  0  0  0  0  0  0  0  0  0  0  0
  151.1643  142.0471  157.9995 C   0  0  0  0  0  0  0  0  0  0  0  0
  151.5249  142.8089  159.1337 C   0  0  0  0  0  0  0  0  0  0  0  0
  152.3920  142.2721  160.1083 C   0  0  0  0  0  0  0  0  0  0  0  0
  152.8228  143.2162  161.4864 Cl  0  0  0  0  0  0  0  0  0  0  0  0
  152.9087  140.9681  159.9621 C   0  0  0  0  0  0  0  0  0  0  0  0
  152.5611  140.1916  158.8399 C   0  0  0  0  0  0  0  0  0  0  0  0
  151.6960  140.7327  157.8705 C   0  0  0  0  0  0  0  0  0  0  0  0
  151.1684  140.2479  156.6777 N   0  0  0  0  0  0  0  0  0  0  0  0
  151.4175  138.9282  156.1091 C   0  0  0  0  0  0  0  0  0  0  0  0
  152.0037  139.0003  154.6899 C   0  0  0  0  0  0  0  0  0  0  0  0
  153.2746  139.6159  154.6967 O   0  0  0  0  0  0  0  0  0  0  0  0
  145.1726  144.5124  153.3468 C   0  0  0  0  0  0  0  0  0  0  0  0
  143.1466  146.6465  155.0239 H   0  0  0  0  0  0  0  0  0  0  0  0
  142.2803  145.7439  153.7938 H   0  0  0  0  0  0  0  0  0  0  0  0
  143.5937  146.8138  153.3367 H   0  0  0  0  0  0  0  0  0  0  0  0
  143.8577  144.0876  156.2869 H   0  0  0  0  0  0  0  0  0  0  0  0
  146.5384  142.2275  152.4146 H   0  0  0  0  0  0  0  0  0  0  0  0
  147.7505  143.2458  153.1610 H   0  0  0  0  0  0  0  0  0  0  0  0
  146.3835  141.1835  154.9064 H   0  0  0  0  0  0  0  0  0  0  0  0
  147.5373  140.5809  153.7309 H   0  0  0  0  0  0  0  0  0  0  0  0
  148.5235  142.8278  155.1520 H   0  0  0  0  0  0  0  0  0  0  0  0
  149.4791  140.0884  154.6405 H   0  0  0  0  0  0  0  0  0  0  0  0
  150.1743  141.6229  154.0869 H   0  0  0  0  0  0  0  0  0  0  0  0
  151.1338  143.8085  159.2536 H   0  0  0  0  0  0  0  0  0  0  0  0
  153.5727  140.5632  160.7120 H   0  0  0  0  0  0  0  0  0  0  0  0
  152.9568  139.1933  158.7260 H   0  0  0  0  0  0  0  0  0  0  0  0
  152.1111  138.4018  156.7658 H   0  0  0  0  0  0  0  0  0  0  0  0
  150.5003  138.3401  156.1112 H   0  0  0  0  0  0  0  0  0  0  0  0
  152.0952  138.0019  154.2609 H   0  0  0  0  0  0  0  0  0  0  0  0
  151.3406  139.5698  154.0383 H   0  0  0  0  0  0  0  0  0  0  0  0
  153.6369  139.5660  153.8249 H   0  0  0  0  0  0  0  0  0  0  0  0
  145.4226  144.8597  152.3548 H   0  0  0  0  0  0  0  0  0  0  0  0
  148.1069  141.5893  156.1408 H   0  0  0  0  0  0  0  0  0  0  0  0
  1  2  1  0  0  0  0
  1 24  1  0  0  0  0
  1 25  1  0  0  0  0
  1 26  1  0  0  0  0
  2 23  2  0  0  0  0
  2  3  1  0  0  0  0
  3  4  2  0  0  0  0
  3 27  1  0  0  0  0
  4  5  1  0  0  0  0
  5  6  1  0  0  0  0
  5 23  1  0  0  0  0
  6  7  1  0  0  0  0
  6 28  1  0  0  0  0
  6 29  1  0  0  0  0
  7  8  1  0  0  0  0
  7 30  1  0  0  0  0
  7 31  1  0  0  0  0
  8  9  1  0  0  0  0
  8 32  1  0  0  0  0
  8 44  1  0  0  0  0
  9 10  1  0  0  0  0
  9 33  1  0  0  0  0
  9 34  1  0  0  0  0
 10 19  1  0  0  0  0
 10 11  2  0  0  0  0
 11 12  1  0  0  0  0
 12 18  2  0  0  0  0
 12 13  1  0  0  0  0
 13 14  2  0  0  0  0
 13 35  1  0  0  0  0
 14 15  1  0  0  0  0
 14 16  1  0  0  0  0
 16 17  2  0  0  0  0
 16 36  1  0  0  0  0
 17 18  1  0  0  0  0
 17 37  1  0  0  0  0
 18 19  1  0  0  0  0
 19 20  1  0  0  0  0
 20 21  1  0  0  0  0
 20 38  1  0  0  0  0
 20 39  1  0  0  0  0
 21 22  1  0  0  0  0
 21 40  1  0  0  0  0
 21 41  1  0  0  0  0
 22 42  1  0  0  0  0
 23 43  1  0  0  0  0
M  CHG  1   8   1
M  END
> <s_m_source_file>
AV-unprocessed.smi

> <i_m_source_file_index>
1011

> <i_lp_mmshare_version>
43012

> <i_f3d_flags>
0

> <s_epik_input>
W0NIM11jMVtjSF1ubihbY0hdMSlbQ0gyXVtDSDJdW05IXVtDSDJdYyhuMiluKFtDSDJdW0NIMl1bT0hdKWMoYzIzKVtjSF1bY0hdYyhDbClbY0hdMw==

> <s_epik_cmdline>
J2VwaWtfcHl0aG9uJywgJy1waCcsICc3LjAnLCAnLXRuJywgJzgnLCAnLW1hJywgJzIwMCcsICctbWV0YWxfYmluZGluZycsICctaW1hZScsICc8aW5maWxlLm1hZT4nLCAnLW9tYWUnLCAnPG91dGZpbGUubWFlPic=

> <r_lp_tautomer_probability>
1

> <r_epik_Ionization_Penalty>
0.234823

> <r_epik_Ionization_Penalty_Charging>
0.2345

> <r_epik_Ionization_Penalty_Neutral>
0.00032281

> <r_epik_State_Penalty>
0.238632

> <r_epik_Charging_Adjusted_Penalty>
0.473132

> <i_epik_Tot_Q>
1

> <i_epik_Tot_abs_Q>
1

> <r_epik_Metal_State_Penalty>
0.25397

> <b_epik_Metal_Only>
0

> <s_lp_Force_Field>
OPLS_2005

> <r_lp_Energy>
6.60255

> <b_lp_Chiralities_Consistent>
1

> <s_lp_Variant>
AV-unprocessed.smi:1011-1

> <Gold.Version>
5.8.1

> <Gold.Id.Protein>
6NUR|6NUR_protein|mol2

> <Gold.PLP.Fitness>
57.7149

> <Gold.PLP.PLP>
-50.3462

> <Gold.PLP.part.hbond>
-3.0000

> <Gold.PLP.part.metal>
0.0000

> <Gold.PLP.part.buried>
-7.2210

> <Gold.PLP.part.nonpolar>
-40.1245

> <Gold.PLP.part.repulsive>
0.9056

> <Gold.PLP.ligand.clash>
0.0000

> <Gold.PLP.ligand.torsion>
1.0128

> <Gold.PLP.Chemscore.Hbond>
3.0000

> <Gold.PLP.Chemscore.CHOScore>
0.0000

> <Gold.PLP.Chemscore.Metal>
0.0000

> <Gold.Chemscore.Hbonds>
donor molecule, donor type, donor heavy atom, donor atom, acceptor molecule, acceptor atom, score
      L1  H     8    32       P1  8028  2.00
      P1  H  7997  8010       L1    22  1.00

> <Gold.PLP.Chemscore.Internal.Correction>
0.3943

> <Gold.Rescore>
     Score         DG    S(hbond)    S(metal)    S(lipo)     H(rot)  DE(clash)    DE(int)     intcor
     16.76     -18.32       1.88        0.00     120.52       2.94       0.46       1.10       ----

> <Gold.Chemscore.Fitness>
16.7553

> <Gold.Chemscore.DG>
-18.3238

> <Gold.Chemscore.ZeroCoef>
-5.4800

> <Gold.Chemscore.Hbond>
1.8754

> <Gold.Chemscore.Metal>
0.0000

> <Gold.Chemscore.Lipo>
120.5187

> <Gold.Chemscore.Internal_Hbond>
0.0000

> <Gold.Chemscore.DEClash>
0.4647

> <Gold.Chemscore.DEInternal>
1.1038

> <Gold.Chemscore.Rot>
2.9378

> <Gold.Chemscore.Internal.Correction>
   9.000000E+99

> <Gold.Chemscore.Hbonds>
donor molecule, donor type, donor heavy atom, donor atom, acceptor molecule, acceptor atom, score
      L1  H     8    32       P1  8028  0.98
      P1  H  7997  8010       L1    22  0.74

> <Gold.Chemscore.Hbond.Weighted>
-6.2640

> <Gold.Chemscore.Metal.Weighted>
-0.0000

> <Gold.Chemscore.Lipo.Weighted>
-14.1007

> <Gold.Chemscore.Internal_Hbond.Weighted>
0.0000

> <Gold.Chemscore.DEClash.Weighted>
0.4647

> <Gold.Chemscore.DEInternal.Weighted>
1.1038

> <Gold.Chemscore.Rot.Weighted>
7.5209

> <Gold.Chemscore.Internal.Correction.Weighted>
   9.000000E+99

> <Gold.Protein.RotatedTorsions>
[ 6907 6896 6895 6894 ] final -140.68 input  -60.11 | X-H torsion
[ 7974 7965 7964 7962 ] final -112.38 input  175.53 | X-H torsion
[ 8008 7997 7996 7995 ] final  107.83 input   59.86 | X-H torsion
[ 10167 10162 10161 10158 ] final -173.22 input  -65.29 | X-H torsion
[ 10718 10713 10712 10709 ] final   81.03 input   66.30 | X-H torsion
[ 10763 10752 10751 10750 ] final   62.06 input  -60.55 | X-H torsion
[ 11005 11000 10999 10996 ] final -107.42 input  -57.11 | X-H torsion

> <Gold.Protein.ActiveResidues>
 VAL166  LYS551  ARG553  GLY616  TRP617  ASP618  TYR619  PRO620  LYS621  CYS622 
 ASP623  PHE694  ASN695  SER759  ASP760  ASP761  ALA762  ILE779  LEU786  VAL792 
 PHE793  MET794  SER795  GLU796  ALA797  LYS798  CYS799  TRP800  GLU811  SER814 

> <Gold.Protein.RotatedAtoms>
  151.0639  133.5521  159.2631 H   0  0  0  0  0  0  0  0  0  0  0  0  # atno 6907 bound_to 6896
  151.2486  135.0613  159.9063 H   0  0  0  0  0  0  0  0  0  0  0  0  # atno 6908 bound_to 6896
  152.5402  134.0403  159.8118 H   0  0  0  0  0  0  0  0  0  0  0  0  # atno 6909 bound_to 6896
  145.1447  140.8797  143.3681 H   0  0  0  0  0  0  0  0  0  0  0  0  # atno 7974 bound_to 7965
  156.1855  140.3087  155.9231 H   0  0  0  0  0  0  0  0  0  0  0  0  # atno 8008 bound_to 7997
  155.3289  140.0459  157.3059 H   0  0  0  0  0  0  0  0  0  0  0  0  # atno 8009 bound_to 7997
  154.5391  140.2256  155.8681 H   0  0  0  0  0  0  0  0  0  0  0  0  # atno 8010 bound_to 7997
  139.5700  144.1663  152.1370 H   0  0  0  0  0  0  0  0  0  0  0  0  # atno 10167 bound_to 10162
  157.6822  130.9986  150.2166 H   0  0  0  0  0  0  0  0  0  0  0  0  # atno 10718 bound_to 10713
  152.9970  135.5478  154.6132 H   0  0  0  0  0  0  0  0  0  0  0  0  # atno 10763 bound_to 10752
  154.5448  135.2822  155.1064 H   0  0  0  0  0  0  0  0  0  0  0  0  # atno 10764 bound_to 10752
  154.2327  135.6430  153.5233 H   0  0  0  0  0  0  0  0  0  0  0  0  # atno 10765 bound_to 10752
  141.0955  133.8979  157.1973 H   0  0  0  0  0  0  0  0  0  0  0  0  # atno 11005 bound_to 11000
  145.0495  139.3193  143.5936 LP  0  0  0  0  0  0  0  0  0  0  0  0  # atno 17320 bound_to 7965
  146.3501  139.9898  142.8687 LP  0  0  0  0  0  0  0  0  0  0  0  0  # atno 17321 bound_to 7965
  140.1194  144.5387  150.6873 LP  0  0  0  0  0  0  0  0  0  0  0  0  # atno 17342 bound_to 10162
  140.6985  143.2419  151.4933 LP  0  0  0  0  0  0  0  0  0  0  0  0  # atno 17343 bound_to 10162
  156.2826  130.3735  149.7920 LP  0  0  0  0  0  0  0  0  0  0  0  0  # atno 17370 bound_to 10713
  156.5603  130.8380  151.3327 LP  0  0  0  0  0  0  0  0  0  0  0  0  # atno 17371 bound_to 10713
  139.9791  135.0104  156.9704 LP  0  0  0  0  0  0  0  0  0  0  0  0  # atno 17394 bound_to 11000
  140.5150  134.0964  155.7279 LP  0  0  0  0  0  0  0  0  0  0  0  0  # atno 17395 bound_to 11000

$$$$
