AV-unprocessed.smi:3191|AV-procd|sdf|12198|dock4
  -GOLD-   2272018 33D 1   1.00000     0.00000
 Structure written by MMmdl.
 35 36  0  0  0  0  0  0  0  0  1 V2000
  152.4976  142.7735  160.9447 C   0  0  0  0  0  0  0  0  0  0  0  0
  152.0676  143.7504  159.9635 N   0  0  0  0  0  0  0  0  0  0  0  0
  151.9230  145.0690  160.1530 C   0  0  0  0  0  0  0  0  0  0  0  0
  151.5108  145.7370  159.0839 N   0  0  0  0  0  0  0  0  0  0  0  0
  151.3758  144.7515  158.1098 C   0  0  0  0  0  0  0  0  0  0  0  0
  151.7151  143.5242  158.6352 C   0  0  0  0  0  0  0  0  0  0  0  0
  151.7405  142.1780  157.9860 C   0  0  0  0  0  0  0  0  0  0  0  0
  151.5261  142.2440  156.4654 C   0  0  0  0  0  0  0  0  0  0  0  0
  150.1087  142.2433  156.1245 N   0  0  0  0  0  0  0  0  0  0  0  0
  149.5302  141.4081  155.2481 C   0  0  0  0  0  0  0  0  0  0  0  0
  150.1612  140.5500  154.6291 O   0  0  0  0  0  0  0  0  0  0  0  0
  148.0562  141.6234  155.0969 C   0  0  1  0  0  0  0  0  0  0  0  0
  147.5223  141.9653  153.7210 C   0  0  0  0  0  0  0  0  0  0  0  0
  147.2057  140.6158  154.3263 C   0  0  0  0  0  0  0  0  0  0  0  0
  147.7848  139.3579  153.6897 C   0  0  0  0  0  0  0  0  0  0  0  0
  145.8041  140.3320  154.8378 C   0  0  0  0  0  0  0  0  0  0  0  0
  147.5683  142.1060  155.9427 H   0  0  0  0  0  0  0  0  0  0  0  0
  152.7140  143.2625  161.8951 H   0  0  0  0  0  0  0  0  0  0  0  0
  153.3980  142.2683  160.5952 H   0  0  0  0  0  0  0  0  0  0  0  0
  151.7101  142.0357  161.0993 H   0  0  0  0  0  0  0  0  0  0  0  0
  152.1244  145.5526  161.0977 H   0  0  0  0  0  0  0  0  0  0  0  0
  151.0495  144.9990  157.1105 H   0  0  0  0  0  0  0  0  0  0  0  0
  152.6872  141.6853  158.2094 H   0  0  0  0  0  0  0  0  0  0  0  0
  150.9683  141.5506  158.4325 H   0  0  0  0  0  0  0  0  0  0  0  0
  151.9736  143.1552  156.0675 H   0  0  0  0  0  0  0  0  0  0  0  0
  152.0274  141.4123  155.9679 H   0  0  0  0  0  0  0  0  0  0  0  0
  149.5253  142.9225  156.5914 H   0  0  0  0  0  0  0  0  0  0  0  0
  146.7274  142.7068  153.6743 H   0  0  0  0  0  0  0  0  0  0  0  0
  148.2167  141.9930  152.8828 H   0  0  0  0  0  0  0  0  0  0  0  0
  147.0645  138.9136  153.0021 H   0  0  0  0  0  0  0  0  0  0  0  0
  148.0272  138.6235  154.4580 H   0  0  0  0  0  0  0  0  0  0  0  0
  148.6869  139.5738  153.1186 H   0  0  0  0  0  0  0  0  0  0  0  0
  145.1523  140.0310  154.0170 H   0  0  0  0  0  0  0  0  0  0  0  0
  145.3744  141.2189  155.3045 H   0  0  0  0  0  0  0  0  0  0  0  0
  145.8256  139.5318  155.5782 H   0  0  0  0  0  0  0  0  0  0  0  0
  1  2  1  0  0  0  0
  1 18  1  0  0  0  0
  1 19  1  0  0  0  0
  1 20  1  0  0  0  0
  2  6  1  0  0  0  0
  2  3  1  0  0  0  0
  3  4  2  0  0  0  0
  3 21  1  0  0  0  0
  4  5  1  0  0  0  0
  5  6  2  0  0  0  0
  5 22  1  0  0  0  0
  6  7  1  0  0  0  0
  7  8  1  0  0  0  0
  7 23  1  0  0  0  0
  7 24  1  0  0  0  0
  8  9  1  0  0  0  0
  8 25  1  0  0  0  0
  8 26  1  0  0  0  0
  9 10  1  0  0  0  0
  9 27  1  0  0  0  0
 10 11  2  0  0  0  0
 10 12  1  0  0  0  0
 12 17  1  0  0  0  0
 12 14  1  0  0  0  0
 12 13  1  0  0  0  0
 13 14  1  0  0  0  0
 13 28  1  0  0  0  0
 13 29  1  0  0  0  0
 14 15  1  0  0  0  0
 14 16  1  0  0  0  0
 15 30  1  0  0  0  0
 15 31  1  0  0  0  0
 15 32  1  0  0  0  0
 16 33  1  0  0  0  0
 16 34  1  0  0  0  0
 16 35  1  0  0  0  0
M  END
> <s_m_source_file>
AV-unprocessed.smi

> <i_m_source_file_index>
3191

> <i_lp_mmshare_version>
43012

> <i_f3d_flags>
0

> <s_epik_input>
W0NIM11uMVtjSF1uW2NIXWMxW0NIMl1bQ0gyXVtOSF1DKD1PKVtDQEBIXShbQ0gyXTIpQzIoW0NIM10pW0NIM10=

> <s_epik_cmdline>
J2VwaWtfcHl0aG9uJywgJy1waCcsICc3LjAnLCAnLXRuJywgJzgnLCAnLW1hJywgJzIwMCcsICctbWV0YWxfYmluZGluZycsICctaW1hZScsICc8aW5maWxlLm1hZT4nLCAnLW9tYWUnLCAnPG91dGZpbGUubWFlPic=

> <r_lp_tautomer_probability>
1

> <r_epik_Ionization_Penalty>
0.874249

> <r_epik_Ionization_Penalty_Charging>
0.874249

> <r_epik_Ionization_Penalty_Neutral>
1.97773e-08

> <r_epik_State_Penalty>
0.911868

> <r_epik_Charging_Adjusted_Penalty>
1.78612

> <i_epik_Tot_Q>
0

> <i_epik_Tot_abs_Q>
0

> <r_epik_Metal_State_Penalty>
0.361186

> <b_epik_Metal_Only>
0

> <s_lp_Force_Field>
OPLS_2005

> <r_lp_Energy>
11.7772

> <b_lp_Chiralities_Consistent>
1

> <s_lp_Variant>
AV-unprocessed.smi:3191-3

> <Gold.Version>
5.8.1

> <Gold.Id.Protein>
6NUR|6NUR_protein|mol2

> <Gold.PLP.Fitness>
40.9841

> <Gold.PLP.PLP>
-35.2879

> <Gold.PLP.part.hbond>
-3.0000

> <Gold.PLP.part.metal>
0.0000

> <Gold.PLP.part.buried>
-6.9952

> <Gold.PLP.part.nonpolar>
-26.1208

> <Gold.PLP.part.repulsive>
0.3481

> <Gold.PLP.ligand.clash>
0.0000

> <Gold.PLP.ligand.torsion>
0.3590

> <Gold.PLP.Chemscore.Hbond>
1.1074

> <Gold.PLP.Chemscore.CHOScore>
1.0000

> <Gold.PLP.Chemscore.Metal>
0.0000

> <Gold.Chemscore.Hbonds>
donor molecule, donor type, donor heavy atom, donor atom, acceptor molecule, acceptor atom, score
      L1  H     9    27       P1  8028  0.35
      P1  H  7989  7998       L1    11  0.90
      L1  C     5    22       P1  8028  0.89

> <Gold.PLP.Chemscore.Internal.Correction>
0.0921

> <Gold.Rescore>
     Score         DG    S(hbond)    S(metal)    S(lipo)     H(rot)  DE(clash)    DE(int)     intcor
     11.04     -14.00       1.10        0.00      78.29       1.69       1.37       1.59       ----

> <Gold.Chemscore.Fitness>
11.0356

> <Gold.Chemscore.DG>
-13.9987

> <Gold.Chemscore.ZeroCoef>
-5.4800

> <Gold.Chemscore.Hbond>
1.1049

> <Gold.Chemscore.Metal>
0.0000

> <Gold.Chemscore.Lipo>
78.2859

> <Gold.Chemscore.Internal_Hbond>
0.0000

> <Gold.Chemscore.DEClash>
1.3743

> <Gold.Chemscore.DEInternal>
1.5887

> <Gold.Chemscore.Rot>
1.6919

> <Gold.Chemscore.Internal.Correction>
   9.000000E+99

> <Gold.Chemscore.Hbonds>
donor molecule, donor type, donor heavy atom, donor atom, acceptor molecule, acceptor atom, score
      L1  H     9    27       P1  8028  0.35
      P1  H  7989  7998       L1    11  0.88

> <Gold.Chemscore.Hbond.Weighted>
-3.6904

> <Gold.Chemscore.Metal.Weighted>
-0.0000

> <Gold.Chemscore.Lipo.Weighted>
-9.1594

> <Gold.Chemscore.Internal_Hbond.Weighted>
0.0000

> <Gold.Chemscore.DEClash.Weighted>
1.3743

> <Gold.Chemscore.DEInternal.Weighted>
1.5887

> <Gold.Chemscore.Rot.Weighted>
4.3312

> <Gold.Chemscore.Internal.Correction.Weighted>
   9.000000E+99

> <Gold.Protein.RotatedTorsions>
[ 6907 6896 6895 6894 ] final   32.05 input  -60.11 | X-H torsion
[ 7974 7965 7964 7962 ] final   13.67 input  175.53 | X-H torsion
[ 8008 7997 7996 7995 ] final   81.30 input   59.86 | X-H torsion
[ 10167 10162 10161 10158 ] final -103.93 input  -65.29 | X-H torsion
[ 10718 10713 10712 10709 ] final  -62.43 input   66.30 | X-H torsion
[ 10763 10752 10751 10750 ] final -178.75 input  -60.55 | X-H torsion
[ 11005 11000 10999 10996 ] final   45.03 input  -57.11 | X-H torsion

> <Gold.Protein.ActiveResidues>
 VAL166  LYS551  ARG553  GLY616  TRP617  ASP618  TYR619  PRO620  LYS621  CYS622 
 ASP623  PHE694  ASN695  SER759  ASP760  ASP761  ALA762  ILE779  LEU786  VAL792 
 PHE793  MET794  SER795  GLU796  ALA797  LYS798  CYS799  TRP800  GLU811  SER814 

> <Gold.Protein.RotatedAtoms>
  152.0690  134.9545  160.0574 H   0  0  0  0  0  0  0  0  0  0  0  0  # atno 6907 bound_to 6896
  152.0879  133.4180  159.4538 H   0  0  0  0  0  0  0  0  0  0  0  0  # atno 6908 bound_to 6896
  150.6836  134.2826  159.4677 H   0  0  0  0  0  0  0  0  0  0  0  0  # atno 6909 bound_to 6896
  146.2324  139.9154  142.8518 H   0  0  0  0  0  0  0  0  0  0  0  0  # atno 7974 bound_to 7965
  155.8952  140.3436  155.5986 H   0  0  0  0  0  0  0  0  0  0  0  0  # atno 8008 bound_to 7997
  155.7564  140.0827  157.2195 H   0  0  0  0  0  0  0  0  0  0  0  0  # atno 8009 bound_to 7997
  154.4037  140.1544  156.2770 H   0  0  0  0  0  0  0  0  0  0  0  0  # atno 8010 bound_to 7997
  140.2147  143.3720  152.1020 H   0  0  0  0  0  0  0  0  0  0  0  0  # atno 10167 bound_to 10162
  156.0856  130.4209  150.1134 H   0  0  0  0  0  0  0  0  0  0  0  0  # atno 10718 bound_to 10713
  154.5438  135.2808  155.1071 H   0  0  0  0  0  0  0  0  0  0  0  0  # atno 10763 bound_to 10752
  154.2543  135.6333  153.5255 H   0  0  0  0  0  0  0  0  0  0  0  0  # atno 10764 bound_to 10752
  152.9985  135.5590  154.5985 H   0  0  0  0  0  0  0  0  0  0  0  0  # atno 10765 bound_to 10752
  140.1497  134.4477  155.8390 H   0  0  0  0  0  0  0  0  0  0  0  0  # atno 11005 bound_to 11000
  145.2189  140.9927  143.4057 LP  0  0  0  0  0  0  0  0  0  0  0  0  # atno 17320 bound_to 7965
  144.9627  139.3962  143.6348 LP  0  0  0  0  0  0  0  0  0  0  0  0  # atno 17321 bound_to 7965
  139.5166  144.6980  151.5575 LP  0  0  0  0  0  0  0  0  0  0  0  0  # atno 17342 bound_to 10162
  140.6298  143.9098  150.6595 LP  0  0  0  0  0  0  0  0  0  0  0  0  # atno 17343 bound_to 10162
  156.9156  130.9666  151.3556 LP  0  0  0  0  0  0  0  0  0  0  0  0  # atno 17370 bound_to 10713
  157.5989  130.8498  149.8771 LP  0  0  0  0  0  0  0  0  0  0  0  0  # atno 17371 bound_to 10713
  141.2197  133.6867  156.7399 LP  0  0  0  0  0  0  0  0  0  0  0  0  # atno 17394 bound_to 11000
  140.2619  134.8460  157.3767 LP  0  0  0  0  0  0  0  0  0  0  0  0  # atno 17395 bound_to 11000

$$$$
