AV-unprocessed.smi:21|AV-procd|sdf|143|dock3
  -GOLD-   2262015353D 1   1.00000     0.00000
 Structure written by MMmdl.
 62 65  0  0  0  0  0  0  0  0  2 V2000
  144.8356  131.1864  151.1875 C   0  0  0  0  0  0  0  0  0  0  0  0
  144.5618  132.5749  151.2883 O   0  0  0  0  0  0  0  0  0  0  0  0
  145.5353  133.3986  150.6598 C   0  0  1  0  0  0  0  0  0  0  0  0
  145.0443  134.8395  150.7047 C   0  0  0  0  0  0  0  0  0  0  0  0
  145.4647  135.3239  152.0957 C   0  0  2  0  0  0  0  0  0  0  0  0
  145.6014  136.8567  152.2146 C   0  0  0  0  0  0  0  0  0  0  0  0
  145.6744  137.3146  153.6025 N   0  0  0  0  0  0  0  0  0  0  0  0
  144.5825  136.9734  154.5052 C   0  0  0  0  0  0  0  0  0  0  0  0
  146.4693  138.3793  153.8909 C   0  0  0  0  0  0  0  0  0  0  0  0
  146.8484  139.1831  152.8632 N   0  0  0  0  0  0  0  0  0  0  0  0
  147.6189  140.2511  153.0840 C   0  0  0  0  0  0  0  0  0  0  0  0
  148.1052  140.7013  154.2403 N   0  0  0  0  0  0  0  0  0  0  0  0
  147.7205  139.9113  155.2826 C   0  0  0  0  0  0  0  0  0  0  0  0
  146.9190  138.7359  155.1981 C   0  0  0  0  0  0  0  0  0  0  0  0
  146.7378  138.2064  156.4706 N   0  0  0  0  0  0  0  0  0  0  0  0
  147.3979  139.0121  157.2551 C   0  0  0  0  0  0  0  0  0  0  0  0
  148.0017  140.0784  156.6287 N   0  0  0  0  0  0  0  0  0  0  0  0
  148.7853  141.1327  157.2584 C   0  0  0  0  0  0  0  0  0  0  0  0
  150.1871  140.6829  157.7571 C   0  0  1  0  0  0  0  0  0  0  0  0
  151.0354  140.0533  156.6271 C   0  0  0  0  0  0  0  0  0  0  0  0
  150.7681  140.6792  155.3897 O   0  0  0  0  0  0  0  0  0  0  0  0
  150.9558  141.8247  158.4738 C   0  0  2  0  0  0  0  0  0  0  0  0
  151.3538  142.9920  157.5853 C   0  0  0  0  0  0  0  0  0  0  0  0
  152.4622  143.6642  158.3909 C   0  0  0  0  0  0  0  0  0  0  0  0
  153.0561  142.6360  159.1757 O   0  0  0  0  0  0  0  0  0  0  0  0
  152.3348  141.4219  159.0063 C   0  0  0  0  0  0  0  0  0  0  0  0
  146.7530  134.6417  152.3567 N   0  3  1  0  0  0  0  0  0  0  0  0
  147.0090  134.3562  153.7856 C   0  0  0  0  0  0  0  0  0  0  0  0
  146.8289  133.4421  151.4877 C   0  0  0  0  0  0  0  0  0  0  0  0
  145.7060  133.0782  149.6304 H   0  0  0  0  0  0  0  0  0  0  0  0
  144.7319  134.9587  152.8177 H   0  0  0  0  0  0  0  0  0  0  0  0
  144.0548  130.6245  151.7001 H   0  0  0  0  0  0  0  0  0  0  0  0
  145.7896  130.9252  151.6455 H   0  0  0  0  0  0  0  0  0  0  0  0
  144.8495  130.8634  150.1458 H   0  0  0  0  0  0  0  0  0  0  0  0
  145.5547  135.4208  149.9354 H   0  0  0  0  0  0  0  0  0  0  0  0
  143.9715  134.9243  150.5288 H   0  0  0  0  0  0  0  0  0  0  0  0
  146.5170  137.1777  151.7174 H   0  0  0  0  0  0  0  0  0  0  0  0
  144.7929  137.3493  151.6739 H   0  0  0  0  0  0  0  0  0  0  0  0
  144.8964  137.0517  155.5467 H   0  0  0  0  0  0  0  0  0  0  0  0
  144.2556  135.9473  154.3357 H   0  0  0  0  0  0  0  0  0  0  0  0
  143.7271  137.6305  154.3458 H   0  0  0  0  0  0  0  0  0  0  0  0
  147.8806  140.8293  152.2100 H   0  0  0  0  0  0  0  0  0  0  0  0
  147.4516  138.8505  158.3212 H   0  0  0  0  0  0  0  0  0  0  0  0
  148.8814  141.9536  156.5477 H   0  0  0  0  0  0  0  0  0  0  0  0
  148.2046  141.5382  158.0876 H   0  0  0  0  0  0  0  0  0  0  0  0
  150.0191  139.9005  158.4990 H   0  0  0  0  0  0  0  0  0  0  0  0
  152.1011  140.1115  156.8480 H   0  0  0  0  0  0  0  0  0  0  0  0
  150.7986  138.9976  156.5012 H   0  0  0  0  0  0  0  0  0  0  0  0
  150.5017  141.5709  155.5535 H   0  0  0  0  0  0  0  0  0  0  0  0
  150.3573  142.2181  159.2966 H   0  0  0  0  0  0  0  0  0  0  0  0
  151.7512  142.6292  156.6360 H   0  0  0  0  0  0  0  0  0  0  0  0
  150.5303  143.6740  157.3718 H   0  0  0  0  0  0  0  0  0  0  0  0
  153.1987  144.1526  157.7523 H   0  0  0  0  0  0  0  0  0  0  0  0
  152.0452  144.4149  159.0631 H   0  0  0  0  0  0  0  0  0  0  0  0
  152.2886  140.8653  159.9413 H   0  0  0  0  0  0  0  0  0  0  0  0
  152.8646  140.8071  158.2773 H   0  0  0  0  0  0  0  0  0  0  0  0
  146.2626  133.6700  154.1881 H   0  0  0  0  0  0  0  0  0  0  0  0
  146.9844  135.2732  154.3745 H   0  0  0  0  0  0  0  0  0  0  0  0
  147.9930  133.9039  153.9124 H   0  0  0  0  0  0  0  0  0  0  0  0
  146.9926  132.5241  152.0530 H   0  0  0  0  0  0  0  0  0  0  0  0
  147.6881  133.5684  150.8283 H   0  0  0  0  0  0  0  0  0  0  0  0
  147.4807  135.2658  152.0387 H   0  0  0  0  0  0  0  0  0  0  0  0
  1  2  1  0  0  0  0
  1 32  1  0  0  0  0
  1 33  1  0  0  0  0
  1 34  1  0  0  0  0
  2  3  1  0  0  0  0
  3 30  1  0  0  0  0
  3 29  1  0  0  0  0
  3  4  1  0  0  0  0
  4  5  1  0  0  0  0
  4 35  1  0  0  0  0
  4 36  1  0  0  0  0
  5 31  1  0  0  0  0
  5  6  1  0  0  0  0
  5 27  1  0  0  0  0
  6  7  1  0  0  0  0
  6 37  1  0  0  0  0
  6 38  1  0  0  0  0
  7  8  1  0  0  0  0
  7  9  1  0  0  0  0
  8 39  1  0  0  0  0
  8 40  1  0  0  0  0
  8 41  1  0  0  0  0
  9 14  1  0  0  0  0
  9 10  2  0  0  0  0
 10 11  1  0  0  0  0
 11 12  2  0  0  0  0
 11 42  1  0  0  0  0
 12 13  1  0  0  0  0
 13 17  1  0  0  0  0
 13 14  2  0  0  0  0
 14 15  1  0  0  0  0
 15 16  2  0  0  0  0
 16 17  1  0  0  0  0
 16 43  1  0  0  0  0
 17 18  1  0  0  0  0
 18 19  1  0  0  0  0
 18 44  1  0  0  0  0
 18 45  1  0  0  0  0
 19 20  1  0  0  0  0
 19 22  1  0  0  0  0
 19 46  1  0  0  0  0
 20 21  1  0  0  0  0
 20 47  1  0  0  0  0
 20 48  1  0  0  0  0
 21 49  1  0  0  0  0
 22 26  1  0  0  0  0
 22 23  1  0  0  0  0
 22 50  1  0  0  0  0
 23 24  1  0  0  0  0
 23 51  1  0  0  0  0
 23 52  1  0  0  0  0
 24 25  1  0  0  0  0
 24 53  1  0  0  0  0
 24 54  1  0  0  0  0
 25 26  1  0  0  0  0
 26 55  1  0  0  0  0
 26 56  1  0  0  0  0
 27 28  1  0  0  0  0
 27 29  1  0  0  0  0
 27 62  1  0  0  0  0
 28 57  1  0  0  0  0
 28 58  1  0  0  0  0
 28 59  1  0  0  0  0
 29 60  1  0  0  0  0
 29 61  1  0  0  0  0
M  CHG  1  27   1
M  END
> <s_m_source_file>
AV-unprocessed.smi

> <i_m_source_file_index>
21

> <i_lp_mmshare_version>
43012

> <i_f3d_flags>
0

> <s_epik_input>
W0NIM11PW0NASF0xW0NIMl1bQ0BIXShOKFtDSDNdKVtDSDJdMSlbQ0gyXU4oW0NIM10pYyhuW2NIXW4yKWMoYzIzKW5bY0hdbjNbQ0gyXVtDQEhdKFtDSDJdW09IXSlbQ0BASF00W0NIMl1bQ0gyXU9bQ0gyXTQ=

> <s_epik_cmdline>
J2VwaWtfcHl0aG9uJywgJy1waCcsICc3LjAnLCAnLXRuJywgJzgnLCAnLW1hJywgJzIwMCcsICctbWV0YWxfYmluZGluZycsICctaW1hZScsICc8aW5maWxlLm1hZT4nLCAnLW9tYWUnLCAnPG91dGZpbGUubWFlPic=

> <r_lp_tautomer_probability>
1

> <r_epik_Ionization_Penalty>
0.0157465

> <r_epik_Ionization_Penalty_Charging>
0.015354

> <r_epik_Ionization_Penalty_Neutral>
0.000392529

> <r_epik_State_Penalty>
0.0120612

> <r_epik_Charging_Adjusted_Penalty>
0.0274152

> <i_epik_Tot_Q>
1

> <i_epik_Tot_abs_Q>
1

> <r_epik_Metal_State_Penalty>
0.0121253

> <b_epik_Metal_Only>
0

> <s_lp_Force_Field>
OPLS_2005

> <r_lp_Energy>
58.9185

> <b_lp_Chiralities_Consistent>
1

> <s_lp_Variant>
AV-unprocessed.smi:21-23

> <Gold.Version>
5.8.1

> <Gold.Id.Protein>
6NUR|6NUR_protein|mol2

> <Gold.PLP.Fitness>
46.4645

> <Gold.PLP.PLP>
-37.7721

> <Gold.PLP.part.hbond>
-2.0000

> <Gold.PLP.part.metal>
0.0000

> <Gold.PLP.part.buried>
-2.9426

> <Gold.PLP.part.nonpolar>
-32.1875

> <Gold.PLP.part.repulsive>
0.5769

> <Gold.PLP.ligand.clash>
0.0000

> <Gold.PLP.ligand.torsion>
1.2459

> <Gold.PLP.Chemscore.Hbond>
2.8320

> <Gold.PLP.Chemscore.CHOScore>
0.6153

> <Gold.PLP.Chemscore.Metal>
0.0000

> <Gold.Chemscore.Hbonds>
donor molecule, donor type, donor heavy atom, donor atom, acceptor molecule, acceptor atom, score
      L1  H    27    62       P1  7948  2.00
      P1  H  7989  7998       L1    21  0.77
      L1  C    11    42       P1  7957  0.68

> <Gold.PLP.Chemscore.Internal.Correction>
0.8425

> <Gold.Rescore>
     Score         DG    S(hbond)    S(metal)    S(lipo)     H(rot)  DE(clash)    DE(int)     intcor
     12.17     -13.98       1.61        0.00      94.02       3.08       0.44       1.37       ----

> <Gold.Chemscore.Fitness>
12.1667

> <Gold.Chemscore.DG>
-13.9812

> <Gold.Chemscore.ZeroCoef>
-5.4800

> <Gold.Chemscore.Hbond>
1.6093

> <Gold.Chemscore.Metal>
0.0000

> <Gold.Chemscore.Lipo>
94.0208

> <Gold.Chemscore.Internal_Hbond>
0.0000

> <Gold.Chemscore.DEClash>
0.4412

> <Gold.Chemscore.DEInternal>
1.3733

> <Gold.Chemscore.Rot>
3.0758

> <Gold.Chemscore.Internal.Correction>
   9.000000E+99

> <Gold.Chemscore.Hbonds>
donor molecule, donor type, donor heavy atom, donor atom, acceptor molecule, acceptor atom, score
      L1  H    27    62       P1  7948  0.99
      P1  H  7989  7998       L1    21  0.19

> <Gold.Chemscore.Hbond.Weighted>
-5.3750

> <Gold.Chemscore.Metal.Weighted>
-0.0000

> <Gold.Chemscore.Lipo.Weighted>
-11.0004

> <Gold.Chemscore.Internal_Hbond.Weighted>
0.0000

> <Gold.Chemscore.DEClash.Weighted>
0.4412

> <Gold.Chemscore.DEInternal.Weighted>
1.3733

> <Gold.Chemscore.Rot.Weighted>
7.8741

> <Gold.Chemscore.Internal.Correction.Weighted>
   9.000000E+99

> <Gold.Protein.RotatedTorsions>
[ 6907 6896 6895 6894 ] final   49.40 input  -60.11 | X-H torsion
[ 7974 7965 7964 7962 ] final -102.41 input  175.53 | X-H torsion
[ 8008 7997 7996 7995 ] final   12.42 input   59.86 | X-H torsion
[ 10167 10162 10161 10158 ] final   84.60 input  -65.29 | X-H torsion
[ 10718 10713 10712 10709 ] final -135.83 input   66.30 | X-H torsion
[ 10763 10752 10751 10750 ] final  107.40 input  -60.55 | X-H torsion
[ 11005 11000 10999 10996 ] final  -98.43 input  -57.11 | X-H torsion

> <Gold.Protein.ActiveResidues>
 VAL166  LYS551  ARG553  GLY616  TRP617  ASP618  TYR619  PRO620  LYS621  CYS622 
 ASP623  PHE694  ASN695  SER759  ASP760  ASP761  ALA762  ILE779  LEU786  VAL792 
 PHE793  MET794  SER795  GLU796  ALA797  LYS798  CYS799  TRP800  GLU811  SER814 

> <Gold.Protein.RotatedAtoms>
  152.2903  134.7729  160.0378 H   0  0  0  0  0  0  0  0  0  0  0  0  # atno 6907 bound_to 6896
  151.8277  133.3398  159.3612 H   0  0  0  0  0  0  0  0  0  0  0  0  # atno 6908 bound_to 6896
  150.7227  134.5442  159.5806 H   0  0  0  0  0  0  0  0  0  0  0  0  # atno 6909 bound_to 6896
  145.2690  140.9293  143.2997 H   0  0  0  0  0  0  0  0  0  0  0  0  # atno 7974 bound_to 7965
  154.8204  140.2883  155.5791 H   0  0  0  0  0  0  0  0  0  0  0  0  # atno 8008 bound_to 7997
  156.2997  140.2551  156.3040 H   0  0  0  0  0  0  0  0  0  0  0  0  # atno 8009 bound_to 7997
  154.9345  140.0382  157.2055 H   0  0  0  0  0  0  0  0  0  0  0  0  # atno 8010 bound_to 7997
  139.9064  144.6299  150.8583 H   0  0  0  0  0  0  0  0  0  0  0  0  # atno 10167 bound_to 10162
  156.2704  130.7262  151.1227 H   0  0  0  0  0  0  0  0  0  0  0  0  # atno 10718 bound_to 10713
  153.4063  135.3845  155.2021 H   0  0  0  0  0  0  0  0  0  0  0  0  # atno 10763 bound_to 10752
  154.8734  135.3783  154.4556 H   0  0  0  0  0  0  0  0  0  0  0  0  # atno 10764 bound_to 10752
  153.5059  135.7088  153.5868 H   0  0  0  0  0  0  0  0  0  0  0  0  # atno 10765 bound_to 10752
  141.1345  133.8245  157.0839 H   0  0  0  0  0  0  0  0  0  0  0  0  # atno 11005 bound_to 11000
  144.9351  139.4253  143.6476 LP  0  0  0  0  0  0  0  0  0  0  0  0  # atno 17320 bound_to 7965
  146.3252  139.8282  142.8913 LP  0  0  0  0  0  0  0  0  0  0  0  0  # atno 17321 bound_to 7965
  140.7695  143.3398  151.2231 LP  0  0  0  0  0  0  0  0  0  0  0  0  # atno 17342 bound_to 10162
  139.6981  143.9579  152.2892 LP  0  0  0  0  0  0  0  0  0  0  0  0  # atno 17343 bound_to 10162
  157.7282  131.0634  150.5832 LP  0  0  0  0  0  0  0  0  0  0  0  0  # atno 17370 bound_to 10713
  156.5928  130.4334  149.5929 LP  0  0  0  0  0  0  0  0  0  0  0  0  # atno 17371 bound_to 10713
  140.0434  134.9842  157.1004 LP  0  0  0  0  0  0  0  0  0  0  0  0  # atno 17394 bound_to 11000
  140.4100  134.1992  155.7163 LP  0  0  0  0  0  0  0  0  0  0  0  0  # atno 17395 bound_to 11000

$$$$
