#       Name:                AV-unprocessed.smi:39
#       Creating user name   scv26
#       Creation time:       Thu Mar 26 16:20:03 2020


#       File generated by GOLD software.
#

@<TRIPOS>MOLECULE
AV-unprocessed.smi:39
    42    43     1
SMALL
NO_CHARGES


@<TRIPOS>ATOM
      1 ****        -3.6576   1.6007  -0.6399 C.3            1 S1                 0.0000
      2 ****        -2.9546   0.2797  -0.3796 C.2            1 S1                 0.0000
      3 ****        -1.6210   0.1283  -0.5404 C.2            1 S1                 0.0000
      4 ****        -0.9839  -1.0781  -0.3000 N.am           1 S1                 0.0000
      5 ****         0.5127  -1.2432  -0.4777 C.3            1 S1                 0.0000
      6 ****         1.2142  -1.3123   0.8887 C.3            1 S1                 0.0000
      7 ****         2.3273  -0.2874   0.7420 C.3            1 S1                 0.0000
      8 ****         2.7193   0.3172   2.0173 N.2            1 S1                 0.0000
      9 ****         3.3708  -0.3986   2.7892 N.1            1 S1                 1.0000
     10 ****         3.8598  -1.0861   3.5530 N.1            1 S1                -1.0000
     11 ****         1.6904   0.7225  -0.2128 C.3            1 S1                 0.0000
     12 ****         2.7081   1.6096  -0.9450 C.3            1 S1                 0.0000
     13 ****         2.0513   2.7175  -1.5219 O.3            1 S1                 0.0000
     14 ****         1.0413  -0.1340  -1.1465 O.3            1 S1                 0.0000
     15 ****        -1.7468  -2.2004   0.1169 C.2            1 S1                 0.0000
     16 ****        -1.1531  -3.2610   0.3144 O.2            1 S1                 0.0000
     17 ****        -3.0923  -2.0571   0.2819 N.pl3          1 S1                -1.0000
     18 ****        -3.7415  -0.8784   0.0606 C.2            1 S1                 0.0000
     19 ****        -4.9563  -0.7617   0.2180 O.2            1 S1                 0.0000
     20 ****         0.6423  -2.1332  -1.0958 H              1 S1                 0.0000
     21 ****         3.1822  -0.7539   0.2477 H              1 S1                 0.0000
     22 ****         0.9549   1.3251   0.3241 H              1 S1                 0.0000
     23 ****        -2.9524   2.3705  -0.9538 H              1 S1                 0.0000
     24 ****        -4.1586   1.9497   0.2635 H              1 S1                 0.0000
     25 ****        -4.4047   1.4863  -1.4257 H              1 S1                 0.0000
     26 ****        -1.0499   0.9834  -0.8670 H              1 S1                 0.0000
     27 ****         0.5192  -1.0253   1.6802 H              1 S1                 0.0000
     28 ****         1.5803  -2.3197   1.0888 H              1 S1                 0.0000
     29 ****         3.4467   1.9958  -0.2420 H              1 S1                 0.0000
     30 ****         3.2484   1.0481  -1.7076 H              1 S1                 0.0000
     31 ****         1.4029   2.3951  -2.1295 H              1 S1                 0.0000
     32 ****         2.4738   1.2578   2.2518 LP             1 S1                 0.0000
     33 ****         4.2895  -1.6902   4.2241 LP             1 S1                 0.0000
     34 ****         2.7139   3.2888  -2.0062 LP             1 S1                 0.0000
     35 ****         1.6061   3.2566  -0.8069 LP             1 S1                 0.0000
     36 ****         0.3021   0.3656  -1.5982 LP             1 S1                 0.0000
     37 ****         1.7023  -0.4419  -1.8309 LP             1 S1                 0.0000
     38 ****        -0.1634  -3.3125   0.1804 LP             1 S1                 0.0000
     39 ****        -1.6606  -4.0708   0.6088 LP             1 S1                 0.0000
     40 ****        -3.6257  -2.8495   0.5776 LP             1 S1                 0.0000
     41 ****        -5.4005   0.1176   0.0462 LP             1 S1                 0.0000
     42 ****        -5.4993  -1.5461   0.5177 LP             1 S1                 0.0000
@<TRIPOS>BOND
    1    1    2 1     
    2    1   23 1     
    3    1   24 1     
    4    1   25 1     
    5    2   18 1     
    6    2    3 2     
    7    3    4 1     
    8    3   26 1     
    9    4    5 1     
   10    4   15 am    
   11    5   20 1     
   12    5   14 1     
   13    5    6 1     
   14    6    7 1     
   15    6   27 1     
   16    6   28 1     
   17    7   21 1     
   18    7    8 1     
   19    7   11 1     
   20    8    9 2     
   21    9   10 2     
   22   11   22 1     
   23   11   12 1     
   24   11   14 1     
   25   12   13 1     
   26   12   29 1     
   27   12   30 1     
   28   13   31 1     
   29   15   16 2     
   30   15   17 1     
   31   17   18 1     
   32   18   19 2     
   33    8   32 1     
   34   10   33 1     
   35   13   34 1     
   36   13   35 1     
   37   14   36 1     
   38   14   37 1     
   39   16   38 1     
   40   16   39 1     
   41   17   40 1     
   42   19   41 1     
   43   19   42 1     
@<TRIPOS>SUBSTRUCTURE
      1 S1             1
@<TRIPOS>SET
LONE_PAIRS      STATIC     ATOMS    <user>   **** ""
11 32 33 34 35 36 37 38 39 40 41 42
DONOR_HYDROGENS      STATIC     ATOMS    <user>   **** ""
1 31
ATOM$BLUE        STATIC     ATOMS    COLORGROUP SYSTEM
11 32 33 34 35 36 37 38 39 40 41 42
ATOM$RED        STATIC     ATOMS    COLORGROUP SYSTEM
1 31
