AV-unprocessed.smi:2053|AV-procd|sdf|8331|dock2
  -GOLD-   2272010593D 1   1.00000     0.00000
 Structure written by MMmdl.
 44 45  0  0  0  0  0  0  0  0  1 V2000
  157.4564  138.2421  152.2768 C   0  0  0  0  0  0  0  0  0  0  0  0
  156.7633  138.2468  153.5125 O   0  0  0  0  0  0  0  0  0  0  0  0
  155.4909  138.8655  153.4186 C   0  0  0  0  0  0  0  0  0  0  0  0
  154.5028  138.1263  154.3257 C   0  0  0  0  0  0  0  0  0  0  0  0
  153.5417  139.0586  154.8116 O   0  0  0  0  0  0  0  0  0  0  0  0
  152.4274  138.5765  155.4670 C   0  0  0  0  0  0  0  0  0  0  0  0
  151.4135  139.4859  155.8270 C   0  0  0  0  0  0  0  0  0  0  0  0
  150.2729  139.0049  156.4978 C   0  0  0  0  0  0  0  0  0  0  0  0
  150.1869  137.6241  156.7964 C   0  0  0  0  0  0  0  0  0  0  0  0
  149.0839  137.0088  157.4473 N   0  0  0  0  0  0  0  0  0  0  0  0
  149.0284  135.8294  158.0932 C   0  0  0  0  0  0  0  0  0  0  0  0
  149.9706  135.0427  158.1867 O   0  0  0  0  0  0  0  0  0  0  0  0
  147.6647  135.4939  158.7194 C   0  0  1  0  0  0  0  0  0  0  0  0
  146.9316  134.3211  158.0438 C   0  0  0  0  0  0  0  0  0  0  0  0
  147.3351  133.1137  158.8782 C   0  0  0  0  0  0  0  0  0  0  0  0
  147.4125  133.6854  160.2922 C   0  0  0  0  0  0  0  0  0  0  0  0
  147.7772  135.1013  160.1343 N   0  0  0  0  0  0  0  0  0  0  0  0
  147.2747  136.2276  161.3494 S   0  0  0  0  0  0  0  0  0  0  0  0
  146.1907  135.2063  162.4275 C   0  0  0  0  0  0  0  0  0  0  0  0
  148.4662  136.6077  162.1238 O   0  0  0  0  0  0  0  0  0  0  0  0
  146.4655  137.2659  160.6934 O   0  0  0  0  0  0  0  0  0  0  0  0
  151.2499  136.7960  156.3805 C   0  0  0  0  0  0  0  0  0  0  0  0
  152.3461  137.2505  155.7375 N   0  0  0  0  0  0  0  0  0  0  0  0
  158.4253  137.7588  152.4017 H   0  0  0  0  0  0  0  0  0  0  0  0
  157.6307  139.2572  151.9179 H   0  0  0  0  0  0  0  0  0  0  0  0
  156.9013  137.6921  151.5157 H   0  0  0  0  0  0  0  0  0  0  0  0
  155.5739  139.9041  153.7421 H   0  0  0  0  0  0  0  0  0  0  0  0
  155.1320  138.8703  152.3881 H   0  0  0  0  0  0  0  0  0  0  0  0
  154.0249  137.3113  153.7792 H   0  0  0  0  0  0  0  0  0  0  0  0
  155.0469  137.6936  155.1668 H   0  0  0  0  0  0  0  0  0  0  0  0
  151.5061  140.5349  155.5877 H   0  0  0  0  0  0  0  0  0  0  0  0
  149.4890  139.7001  156.7534 H   0  0  0  0  0  0  0  0  0  0  0  0
  148.2120  137.5159  157.3891 H   0  0  0  0  0  0  0  0  0  0  0  0
  147.0368  136.3827  158.6362 H   0  0  0  0  0  0  0  0  0  0  0  0
  145.8539  134.4743  158.1169 H   0  0  0  0  0  0  0  0  0  0  0  0
  147.1650  134.1945  156.9859 H   0  0  0  0  0  0  0  0  0  0  0  0
  146.6305  132.2858  158.7947 H   0  0  0  0  0  0  0  0  0  0  0  0
  148.3166  132.7542  158.5662 H   0  0  0  0  0  0  0  0  0  0  0  0
  146.4385  133.6118  160.7773 H   0  0  0  0  0  0  0  0  0  0  0  0
  148.1421  133.1640  160.9122 H   0  0  0  0  0  0  0  0  0  0  0  0
  145.8349  135.8123  163.2605 H   0  0  0  0  0  0  0  0  0  0  0  0
  146.7565  134.3584  162.8129 H   0  0  0  0  0  0  0  0  0  0  0  0
  145.3370  134.8450  161.8550 H   0  0  0  0  0  0  0  0  0  0  0  0
  151.2232  135.7333  156.5723 H   0  0  0  0  0  0  0  0  0  0  0  0
  1  2  1  0  0  0  0
  1 24  1  0  0  0  0
  1 25  1  0  0  0  0
  1 26  1  0  0  0  0
  2  3  1  0  0  0  0
  3  4  1  0  0  0  0
  3 27  1  0  0  0  0
  3 28  1  0  0  0  0
  4  5  1  0  0  0  0
  4 29  1  0  0  0  0
  4 30  1  0  0  0  0
  5  6  1  0  0  0  0
  6 23  1  0  0  0  0
  6  7  2  0  0  0  0
  7  8  1  0  0  0  0
  7 31  1  0  0  0  0
  8  9  2  0  0  0  0
  8 32  1  0  0  0  0
  9 10  1  0  0  0  0
  9 22  1  0  0  0  0
 10 11  1  0  0  0  0
 10 33  1  0  0  0  0
 11 12  2  0  0  0  0
 11 13  1  0  0  0  0
 13 17  1  0  0  0  0
 13 14  1  0  0  0  0
 13 34  1  0  0  0  0
 14 15  1  0  0  0  0
 14 35  1  0  0  0  0
 14 36  1  0  0  0  0
 15 16  1  0  0  0  0
 15 37  1  0  0  0  0
 15 38  1  0  0  0  0
 16 17  1  0  0  0  0
 16 39  1  0  0  0  0
 16 40  1  0  0  0  0
 17 18  1  0  0  0  0
 18 19  1  0  0  0  0
 18 20  2  0  0  0  0
 18 21  2  0  0  0  0
 19 41  1  0  0  0  0
 19 42  1  0  0  0  0
 19 43  1  0  0  0  0
 22 23  2  0  0  0  0
 22 44  1  0  0  0  0
M  END
> <s_m_source_file>
AV-unprocessed.smi

> <i_m_source_file_index>
2053

> <i_lp_mmshare_version>
43012

> <i_f3d_flags>
0

> <s_epik_input>
W0NIM11PW0NIMl1bQ0gyXU9jMVtjSF1bY0hdYyhbY0hdbjEpW05IXUMoPU8pW0NAQEhdMltDSDJdW0NIMl1bQ0gyXU4yUyg9TykoPU8pW0NIM10=

> <s_epik_cmdline>
J2VwaWtfcHl0aG9uJywgJy1waCcsICc3LjAnLCAnLXRuJywgJzgnLCAnLW1hJywgJzIwMCcsICctbWV0YWxfYmluZGluZycsICctaW1hZScsICc8aW5maWxlLm1hZT4nLCAnLW9tYWUnLCAnPG91dGZpbGUubWFlPic=

> <r_lp_tautomer_probability>
1

> <r_epik_Ionization_Penalty>
1.28704e-05

> <r_epik_Ionization_Penalty_Charging>
0

> <r_epik_Ionization_Penalty_Neutral>
1.28704e-05

> <r_epik_State_Penalty>
-0

> <r_epik_Charging_Adjusted_Penalty>
0

> <i_epik_Tot_Q>
0

> <i_epik_Tot_abs_Q>
0

> <r_epik_Metal_State_Penalty>
-0

> <b_epik_Metal_Only>
0

> <s_lp_Force_Field>
OPLS_2005

> <r_lp_Energy>
12.3258

> <b_lp_Chiralities_Consistent>
1

> <s_lp_Variant>
AV-unprocessed.smi:2053-2

> <Gold.Version>
5.8.1

> <Gold.Id.Protein>
6NUR|6NUR_protein|mol2

> <Gold.PLP.Fitness>
38.3761

> <Gold.PLP.PLP>
-26.3797

> <Gold.PLP.part.hbond>
-5.0000

> <Gold.PLP.part.metal>
0.0000

> <Gold.PLP.part.buried>
-3.3087

> <Gold.PLP.part.nonpolar>
-20.1248

> <Gold.PLP.part.repulsive>
0.1067

> <Gold.PLP.ligand.clash>
0.0000

> <Gold.PLP.ligand.torsion>
1.0130

> <Gold.PLP.Chemscore.Hbond>
4.4816

> <Gold.PLP.Chemscore.CHOScore>
0.0000

> <Gold.PLP.Chemscore.Metal>
0.0000

> <Gold.Chemscore.Hbonds>
donor molecule, donor type, donor heavy atom, donor atom, acceptor molecule, acceptor atom, score
      P1  H  6896  6909       L1    12  0.82
      P1  H  6931  6943       L1    20  1.00
      P1  H  6934  6947       L1    21  1.00
      P1  H  7997  8010       L1     5  0.95
      P1  H 10752 10765       L1    23  0.79

> <Gold.PLP.Chemscore.Internal.Correction>
0.5777

> <Gold.Rescore>
     Score         DG    S(hbond)    S(metal)    S(lipo)     H(rot)  DE(clash)    DE(int)     intcor
     16.94     -21.24       4.15        0.00      65.48       2.26       1.74       2.55       ----

> <Gold.Chemscore.Fitness>
16.9445

> <Gold.Chemscore.DG>
-21.2352

> <Gold.Chemscore.ZeroCoef>
-5.4800

> <Gold.Chemscore.Hbond>
4.1537

> <Gold.Chemscore.Metal>
0.0000

> <Gold.Chemscore.Lipo>
65.4806

> <Gold.Chemscore.Internal_Hbond>
0.0000

> <Gold.Chemscore.DEClash>
1.7365

> <Gold.Chemscore.DEInternal>
2.5541

> <Gold.Chemscore.Rot>
2.2576

> <Gold.Chemscore.Internal.Correction>
   9.000000E+99

> <Gold.Chemscore.Hbonds>
donor molecule, donor type, donor heavy atom, donor atom, acceptor molecule, acceptor atom, score
      P1  H  6896  6909       L1    12  0.81
      P1  H  6931  6943       L1    20  0.94
      P1  H  6934  6947       L1    21  0.88
      P1  H  7997  8010       L1     5  0.20
      P1  H 10752 10765       L1    23  0.26

> <Gold.Chemscore.Hbond.Weighted>
-13.8735

> <Gold.Chemscore.Metal.Weighted>
-0.0000

> <Gold.Chemscore.Lipo.Weighted>
-7.6612

> <Gold.Chemscore.Internal_Hbond.Weighted>
0.0000

> <Gold.Chemscore.DEClash.Weighted>
1.7365

> <Gold.Chemscore.DEInternal.Weighted>
2.5541

> <Gold.Chemscore.Rot.Weighted>
5.7796

> <Gold.Chemscore.Internal.Correction.Weighted>
   9.000000E+99

> <Gold.Protein.RotatedTorsions>
[ 6907 6896 6895 6894 ] final   22.37 input  -60.11 | X-H torsion
[ 7974 7965 7964 7962 ] final   -0.68 input  175.53 | X-H torsion
[ 8008 7997 7996 7995 ] final  125.28 input   59.86 | X-H torsion
[ 10167 10162 10161 10158 ] final -132.85 input  -65.29 | X-H torsion
[ 10718 10713 10712 10709 ] final  157.97 input   66.30 | X-H torsion
[ 10763 10752 10751 10750 ] final -167.33 input  -60.55 | X-H torsion
[ 11005 11000 10999 10996 ] final   53.98 input  -57.11 | X-H torsion

> <Gold.Protein.ActiveResidues>
 VAL166  LYS551  ARG553  GLY616  TRP617  ASP618  TYR619  PRO620  LYS621  CYS622 
 ASP623  PHE694  ASN695  SER759  ASP760  ASP761  ALA762  ILE779  LEU786  VAL792 
 PHE793  MET794  SER795  GLU796  ALA797  LYS798  CYS799  TRP800  GLU811  SER814 

> <Gold.Protein.RotatedAtoms>
  151.9261  135.0277  160.0525 H   0  0  0  0  0  0  0  0  0  0  0  0  # atno 6907 bound_to 6896
  152.2158  133.4941  159.5143 H   0  0  0  0  0  0  0  0  0  0  0  0  # atno 6908 bound_to 6896
  150.6987  134.1324  159.4117 H   0  0  0  0  0  0  0  0  0  0  0  0  # atno 6909 bound_to 6896
  146.2425  140.1306  142.8338 H   0  0  0  0  0  0  0  0  0  0  0  0  # atno 7974 bound_to 7965
  156.2829  140.2720  156.1923 H   0  0  0  0  0  0  0  0  0  0  0  0  # atno 8008 bound_to 7997
  155.0445  140.0386  157.2539 H   0  0  0  0  0  0  0  0  0  0  0  0  # atno 8009 bound_to 7997
  154.7246  140.2694  155.6516 H   0  0  0  0  0  0  0  0  0  0  0  0  # atno 8010 bound_to 7997
  139.9043  143.6570  152.2588 H   0  0  0  0  0  0  0  0  0  0  0  0  # atno 10167 bound_to 10162
  157.1843  131.0640  151.2114 H   0  0  0  0  0  0  0  0  0  0  0  0  # atno 10718 bound_to 10713
  154.6742  135.2944  154.9701 H   0  0  0  0  0  0  0  0  0  0  0  0  # atno 10763 bound_to 10752
  154.0717  135.6617  153.4829 H   0  0  0  0  0  0  0  0  0  0  0  0  # atno 10764 bound_to 10752
  153.0506  135.5176  154.7753 H   0  0  0  0  0  0  0  0  0  0  0  0  # atno 10765 bound_to 10752
  140.0723  134.5453  155.9033 H   0  0  0  0  0  0  0  0  0  0  0  0  # atno 11005 bound_to 11000
  145.0329  140.8885  143.5098 LP  0  0  0  0  0  0  0  0  0  0  0  0  # atno 17320 bound_to 7965
  145.1373  139.2594  143.5508 LP  0  0  0  0  0  0  0  0  0  0  0  0  # atno 17321 bound_to 7965
  139.6998  144.7636  151.1294 LP  0  0  0  0  0  0  0  0  0  0  0  0  # atno 17342 bound_to 10162
  140.7700  143.5474  150.9243 LP  0  0  0  0  0  0  0  0  0  0  0  0  # atno 17343 bound_to 10162
  157.3922  130.7288  149.6706 LP  0  0  0  0  0  0  0  0  0  0  0  0  # atno 17370 bound_to 10713
  155.9720  130.4143  150.4126 LP  0  0  0  0  0  0  0  0  0  0  0  0  # atno 17371 bound_to 10713
  141.2016  133.6620  156.5961 LP  0  0  0  0  0  0  0  0  0  0  0  0  # atno 17394 bound_to 11000
  140.3609  134.7688  157.4533 LP  0  0  0  0  0  0  0  0  0  0  0  0  # atno 17395 bound_to 11000

$$$$
