AV-unprocessed.smi:510|AV-procd|sdf|2762|dock4
  -GOLD-   2262023223D 1   1.00000     0.00000
 Structure written by MMmdl.
 30 31  0  0  0  0  0  0  0  0  1 V2000
  151.1967  145.1684  159.1154 C   0  0  0  0  0  0  0  0  0  0  0  0
  151.6116  143.8341  159.3451 O   0  0  0  0  0  0  0  0  0  0  0  0
  151.7646  143.0960  158.1437 C   0  0  0  0  0  0  0  0  0  0  0  0
  150.4165  142.4940  157.7217 C   0  0  0  0  0  0  0  0  0  0  0  0
  150.5770  141.4081  156.7598 N   0  0  0  0  0  0  0  0  0  0  0  0
  150.0942  141.3470  155.4939 C   0  0  0  0  0  0  0  0  0  0  0  0
  149.3525  142.3945  154.9677 N   0  0  0  0  0  0  0  0  0  0  0  0
  150.3856  140.2272  154.8288 N   0  0  0  0  0  0  0  0  0  0  0  0
  151.1192  139.5054  155.7606 C   0  0  0  0  0  0  0  0  0  0  0  0
  151.2449  140.1943  156.9237 C   0  0  0  0  0  0  0  0  0  0  0  0
  151.9690  139.6578  158.0828 C   0  0  0  0  0  0  0  0  0  0  0  0
  152.0903  140.2607  159.1466 O   0  0  0  0  0  0  0  0  0  0  0  0
  152.4897  138.4268  157.8583 N   0  0  0  0  0  0  0  0  0  0  0  0
  152.4028  137.6810  156.7141 C   0  0  0  0  0  0  0  0  0  0  0  0
  152.9357  136.5727  156.6681 O   0  0  0  0  0  0  0  0  0  0  0  0
  151.7124  138.2168  155.6549 N   0  0  0  0  0  0  0  0  0  0  0  0
  151.5555  137.4986  154.3885 C   0  0  0  0  0  0  0  0  0  0  0  0
  152.9997  138.0113  158.6241 H   0  0  0  0  0  0  0  0  0  0  0  0
  151.0928  145.6884  160.0677 H   0  0  0  0  0  0  0  0  0  0  0  0
  150.2319  145.1994  158.6078 H   0  0  0  0  0  0  0  0  0  0  0  0
  151.9274  145.7104  158.5138 H   0  0  0  0  0  0  0  0  0  0  0  0
  152.1437  143.7471  157.3544 H   0  0  0  0  0  0  0  0  0  0  0  0
  152.4950  142.2983  158.2860 H   0  0  0  0  0  0  0  0  0  0  0  0
  149.8868  142.1177  158.5970 H   0  0  0  0  0  0  0  0  0  0  0  0
  149.7707  143.2620  157.2988 H   0  0  0  0  0  0  0  0  0  0  0  0
  149.1552  143.2228  155.5109 H   0  0  0  0  0  0  0  0  0  0  0  0
  148.9844  142.3631  154.0282 H   0  0  0  0  0  0  0  0  0  0  0  0
  152.0378  136.5210  154.3689 H   0  0  0  0  0  0  0  0  0  0  0  0
  151.9771  138.0866  153.5725 H   0  0  0  0  0  0  0  0  0  0  0  0
  150.4969  137.3439  154.1775 H   0  0  0  0  0  0  0  0  0  0  0  0
  1  2  1  0  0  0  0
  1 19  1  0  0  0  0
  1 20  1  0  0  0  0
  1 21  1  0  0  0  0
  2  3  1  0  0  0  0
  3  4  1  0  0  0  0
  3 22  1  0  0  0  0
  3 23  1  0  0  0  0
  4  5  1  0  0  0  0
  4 24  1  0  0  0  0
  4 25  1  0  0  0  0
  5 10  1  0  0  0  0
  5  6  1  0  0  0  0
  6  7  1  0  0  0  0
  6  8  2  0  0  0  0
  7 26  1  0  0  0  0
  7 27  1  0  0  0  0
  8  9  1  0  0  0  0
  9 16  1  0  0  0  0
  9 10  2  0  0  0  0
 10 11  1  0  0  0  0
 11 12  2  0  0  0  0
 11 13  1  0  0  0  0
 13 18  1  0  0  0  0
 13 14  1  0  0  0  0
 14 15  2  0  0  0  0
 14 16  1  0  0  0  0
 16 17  1  0  0  0  0
 17 28  1  0  0  0  0
 17 29  1  0  0  0  0
 17 30  1  0  0  0  0
M  END
> <s_m_source_file>
AV-unprocessed.smi

> <i_m_source_file_index>
510

> <i_lp_mmshare_version>
43012

> <i_f3d_flags>
0

> <s_epik_input>
W0NIM11PW0NIMl1bQ0gyXW4oYyhuMSlbTkgyXSljKGMxMiljKD1PKVtuSF1jKD1PKW4yW0NIM10=

> <s_epik_cmdline>
J2VwaWtfcHl0aG9uJywgJy1waCcsICc3LjAnLCAnLXRuJywgJzgnLCAnLW1hJywgJzIwMCcsICctbWV0YWxfYmluZGluZycsICctaW1hZScsICc8aW5maWxlLm1hZT4nLCAnLW9tYWUnLCAnPG91dGZpbGUubWFlPic=

> <r_lp_tautomer_probability>
1

> <r_epik_Ionization_Penalty>
0.000102378

> <r_epik_Ionization_Penalty_Charging>
3.81714e-05

> <r_epik_Ionization_Penalty_Neutral>
6.42066e-05

> <r_epik_State_Penalty>
-0

> <r_epik_Charging_Adjusted_Penalty>
3.81714e-05

> <i_epik_Tot_Q>
0

> <i_epik_Tot_abs_Q>
0

> <r_epik_Metal_State_Penalty>
0.0348186

> <b_epik_Metal_Only>
0

> <s_lp_Force_Field>
OPLS_2005

> <r_lp_Energy>
22.8727

> <b_lp_Chiralities_Consistent>
1

> <s_lp_Variant>
AV-unprocessed.smi:510-1

> <Gold.Version>
5.8.1

> <Gold.Id.Protein>
6NUR|6NUR_protein|mol2

> <Gold.PLP.Fitness>
37.4960

> <Gold.PLP.PLP>
-29.0887

> <Gold.PLP.part.hbond>
-2.7579

> <Gold.PLP.part.metal>
0.0000

> <Gold.PLP.part.buried>
-5.2078

> <Gold.PLP.part.nonpolar>
-22.4883

> <Gold.PLP.part.repulsive>
0.4142

> <Gold.PLP.ligand.clash>
0.0000

> <Gold.PLP.ligand.torsion>
0.2237

> <Gold.PLP.Chemscore.Hbond>
2.9513

> <Gold.PLP.Chemscore.CHOScore>
0.0000

> <Gold.PLP.Chemscore.Metal>
0.0000

> <Gold.Chemscore.Hbonds>
donor molecule, donor type, donor heavy atom, donor atom, acceptor molecule, acceptor atom, score
      L1  H     7    26       P1  8028  0.99
      P1  H  7989  7998       L1     8  1.00
      P1  H 10752 10763       L1    15  1.00

> <Gold.PLP.Chemscore.Internal.Correction>
0.0010

> <Gold.Rescore>
     Score         DG    S(hbond)    S(metal)    S(lipo)     H(rot)  DE(clash)    DE(int)     intcor
     12.88     -13.23       2.20        0.00      42.32       1.78       0.23       0.11       ----

> <Gold.Chemscore.Fitness>
12.8837

> <Gold.Chemscore.DG>
-13.2262

> <Gold.Chemscore.ZeroCoef>
-5.4800

> <Gold.Chemscore.Hbond>
2.2034

> <Gold.Chemscore.Metal>
0.0000

> <Gold.Chemscore.Lipo>
42.3197

> <Gold.Chemscore.Internal_Hbond>
0.0000

> <Gold.Chemscore.DEClash>
0.2331

> <Gold.Chemscore.DEInternal>
0.1095

> <Gold.Chemscore.Rot>
1.7830

> <Gold.Chemscore.Internal.Correction>
   9.000000E+99

> <Gold.Chemscore.Hbonds>
donor molecule, donor type, donor heavy atom, donor atom, acceptor molecule, acceptor atom, score
      L1  H     7    26       P1  8028  0.89
      P1  H  7989  7998       L1     8  0.22
      P1  H 10752 10763       L1    15  0.97

> <Gold.Chemscore.Hbond.Weighted>
-7.3594

> <Gold.Chemscore.Metal.Weighted>
-0.0000

> <Gold.Chemscore.Lipo.Weighted>
-4.9514

> <Gold.Chemscore.Internal_Hbond.Weighted>
0.0000

> <Gold.Chemscore.DEClash.Weighted>
0.2331

> <Gold.Chemscore.DEInternal.Weighted>
0.1095

> <Gold.Chemscore.Rot.Weighted>
4.5646

> <Gold.Chemscore.Internal.Correction.Weighted>
   9.000000E+99

> <Gold.Protein.RotatedTorsions>
[ 6907 6896 6895 6894 ] final  -82.98 input  -60.11 | X-H torsion
[ 7974 7965 7964 7962 ] final  -19.33 input  175.53 | X-H torsion
[ 8008 7997 7996 7995 ] final  -99.81 input   59.86 | X-H torsion
[ 10167 10162 10161 10158 ] final  155.20 input  -65.29 | X-H torsion
[ 10718 10713 10712 10709 ] final  -80.89 input   66.30 | X-H torsion
[ 10763 10752 10751 10750 ] final  110.82 input  -60.55 | X-H torsion
[ 11005 11000 10999 10996 ] final   65.76 input  -57.11 | X-H torsion

> <Gold.Protein.ActiveResidues>
 VAL166  LYS551  ARG553  GLY616  TRP617  ASP618  TYR619  PRO620  LYS621  CYS622 
 ASP623  PHE694  ASN695  SER759  ASP760  ASP761  ALA762  ILE779  LEU786  VAL792 
 PHE793  MET794  SER795  GLU796  ALA797  LYS798  CYS799  TRP800  GLU811  SER814 

> <Gold.Protein.RotatedAtoms>
  150.6891  134.3583  159.4938 H   0  0  0  0  0  0  0  0  0  0  0  0  # atno 6907 bound_to 6896
  152.1415  134.9056  160.0562 H   0  0  0  0  0  0  0  0  0  0  0  0  # atno 6908 bound_to 6896
  152.0188  133.3855  159.4286 H   0  0  0  0  0  0  0  0  0  0  0  0  # atno 6909 bound_to 6896
  146.1847  140.4046  142.8481 H   0  0  0  0  0  0  0  0  0  0  0  0  # atno 7974 bound_to 7965
  154.8200  140.0445  157.1404 H   0  0  0  0  0  0  0  0  0  0  0  0  # atno 8008 bound_to 7997
  154.9271  140.3034  155.5166 H   0  0  0  0  0  0  0  0  0  0  0  0  # atno 8009 bound_to 7997
  156.2979  140.2330  156.4327 H   0  0  0  0  0  0  0  0  0  0  0  0  # atno 8010 bound_to 7997
  139.4821  144.5119  151.8011 H   0  0  0  0  0  0  0  0  0  0  0  0  # atno 10167 bound_to 10162
  156.0061  130.4587  150.3868 H   0  0  0  0  0  0  0  0  0  0  0  0  # atno 10718 bound_to 10713
  153.4544  135.3736  155.2302 H   0  0  0  0  0  0  0  0  0  0  0  0  # atno 10763 bound_to 10752
  154.8757  135.3893  154.4000 H   0  0  0  0  0  0  0  0  0  0  0  0  # atno 10764 bound_to 10752
  153.4564  135.7086  153.6141 H   0  0  0  0  0  0  0  0  0  0  0  0  # atno 10765 bound_to 10752
  139.9874  134.6646  156.0152 H   0  0  0  0  0  0  0  0  0  0  0  0  # atno 11005 bound_to 11000
  144.8376  140.6806  143.6250 LP  0  0  0  0  0  0  0  0  0  0  0  0  # atno 17320 bound_to 7965
  145.3974  139.1604  143.4196 LP  0  0  0  0  0  0  0  0  0  0  0  0  # atno 17321 bound_to 7965
  140.4623  144.1704  150.5908 LP  0  0  0  0  0  0  0  0  0  0  0  0  # atno 17342 bound_to 10162
  140.4471  143.2502  151.9397 LP  0  0  0  0  0  0  0  0  0  0  0  0  # atno 17343 bound_to 10162
  157.1945  131.0423  151.2683 LP  0  0  0  0  0  0  0  0  0  0  0  0  # atno 17370 bound_to 10713
  157.4031  130.7344  149.6782 LP  0  0  0  0  0  0  0  0  0  0  0  0  # atno 17371 bound_to 10713
  141.1536  133.6545  156.4091 LP  0  0  0  0  0  0  0  0  0  0  0  0  # atno 17394 bound_to 11000
  140.4976  134.6516  157.5235 LP  0  0  0  0  0  0  0  0  0  0  0  0  # atno 17395 bound_to 11000

$$$$
