AV-unprocessed.smi:1047|AV-procd|sdf|4564|dock9
  -GOLD-   22720 3 13D 1   1.00000     0.00000
 Structure written by MMmdl.
 57 59  0  0  0  0  0  0  0  0  3 V2000
  146.3501  133.6824  150.5149 C   0  0  0  0  0  0  0  0  0  0  0  0
  145.0818  134.4975  150.2239 C   0  0  0  0  0  0  0  0  0  0  0  0
  144.8605  135.5875  151.2074 N   0  3  1  0  0  0  0  0  0  0  0  0
  144.4910  135.0673  152.5456 C   0  0  0  0  0  0  0  0  0  0  0  0
  144.2133  136.2246  153.5195 C   0  0  0  0  0  0  0  0  0  0  0  0
  145.3533  137.0726  153.5959 O   0  0  0  0  0  0  0  0  0  0  0  0
  145.6813  137.6479  152.3357 C   0  0  1  0  0  0  0  0  0  0  0  0
  146.8319  138.6508  152.5280 C   0  0  0  0  0  0  0  0  0  0  0  0
  146.4302  139.8103  153.3515 N   0  3  0  0  0  0  0  0  0  0  0  0
  147.4972  140.8134  153.5361 C   0  0  0  0  0  0  0  0  0  0  0  0
  148.6425  140.2630  154.4073 C   0  0  1  0  0  0  0  0  0  0  0  0
  149.5593  139.5849  153.5700 O   0  0  0  0  0  0  0  0  0  0  0  0
  149.3924  141.3560  155.2003 C   0  0  0  0  0  0  0  0  0  0  0  0
  150.2193  140.8299  156.2746 N   0  0  0  0  0  0  0  0  0  0  0  0
  150.5194  139.5378  156.5110 C   0  0  0  0  0  0  0  0  0  0  0  0
  151.3072  139.2750  157.5490 N   0  0  0  0  0  0  0  0  0  0  0  0
  151.5391  140.5434  158.0515 C   0  0  0  0  0  0  0  0  0  0  0  0
  152.3063  140.9640  159.1595 C   0  0  0  0  0  0  0  0  0  0  0  0
  152.4047  142.3330  159.4954 C   0  0  0  0  0  0  0  0  0  0  0  0
  153.2379  142.7396  160.6980 C   0  0  0  0  0  0  0  0  0  0  0  0
  151.7275  143.3060  158.7174 C   0  0  0  0  0  0  0  0  0  0  0  0
  151.8150  144.7821  159.0626 C   0  0  0  0  0  0  0  0  0  0  0  0
  150.9582  142.9033  157.6060 C   0  0  0  0  0  0  0  0  0  0  0  0
  150.8690  141.5380  157.2808 C   0  0  0  0  0  0  0  0  0  0  0  0
  146.0001  136.5324  151.3178 C   0  0  0  0  0  0  0  0  0  0  0  0
  146.5342  132.9656  149.7142 H   0  0  0  0  0  0  0  0  0  0  0  0
  146.2685  133.1135  151.4408 H   0  0  0  0  0  0  0  0  0  0  0  0
  147.2272  134.3260  150.5885 H   0  0  0  0  0  0  0  0  0  0  0  0
  145.1873  134.9354  149.2303 H   0  0  0  0  0  0  0  0  0  0  0  0
  144.2080  133.8455  150.1832 H   0  0  0  0  0  0  0  0  0  0  0  0
  143.6044  134.4368  152.4667 H   0  0  0  0  0  0  0  0  0  0  0  0
  145.2966  134.4400  152.9305 H   0  0  0  0  0  0  0  0  0  0  0  0
  143.3384  136.7968  153.2064 H   0  0  0  0  0  0  0  0  0  0  0  0
  143.9976  135.8335  154.5140 H   0  0  0  0  0  0  0  0  0  0  0  0
  144.8157  138.2092  151.9783 H   0  0  0  0  0  0  0  0  0  0  0  0
  147.6795  138.1507  152.9986 H   0  0  0  0  0  0  0  0  0  0  0  0
  147.1745  139.0092  151.5565 H   0  0  0  0  0  0  0  0  0  0  0  0
  145.6363  140.2589  152.9169 H   0  0  0  0  0  0  0  0  0  0  0  0
  147.8700  141.1246  152.5592 H   0  0  0  0  0  0  0  0  0  0  0  0
  147.0654  141.6953  154.0112 H   0  0  0  0  0  0  0  0  0  0  0  0
  148.2417  139.5390  155.1180 H   0  0  0  0  0  0  0  0  0  0  0  0
  149.4949  139.9458  152.6982 H   0  0  0  0  0  0  0  0  0  0  0  0
  150.0317  141.9275  154.5264 H   0  0  0  0  0  0  0  0  0  0  0  0
  148.6856  142.0701  155.6256 H   0  0  0  0  0  0  0  0  0  0  0  0
  150.1439  138.7452  155.8801 H   0  0  0  0  0  0  0  0  0  0  0  0
  152.8199  140.2225  159.7538 H   0  0  0  0  0  0  0  0  0  0  0  0
  152.6068  143.1982  161.4594 H   0  0  0  0  0  0  0  0  0  0  0  0
  154.0084  143.4546  160.4088 H   0  0  0  0  0  0  0  0  0  0  0  0
  153.7338  141.8789  161.1476 H   0  0  0  0  0  0  0  0  0  0  0  0
  151.2026  145.3851  158.3918 H   0  0  0  0  0  0  0  0  0  0  0  0
  152.8444  145.1317  158.9828 H   0  0  0  0  0  0  0  0  0  0  0  0
  151.4673  144.9585  160.0805 H   0  0  0  0  0  0  0  0  0  0  0  0
  150.4371  143.6353  157.0071 H   0  0  0  0  0  0  0  0  0  0  0  0
  146.8932  135.9820  151.6179 H   0  0  0  0  0  0  0  0  0  0  0  0
  146.2127  136.9835  150.3490 H   0  0  0  0  0  0  0  0  0  0  0  0
  146.1551  139.4808  154.2660 H   0  0  0  0  0  0  0  0  0  0  0  0
  144.0649  136.1161  150.8778 H   0  0  0  0  0  0  0  0  0  0  0  0
  1  2  1  0  0  0  0
  1 26  1  0  0  0  0
  1 27  1  0  0  0  0
  1 28  1  0  0  0  0
  2  3  1  0  0  0  0
  2 29  1  0  0  0  0
  2 30  1  0  0  0  0
  3 25  1  0  0  0  0
  3  4  1  0  0  0  0
  3 57  1  0  0  0  0
  4  5  1  0  0  0  0
  4 31  1  0  0  0  0
  4 32  1  0  0  0  0
  5  6  1  0  0  0  0
  5 33  1  0  0  0  0
  5 34  1  0  0  0  0
  6  7  1  0  0  0  0
  7  8  1  0  0  0  0
  7 25  1  0  0  0  0
  7 35  1  0  0  0  0
  8  9  1  0  0  0  0
  8 36  1  0  0  0  0
  8 37  1  0  0  0  0
  9 10  1  0  0  0  0
  9 38  1  0  0  0  0
  9 56  1  0  0  0  0
 10 11  1  0  0  0  0
 10 39  1  0  0  0  0
 10 40  1  0  0  0  0
 11 12  1  0  0  0  0
 11 13  1  0  0  0  0
 11 41  1  0  0  0  0
 12 42  1  0  0  0  0
 13 14  1  0  0  0  0
 13 43  1  0  0  0  0
 13 44  1  0  0  0  0
 14 24  1  0  0  0  0
 14 15  1  0  0  0  0
 15 16  2  0  0  0  0
 15 45  1  0  0  0  0
 16 17  1  0  0  0  0
 17 24  2  0  0  0  0
 17 18  1  0  0  0  0
 18 19  2  0  0  0  0
 18 46  1  0  0  0  0
 19 20  1  0  0  0  0
 19 21  1  0  0  0  0
 20 47  1  0  0  0  0
 20 48  1  0  0  0  0
 20 49  1  0  0  0  0
 21 22  1  0  0  0  0
 21 23  2  0  0  0  0
 22 50  1  0  0  0  0
 22 51  1  0  0  0  0
 22 52  1  0  0  0  0
 23 24  1  0  0  0  0
 23 53  1  0  0  0  0
 25 54  1  0  0  0  0
 25 55  1  0  0  0  0
M  CHG  1   3   1
M  CHG  1   9   1
M  END
> <s_m_source_file>
AV-unprocessed.smi

> <i_m_source_file_index>
1047

> <i_lp_mmshare_version>
43012

> <i_f3d_flags>
0

> <s_epik_input>
W0NIM11bQ0gyXU4xW0NIMl1bQ0gyXU9bQ0BIXShbQ0gyXTEpW0NIMl1bTkhdW0NIMl1bQ0BIXShbT0hdKVtDSDJdbihbY0hdbjIpYyhjMjMpW2NIXWMoW0NIM10pYyhbY0hdMylbQ0gzXQ==

> <s_epik_cmdline>
J2VwaWtfcHl0aG9uJywgJy1waCcsICc3LjAnLCAnLXRuJywgJzgnLCAnLW1hJywgJzIwMCcsICctbWV0YWxfYmluZGluZycsICctaW1hZScsICc8aW5maWxlLm1hZT4nLCAnLW9tYWUnLCAnPG91dGZpbGUubWFlPic=

> <r_epik_Ionization_Penalty>
0.528991

> <r_epik_Ionization_Penalty_Charging>
0.438567

> <r_epik_Ionization_Penalty_Neutral>
0.0904237

> <r_epik_State_Penalty>
0.533036

> <r_epik_Charging_Adjusted_Penalty>
0.971603

> <i_epik_Tot_Q>
2

> <i_epik_Tot_abs_Q>
2

> <r_epik_Metal_State_Penalty>
0.448985

> <b_epik_Metal_Only>
0

> <s_lp_Force_Field>
OPLS_2005

> <r_lp_Energy>
29.0334

> <b_lp_Chiralities_Consistent>
1

> <s_lp_Variant>
AV-unprocessed.smi:1047-5

> <Gold.Version>
5.8.1

> <Gold.Id.Protein>
6NUR|6NUR_protein|mol2

> <Gold.PLP.Fitness>
57.9890

> <Gold.PLP.PLP>
-50.1323

> <Gold.PLP.part.hbond>
-2.0235

> <Gold.PLP.part.metal>
0.0000

> <Gold.PLP.part.buried>
-4.8639

> <Gold.PLP.part.nonpolar>
-44.4773

> <Gold.PLP.part.repulsive>
0.1403

> <Gold.PLP.ligand.clash>
0.0000

> <Gold.PLP.ligand.torsion>
0.5913

> <Gold.PLP.Chemscore.Hbond>
2.9840

> <Gold.PLP.Chemscore.CHOScore>
0.0000

> <Gold.PLP.Chemscore.Metal>
0.0000

> <Gold.Chemscore.Hbonds>
donor molecule, donor type, donor heavy atom, donor atom, acceptor molecule, acceptor atom, score
      L1  H     9    38       P1 10175  2.00
      L1  H    12    42       P1  7957  1.00

> <Gold.PLP.Chemscore.Internal.Correction>
0.0874

> <Gold.Rescore>
     Score         DG    S(hbond)    S(metal)    S(lipo)     H(rot)  DE(clash)    DE(int)     intcor
     20.31     -21.10       1.96        0.00     136.64       2.70       0.01       0.78       ----

> <Gold.Chemscore.Fitness>
20.3084

> <Gold.Chemscore.DG>
-21.1031

> <Gold.Chemscore.ZeroCoef>
-5.4800

> <Gold.Chemscore.Hbond>
1.9595

> <Gold.Chemscore.Metal>
0.0000

> <Gold.Chemscore.Lipo>
136.6375

> <Gold.Chemscore.Internal_Hbond>
0.0000

> <Gold.Chemscore.DEClash>
0.0115

> <Gold.Chemscore.DEInternal>
0.7832

> <Gold.Chemscore.Rot>
2.6985

> <Gold.Chemscore.Internal.Correction>
   9.000000E+99

> <Gold.Chemscore.Hbonds>
donor molecule, donor type, donor heavy atom, donor atom, acceptor molecule, acceptor atom, score
      L1  H     9    38       P1 10175  0.88
      L1  H    12    42       P1  7957  0.94

> <Gold.Chemscore.Hbond.Weighted>
-6.5447

> <Gold.Chemscore.Metal.Weighted>
-0.0000

> <Gold.Chemscore.Lipo.Weighted>
-15.9866

> <Gold.Chemscore.Internal_Hbond.Weighted>
0.0000

> <Gold.Chemscore.DEClash.Weighted>
0.0115

> <Gold.Chemscore.DEInternal.Weighted>
0.7832

> <Gold.Chemscore.Rot.Weighted>
6.9081

> <Gold.Chemscore.Internal.Correction.Weighted>
   9.000000E+99

> <Gold.Protein.RotatedTorsions>
[ 6907 6896 6895 6894 ] final   35.84 input  -60.11 | X-H torsion
[ 7974 7965 7964 7962 ] final  -21.29 input  175.53 | X-H torsion
[ 8008 7997 7996 7995 ] final  140.85 input   59.86 | X-H torsion
[ 10167 10162 10161 10158 ] final -114.93 input  -65.29 | X-H torsion
[ 10718 10713 10712 10709 ] final -140.99 input   66.30 | X-H torsion
[ 10763 10752 10751 10750 ] final   14.54 input  -60.55 | X-H torsion
[ 11005 11000 10999 10996 ] final -164.92 input  -57.11 | X-H torsion

> <Gold.Protein.ActiveResidues>
 VAL166  LYS551  ARG553  GLY616  TRP617  ASP618  TYR619  PRO620  LYS621  CYS622 
 ASP623  PHE694  ASN695  SER759  ASP760  ASP761  ALA762  ILE779  LEU786  VAL792 
 PHE793  MET794  SER795  GLU796  ALA797  LYS798  CYS799  TRP800  GLU811  SER814 

> <Gold.Protein.RotatedAtoms>
  152.1217  134.9201  160.0562 H   0  0  0  0  0  0  0  0  0  0  0  0  # atno 6907 bound_to 6896
  152.0339  133.3944  159.4317 H   0  0  0  0  0  0  0  0  0  0  0  0  # atno 6908 bound_to 6896
  150.6849  134.3411  159.4912 H   0  0  0  0  0  0  0  0  0  0  0  0  # atno 6909 bound_to 6896
  146.1741  140.4321  142.8520 H   0  0  0  0  0  0  0  0  0  0  0  0  # atno 7974 bound_to 7965
  156.2974  140.2330  156.4468 H   0  0  0  0  0  0  0  0  0  0  0  0  # atno 8008 bound_to 7997
  154.8137  140.0441  157.1381 H   0  0  0  0  0  0  0  0  0  0  0  0  # atno 8009 bound_to 7997
  154.9394  140.3027  155.5132 H   0  0  0  0  0  0  0  0  0  0  0  0  # atno 8010 bound_to 7997
  140.0956  143.4660  152.1843 H   0  0  0  0  0  0  0  0  0  0  0  0  # atno 10167 bound_to 10162
  156.3288  130.7574  151.1688 H   0  0  0  0  0  0  0  0  0  0  0  0  # atno 10718 bound_to 10713
  153.1612  135.6796  153.8740 H   0  0  0  0  0  0  0  0  0  0  0  0  # atno 10763 bound_to 10752
  153.8135  135.3140  155.3404 H   0  0  0  0  0  0  0  0  0  0  0  0  # atno 10764 bound_to 10752
  154.7933  135.4822  154.0192 H   0  0  0  0  0  0  0  0  0  0  0  0  # atno 10765 bound_to 10752
  140.5814  134.5137  157.5179 H   0  0  0  0  0  0  0  0  0  0  0  0  # atno 11005 bound_to 11000
  144.8208  140.6547  143.6354 LP  0  0  0  0  0  0  0  0  0  0  0  0  # atno 17320 bound_to 7965
  145.4260  139.1556  143.4048 LP  0  0  0  0  0  0  0  0  0  0  0  0  # atno 17321 bound_to 7965
  139.5700  144.7457  151.3917 LP  0  0  0  0  0  0  0  0  0  0  0  0  # atno 17342 bound_to 10162
  140.7005  143.7643  150.7396 LP  0  0  0  0  0  0  0  0  0  0  0  0  # atno 17343 bound_to 10162
  157.7426  131.0487  150.5009 LP  0  0  0  0  0  0  0  0  0  0  0  0  # atno 17370 bound_to 10713
  156.5172  130.4153  149.6270 LP  0  0  0  0  0  0  0  0  0  0  0  0  # atno 17371 bound_to 10713
  139.9315  134.7954  156.0917 LP  0  0  0  0  0  0  0  0  0  0  0  0  # atno 17394 bound_to 11000
  141.0993  133.6683  156.2718 LP  0  0  0  0  0  0  0  0  0  0  0  0  # atno 17395 bound_to 11000

$$$$
