AV-unprocessed.smi:3136|AV-procd|sdf|11950|dock6
  -GOLD-   2272017343D 1   1.00000     0.00000
 Structure written by MMmdl.
 40 40  0  0  0  0  0  0  0  0  2 V2000
  141.4103  138.3405  153.3935 C   0  0  0  0  0  0  0  0  0  0  0  0
  142.4820  137.2423  153.4021 C   0  0  0  0  0  0  0  0  0  0  0  0
  143.6941  137.6707  152.7136 N   0  0  0  0  0  0  0  0  0  0  0  0
  144.7391  136.8792  152.4272 C   0  0  0  0  0  0  0  0  0  0  0  0
  144.7859  135.6866  152.7299 O   0  0  0  0  0  0  0  0  0  0  0  0
  145.9061  137.5388  151.6864 C   0  0  0  0  0  0  0  0  0  0  0  0
  146.4707  138.7589  152.4328 C   0  0  0  0  0  0  0  0  0  0  0  0
  147.9311  138.6359  152.6213 N   0  3  0  0  0  0  0  0  0  0  0  0
  148.4226  138.9835  153.9758 C   0  0  2  0  0  0  0  0  0  0  0  0
  147.3993  138.4763  155.0055 C   0  0  0  0  0  0  0  0  0  0  0  0
  148.6812  140.5112  154.0924 C   0  0  1  0  0  0  0  0  0  0  0  0
  147.4376  141.3120  154.5244 C   0  0  0  0  0  0  0  0  0  0  0  0
  149.7912  140.7937  154.9965 N   0  0  0  0  0  0  0  0  0  0  0  0
  149.8509  141.6910  156.0455 C   0  0  0  0  0  0  0  0  0  0  0  0
  151.0795  141.5603  156.6264 C   0  0  0  0  0  0  0  0  0  0  0  0
  151.7083  140.5396  155.8614 C   0  0  0  0  0  0  0  0  0  0  0  0
  150.9330  140.0775  154.8940 N   0  0  0  0  0  0  0  0  0  0  0  0
  140.5228  138.0186  153.9385 H   0  0  0  0  0  0  0  0  0  0  0  0
  141.1017  138.5880  152.3775 H   0  0  0  0  0  0  0  0  0  0  0  0
  141.7765  139.2529  153.8654 H   0  0  0  0  0  0  0  0  0  0  0  0
  142.7448  136.9939  154.4306 H   0  0  0  0  0  0  0  0  0  0  0  0
  142.0926  136.3277  152.9520 H   0  0  0  0  0  0  0  0  0  0  0  0
  143.7384  138.6395  152.4321 H   0  0  0  0  0  0  0  0  0  0  0  0
  146.6970  136.7988  151.5507 H   0  0  0  0  0  0  0  0  0  0  0  0
  145.5709  137.8284  150.6897 H   0  0  0  0  0  0  0  0  0  0  0  0
  146.2616  139.6751  151.8786 H   0  0  0  0  0  0  0  0  0  0  0  0
  145.9855  138.8540  153.4043 H   0  0  0  0  0  0  0  0  0  0  0  0
  148.2083  137.6854  152.4200 H   0  0  0  0  0  0  0  0  0  0  0  0
  149.3576  138.4512  154.1610 H   0  0  0  0  0  0  0  0  0  0  0  0
  147.7661  138.5832  156.0262 H   0  0  0  0  0  0  0  0  0  0  0  0
  147.1875  137.4168  154.8564 H   0  0  0  0  0  0  0  0  0  0  0  0
  146.4552  139.0171  154.9291 H   0  0  0  0  0  0  0  0  0  0  0  0
  148.9658  140.8814  153.1054 H   0  0  0  0  0  0  0  0  0  0  0  0
  146.6554  141.2789  153.7667 H   0  0  0  0  0  0  0  0  0  0  0  0
  147.6835  142.3635  154.6772 H   0  0  0  0  0  0  0  0  0  0  0  0
  147.0163  140.9302  155.4546 H   0  0  0  0  0  0  0  0  0  0  0  0
  149.0230  142.3390  156.2932 H   0  0  0  0  0  0  0  0  0  0  0  0
  151.4686  142.1079  157.4721 H   0  0  0  0  0  0  0  0  0  0  0  0
  152.6960  140.1199  155.9830 H   0  0  0  0  0  0  0  0  0  0  0  0
  148.3799  139.2483  151.9554 H   0  0  0  0  0  0  0  0  0  0  0  0
  1  2  1  0  0  0  0
  1 18  1  0  0  0  0
  1 19  1  0  0  0  0
  1 20  1  0  0  0  0
  2  3  1  0  0  0  0
  2 21  1  0  0  0  0
  2 22  1  0  0  0  0
  3  4  1  0  0  0  0
  3 23  1  0  0  0  0
  4  5  2  0  0  0  0
  4  6  1  0  0  0  0
  6  7  1  0  0  0  0
  6 24  1  0  0  0  0
  6 25  1  0  0  0  0
  7  8  1  0  0  0  0
  7 26  1  0  0  0  0
  7 27  1  0  0  0  0
  8  9  1  0  0  0  0
  8 28  1  0  0  0  0
  8 40  1  0  0  0  0
  9 10  1  0  0  0  0
  9 11  1  0  0  0  0
  9 29  1  0  0  0  0
 10 30  1  0  0  0  0
 10 31  1  0  0  0  0
 10 32  1  0  0  0  0
 11 12  1  0  0  0  0
 11 13  1  0  0  0  0
 11 33  1  0  0  0  0
 12 34  1  0  0  0  0
 12 35  1  0  0  0  0
 12 36  1  0  0  0  0
 13 17  1  0  0  0  0
 13 14  1  0  0  0  0
 14 15  2  0  0  0  0
 14 37  1  0  0  0  0
 15 16  1  0  0  0  0
 15 38  1  0  0  0  0
 16 17  2  0  0  0  0
 16 39  1  0  0  0  0
M  CHG  1   8   1
M  END
> <s_m_source_file>
AV-unprocessed.smi

> <i_m_source_file_index>
3136

> <i_lp_mmshare_version>
43012

> <i_f3d_flags>
0

> <s_epik_input>
W0NIM11bQ0gyXVtOSF1DKD1PKVtDSDJdW0NIMl1bTkhdW0NASF0oW0NIM10pW0NASF0oW0NIM10pbjFbY0hdW2NIXVtjSF1uMQ==

> <s_epik_cmdline>
J2VwaWtfcHl0aG9uJywgJy1waCcsICc3LjAnLCAnLXRuJywgJzgnLCAnLW1hJywgJzIwMCcsICctbWV0YWxfYmluZGluZycsICctaW1hZScsICc8aW5maWxlLm1hZT4nLCAnLW9tYWUnLCAnPG91dGZpbGUubWFlPic=

> <r_lp_tautomer_probability>
1

> <r_epik_Ionization_Penalty>
0.00463447

> <r_epik_Ionization_Penalty_Charging>
0.00462393

> <r_epik_Ionization_Penalty_Neutral>
1.05394e-05

> <r_epik_State_Penalty>
-0

> <r_epik_Charging_Adjusted_Penalty>
0.00462393

> <i_epik_Tot_Q>
1

> <i_epik_Tot_abs_Q>
1

> <r_epik_Metal_State_Penalty>
-0

> <b_epik_Metal_Only>
0

> <s_lp_Force_Field>
OPLS_2005

> <r_lp_Energy>
10.6492

> <b_lp_Chiralities_Consistent>
1

> <s_lp_Variant>
AV-unprocessed.smi:3136-3

> <Gold.Version>
5.8.1

> <Gold.Id.Protein>
6NUR|6NUR_protein|mol2

> <Gold.PLP.Fitness>
47.1852

> <Gold.PLP.PLP>
-33.2194

> <Gold.PLP.part.hbond>
-5.0000

> <Gold.PLP.part.metal>
0.0000

> <Gold.PLP.part.buried>
2.0177

> <Gold.PLP.part.nonpolar>
-29.2810

> <Gold.PLP.part.repulsive>
0.2427

> <Gold.PLP.ligand.clash>
0.0087

> <Gold.PLP.ligand.torsion>
1.8968

> <Gold.PLP.Chemscore.Hbond>
5.0000

> <Gold.PLP.Chemscore.CHOScore>
0.8687

> <Gold.PLP.Chemscore.Metal>
0.0000

> <Gold.Chemscore.Hbonds>
donor molecule, donor type, donor heavy atom, donor atom, acceptor molecule, acceptor atom, score
      L1  H     3    23       P1 10175  1.00
      L1  H     8    28       P1  7948  2.00
      L1  H     8    40       P1  7957  1.00
      P1  H  7989  7998       L1    17  0.95
      L1  C    14    37       P1  8028  0.89

> <Gold.PLP.Chemscore.Internal.Correction>
0.1620

> <Gold.Rescore>
     Score         DG    S(hbond)    S(metal)    S(lipo)     H(rot)  DE(clash)    DE(int)     intcor
     17.01     -18.99       3.63        0.00      62.54       2.32       0.16       1.81       ----

> <Gold.Chemscore.Fitness>
17.0135

> <Gold.Chemscore.DG>
-18.9863

> <Gold.Chemscore.ZeroCoef>
-5.4800

> <Gold.Chemscore.Hbond>
3.6280

> <Gold.Chemscore.Metal>
0.0000

> <Gold.Chemscore.Lipo>
62.5417

> <Gold.Chemscore.Internal_Hbond>
0.0000

> <Gold.Chemscore.DEClash>
0.1623

> <Gold.Chemscore.DEInternal>
1.8106

> <Gold.Chemscore.Rot>
2.3159

> <Gold.Chemscore.Internal.Correction>
   9.000000E+99

> <Gold.Chemscore.Hbonds>
donor molecule, donor type, donor heavy atom, donor atom, acceptor molecule, acceptor atom, score
      L1  H     3    23       P1 10175  1.00
      L1  H     8    28       P1  7948  1.00
      L1  H     8    40       P1  7957  0.99
      P1  H  7989  7998       L1    17  0.06

> <Gold.Chemscore.Hbond.Weighted>
-12.1175

> <Gold.Chemscore.Metal.Weighted>
-0.0000

> <Gold.Chemscore.Lipo.Weighted>
-7.3174

> <Gold.Chemscore.Internal_Hbond.Weighted>
0.0000

> <Gold.Chemscore.DEClash.Weighted>
0.1623

> <Gold.Chemscore.DEInternal.Weighted>
1.8106

> <Gold.Chemscore.Rot.Weighted>
5.9286

> <Gold.Chemscore.Internal.Correction.Weighted>
   9.000000E+99

> <Gold.Protein.RotatedTorsions>
[ 6907 6896 6895 6894 ] final  -16.86 input  -60.11 | X-H torsion
[ 7974 7965 7964 7962 ] final  -74.50 input  175.53 | X-H torsion
[ 8008 7997 7996 7995 ] final   22.47 input   59.86 | X-H torsion
[ 10167 10162 10161 10158 ] final  -71.85 input  -65.29 | X-H torsion
[ 10718 10713 10712 10709 ] final  -38.28 input   66.30 | X-H torsion
[ 10763 10752 10751 10750 ] final   17.15 input  -60.55 | X-H torsion
[ 11005 11000 10999 10996 ] final  151.61 input  -57.11 | X-H torsion

> <Gold.Protein.ActiveResidues>
 VAL166  LYS551  ARG553  GLY616  TRP617  ASP618  TYR619  PRO620  LYS621  CYS622 
 ASP623  PHE694  ASN695  SER759  ASP760  ASP761  ALA762  ILE779  LEU786  VAL792 
 PHE793  MET794  SER795  GLU796  ALA797  LYS798  CYS799  TRP800  GLU811  SER814 

> <Gold.Protein.RotatedAtoms>
  151.3022  135.0772  159.9242 H   0  0  0  0  0  0  0  0  0  0  0  0  # atno 6907 bound_to 6896
  152.5295  133.9822  159.7822 H   0  0  0  0  0  0  0  0  0  0  0  0  # atno 6908 bound_to 6896
  151.0110  133.5914  159.2713 H   0  0  0  0  0  0  0  0  0  0  0  0  # atno 6909 bound_to 6896
  145.6383  140.9318  143.1049 H   0  0  0  0  0  0  0  0  0  0  0  0  # atno 7974 bound_to 7965
  154.9662  140.3084  155.5008 H   0  0  0  0  0  0  0  0  0  0  0  0  # atno 8008 bound_to 7997
  156.2971  140.2292  156.4690 H   0  0  0  0  0  0  0  0  0  0  0  0  # atno 8009 bound_to 7997
  154.7919  140.0439  157.1196 H   0  0  0  0  0  0  0  0  0  0  0  0  # atno 8010 bound_to 7997
  140.5239  143.2328  151.7381 H   0  0  0  0  0  0  0  0  0  0  0  0  # atno 10167 bound_to 10162
  156.3055  130.4245  149.8101 H   0  0  0  0  0  0  0  0  0  0  0  0  # atno 10718 bound_to 10713
  153.1365  135.6751  153.9094 H   0  0  0  0  0  0  0  0  0  0  0  0  # atno 10763 bound_to 10752
  153.8564  135.3087  155.3436 H   0  0  0  0  0  0  0  0  0  0  0  0  # atno 10764 bound_to 10752
  154.7752  135.4918  153.9812 H   0  0  0  0  0  0  0  0  0  0  0  0  # atno 10765 bound_to 10752
  140.1234  134.8849  157.2103 H   0  0  0  0  0  0  0  0  0  0  0  0  # atno 11005 bound_to 11000
  144.7167  139.8172  143.7396 LP  0  0  0  0  0  0  0  0  0  0  0  0  # atno 17320 bound_to 7965
  146.1301  139.4335  143.0174 LP  0  0  0  0  0  0  0  0  0  0  0  0  # atno 17321 bound_to 7965
  139.4932  144.4214  151.9974 LP  0  0  0  0  0  0  0  0  0  0  0  0  # atno 17342 bound_to 10162
  140.3312  144.3314  150.5987 LP  0  0  0  0  0  0  0  0  0  0  0  0  # atno 17343 bound_to 10162
  156.5463  130.8322  151.3285 LP  0  0  0  0  0  0  0  0  0  0  0  0  # atno 17370 bound_to 10713
  157.7378  130.9803  150.2217 LP  0  0  0  0  0  0  0  0  0  0  0  0  # atno 17371 bound_to 10713
  140.2936  134.3212  155.7308 LP  0  0  0  0  0  0  0  0  0  0  0  0  # atno 17394 bound_to 11000
  141.2156  133.7549  156.9539 LP  0  0  0  0  0  0  0  0  0  0  0  0  # atno 17395 bound_to 11000

$$$$
