#       Name:                AV-unprocessed.smi:741
#       Creating user name   scv26
#       Creation time:       Fri Mar 27 00:55:24 2020


#       File generated by GOLD software.
#

@<TRIPOS>MOLECULE
AV-unprocessed.smi:741
    45    46     1
SMALL
NO_CHARGES


@<TRIPOS>ATOM
      1 ****        -4.0650   0.4201  -0.9400 C.3            1 S1                 0.0000
      2 ****        -3.3217  -0.9145  -0.7836 C.3            1 S1                 0.0000
      3 ****        -1.7870  -0.7769  -0.7920 C.3            1 S1                 0.0000
      4 ****        -1.1054  -2.1631  -0.7553 C.3            1 S1                 0.0000
      5 ****         0.3672  -2.0896  -0.9176 N.4            1 S1                 1.0000
      6 ****         1.0985  -3.2948  -0.4613 C.3            1 S1                 0.0000
      7 ****         2.2319  -3.5385  -1.4677 C.3            1 S1                 0.0000
      8 ****         2.2756  -2.2753  -2.3224 C.3            1 S1                 0.0000
      9 ****         0.8318  -1.7880  -2.2878 C.3            1 S1                 0.0000
     10 ****        -1.3607   0.0444   0.3441 N.am           1 S1                 0.0000
     11 ****        -0.3705   0.9492   0.3400 C.2            1 S1                 0.0000
     12 ****         0.3551   1.1554  -0.6318 O.2            1 S1                 0.0000
     13 ****        -0.2685   1.5656   1.5305 N.am           1 S1                 0.0000
     14 ****         0.6286   2.5972   1.9227 C.ar           1 S1                 0.0000
     15 ****         0.8373   2.7896   3.3067 C.ar           1 S1                 0.0000
     16 ****         1.7053   3.8106   3.7449 C.ar           1 S1                 0.0000
     17 ****         2.3224   4.6018   2.8415 N.pl3          1 S1                 1.0000
     18 ****         2.1439   4.4663   1.5101 C.ar           1 S1                 0.0000
     19 ****         1.2878   3.4626   1.0124 C.ar           1 S1                 0.0000
     20 ****        -5.1426   0.2590  -0.9759 H              1 S1                 0.0000
     21 ****        -3.7756   0.9256  -1.8618 H              1 S1                 0.0000
     22 ****        -3.8621   1.0950  -0.1084 H              1 S1                 0.0000
     23 ****        -3.6457  -1.4018   0.1370 H              1 S1                 0.0000
     24 ****        -3.6264  -1.5741  -1.5969 H              1 S1                 0.0000
     25 ****        -1.5174  -0.2782  -1.7248 H              1 S1                 0.0000
     26 ****        -1.3305  -2.6356   0.2024 H              1 S1                 0.0000
     27 ****        -1.5196  -2.8180  -1.5234 H              1 S1                 0.0000
     28 ****         1.4880  -3.1149   0.5410 H              1 S1                 0.0000
     29 ****         0.4469  -4.1687  -0.4116 H              1 S1                 0.0000
     30 ****         3.1860  -3.7461  -0.9828 H              1 S1                 0.0000
     31 ****         1.9864  -4.3965  -2.0949 H              1 S1                 0.0000
     32 ****         2.9278  -1.5341  -1.8586 H              1 S1                 0.0000
     33 ****         2.6382  -2.4591  -3.3342 H              1 S1                 0.0000
     34 ****         0.2398  -2.3476  -3.0139 H              1 S1                 0.0000
     35 ****         0.7463  -0.7288  -2.5291 H              1 S1                 0.0000
     36 ****        -1.8962  -0.0604   1.1940 H              1 S1                 0.0000
     37 ****        -0.8816   1.2279   2.2582 H              1 S1                 0.0000
     38 ****         0.3417   2.1595   4.0312 H              1 S1                 0.0000
     39 ****         1.9206   4.0185   4.7829 H              1 S1                 0.0000
     40 ****         2.6824   5.1648   0.8862 H              1 S1                 0.0000
     41 ****         1.1452   3.3883  -0.0546 H              1 S1                 0.0000
     42 ****         0.6958  -1.3335  -0.3339 H              1 S1                 0.0000
     43 ****         2.9451   5.3365   3.1792 H              1 S1                 0.0000
     44 ****         0.2212   0.6351  -1.4752 LP             1 S1                 0.0000
     45 ****         1.0789   1.8434  -0.5784 LP             1 S1                 0.0000
@<TRIPOS>BOND
    1    1    2 1     
    2    1   20 1     
    3    1   21 1     
    4    1   22 1     
    5    2    3 1     
    6    2   23 1     
    7    2   24 1     
    8    3    4 1     
    9    3   10 1     
   10    3   25 1     
   11    4    5 1     
   12    4   26 1     
   13    4   27 1     
   14    5    9 1     
   15    5    6 1     
   16    5   42 1     
   17    6    7 1     
   18    6   28 1     
   19    6   29 1     
   20    7    8 1     
   21    7   30 1     
   22    7   31 1     
   23    8    9 1     
   24    8   32 1     
   25    8   33 1     
   26    9   34 1     
   27    9   35 1     
   28   10   11 am    
   29   10   36 1     
   30   11   12 2     
   31   11   13 am    
   32   13   14 1     
   33   13   37 1     
   34   14   19 ar    
   35   14   15 ar    
   36   15   16 ar    
   37   15   38 1     
   38   16   17 ar    
   39   16   39 1     
   40   17   18 ar    
   41   17   43 1     
   42   18   19 ar    
   43   18   40 1     
   44   19   41 1     
   45   12   44 1     
   46   12   45 1     
@<TRIPOS>SUBSTRUCTURE
      1 S1             1
@<TRIPOS>SET
LONE_PAIRS      STATIC     ATOMS    <user>   **** ""
2 44 45
DONOR_HYDROGENS      STATIC     ATOMS    <user>   **** ""
4 42 36 37 43
ATOM$BLUE        STATIC     ATOMS    COLORGROUP SYSTEM
2 44 45
ATOM$RED        STATIC     ATOMS    COLORGROUP SYSTEM
4 42 36 37 43
