#       Name:                AV-unprocessed.smi:287
#       Creating user name   scv26
#       Creation time:       Thu Mar 26 21:58:29 2020


#       File generated by GOLD software.
#

@<TRIPOS>MOLECULE
AV-unprocessed.smi:287
    70    73     1
SMALL
NO_CHARGES


@<TRIPOS>ATOM
      1 ****        -1.9067   3.6204   4.4529 C.3            1 S1                 0.0000
      2 ****        -2.3627   3.5463   3.0360 C.2            1 S1                 0.0000
      3 ****        -2.8244   2.5358   2.2438 C.2            1 S1                 0.0000
      4 ****        -3.0968   3.0922   0.9580 C.2            1 S1                 0.0000
      5 ****        -3.6408   2.3445  -0.2519 C.3            1 S1                 0.0000
      6 ****        -5.1646   2.1891  -0.1212 C.3            1 S1                 0.0000
      7 ****        -3.4350   3.0443  -1.4641 O.3            1 S1                 0.0000
      8 ****        -2.9811   0.9601  -0.4468 C.3            1 S1                 0.0000
      9 ****        -1.5281   0.9994  -0.3163 N.pl3          1 S1                 0.0000
     10 ****        -0.8074  -0.1369  -0.4143 C.ar           1 S1                 0.0000
     11 ****        -1.4134  -1.3347  -0.6242 N.ar           1 S1                 0.0000
     12 ****        -0.6778  -2.4461  -0.7203 C.ar           1 S1                 0.0000
     13 ****         0.6475  -2.5785  -0.6377 N.ar           1 S1                 0.0000
     14 ****         1.2611  -1.3775  -0.4261 C.ar           1 S1                 0.0000
     15 ****         0.6068  -0.1203  -0.3042 C.ar           1 S1                 0.0000
     16 ****         1.5457   0.8823  -0.0991 N.2            1 S1                 0.0000
     17 ****         2.6884   0.2501  -0.1042 C.2            1 S1                 0.0000
     18 ****         2.6102  -1.1111  -0.2976 N.pl3          1 S1                 0.0000
     19 ****         3.7427  -2.0870  -0.3599 C.3            1 S1                 0.0000
     20 ****         3.3411  -3.2978   0.1911 O.3            1 S1                 0.0000
     21 ****         4.0963  -4.3530  -0.3950 C.3            1 S1                 0.0000
     22 ****         3.1760  -5.5664  -0.6246 C.3            1 S1                 0.0000
     23 ****         2.3064  -5.3730  -1.7211 O.3            1 S1                 0.0000
     24 ****         4.7890  -3.7824  -1.6515 C.3            1 S1                 0.0000
     25 ****         6.1840  -3.7072  -1.4240 O.3            1 S1                 0.0000
     26 ****         4.2120  -2.3785  -1.7920 C.3            1 S1                 0.0000
     27 ****         3.1664  -2.3497  -2.7461 O.3            1 S1                 0.0000
     28 ****        -2.7874   4.4252   1.0816 C.2            1 S1                 0.0000
     29 ****        -2.8495   5.5923   0.1527 C.3            1 S1                 0.0000
     30 ****        -2.3360   4.7075   2.3355 O.3            1 S1                 0.0000
     31 ****         4.5296  -1.6532   0.2591 H              1 S1                 0.0000
     32 ****         4.8445  -4.6399   0.3459 H              1 S1                 0.0000
     33 ****         4.6285  -4.3889  -2.5440 H              1 S1                 0.0000
     34 ****         4.9563  -1.6387  -2.0902 H              1 S1                 0.0000
     35 ****        -1.9302   2.6364   4.9216 H              1 S1                 0.0000
     36 ****        -2.5480   4.2857   5.0312 H              1 S1                 0.0000
     37 ****        -0.8855   3.9977   4.5111 H              1 S1                 0.0000
     38 ****        -2.9488   1.5078   2.5506 H              1 S1                 0.0000
     39 ****        -5.4278   1.6257   0.7747 H              1 S1                 0.0000
     40 ****        -5.5882   1.6608  -0.9763 H              1 S1                 0.0000
     41 ****        -5.6580   3.1597  -0.0541 H              1 S1                 0.0000
     42 ****        -3.7833   2.5247  -2.1723 H              1 S1                 0.0000
     43 ****        -3.3560   0.2823   0.3216 H              1 S1                 0.0000
     44 ****        -3.2636   0.5282  -1.4083 H              1 S1                 0.0000
     45 ****        -1.1200   1.9100  -0.1589 H              1 S1                 0.0000
     46 ****        -1.2288  -3.3593  -0.8890 H              1 S1                 0.0000
     47 ****         3.6287   0.7649   0.0296 H              1 S1                 0.0000
     48 ****         3.7792  -6.4506  -0.8313 H              1 S1                 0.0000
     49 ****         2.5921  -5.7804   0.2709 H              1 S1                 0.0000
     50 ****         1.7521  -6.1336  -1.8045 H              1 S1                 0.0000
     51 ****         6.3349  -3.1976  -0.6428 H              1 S1                 0.0000
     52 ****         2.7283  -1.5147  -2.6850 H              1 S1                 0.0000
     53 ****        -3.8356   5.6684  -0.3055 H              1 S1                 0.0000
     54 ****        -2.1122   5.4901  -0.6437 H              1 S1                 0.0000
     55 ****        -2.6508   6.5269   0.6779 H              1 S1                 0.0000
     56 ****        -2.4564   3.1944  -1.6052 LP             1 S1                 0.0000
     57 ****        -3.9058   3.9258  -1.4290 LP             1 S1                 0.0000
     58 ****        -2.4087  -1.3845  -0.7066 LP             1 S1                 0.0000
     59 ****         1.1314  -3.4498  -0.7205 LP             1 S1                 0.0000
     60 ****         1.3842   1.8614   0.0240 LP             1 S1                 0.0000
     61 ****         2.3684  -3.4417   0.0092 LP             1 S1                 0.0000
     62 ****         3.4969  -3.2838   1.1788 LP             1 S1                 0.0000
     63 ****         2.8409  -5.2524  -2.5576 LP             1 S1                 0.0000
     64 ****         1.7434  -4.5614  -1.5653 LP             1 S1                 0.0000
     65 ****         6.6294  -3.2679  -2.2041 LP             1 S1                 0.0000
     66 ****         6.5557  -4.6276  -1.3028 LP             1 S1                 0.0000
     67 ****         2.5169  -3.0862  -2.5572 LP             1 S1                 0.0000
     68 ****         3.5444  -2.4661  -3.6645 LP             1 S1                 0.0000
     69 ****        -1.4018   5.0616   2.2928 LP             1 S1                 0.0000
     70 ****        -2.9297   5.3847   2.7701 LP             1 S1                 0.0000
@<TRIPOS>BOND
    1    1    2 1     
    2    1   35 1     
    3    1   36 1     
    4    1   37 1     
    5    2   30 1     
    6    2    3 2     
    7    3    4 1     
    8    3   38 1     
    9    4    5 1     
   10    4   28 2     
   11    5    6 1     
   12    5    7 1     
   13    5    8 1     
   14    6   39 1     
   15    6   40 1     
   16    6   41 1     
   17    7   42 1     
   18    8    9 1     
   19    8   43 1     
   20    8   44 1     
   21    9   10 1     
   22    9   45 1     
   23   10   15 ar    
   24   10   11 ar    
   25   11   12 ar    
   26   12   13 ar    
   27   12   46 1     
   28   13   14 ar    
   29   14   18 1     
   30   14   15 ar    
   31   15   16 1     
   32   16   17 2     
   33   17   18 1     
   34   17   47 1     
   35   18   19 1     
   36   19   31 1     
   37   19   26 1     
   38   19   20 1     
   39   20   21 1     
   40   21   32 1     
   41   21   22 1     
   42   21   24 1     
   43   22   23 1     
   44   22   48 1     
   45   22   49 1     
   46   23   50 1     
   47   24   33 1     
   48   24   25 1     
   49   24   26 1     
   50   25   51 1     
   51   26   34 1     
   52   26   27 1     
   53   27   52 1     
   54   28   29 1     
   55   28   30 1     
   56   29   53 1     
   57   29   54 1     
   58   29   55 1     
   59    7   56 1     
   60    7   57 1     
   61   11   58 1     
   62   13   59 1     
   63   16   60 1     
   64   20   61 1     
   65   20   62 1     
   66   23   63 1     
   67   23   64 1     
   68   25   65 1     
   69   25   66 1     
   70   27   67 1     
   71   27   68 1     
   72   30   69 1     
   73   30   70 1     
@<TRIPOS>SUBSTRUCTURE
      1 S1             1
@<TRIPOS>SET
LONE_PAIRS      STATIC     ATOMS    <user>   **** ""
15 56 57 58 59 60 61 62 63 64 65 66 67 68 69 70
DONOR_HYDROGENS      STATIC     ATOMS    <user>   **** ""
5 42 45 50 51 52
ATOM$BLUE        STATIC     ATOMS    COLORGROUP SYSTEM
15 56 57 58 59 60 61 62 63 64 65 66 67 68 69 70
ATOM$RED        STATIC     ATOMS    COLORGROUP SYSTEM
5 42 45 50 51 52
