AV-unprocessed.smi:3119|AV-procd|sdf|11891|dock7
  -GOLD-   2272017283D 1   1.00000     0.00000
 Structure written by MMmdl.
 32 33  0  0  0  0  0  0  0  0  2 V2000
  149.3783  139.6150  154.5110 O   0  0  0  0  0  0  0  0  0  0  0  0
  148.9403  140.7582  154.6461 C   0  0  0  0  0  0  0  0  0  0  0  0
  149.6232  141.7328  155.2631 N   0  0  0  0  0  0  0  0  0  0  0  0
  150.9431  141.5600  155.8543 C   0  0  0  0  0  0  0  0  0  0  0  0
  150.8419  141.4005  157.3771 C   0  0  0  0  0  0  0  0  0  0  0  0
  151.1342  142.6969  158.1078 C   0  0  0  0  0  0  0  0  0  0  0  0
  151.9399  142.7401  159.2664 C   0  0  0  0  0  0  0  0  0  0  0  0
  152.1813  143.9811  159.8921 C   0  0  0  0  0  0  0  0  0  0  0  0
  151.6140  145.1513  159.3464 C   0  0  0  0  0  0  0  0  0  0  0  0
  150.8184  145.0509  158.1868 C   0  0  0  0  0  0  0  0  0  0  0  0
  150.6106  143.8435  157.6163 N   0  3  0  0  0  0  0  0  0  0  0  0
  147.5585  141.1425  154.1000 C   0  0  0  0  0  0  0  0  0  0  0  0
  147.5929  142.2119  152.9945 C   0  0  0  0  0  0  0  0  0  0  0  0
  146.4098  142.9014  153.6801 C   0  0  0  0  0  0  0  0  0  0  0  0
  146.7738  142.1479  154.9627 C   0  0  0  0  0  0  0  0  0  0  0  0
  149.1989  142.6468  155.3301 H   0  0  0  0  0  0  0  0  0  0  0  0
  151.4238  140.6807  155.4218 H   0  0  0  0  0  0  0  0  0  0  0  0
  151.5623  142.4229  155.6039 H   0  0  0  0  0  0  0  0  0  0  0  0
  149.8443  141.0552  157.6532 H   0  0  0  0  0  0  0  0  0  0  0  0
  151.5390  140.6341  157.7192 H   0  0  0  0  0  0  0  0  0  0  0  0
  152.3709  141.8356  159.6706 H   0  0  0  0  0  0  0  0  0  0  0  0
  152.7953  144.0346  160.7793 H   0  0  0  0  0  0  0  0  0  0  0  0
  151.7874  146.1116  159.8101 H   0  0  0  0  0  0  0  0  0  0  0  0
  150.3468  145.8929  157.7012 H   0  0  0  0  0  0  0  0  0  0  0  0
  146.9465  140.2832  153.8184 H   0  0  0  0  0  0  0  0  0  0  0  0
  148.4955  142.8257  152.9941 H   0  0  0  0  0  0  0  0  0  0  0  0
  147.3687  141.8348  151.9963 H   0  0  0  0  0  0  0  0  0  0  0  0
  146.4932  143.9863  153.7497 H   0  0  0  0  0  0  0  0  0  0  0  0
  145.4470  142.5940  153.2691 H   0  0  0  0  0  0  0  0  0  0  0  0
  145.9160  141.7208  155.4825 H   0  0  0  0  0  0  0  0  0  0  0  0
  147.3893  142.7444  155.6383 H   0  0  0  0  0  0  0  0  0  0  0  0
  150.0334  143.7946  156.7763 H   0  0  0  0  0  0  0  0  0  0  0  0
  1  2  2  0  0  0  0
  2  3  1  0  0  0  0
  2 12  1  0  0  0  0
  3  4  1  0  0  0  0
  3 16  1  0  0  0  0
  4  5  1  0  0  0  0
  4 17  1  0  0  0  0
  4 18  1  0  0  0  0
  5  6  1  0  0  0  0
  5 19  1  0  0  0  0
  5 20  1  0  0  0  0
  6 11  1  0  0  0  0
  6  7  2  0  0  0  0
  7  8  1  0  0  0  0
  7 21  1  0  0  0  0
  8  9  2  0  0  0  0
  8 22  1  0  0  0  0
  9 10  1  0  0  0  0
  9 23  1  0  0  0  0
 10 11  2  0  0  0  0
 10 24  1  0  0  0  0
 11 32  1  0  0  0  0
 12 15  1  0  0  0  0
 12 13  1  0  0  0  0
 12 25  1  0  0  0  0
 13 14  1  0  0  0  0
 13 26  1  0  0  0  0
 13 27  1  0  0  0  0
 14 15  1  0  0  0  0
 14 28  1  0  0  0  0
 14 29  1  0  0  0  0
 15 30  1  0  0  0  0
 15 31  1  0  0  0  0
M  CHG  1  11   1
M  END
> <s_m_source_file>
AV-unprocessed.smi

> <i_m_source_file_index>
3119

> <i_lp_mmshare_version>
43012

> <i_f3d_flags>
0

> <s_epik_input>
W0NIMl0xW0NIMl1bQ0gyXVtDSF0xQyg9TylbTkhdW0NIMl1bQ0gyXWMyW2NIXVtjSF1bY0hdW2NIXW4y

> <s_epik_cmdline>
J2VwaWtfcHl0aG9uJywgJy1waCcsICc3LjAnLCAnLXRuJywgJzgnLCAnLW1hJywgJzIwMCcsICctbWV0YWxfYmluZGluZycsICctaW1hZScsICc8aW5maWxlLm1hZT4nLCAnLW9tYWUnLCAnPG91dGZpbGUubWFlPic=

> <r_epik_Ionization_Penalty>
1.82741

> <r_epik_Ionization_Penalty_Charging>
1.82741

> <r_epik_Ionization_Penalty_Neutral>
1.62845e-08

> <r_epik_State_Penalty>
1.94311

> <r_epik_Charging_Adjusted_Penalty>
3.77052

> <i_epik_Tot_Q>
1

> <i_epik_Tot_abs_Q>
1

> <r_epik_Metal_State_Penalty>
1.96982

> <b_epik_Metal_Only>
0

> <s_lp_Force_Field>
OPLS_2005

> <r_lp_Energy>
15.9357

> <b_lp_Chiralities_Consistent>
1

> <s_lp_Variant>
AV-unprocessed.smi:3119-2

> <Gold.Version>
5.8.1

> <Gold.Id.Protein>
6NUR|6NUR_protein|mol2

> <Gold.PLP.Fitness>
43.1501

> <Gold.PLP.PLP>
-35.7215

> <Gold.PLP.part.hbond>
-2.0000

> <Gold.PLP.part.metal>
0.0000

> <Gold.PLP.part.buried>
-6.4035

> <Gold.PLP.part.nonpolar>
-27.1090

> <Gold.PLP.part.repulsive>
0.2343

> <Gold.PLP.ligand.clash>
0.0000

> <Gold.PLP.ligand.torsion>
0.9904

> <Gold.PLP.Chemscore.Hbond>
3.0000

> <Gold.PLP.Chemscore.CHOScore>
0.0000

> <Gold.PLP.Chemscore.Metal>
0.0000

> <Gold.Chemscore.Hbonds>
donor molecule, donor type, donor heavy atom, donor atom, acceptor molecule, acceptor atom, score
      L1  H     3    16       P1  8028  0.78
      L1  H    11    32       P1  8028  1.76

> <Gold.PLP.Chemscore.Internal.Correction>
0.4093

> <Gold.Rescore>
     Score         DG    S(hbond)    S(metal)    S(lipo)     H(rot)  DE(clash)    DE(int)     intcor
     17.45     -18.42       1.91        0.00      89.59       1.53       0.05       0.93       ----

> <Gold.Chemscore.Fitness>
17.4457

> <Gold.Chemscore.DG>
-18.4173

> <Gold.Chemscore.ZeroCoef>
-5.4800

> <Gold.Chemscore.Hbond>
1.9059

> <Gold.Chemscore.Metal>
0.0000

> <Gold.Chemscore.Lipo>
89.5948

> <Gold.Chemscore.Internal_Hbond>
0.0000

> <Gold.Chemscore.DEClash>
0.0460

> <Gold.Chemscore.DEInternal>
0.9256

> <Gold.Chemscore.Rot>
1.5278

> <Gold.Chemscore.Internal.Correction>
   9.000000E+99

> <Gold.Chemscore.Hbonds>
donor molecule, donor type, donor heavy atom, donor atom, acceptor molecule, acceptor atom, score
      L1  H     3    16       P1  8028  0.77
      L1  H    11    32       P1  8028  0.86

> <Gold.Chemscore.Hbond.Weighted>
-6.3659

> <Gold.Chemscore.Metal.Weighted>
-0.0000

> <Gold.Chemscore.Lipo.Weighted>
-10.4826

> <Gold.Chemscore.Internal_Hbond.Weighted>
0.0000

> <Gold.Chemscore.DEClash.Weighted>
0.0460

> <Gold.Chemscore.DEInternal.Weighted>
0.9256

> <Gold.Chemscore.Rot.Weighted>
3.9111

> <Gold.Chemscore.Internal.Correction.Weighted>
   9.000000E+99

> <Gold.Protein.RotatedTorsions>
[ 6907 6896 6895 6894 ] final  118.97 input  -60.11 | X-H torsion
[ 7974 7965 7964 7962 ] final  177.23 input  175.53 | X-H torsion
[ 8008 7997 7996 7995 ] final  -89.93 input   59.86 | X-H torsion
[ 10167 10162 10161 10158 ] final -174.90 input  -65.29 | X-H torsion
[ 10718 10713 10712 10709 ] final  -51.38 input   66.30 | X-H torsion
[ 10763 10752 10751 10750 ] final   54.68 input  -60.55 | X-H torsion
[ 11005 11000 10999 10996 ] final   12.78 input  -57.11 | X-H torsion

> <Gold.Protein.ActiveResidues>
 VAL166  LYS551  ARG553  GLY616  TRP617  ASP618  TYR619  PRO620  LYS621  CYS622 
 ASP623  PHE694  ASN695  SER759  ASP760  ASP761  ALA762  ILE779  LEU786  VAL792 
 PHE793  MET794  SER795  GLU796  ALA797  LYS798  CYS799  TRP800  GLU811  SER814 

> <Gold.Protein.RotatedAtoms>
  152.4505  133.7620  159.6751 H   0  0  0  0  0  0  0  0  0  0  0  0  # atno 6907 bound_to 6896
  150.8416  133.7917  159.3065 H   0  0  0  0  0  0  0  0  0  0  0  0  # atno 6908 bound_to 6896
  151.5540  135.1069  160.0008 H   0  0  0  0  0  0  0  0  0  0  0  0  # atno 6909 bound_to 6896
  144.7172  140.0216  143.6440 H   0  0  0  0  0  0  0  0  0  0  0  0  # atno 7974 bound_to 7965
  154.6925  140.0536  157.0378 H   0  0  0  0  0  0  0  0  0  0  0  0  # atno 8008 bound_to 7997
  155.0797  140.3208  155.4586 H   0  0  0  0  0  0  0  0  0  0  0  0  # atno 8009 bound_to 7997
  156.2733  140.2067  156.5924 H   0  0  0  0  0  0  0  0  0  0  0  0  # atno 8010 bound_to 7997
  139.5609  144.1872  152.1237 H   0  0  0  0  0  0  0  0  0  0  0  0  # atno 10167 bound_to 10162
  156.1715  130.4149  149.9640 H   0  0  0  0  0  0  0  0  0  0  0  0  # atno 10718 bound_to 10713
  152.9807  135.5736  154.4944 H   0  0  0  0  0  0  0  0  0  0  0  0  # atno 10763 bound_to 10752
  154.4473  135.2777  155.1808 H   0  0  0  0  0  0  0  0  0  0  0  0  # atno 10764 bound_to 10752
  154.3450  135.6221  153.5668 H   0  0  0  0  0  0  0  0  0  0  0  0  # atno 10765 bound_to 10752
  140.4882  134.0867  155.7765 H   0  0  0  0  0  0  0  0  0  0  0  0  # atno 11005 bound_to 11000
  146.0176  139.3223  143.0832 LP  0  0  0  0  0  0  0  0  0  0  0  0  # atno 17320 bound_to 7965
  145.8607  140.9477  143.0701 LP  0  0  0  0  0  0  0  0  0  0  0  0  # atno 17321 bound_to 7965
  140.1385  144.5224  150.6758 LP  0  0  0  0  0  0  0  0  0  0  0  0  # atno 17342 bound_to 10162
  140.6889  143.2365  151.5186 LP  0  0  0  0  0  0  0  0  0  0  0  0  # atno 17343 bound_to 10162
  156.7438  130.9089  151.3633 LP  0  0  0  0  0  0  0  0  0  0  0  0  # atno 17370 bound_to 10713
  157.6806  130.9136  150.0258 LP  0  0  0  0  0  0  0  0  0  0  0  0  # atno 17371 bound_to 10713
  141.1497  133.8990  157.2128 LP  0  0  0  0  0  0  0  0  0  0  0  0  # atno 17394 bound_to 11000
  139.9785  135.0106  156.9691 LP  0  0  0  0  0  0  0  0  0  0  0  0  # atno 17395 bound_to 11000

$$$$
