AV-unprocessed.smi:184|AV-procd|sdf|1463|dock3
  -GOLD-   2262019273D 1   1.00000     0.00000
 Structure written by MMmdl.
 54 58  0  0  0  0  0  0  0  0  1 V2000
  147.6299  141.9985  155.9940 O   0  0  0  0  0  0  0  0  0  0  0  0
  148.7141  141.8094  156.5404 C   0  0  0  0  0  0  0  0  0  0  0  0
  149.2332  140.3702  156.7157 C   0  0  0  0  0  0  0  0  0  0  0  0
  150.5454  140.2594  157.3708 N   0  0  0  0  0  0  0  0  0  0  0  0
  150.8158  138.9828  157.7244 C   0  0  0  0  0  0  0  0  0  0  0  0
  150.9159  138.7152  159.0495 N   0  0  0  0  0  0  0  0  0  0  0  0
  151.1796  137.4713  159.4608 C   0  0  0  0  0  0  0  0  0  0  0  0
  151.3781  136.3736  158.7274 N   0  0  0  0  0  0  0  0  0  0  0  0
  151.2886  136.6436  157.3934 C   0  0  0  0  0  0  0  0  0  0  0  0
  151.0184  137.9123  156.8084 C   0  0  0  0  0  0  0  0  0  0  0  0
  151.0187  137.8056  155.4233 N   0  0  0  0  0  0  0  0  0  0  0  0
  151.2646  136.5434  155.2020 C   0  0  0  0  0  0  0  0  0  0  0  0
  151.4293  135.7699  156.3292 N   0  0  0  0  0  0  0  0  0  0  0  0
  151.7069  134.3418  156.3721 C   0  0  0  0  0  0  0  0  0  0  0  0
  150.4347  133.4505  156.3750 C   0  0  0  0  0  0  0  0  0  0  0  0
  149.6699  133.8032  157.5136 O   0  0  0  0  0  0  0  0  0  0  0  0
  149.5543  133.7072  155.1356 C   0  0  0  0  0  0  0  0  0  0  0  0
  150.1540  133.0668  153.8701 C   0  0  0  0  0  0  0  0  0  0  0  0
  150.3576  131.6735  154.0784 O   0  0  0  0  0  0  0  0  0  0  0  0
  151.2760  131.3951  155.1297 C   0  0  0  0  0  0  0  0  0  0  0  0
  150.7267  131.9366  156.4614 C   0  0  0  0  0  0  0  0  0  0  0  0
  150.9135  141.3150  158.3191 C   0  0  1  0  0  0  0  0  0  0  0  0
  152.3452  141.1794  158.8920 C   0  0  0  0  0  0  0  0  0  0  0  0
  152.6636  142.3320  159.8595 C   0  0  0  0  0  0  0  0  0  0  0  0
  152.4667  143.7032  159.1933 C   0  0  0  0  0  0  0  0  0  0  0  0
  151.0590  143.8375  158.5904 C   0  0  0  0  0  0  0  0  0  0  0  0
  150.7707  142.6823  157.6162 C   0  0  2  0  0  0  0  0  0  0  0  0
  149.4537  142.8293  157.0058 N   0  0  0  0  0  0  0  0  0  0  0  0
  148.4834  139.8150  157.2824 H   0  0  0  0  0  0  0  0  0  0  0  0
  149.2921  139.9069  155.7299 H   0  0  0  0  0  0  0  0  0  0  0  0
  151.2387  137.3356  160.5306 H   0  0  0  0  0  0  0  0  0  0  0  0
  151.3271  136.1372  154.2028 H   0  0  0  0  0  0  0  0  0  0  0  0
  152.3341  134.0965  155.5135 H   0  0  0  0  0  0  0  0  0  0  0  0
  152.3195  134.1454  157.2517 H   0  0  0  0  0  0  0  0  0  0  0  0
  149.2388  134.6267  157.3425 H   0  0  0  0  0  0  0  0  0  0  0  0
  148.5626  133.2801  155.2950 H   0  0  0  0  0  0  0  0  0  0  0  0
  149.4044  134.7769  154.9836 H   0  0  0  0  0  0  0  0  0  0  0  0
  149.4719  133.1968  153.0298 H   0  0  0  0  0  0  0  0  0  0  0  0
  151.0921  133.5450  153.5867 H   0  0  0  0  0  0  0  0  0  0  0  0
  151.4148  130.3158  155.1965 H   0  0  0  0  0  0  0  0  0  0  0  0
  152.2510  131.8230  154.8955 H   0  0  0  0  0  0  0  0  0  0  0  0
  151.4119  131.7068  157.2774 H   0  0  0  0  0  0  0  0  0  0  0  0
  149.8040  131.4003  156.6888 H   0  0  0  0  0  0  0  0  0  0  0  0
  150.2052  141.2833  159.1487 H   0  0  0  0  0  0  0  0  0  0  0  0
  152.4676  140.2367  159.4255 H   0  0  0  0  0  0  0  0  0  0  0  0
  153.0714  141.1701  158.0780 H   0  0  0  0  0  0  0  0  0  0  0  0
  152.0183  142.2580  160.7357 H   0  0  0  0  0  0  0  0  0  0  0  0
  153.6877  142.2393  160.2223 H   0  0  0  0  0  0  0  0  0  0  0  0
  152.6380  144.4979  159.9201 H   0  0  0  0  0  0  0  0  0  0  0  0
  153.2123  143.8365  158.4085 H   0  0  0  0  0  0  0  0  0  0  0  0
  150.3166  143.8441  159.3898 H   0  0  0  0  0  0  0  0  0  0  0  0
  150.9714  144.7953  158.0761 H   0  0  0  0  0  0  0  0  0  0  0  0
  151.4939  142.7337  156.8001 H   0  0  0  0  0  0  0  0  0  0  0  0
  149.0948  143.7671  156.8997 H   0  0  0  0  0  0  0  0  0  0  0  0
  1  2  2  0  0  0  0
  2 28  1  0  0  0  0
  2  3  1  0  0  0  0
  3  4  1  0  0  0  0
  3 29  1  0  0  0  0
  3 30  1  0  0  0  0
  4  5  1  0  0  0  0
  4 22  1  0  0  0  0
  5 10  1  0  0  0  0
  5  6  2  0  0  0  0
  6  7  1  0  0  0  0
  7  8  2  0  0  0  0
  7 31  1  0  0  0  0
  8  9  1  0  0  0  0
  9 13  1  0  0  0  0
  9 10  2  0  0  0  0
 10 11  1  0  0  0  0
 11 12  2  0  0  0  0
 12 13  1  0  0  0  0
 12 32  1  0  0  0  0
 13 14  1  0  0  0  0
 14 15  1  0  0  0  0
 14 33  1  0  0  0  0
 14 34  1  0  0  0  0
 15 21  1  0  0  0  0
 15 16  1  0  0  0  0
 15 17  1  0  0  0  0
 16 35  1  0  0  0  0
 17 18  1  0  0  0  0
 17 36  1  0  0  0  0
 17 37  1  0  0  0  0
 18 19  1  0  0  0  0
 18 38  1  0  0  0  0
 18 39  1  0  0  0  0
 19 20  1  0  0  0  0
 20 21  1  0  0  0  0
 20 40  1  0  0  0  0
 20 41  1  0  0  0  0
 21 42  1  0  0  0  0
 21 43  1  0  0  0  0
 22 27  1  0  0  0  0
 22 23  1  0  0  0  0
 22 44  1  0  0  0  0
 23 24  1  0  0  0  0
 23 45  1  0  0  0  0
 23 46  1  0  0  0  0
 24 25  1  0  0  0  0
 24 47  1  0  0  0  0
 24 48  1  0  0  0  0
 25 26  1  0  0  0  0
 25 49  1  0  0  0  0
 25 50  1  0  0  0  0
 26 27  1  0  0  0  0
 26 51  1  0  0  0  0
 26 52  1  0  0  0  0
 27 28  1  0  0  0  0
 27 53  1  0  0  0  0
 28 54  1  0  0  0  0
M  END
> <s_m_source_file>
AV-unprocessed.smi

> <i_m_source_file_index>
184

> <i_lp_mmshare_version>
43012

> <i_f3d_flags>
0

> <s_epik_input>
W0NIMl0xW0NIMl1bQ0gyXVtDSDJdW0NASF0oW0NASF0xMilbTkhdQyg9TylbQ0gyXU4yYyhuW2NIXW4zKWMoYzM0KW5bY0hdbjRbQ0gyXUM1KFtPSF0pW0NIMl1bQ0gyXU9bQ0gyXVtDSDJdNQ==

> <s_epik_cmdline>
J2VwaWtfcHl0aG9uJywgJy1waCcsICc3LjAnLCAnLXRuJywgJzgnLCAnLW1hJywgJzIwMCcsICctbWV0YWxfYmluZGluZycsICctaW1hZScsICc8aW5maWxlLm1hZT4nLCAnLW9tYWUnLCAnPG91dGZpbGUubWFlPic=

> <r_lp_tautomer_probability>
1

> <r_epik_Ionization_Penalty>
0.000822761

> <r_epik_Ionization_Penalty_Charging>
0

> <r_epik_Ionization_Penalty_Neutral>
0.000822761

> <r_epik_State_Penalty>
0.000403048

> <r_epik_Charging_Adjusted_Penalty>
0.000403048

> <i_epik_Tot_Q>
0

> <i_epik_Tot_abs_Q>
0

> <r_epik_Metal_State_Penalty>
-0

> <b_epik_Metal_Only>
0

> <s_lp_Force_Field>
OPLS_2005

> <r_lp_Energy>
32.8133

> <b_lp_Chiralities_Consistent>
1

> <s_lp_Variant>
AV-unprocessed.smi:184-3

> <Gold.Version>
5.8.1

> <Gold.Id.Protein>
6NUR|6NUR_protein|mol2

> <Gold.PLP.Fitness>
44.7793

> <Gold.PLP.PLP>
-37.8519

> <Gold.PLP.part.hbond>
-2.6078

> <Gold.PLP.part.metal>
0.0000

> <Gold.PLP.part.buried>
-4.6756

> <Gold.PLP.part.nonpolar>
-31.1258

> <Gold.PLP.part.repulsive>
0.9092

> <Gold.PLP.ligand.clash>
0.0000

> <Gold.PLP.ligand.torsion>
0.7521

> <Gold.PLP.Chemscore.Hbond>
2.3760

> <Gold.PLP.Chemscore.CHOScore>
0.3127

> <Gold.PLP.Chemscore.Metal>
0.0000

> <Gold.Chemscore.Hbonds>
donor molecule, donor type, donor heavy atom, donor atom, acceptor molecule, acceptor atom, score
      L1  H    28    54       P1  8028  0.70
      P1  H  6896  6908       L1    16  0.80
      P1  H  6896  6909       L1     8  0.72
      L1  C    12    32       P1  7949  0.54

> <Gold.PLP.Chemscore.Internal.Correction>
0.3655

> <Gold.Rescore>
     Score         DG    S(hbond)    S(metal)    S(lipo)     H(rot)  DE(clash)    DE(int)     intcor
     15.32     -17.37       1.90        0.00      94.81       2.17       0.02       2.03       ----

> <Gold.Chemscore.Fitness>
15.3230

> <Gold.Chemscore.DG>
-17.3691

> <Gold.Chemscore.ZeroCoef>
-5.4800

> <Gold.Chemscore.Hbond>
1.9009

> <Gold.Chemscore.Metal>
0.0000

> <Gold.Chemscore.Lipo>
94.8146

> <Gold.Chemscore.Internal_Hbond>
0.0000

> <Gold.Chemscore.DEClash>
0.0201

> <Gold.Chemscore.DEInternal>
2.0260

> <Gold.Chemscore.Rot>
2.1693

> <Gold.Chemscore.Internal.Correction>
   9.000000E+99

> <Gold.Chemscore.Hbonds>
donor molecule, donor type, donor heavy atom, donor atom, acceptor molecule, acceptor atom, score
      L1  H    28    54       P1  8028  0.41
      P1  H  6896  6908       L1    16  0.50
      P1  H  6896  6909       L1     8  0.25

> <Gold.Chemscore.Hbond.Weighted>
-6.3491

> <Gold.Chemscore.Metal.Weighted>
-0.0000

> <Gold.Chemscore.Lipo.Weighted>
-11.0933

> <Gold.Chemscore.Internal_Hbond.Weighted>
0.0000

> <Gold.Chemscore.DEClash.Weighted>
0.0201

> <Gold.Chemscore.DEInternal.Weighted>
2.0260

> <Gold.Chemscore.Rot.Weighted>
5.5533

> <Gold.Chemscore.Internal.Correction.Weighted>
   9.000000E+99

> <Gold.Protein.RotatedTorsions>
[ 6907 6896 6895 6894 ] final  109.35 input  -60.11 | X-H torsion
[ 7974 7965 7964 7962 ] final -174.86 input  175.53 | X-H torsion
[ 8008 7997 7996 7995 ] final  -81.08 input   59.86 | X-H torsion
[ 10167 10162 10161 10158 ] final  168.87 input  -65.29 | X-H torsion
[ 10718 10713 10712 10709 ] final  -64.38 input   66.30 | X-H torsion
[ 10763 10752 10751 10750 ] final  129.69 input  -60.55 | X-H torsion
[ 11005 11000 10999 10996 ] final  -73.06 input  -57.11 | X-H torsion

> <Gold.Protein.ActiveResidues>
 VAL166  LYS551  ARG553  GLY616  TRP617  ASP618  TYR619  PRO620  LYS621  CYS622 
 ASP623  PHE694  ASN695  SER759  ASP760  ASP761  ALA762  ILE779  LEU786  VAL792 
 PHE793  MET794  SER795  GLU796  ALA797  LYS798  CYS799  TRP800  GLU811  SER814 

> <Gold.Protein.RotatedAtoms>
  152.5071  133.8957  159.7415 H   0  0  0  0  0  0  0  0  0  0  0  0  # atno 6907 bound_to 6896
  150.9385  133.6676  159.2802 H   0  0  0  0  0  0  0  0  0  0  0  0  # atno 6908 bound_to 6896
  151.3996  135.0974  159.9604 H   0  0  0  0  0  0  0  0  0  0  0  0  # atno 6909 bound_to 6896
  144.7130  140.1409  143.6392 H   0  0  0  0  0  0  0  0  0  0  0  0  # atno 7974 bound_to 7965
  154.5947  140.0653  156.9288 H   0  0  0  0  0  0  0  0  0  0  0  0  # atno 8008 bound_to 7997
  155.2234  140.3332  155.4294 H   0  0  0  0  0  0  0  0  0  0  0  0  # atno 8009 bound_to 7997
  156.2279  140.1828  156.7300 H   0  0  0  0  0  0  0  0  0  0  0  0  # atno 8010 bound_to 7997
  139.4978  144.3767  151.9666 H   0  0  0  0  0  0  0  0  0  0  0  0  # atno 10167 bound_to 10162
  156.0732  130.4233  150.1413 H   0  0  0  0  0  0  0  0  0  0  0  0  # atno 10718 bound_to 10713
  153.7459  135.3217  155.3312 H   0  0  0  0  0  0  0  0  0  0  0  0  # atno 10763 bound_to 10752
  154.8279  135.4555  154.0980 H   0  0  0  0  0  0  0  0  0  0  0  0  # atno 10764 bound_to 10752
  153.2169  135.6943  153.8129 H   0  0  0  0  0  0  0  0  0  0  0  0  # atno 10765 bound_to 10752
  141.1617  133.6866  156.7154 H   0  0  0  0  0  0  0  0  0  0  0  0  # atno 11005 bound_to 11000
  145.9203  139.2541  143.1385 LP  0  0  0  0  0  0  0  0  0  0  0  0  # atno 17320 bound_to 7965
  145.9627  140.8823  143.0202 LP  0  0  0  0  0  0  0  0  0  0  0  0  # atno 17321 bound_to 7965
  140.3204  144.3435  150.6011 LP  0  0  0  0  0  0  0  0  0  0  0  0  # atno 17342 bound_to 10162
  140.5727  143.2179  151.7569 LP  0  0  0  0  0  0  0  0  0  0  0  0  # atno 17343 bound_to 10162
  156.9459  130.9759  151.3507 LP  0  0  0  0  0  0  0  0  0  0  0  0  # atno 17370 bound_to 10713
  157.5814  130.8379  149.8528 LP  0  0  0  0  0  0  0  0  0  0  0  0  # atno 17371 bound_to 10713
  140.2856  134.8282  157.3971 LP  0  0  0  0  0  0  0  0  0  0  0  0  # atno 17394 bound_to 11000
  140.1394  134.4992  155.8043 LP  0  0  0  0  0  0  0  0  0  0  0  0  # atno 17395 bound_to 11000

$$$$
