AV-unprocessed.smi:264|AV-procd|sdf|2013|dock1
  -GOLD-   2262021213D 1   1.00000     0.00000
 Structure written by MMmdl.
 52 56  0  0  0  0  0  0  0  0  1 V2000
  147.0567  133.5300  151.4667 C   0  0  0  0  0  0  0  0  0  0  0  0
  145.7191  132.9822  151.9906 C   0  0  2  0  0  0  0  0  0  0  0  0
  145.5562  131.6151  151.6136 O   0  0  0  0  0  0  0  0  0  0  0  0
  144.3765  131.4614  150.8383 C   0  0  0  0  0  0  0  0  0  0  0  0
  143.4645  132.5789  151.3253 C   0  0  0  0  0  0  0  0  0  0  0  0
  144.4393  133.7285  151.5420 C   0  0  2  0  0  0  0  0  0  0  0  0
  144.6411  134.3792  150.2973 O   0  0  0  0  0  0  0  0  0  0  0  0
  143.9544  134.7788  152.5700 C   0  0  0  0  0  0  0  0  0  0  0  0
  144.9751  135.7546  152.9209 N   0  0  0  0  0  0  0  0  0  0  0  0
  145.1763  136.9831  152.3332 C   0  0  0  0  0  0  0  0  0  0  0  0
  146.1684  137.6768  152.8202 N   0  0  0  0  0  0  0  0  0  0  0  0
  146.6908  136.8678  153.8226 C   0  0  0  0  0  0  0  0  0  0  0  0
  147.7687  137.0006  154.7438 C   0  0  0  0  0  0  0  0  0  0  0  0
  148.5835  138.0865  154.7689 N   0  0  0  0  0  0  0  0  0  0  0  0
  148.1069  139.2295  153.9997 C   0  0  0  0  0  0  0  0  0  0  0  0
  148.8932  140.4885  154.3898 C   0  0  0  0  0  0  0  0  0  0  0  0
  150.2949  140.2616  154.2496 O   0  0  0  0  0  0  0  0  0  0  0  0
  150.8102  139.1473  154.9892 C   0  0  2  0  0  0  0  0  0  0  0  0
  150.8779  139.4315  156.4874 C   0  0  0  0  0  0  0  0  0  0  0  0
  152.1512  140.2554  156.6009 C   0  0  0  0  0  0  0  0  0  0  0  0
  153.0425  139.6087  155.7070 O   0  0  0  0  0  0  0  0  0  0  0  0
  152.3027  139.0336  154.6321 C   0  0  0  0  0  0  0  0  0  0  0  0
  150.0208  137.8714  154.6233 C   0  0  0  0  0  0  0  0  0  0  0  0
  147.9667  135.9804  155.6218 N   0  0  0  0  0  0  0  0  0  0  0  0
  147.1787  134.9017  155.5950 C   0  0  0  0  0  0  0  0  0  0  0  0
  146.1507  134.6394  154.7861 N   0  0  0  0  0  0  0  0  0  0  0  0
  145.9397  135.6611  153.9087 C   0  0  0  0  0  0  0  0  0  0  0  0
  147.1857  134.5775  151.7402 H   0  0  0  0  0  0  0  0  0  0  0  0
  147.1256  133.4519  150.3815 H   0  0  0  0  0  0  0  0  0  0  0  0
  147.8933  132.9717  151.8870 H   0  0  0  0  0  0  0  0  0  0  0  0
  145.7613  132.9776  153.0805 H   0  0  0  0  0  0  0  0  0  0  0  0
  144.6206  131.5942  149.7835 H   0  0  0  0  0  0  0  0  0  0  0  0
  143.9379  130.4718  150.9661 H   0  0  0  0  0  0  0  0  0  0  0  0
  142.6581  132.8090  150.6277 H   0  0  0  0  0  0  0  0  0  0  0  0
  143.0136  132.2830  152.2734 H   0  0  0  0  0  0  0  0  0  0  0  0
  145.2815  133.8909  149.8027 H   0  0  0  0  0  0  0  0  0  0  0  0
  143.0955  135.3231  152.1750 H   0  0  0  0  0  0  0  0  0  0  0  0
  143.6108  134.2884  153.4819 H   0  0  0  0  0  0  0  0  0  0  0  0
  144.5639  137.3489  151.5219 H   0  0  0  0  0  0  0  0  0  0  0  0
  148.2425  139.0209  152.9375 H   0  0  0  0  0  0  0  0  0  0  0  0
  147.0429  139.4060  154.1520 H   0  0  0  0  0  0  0  0  0  0  0  0
  148.6101  141.3179  153.7415 H   0  0  0  0  0  0  0  0  0  0  0  0
  148.6473  140.7968  155.4053 H   0  0  0  0  0  0  0  0  0  0  0  0
  150.0065  139.9373  156.8994 H   0  0  0  0  0  0  0  0  0  0  0  0
  151.0044  138.4999  157.0406 H   0  0  0  0  0  0  0  0  0  0  0  0
  151.9815  141.2807  156.2683 H   0  0  0  0  0  0  0  0  0  0  0  0
  152.5492  140.2823  157.6156 H   0  0  0  0  0  0  0  0  0  0  0  0
  152.6113  137.9923  154.5338 H   0  0  0  0  0  0  0  0  0  0  0  0
  152.5377  139.5334  153.6915 H   0  0  0  0  0  0  0  0  0  0  0  0
  150.3467  137.0393  155.2492 H   0  0  0  0  0  0  0  0  0  0  0  0
  150.2298  137.5952  153.5887 H   0  0  0  0  0  0  0  0  0  0  0  0
  147.4054  134.1383  156.3249 H   0  0  0  0  0  0  0  0  0  0  0  0
  1  2  1  0  0  0  0
  1 28  1  0  0  0  0
  1 29  1  0  0  0  0
  1 30  1  0  0  0  0
  2  6  1  0  0  0  0
  2  3  1  0  0  0  0
  2 31  1  0  0  0  0
  3  4  1  0  0  0  0
  4  5  1  0  0  0  0
  4 32  1  0  0  0  0
  4 33  1  0  0  0  0
  5  6  1  0  0  0  0
  5 34  1  0  0  0  0
  5 35  1  0  0  0  0
  6  7  1  0  0  0  0
  6  8  1  0  0  0  0
  7 36  1  0  0  0  0
  8  9  1  0  0  0  0
  8 37  1  0  0  0  0
  8 38  1  0  0  0  0
  9 27  1  0  0  0  0
  9 10  1  0  0  0  0
 10 11  2  0  0  0  0
 10 39  1  0  0  0  0
 11 12  1  0  0  0  0
 12 27  2  0  0  0  0
 12 13  1  0  0  0  0
 13 14  1  0  0  0  0
 13 24  2  0  0  0  0
 14 23  1  0  0  0  0
 14 15  1  0  0  0  0
 15 16  1  0  0  0  0
 15 40  1  0  0  0  0
 15 41  1  0  0  0  0
 16 17  1  0  0  0  0
 16 42  1  0  0  0  0
 16 43  1  0  0  0  0
 17 18  1  0  0  0  0
 18 22  1  0  0  0  0
 18 19  1  0  0  0  0
 18 23  1  0  0  0  0
 19 20  1  0  0  0  0
 19 44  1  0  0  0  0
 19 45  1  0  0  0  0
 20 21  1  0  0  0  0
 20 46  1  0  0  0  0
 20 47  1  0  0  0  0
 21 22  1  0  0  0  0
 22 48  1  0  0  0  0
 22 49  1  0  0  0  0
 23 50  1  0  0  0  0
 23 51  1  0  0  0  0
 24 25  1  0  0  0  0
 25 26  2  0  0  0  0
 25 52  1  0  0  0  0
 26 27  1  0  0  0  0
M  END
> <s_m_source_file>
AV-unprocessed.smi

> <i_m_source_file_index>
264

> <i_lp_mmshare_version>
43012

> <i_f3d_flags>
0

> <s_epik_input>
W0NIMl0xW0NIMl1PW0NAQEhdKFtDSDNdKVtDQEBdMShbT0hdKVtDSDJdbihbY0hdbjIpYyhjMjMpbltjSF1uYzNOKFtDSDJdNClbQ0gyXVtDSDJdT1tDQF00NVtDSDJdW0NIMl1PW0NIMl01

> <s_epik_cmdline>
J2VwaWtfcHl0aG9uJywgJy1waCcsICc3LjAnLCAnLXRuJywgJzgnLCAnLW1hJywgJzIwMCcsICctbWV0YWxfYmluZGluZycsICctaW1hZScsICc8aW5maWxlLm1hZT4nLCAnLW9tYWUnLCAnPG91dGZpbGUubWFlPic=

> <r_lp_tautomer_probability>
1

> <r_epik_Ionization_Penalty>
0.00539389

> <r_epik_Ionization_Penalty_Charging>
0

> <r_epik_Ionization_Penalty_Neutral>
0.00539389

> <r_epik_State_Penalty>
0.00375441

> <r_epik_Charging_Adjusted_Penalty>
0.00375441

> <i_epik_Tot_Q>
0

> <i_epik_Tot_abs_Q>
0

> <r_epik_Metal_State_Penalty>
-0

> <b_epik_Metal_Only>
0

> <s_lp_Force_Field>
OPLS_2005

> <r_lp_Energy>
54.0423

> <b_lp_Chiralities_Consistent>
1

> <s_lp_Variant>
AV-unprocessed.smi:264-7

> <Gold.Version>
5.8.1

> <Gold.Id.Protein>
6NUR|6NUR_protein|mol2

> <Gold.PLP.Fitness>
43.7058

> <Gold.PLP.PLP>
-35.1821

> <Gold.PLP.part.hbond>
-3.0000

> <Gold.PLP.part.metal>
0.0000

> <Gold.PLP.part.buried>
-3.7616

> <Gold.PLP.part.nonpolar>
-28.1066

> <Gold.PLP.part.repulsive>
0.7417

> <Gold.PLP.ligand.clash>
0.0146

> <Gold.PLP.ligand.torsion>
0.5709

> <Gold.PLP.Chemscore.Hbond>
2.1256

> <Gold.PLP.Chemscore.CHOScore>
1.0000

> <Gold.PLP.Chemscore.Metal>
0.0000

> <Gold.Chemscore.Hbonds>
donor molecule, donor type, donor heavy atom, donor atom, acceptor molecule, acceptor atom, score
      P1  H  7989  7998       L1    17  1.00
      P1  H  7997  8008       L1    21  0.91
      L1  C    10    39       P1 10171  1.00

> <Gold.PLP.Chemscore.Internal.Correction>
0.3033

> <Gold.Rescore>
     Score         DG    S(hbond)    S(metal)    S(lipo)     H(rot)  DE(clash)    DE(int)     intcor
     14.84     -17.42       2.27        0.00      83.44       2.11       0.56       2.02       ----

> <Gold.Chemscore.Fitness>
14.8382

> <Gold.Chemscore.DG>
-17.4202

> <Gold.Chemscore.ZeroCoef>
-5.4800

> <Gold.Chemscore.Hbond>
2.2665

> <Gold.Chemscore.Metal>
0.0000

> <Gold.Chemscore.Lipo>
83.4364

> <Gold.Chemscore.Internal_Hbond>
0.0000

> <Gold.Chemscore.DEClash>
0.5649

> <Gold.Chemscore.DEInternal>
2.0171

> <Gold.Chemscore.Rot>
2.1063

> <Gold.Chemscore.Internal.Correction>
   9.000000E+99

> <Gold.Chemscore.Hbonds>
donor molecule, donor type, donor heavy atom, donor atom, acceptor molecule, acceptor atom, score
      P1  H  7989  7998       L1    17  0.42
      P1  H  7997  8008       L1    21  0.44

> <Gold.Chemscore.Hbond.Weighted>
-7.5702

> <Gold.Chemscore.Metal.Weighted>
-0.0000

> <Gold.Chemscore.Lipo.Weighted>
-9.7621

> <Gold.Chemscore.Internal_Hbond.Weighted>
0.0000

> <Gold.Chemscore.DEClash.Weighted>
0.5649

> <Gold.Chemscore.DEInternal.Weighted>
2.0171

> <Gold.Chemscore.Rot.Weighted>
5.3921

> <Gold.Chemscore.Internal.Correction.Weighted>
   9.000000E+99

> <Gold.Protein.RotatedTorsions>
[ 6907 6896 6895 6894 ] final   -7.50 input  -60.11 | X-H torsion
[ 7974 7965 7964 7962 ] final -178.97 input  175.53 | X-H torsion
[ 8008 7997 7996 7995 ] final  -23.87 input   59.86 | X-H torsion
[ 10167 10162 10161 10158 ] final  -48.62 input  -65.29 | X-H torsion
[ 10718 10713 10712 10709 ] final  154.90 input   66.30 | X-H torsion
[ 10763 10752 10751 10750 ] final   -2.75 input  -60.55 | X-H torsion
[ 11005 11000 10999 10996 ] final   24.10 input  -57.11 | X-H torsion

> <Gold.Protein.ActiveResidues>
 VAL166  LYS551  ARG553  GLY616  TRP617  ASP618  TYR619  PRO620  LYS621  CYS622 
 ASP623  PHE694  ASN695  SER759  ASP760  ASP761  ALA762  ILE779  LEU786  VAL792 
 PHE793  MET794  SER795  GLU796  ALA797  LYS798  CYS799  TRP800  GLU811  SER814 

> <Gold.Protein.RotatedAtoms>
  151.4487  135.1027  159.9690 H   0  0  0  0  0  0  0  0  0  0  0  0  # atno 6907 bound_to 6896
  152.4896  133.8461  159.7188 H   0  0  0  0  0  0  0  0  0  0  0  0  # atno 6908 bound_to 6896
  150.9037  133.7026  159.2899 H   0  0  0  0  0  0  0  0  0  0  0  0  # atno 6909 bound_to 6896
  144.7134  140.0788  143.6426 H   0  0  0  0  0  0  0  0  0  0  0  0  # atno 7974 bound_to 7965
  154.4561  140.1969  156.0377 H   0  0  0  0  0  0  0  0  0  0  0  0  # atno 8008 bound_to 7997
  156.0748  140.3279  155.7592 H   0  0  0  0  0  0  0  0  0  0  0  0  # atno 8009 bound_to 7997
  155.5206  140.0569  157.2898 H   0  0  0  0  0  0  0  0  0  0  0  0  # atno 8010 bound_to 7997
  140.6723  143.2732  151.4096 H   0  0  0  0  0  0  0  0  0  0  0  0  # atno 10167 bound_to 10162
  157.2255  131.0728  151.1886 H   0  0  0  0  0  0  0  0  0  0  0  0  # atno 10718 bound_to 10713
  153.3621  135.6991  153.6704 H   0  0  0  0  0  0  0  0  0  0  0  0  # atno 10763 bound_to 10752
  153.5388  135.3577  155.2709 H   0  0  0  0  0  0  0  0  0  0  0  0  # atno 10764 bound_to 10752
  154.8669  135.4198  154.2881 H   0  0  0  0  0  0  0  0  0  0  0  0  # atno 10765 bound_to 10752
  140.3624  134.2111  155.7671 H   0  0  0  0  0  0  0  0  0  0  0  0  # atno 11005 bound_to 11000
  145.9720  139.2876  143.1093 LP  0  0  0  0  0  0  0  0  0  0  0  0  # atno 17320 bound_to 7965
  145.9106  140.9182  143.0456 LP  0  0  0  0  0  0  0  0  0  0  0  0  # atno 17321 bound_to 7965
  139.5997  144.1322  152.2184 LP  0  0  0  0  0  0  0  0  0  0  0  0  # atno 17342 bound_to 10162
  140.0702  144.5785  150.7197 LP  0  0  0  0  0  0  0  0  0  0  0  0  # atno 17343 bound_to 10162
  157.3532  130.7093  149.6454 LP  0  0  0  0  0  0  0  0  0  0  0  0  # atno 17370 bound_to 10713
  155.9679  130.4246  150.4618 LP  0  0  0  0  0  0  0  0  0  0  0  0  # atno 17371 bound_to 10713
  141.1980  133.8046  157.0603 LP  0  0  0  0  0  0  0  0  0  0  0  0  # atno 17394 bound_to 11000
  140.0616  134.9751  157.1314 LP  0  0  0  0  0  0  0  0  0  0  0  0  # atno 17395 bound_to 11000

$$$$
