AV-unprocessed.smi:1831|AV-procd|sdf|7457|dock5
  -GOLD-   22720 9143D 1   1.00000     0.00000
 Structure written by MMmdl.
 41 42  0  0  0  0  0  0  0  0  2 V2000
  151.2242  141.3777  156.8357 C   0  0  0  0  0  0  0  0  0  0  0  0
  150.8267  140.2323  155.9688 C   0  0  0  0  0  0  0  0  0  0  0  0
  150.6444  140.3509  154.6476 N   0  0  0  0  0  0  0  0  0  0  0  0
  150.2789  139.1498  154.0542 N   0  0  0  0  0  0  0  0  0  0  0  0
  150.2001  138.1571  154.9445 C   0  0  0  0  0  0  0  0  0  0  0  0
  149.8372  136.8690  154.4773 N   0  0  0  0  0  0  0  0  0  0  0  0
  150.1142  135.6804  155.0371 C   0  0  0  0  0  0  0  0  0  0  0  0
  150.7452  135.5143  156.0807 O   0  0  0  0  0  0  0  0  0  0  0  0
  149.6084  134.6716  154.3124 N   0  0  0  0  0  0  0  0  0  0  0  0
  149.7561  133.2519  154.6188 C   0  0  0  0  0  0  0  0  0  0  0  0
  149.0929  132.3497  153.5594 C   0  0  1  0  0  0  0  0  0  0  0  0
  148.3480  131.1562  154.1527 C   0  0  0  0  0  0  0  0  0  0  0  0
  147.3093  130.7742  153.0900 C   0  0  0  0  0  0  0  0  0  0  0  0
  147.2202  131.9087  152.1359 N   0  3  1  0  0  0  0  0  0  0  0  0
  145.8414  132.2596  151.6921 C   0  0  0  0  0  0  0  0  0  0  0  0
  145.0720  131.0087  151.2269 C   0  0  0  0  0  0  0  0  0  0  0  0
  145.8547  133.3052  150.5602 C   0  0  0  0  0  0  0  0  0  0  0  0
  148.0012  133.0190  152.7230 C   0  0  0  0  0  0  0  0  0  0  0  0
  150.5663  138.6144  156.6080 S   0  0  0  0  0  0  0  0  0  0  0  0
  151.1100  142.3219  156.3022 H   0  0  0  0  0  0  0  0  0  0  0  0
  152.2658  141.2701  157.1388 H   0  0  0  0  0  0  0  0  0  0  0  0
  150.6000  141.4049  157.7289 H   0  0  0  0  0  0  0  0  0  0  0  0
  149.3138  136.8532  153.6143 H   0  0  0  0  0  0  0  0  0  0  0  0
  149.1046  134.9021  153.4681 H   0  0  0  0  0  0  0  0  0  0  0  0
  150.8240  133.0359  154.6598 H   0  0  0  0  0  0  0  0  0  0  0  0
  149.3648  133.0317  155.6136 H   0  0  0  0  0  0  0  0  0  0  0  0
  149.8604  131.9688  152.8830 H   0  0  0  0  0  0  0  0  0  0  0  0
  149.0142  130.3300  154.4033 H   0  0  0  0  0  0  0  0  0  0  0  0
  147.8347  131.4541  155.0682 H   0  0  0  0  0  0  0  0  0  0  0  0
  147.6132  129.8796  152.5458 H   0  0  0  0  0  0  0  0  0  0  0  0
  146.3527  130.5625  153.5696 H   0  0  0  0  0  0  0  0  0  0  0  0
  145.3115  132.6917  152.5425 H   0  0  0  0  0  0  0  0  0  0  0  0
  144.0692  131.2717  150.8886 H   0  0  0  0  0  0  0  0  0  0  0  0
  144.9533  130.2766  152.0254 H   0  0  0  0  0  0  0  0  0  0  0  0
  145.5808  130.5168  150.3972 H   0  0  0  0  0  0  0  0  0  0  0  0
  144.8428  133.5170  150.2137 H   0  0  0  0  0  0  0  0  0  0  0  0
  146.4299  132.9552  149.7023 H   0  0  0  0  0  0  0  0  0  0  0  0
  146.2798  134.2551  150.8844 H   0  0  0  0  0  0  0  0  0  0  0  0
  147.3550  133.6194  153.3660 H   0  0  0  0  0  0  0  0  0  0  0  0
  148.4150  133.6691  151.9515 H   0  0  0  0  0  0  0  0  0  0  0  0
  147.7302  131.6198  151.3134 H   0  0  0  0  0  0  0  0  0  0  0  0
  1  2  1  0  0  0  0
  1 20  1  0  0  0  0
  1 21  1  0  0  0  0
  1 22  1  0  0  0  0
  2 19  1  0  0  0  0
  2  3  2  0  0  0  0
  3  4  1  0  0  0  0
  4  5  2  0  0  0  0
  5  6  1  0  0  0  0
  5 19  1  0  0  0  0
  6  7  1  0  0  0  0
  6 23  1  0  0  0  0
  7  8  2  0  0  0  0
  7  9  1  0  0  0  0
  9 10  1  0  0  0  0
  9 24  1  0  0  0  0
 10 11  1  0  0  0  0
 10 25  1  0  0  0  0
 10 26  1  0  0  0  0
 11 18  1  0  0  0  0
 11 12  1  0  0  0  0
 11 27  1  0  0  0  0
 12 13  1  0  0  0  0
 12 28  1  0  0  0  0
 12 29  1  0  0  0  0
 13 14  1  0  0  0  0
 13 30  1  0  0  0  0
 13 31  1  0  0  0  0
 14 15  1  0  0  0  0
 14 18  1  0  0  0  0
 14 41  1  0  0  0  0
 15 16  1  0  0  0  0
 15 17  1  0  0  0  0
 15 32  1  0  0  0  0
 16 33  1  0  0  0  0
 16 34  1  0  0  0  0
 16 35  1  0  0  0  0
 17 36  1  0  0  0  0
 17 37  1  0  0  0  0
 17 38  1  0  0  0  0
 18 39  1  0  0  0  0
 18 40  1  0  0  0  0
M  CHG  1  14   1
M  END
> <s_m_source_file>
AV-unprocessed.smi

> <i_m_source_file_index>
1831

> <i_lp_mmshare_version>
43012

> <i_f3d_flags>
0

> <s_epik_input>
W0NIM11jMW5uYyhzMSlbTkhdQyg9TylbTkhdW0NIMl1bQ0BASF0yW0NIMl1bQ0gyXU4oW0NIMl0yKVtDSF0oW0NIM10pW0NIM10=

> <s_epik_cmdline>
J2VwaWtfcHl0aG9uJywgJy1waCcsICc3LjAnLCAnLXRuJywgJzgnLCAnLW1hJywgJzIwMCcsICctbWV0YWxfYmluZGluZycsICctaW1hZScsICc8aW5maWxlLm1hZT4nLCAnLW9tYWUnLCAnPG91dGZpbGUubWFlPic=

> <r_lp_tautomer_probability>
1

> <r_epik_Ionization_Penalty>
0.00080807

> <r_epik_Ionization_Penalty_Charging>
0.000218981

> <r_epik_Ionization_Penalty_Neutral>
0.00058909

> <r_epik_State_Penalty>
-0

> <r_epik_Charging_Adjusted_Penalty>
0.000218981

> <i_epik_Tot_Q>
1

> <i_epik_Tot_abs_Q>
1

> <r_epik_Metal_State_Penalty>
0.236062

> <b_epik_Metal_Only>
0

> <s_lp_Force_Field>
OPLS_2005

> <r_lp_Energy>
27.4223

> <b_lp_Chiralities_Consistent>
1

> <s_lp_Variant>
AV-unprocessed.smi:1831-2

> <Gold.Version>
5.8.1

> <Gold.Id.Protein>
6NUR|6NUR_protein|mol2

> <Gold.PLP.Fitness>
42.8020

> <Gold.PLP.PLP>
-33.0049

> <Gold.PLP.part.hbond>
-4.5160

> <Gold.PLP.part.metal>
0.0000

> <Gold.PLP.part.buried>
-5.3220

> <Gold.PLP.part.nonpolar>
-24.0189

> <Gold.PLP.part.repulsive>
0.7273

> <Gold.PLP.ligand.clash>
0.0000

> <Gold.PLP.ligand.torsion>
0.7378

> <Gold.PLP.Chemscore.Hbond>
3.7503

> <Gold.PLP.Chemscore.CHOScore>
0.0000

> <Gold.PLP.Chemscore.Metal>
0.0000

> <Gold.Chemscore.Hbonds>
donor molecule, donor type, donor heavy atom, donor atom, acceptor molecule, acceptor atom, score
      L1  H     6    23       P1  7948  1.00
      L1  H     9    24       P1  7948  0.79
      L1  H    14    41       P1 10747  1.00
      P1  H  7989  7998       L1     3  0.90

> <Gold.PLP.Chemscore.Internal.Correction>
0.0219

> <Gold.Rescore>
     Score         DG    S(hbond)    S(metal)    S(lipo)     H(rot)  DE(clash)    DE(int)     intcor
     18.12     -18.93       2.78        0.00      69.41       1.54       0.05       0.75       ----

> <Gold.Chemscore.Fitness>
18.1231

> <Gold.Chemscore.DG>
-18.9288

> <Gold.Chemscore.ZeroCoef>
-5.4800

> <Gold.Chemscore.Hbond>
2.7751

> <Gold.Chemscore.Metal>
0.0000

> <Gold.Chemscore.Lipo>
69.4133

> <Gold.Chemscore.Internal_Hbond>
0.0000

> <Gold.Chemscore.DEClash>
0.0544

> <Gold.Chemscore.DEInternal>
0.7513

> <Gold.Chemscore.Rot>
1.5396

> <Gold.Chemscore.Internal.Correction>
   9.000000E+99

> <Gold.Chemscore.Hbonds>
donor molecule, donor type, donor heavy atom, donor atom, acceptor molecule, acceptor atom, score
      L1  H     6    23       P1  7948  0.92
      L1  H     9    24       P1  7948  0.14
      L1  H    14    41       P1 10747  1.00
      P1  H  7989  7998       L1     3  0.17

> <Gold.Chemscore.Hbond.Weighted>
-9.2687

> <Gold.Chemscore.Metal.Weighted>
-0.0000

> <Gold.Chemscore.Lipo.Weighted>
-8.1214

> <Gold.Chemscore.Internal_Hbond.Weighted>
0.0000

> <Gold.Chemscore.DEClash.Weighted>
0.0544

> <Gold.Chemscore.DEInternal.Weighted>
0.7513

> <Gold.Chemscore.Rot.Weighted>
3.9413

> <Gold.Chemscore.Internal.Correction.Weighted>
   9.000000E+99

> <Gold.Protein.RotatedTorsions>
[ 6907 6896 6895 6894 ] final   20.80 input  -60.11 | X-H torsion
[ 7974 7965 7964 7962 ] final -162.35 input  175.53 | X-H torsion
[ 8008 7997 7996 7995 ] final   65.09 input   59.86 | X-H torsion
[ 10167 10162 10161 10158 ] final -130.69 input  -65.29 | X-H torsion
[ 10718 10713 10712 10709 ] final   -3.35 input   66.30 | X-H torsion
[ 10763 10752 10751 10750 ] final   28.80 input  -60.55 | X-H torsion
[ 11005 11000 10999 10996 ] final  144.73 input  -57.11 | X-H torsion

> <Gold.Protein.ActiveResidues>
 VAL166  LYS551  ARG553  GLY616  TRP617  ASP618  TYR619  PRO620  LYS621  CYS622 
 ASP623  PHE694  ASN695  SER759  ASP760  ASP761  ALA762  ILE779  LEU786  VAL792 
 PHE793  MET794  SER795  GLU796  ALA797  LYS798  CYS799  TRP800  GLU811  SER814 

> <Gold.Protein.RotatedAtoms>
  151.9019  135.0375  160.0506 H   0  0  0  0  0  0  0  0  0  0  0  0  # atno 6907 bound_to 6896
  152.2351  133.5085  159.5246 H   0  0  0  0  0  0  0  0  0  0  0  0  # atno 6908 bound_to 6896
  150.7037  134.1081  159.4032 H   0  0  0  0  0  0  0  0  0  0  0  0  # atno 6909 bound_to 6896
  144.7360  140.3265  143.6161 H   0  0  0  0  0  0  0  0  0  0  0  0  # atno 7974 bound_to 7965
  155.6562  140.3497  155.4766 H   0  0  0  0  0  0  0  0  0  0  0  0  # atno 8008 bound_to 7997
  155.9806  140.1174  157.0753 H   0  0  0  0  0  0  0  0  0  0  0  0  # atno 8009 bound_to 7997
  154.4190  140.1139  156.5417 H   0  0  0  0  0  0  0  0  0  0  0  0  # atno 8010 bound_to 7997
  139.9267  143.6319  152.2540 H   0  0  0  0  0  0  0  0  0  0  0  0  # atno 10167 bound_to 10162
  156.7773  130.5319  149.5757 H   0  0  0  0  0  0  0  0  0  0  0  0  # atno 10718 bound_to 10713
  153.0469  135.6504  154.0793 H   0  0  0  0  0  0  0  0  0  0  0  0  # atno 10763 bound_to 10752
  154.0489  135.2897  155.3345 H   0  0  0  0  0  0  0  0  0  0  0  0  # atno 10764 bound_to 10752
  154.6733  135.5348  153.8232 H   0  0  0  0  0  0  0  0  0  0  0  0  # atno 10765 bound_to 10752
  140.0656  134.9181  157.1258 H   0  0  0  0  0  0  0  0  0  0  0  0  # atno 11005 bound_to 11000
  145.7516  139.1795  143.2318 LP  0  0  0  0  0  0  0  0  0  0  0  0  # atno 17320 bound_to 7965
  146.1057  140.7490  142.9528 LP  0  0  0  0  0  0  0  0  0  0  0  0  # atno 17321 bound_to 7965
  139.6816  144.7655  151.1598 LP  0  0  0  0  0  0  0  0  0  0  0  0  # atno 17342 bound_to 10162
  140.7648  143.5716  150.8989 LP  0  0  0  0  0  0  0  0  0  0  0  0  # atno 17343 bound_to 10162
  156.1240  130.6130  151.0236 LP  0  0  0  0  0  0  0  0  0  0  0  0  # atno 17370 bound_to 10713
  157.6663  131.0871  150.7721 LP  0  0  0  0  0  0  0  0  0  0  0  0  # atno 17371 bound_to 10713
  140.3705  134.2396  155.7178 LP  0  0  0  0  0  0  0  0  0  0  0  0  # atno 17394 bound_to 11000
  141.1991  133.8019  157.0551 LP  0  0  0  0  0  0  0  0  0  0  0  0  # atno 17395 bound_to 11000

$$$$
