#       Name:                AV-unprocessed.smi:725
#       Creating user name   scv26
#       Creation time:       Fri Mar 27 00:50:44 2020


#       File generated by GOLD software.
#

@<TRIPOS>MOLECULE
AV-unprocessed.smi:725
    55    56     1
SMALL
NO_CHARGES


@<TRIPOS>ATOM
      1 ****        -4.8401  -2.6598   3.7791 C.3            1 S1                 0.0000
      2 ****        -4.4935  -1.7442   2.5997 C.3            1 S1                 0.0000
      3 ****        -3.0247  -1.8936   2.1552 C.3            1 S1                 0.0000
      4 ****        -2.6018  -1.0757   0.9086 C.3            1 S1                 0.0000
      5 ****        -2.8293   0.4389   1.1054 C.3            1 S1                 0.0000
      6 ****        -3.3995  -1.5127  -0.1757 O.3            1 S1                 0.0000
      7 ****        -1.1328  -1.4264   0.5577 C.3            1 S1                 0.0000
      8 ****        -0.5876  -0.6293  -0.5399 N.am           1 S1                 0.0000
      9 ****         0.2481   0.4147  -0.4131 C.2            1 S1                 0.0000
     10 ****         0.6676   0.8254   0.6693 O.2            1 S1                 0.0000
     11 ****         0.6740   1.0491  -1.7113 C.ar           1 S1                 0.0000
     12 ****        -0.2972   1.3029  -2.7078 C.ar           1 S1                 0.0000
     13 ****         0.0823   1.9369  -3.9036 C.ar           1 S1                 0.0000
     14 ****         1.4283   2.3069  -4.0608 C.ar           1 S1                 0.0000
     15 ****         2.3691   2.0783  -3.1229 N.ar           1 S1                 0.0000
     16 ****         2.0155   1.4638  -1.9662 C.ar           1 S1                 0.0000
     17 ****         3.0522   1.2158  -1.0439 N.3            1 S1                 0.0000
     18 ****         4.1307   2.1957  -0.9629 C.3            1 S1                 0.0000
     19 ****         5.0245   1.8883   0.2507 C.3            1 S1                 0.0000
     20 ****         5.5077   0.5506   0.1616 O.3            1 S1                 0.0000
     21 ****         4.4486  -0.4030   0.1582 C.3            1 S1                 0.0000
     22 ****         3.5363  -0.1592  -1.0559 C.3            1 S1                 0.0000
     23 ****        -5.8812  -2.5330   4.0763 H              1 S1                 0.0000
     24 ****        -4.2174  -2.4382   4.6460 H              1 S1                 0.0000
     25 ****        -4.6939  -3.7087   3.5200 H              1 S1                 0.0000
     26 ****        -5.1629  -1.9705   1.7696 H              1 S1                 0.0000
     27 ****        -4.6974  -0.7146   2.8917 H              1 S1                 0.0000
     28 ****        -2.3815  -1.6207   2.9929 H              1 S1                 0.0000
     29 ****        -2.8284  -2.9501   1.9660 H              1 S1                 0.0000
     30 ****        -2.2286   0.8199   1.9316 H              1 S1                 0.0000
     31 ****        -3.8721   0.6708   1.3186 H              1 S1                 0.0000
     32 ****        -2.5670   1.0111   0.2156 H              1 S1                 0.0000
     33 ****        -3.1485  -1.0280  -0.9468 H              1 S1                 0.0000
     34 ****        -0.5066  -1.3117   1.4441 H              1 S1                 0.0000
     35 ****        -1.0529  -2.4781   0.2798 H              1 S1                 0.0000
     36 ****        -0.8628  -0.9000  -1.4728 H              1 S1                 0.0000
     37 ****        -1.3311   1.0258  -2.5599 H              1 S1                 0.0000
     38 ****        -0.6425   2.1411  -4.6777 H              1 S1                 0.0000
     39 ****         1.7593   2.7990  -4.9633 H              1 S1                 0.0000
     40 ****         4.7272   2.1653  -1.8759 H              1 S1                 0.0000
     41 ****         3.7144   3.2002  -0.8771 H              1 S1                 0.0000
     42 ****         5.8727   2.5723   0.2760 H              1 S1                 0.0000
     43 ****         4.4748   2.0258   1.1834 H              1 S1                 0.0000
     44 ****         4.8731  -1.4059   0.1142 H              1 S1                 0.0000
     45 ****         3.8822  -0.3365   1.0887 H              1 S1                 0.0000
     46 ****         2.7048  -0.8640  -1.0421 H              1 S1                 0.0000
     47 ****         4.0881  -0.3349  -1.9803 H              1 S1                 0.0000
     48 ****        -4.3646  -1.3474   0.0274 LP             1 S1                 0.0000
     49 ****        -3.2538  -2.4900  -0.3293 LP             1 S1                 0.0000
     50 ****         0.3871   0.3759   1.5174 LP             1 S1                 0.0000
     51 ****         1.2888   1.6085   0.7002 LP             1 S1                 0.0000
     52 ****         3.3165   2.3584  -3.2779 LP             1 S1                 0.0000
     53 ****         2.5729   1.3527  -0.1770 LP             1 S1                 0.0000
     54 ****         6.1020   0.3696   0.9452 LP             1 S1                 0.0000
     55 ****         6.0322   0.4529  -0.6842 LP             1 S1                 0.0000
@<TRIPOS>BOND
    1    1    2 1     
    2    1   23 1     
    3    1   24 1     
    4    1   25 1     
    5    2    3 1     
    6    2   26 1     
    7    2   27 1     
    8    3    4 1     
    9    3   28 1     
   10    3   29 1     
   11    4    5 1     
   12    4    6 1     
   13    4    7 1     
   14    5   30 1     
   15    5   31 1     
   16    5   32 1     
   17    6   33 1     
   18    7    8 1     
   19    7   34 1     
   20    7   35 1     
   21    8    9 am    
   22    8   36 1     
   23    9   10 2     
   24    9   11 1     
   25   11   16 ar    
   26   11   12 ar    
   27   12   13 ar    
   28   12   37 1     
   29   13   14 ar    
   30   13   38 1     
   31   14   15 ar    
   32   14   39 1     
   33   15   16 ar    
   34   16   17 1     
   35   17   22 1     
   36   17   18 1     
   37   18   19 1     
   38   18   40 1     
   39   18   41 1     
   40   19   20 1     
   41   19   42 1     
   42   19   43 1     
   43   20   21 1     
   44   21   22 1     
   45   21   44 1     
   46   21   45 1     
   47   22   46 1     
   48   22   47 1     
   49    6   48 1     
   50    6   49 1     
   51   10   50 1     
   52   10   51 1     
   53   15   52 1     
   54   17   53 1     
   55   20   54 1     
   56   20   55 1     
@<TRIPOS>SUBSTRUCTURE
      1 S1             1
@<TRIPOS>SET
LONE_PAIRS      STATIC     ATOMS    <user>   **** ""
8 48 49 50 51 52 53 54 55
DONOR_HYDROGENS      STATIC     ATOMS    <user>   **** ""
2 33 36
ATOM$BLUE        STATIC     ATOMS    COLORGROUP SYSTEM
8 48 49 50 51 52 53 54 55
ATOM$RED        STATIC     ATOMS    COLORGROUP SYSTEM
2 33 36
