AV-unprocessed.smi:3205|AV-procd|sdf|12255|dock7
  -GOLD-   2272018 93D 1   1.00000     0.00000
 Structure written by MMmdl.
 38 39  0  0  0  0  0  0  0  0  2 V2000
  148.5011  141.3820  155.2787 C   0  0  0  0  0  0  0  0  0  0  0  0
  149.9900  141.6175  155.6007 C   0  0  1  0  0  0  0  0  0  0  0  0
  150.1126  142.5382  156.7541 N   0  3  0  0  0  0  0  0  0  0  0  0
  151.4860  142.7604  157.2554 C   0  0  0  0  0  0  0  0  0  0  0  0
  151.5527  143.9911  158.1734 C   0  0  0  0  0  0  0  0  0  0  0  0
  151.7695  143.6250  159.5619 N   0  0  0  0  0  0  0  0  0  0  0  0
  152.1656  142.4080  160.0757 C   0  0  0  0  0  0  0  0  0  0  0  0
  152.2202  142.5393  161.4337 C   0  0  0  0  0  0  0  0  0  0  0  0
  151.8370  143.8908  161.6595 C   0  0  0  0  0  0  0  0  0  0  0  0
  151.5656  144.5375  160.5371 N   0  0  0  0  0  0  0  0  0  0  0  0
  150.7595  140.3039  155.9006 C   0  0  0  0  0  0  0  0  0  0  0  0
  150.5260  139.2389  154.8060 C   0  0  0  0  0  0  0  0  0  0  0  0
  151.2347  137.9186  155.1472 C   0  0  0  0  0  0  0  0  0  0  0  0
  150.7831  137.4406  156.4074 O   0  0  0  0  0  0  0  0  0  0  0  0
  151.0909  138.3304  157.4727 C   0  0  0  0  0  0  0  0  0  0  0  0
  150.3801  139.6768  157.2588 C   0  0  0  0  0  0  0  0  0  0  0  0
  148.3718  140.7953  154.3698 H   0  0  0  0  0  0  0  0  0  0  0  0
  147.9713  142.3196  155.1128 H   0  0  0  0  0  0  0  0  0  0  0  0
  147.9974  140.8571  156.0910 H   0  0  0  0  0  0  0  0  0  0  0  0
  150.4604  142.0887  154.7363 H   0  0  0  0  0  0  0  0  0  0  0  0
  149.6881  143.4249  156.5230 H   0  0  0  0  0  0  0  0  0  0  0  0
  151.8313  141.8797  157.7990 H   0  0  0  0  0  0  0  0  0  0  0  0
  152.1607  142.8999  156.4111 H   0  0  0  0  0  0  0  0  0  0  0  0
  152.3720  144.6403  157.8619 H   0  0  0  0  0  0  0  0  0  0  0  0
  150.6392  144.5831  158.0967 H   0  0  0  0  0  0  0  0  0  0  0  0
  152.3718  141.5590  159.4405 H   0  0  0  0  0  0  0  0  0  0  0  0
  152.4935  141.7847  162.1564 H   0  0  0  0  0  0  0  0  0  0  0  0
  151.7471  144.4169  162.5983 H   0  0  0  0  0  0  0  0  0  0  0  0
  151.8265  140.5316  155.9268 H   0  0  0  0  0  0  0  0  0  0  0  0
  149.4572  139.0529  154.6922 H   0  0  0  0  0  0  0  0  0  0  0  0
  150.8837  139.5896  153.8378 H   0  0  0  0  0  0  0  0  0  0  0  0
  151.0131  137.1687  154.3877 H   0  0  0  0  0  0  0  0  0  0  0  0
  152.3181  138.0485  155.1593 H   0  0  0  0  0  0  0  0  0  0  0  0
  150.7642  137.8804  158.4103 H   0  0  0  0  0  0  0  0  0  0  0  0
  152.1708  138.4680  157.5460 H   0  0  0  0  0  0  0  0  0  0  0  0
  150.6465  140.3399  158.0813 H   0  0  0  0  0  0  0  0  0  0  0  0
  149.3006  139.5287  157.3110 H   0  0  0  0  0  0  0  0  0  0  0  0
  149.5913  142.1293  157.5174 H   0  0  0  0  0  0  0  0  0  0  0  0
  1  2  1  0  0  0  0
  1 17  1  0  0  0  0
  1 18  1  0  0  0  0
  1 19  1  0  0  0  0
  2  3  1  0  0  0  0
  2 11  1  0  0  0  0
  2 20  1  0  0  0  0
  3  4  1  0  0  0  0
  3 21  1  0  0  0  0
  3 38  1  0  0  0  0
  4  5  1  0  0  0  0
  4 22  1  0  0  0  0
  4 23  1  0  0  0  0
  5  6  1  0  0  0  0
  5 24  1  0  0  0  0
  5 25  1  0  0  0  0
  6 10  1  0  0  0  0
  6  7  1  0  0  0  0
  7  8  2  0  0  0  0
  7 26  1  0  0  0  0
  8  9  1  0  0  0  0
  8 27  1  0  0  0  0
  9 10  2  0  0  0  0
  9 28  1  0  0  0  0
 11 16  1  0  0  0  0
 11 12  1  0  0  0  0
 11 29  1  0  0  0  0
 12 13  1  0  0  0  0
 12 30  1  0  0  0  0
 12 31  1  0  0  0  0
 13 14  1  0  0  0  0
 13 32  1  0  0  0  0
 13 33  1  0  0  0  0
 14 15  1  0  0  0  0
 15 16  1  0  0  0  0
 15 34  1  0  0  0  0
 15 35  1  0  0  0  0
 16 36  1  0  0  0  0
 16 37  1  0  0  0  0
M  CHG  1   3   1
M  END
> <s_m_source_file>
AV-unprocessed.smi

> <i_m_source_file_index>
3205

> <i_lp_mmshare_version>
43012

> <i_f3d_flags>
0

> <s_epik_input>
W0NIMl0xW0NIMl1PW0NIMl1bQ0gyXVtDSF0xW0NASF0oW0NIM10pW05IXVtDSDJdW0NIMl1uMltjSF1bY0hdW2NIXW4y

> <s_epik_cmdline>
J2VwaWtfcHl0aG9uJywgJy1waCcsICc3LjAnLCAnLXRuJywgJzgnLCAnLW1hJywgJzIwMCcsICctbWV0YWxfYmluZGluZycsICctaW1hZScsICc8aW5maWxlLm1hZT4nLCAnLW9tYWUnLCAnPG91dGZpbGUubWFlPic=

> <r_lp_tautomer_probability>
1

> <r_epik_Ionization_Penalty>
0.00310903

> <r_epik_Ionization_Penalty_Charging>
0.00310601

> <r_epik_Ionization_Penalty_Neutral>
3.02836e-06

> <r_epik_State_Penalty>
-0

> <r_epik_Charging_Adjusted_Penalty>
0.00310601

> <i_epik_Tot_Q>
1

> <i_epik_Tot_abs_Q>
1

> <r_epik_Metal_State_Penalty>
-0

> <b_epik_Metal_Only>
0

> <s_lp_Force_Field>
OPLS_2005

> <r_lp_Energy>
14.7607

> <b_lp_Chiralities_Consistent>
1

> <s_lp_Variant>
AV-unprocessed.smi:3205-2

> <Gold.Version>
5.8.1

> <Gold.Id.Protein>
6NUR|6NUR_protein|mol2

> <Gold.PLP.Fitness>
42.5296

> <Gold.PLP.PLP>
-37.8818

> <Gold.PLP.part.hbond>
-1.0000

> <Gold.PLP.part.metal>
0.0000

> <Gold.PLP.part.buried>
-4.1190

> <Gold.PLP.part.nonpolar>
-32.7118

> <Gold.PLP.part.repulsive>
0.1646

> <Gold.PLP.ligand.clash>
0.0000

> <Gold.PLP.ligand.torsion>
0.6960

> <Gold.PLP.Chemscore.Hbond>
2.0000

> <Gold.PLP.Chemscore.CHOScore>
0.0000

> <Gold.PLP.Chemscore.Metal>
0.0000

> <Gold.Chemscore.Hbonds>
donor molecule, donor type, donor heavy atom, donor atom, acceptor molecule, acceptor atom, score
      L1  H     3    21       P1  8028  2.00

> <Gold.PLP.Chemscore.Internal.Correction>
0.0399

> <Gold.Rescore>
     Score         DG    S(hbond)    S(metal)    S(lipo)     H(rot)  DE(clash)    DE(int)     intcor
     15.26     -16.41       0.99        0.00     101.38       1.66       0.63       0.52       ----

> <Gold.Chemscore.Fitness>
15.2615

> <Gold.Chemscore.DG>
-16.4062

> <Gold.Chemscore.ZeroCoef>
-5.4800

> <Gold.Chemscore.Hbond>
0.9918

> <Gold.Chemscore.Metal>
0.0000

> <Gold.Chemscore.Lipo>
101.3831

> <Gold.Chemscore.Internal_Hbond>
0.0000

> <Gold.Chemscore.DEClash>
0.6289

> <Gold.Chemscore.DEInternal>
0.5157

> <Gold.Chemscore.Rot>
1.6594

> <Gold.Chemscore.Internal.Correction>
   9.000000E+99

> <Gold.Chemscore.Hbonds>
donor molecule, donor type, donor heavy atom, donor atom, acceptor molecule, acceptor atom, score
      L1  H     3    21       P1  8028  1.00

> <Gold.Chemscore.Hbond.Weighted>
-3.3125

> <Gold.Chemscore.Metal.Weighted>
-0.0000

> <Gold.Chemscore.Lipo.Weighted>
-11.8618

> <Gold.Chemscore.Internal_Hbond.Weighted>
0.0000

> <Gold.Chemscore.DEClash.Weighted>
0.6289

> <Gold.Chemscore.DEInternal.Weighted>
0.5157

> <Gold.Chemscore.Rot.Weighted>
4.2482

> <Gold.Chemscore.Internal.Correction.Weighted>
   9.000000E+99

> <Gold.Protein.RotatedTorsions>
[ 6907 6896 6895 6894 ] final   67.20 input  -60.11 | X-H torsion
[ 7974 7965 7964 7962 ] final  -61.89 input  175.53 | X-H torsion
[ 8008 7997 7996 7995 ] final  165.48 input   59.86 | X-H torsion
[ 10167 10162 10161 10158 ] final   84.13 input  -65.29 | X-H torsion
[ 10718 10713 10712 10709 ] final  -98.37 input   66.30 | X-H torsion
[ 10763 10752 10751 10750 ] final  179.87 input  -60.55 | X-H torsion
[ 11005 11000 10999 10996 ] final -132.45 input  -57.11 | X-H torsion

> <Gold.Protein.ActiveResidues>
 VAL166  LYS551  ARG553  GLY616  TRP617  ASP618  TYR619  PRO620  LYS621  CYS622 
 ASP623  PHE694  ASN695  SER759  ASP760  ASP761  ALA762  ILE779  LEU786  VAL792 
 PHE793  MET794  SER795  GLU796  ALA797  LYS798  CYS799  TRP800  GLU811  SER814 

> <Gold.Protein.RotatedAtoms>
  152.4535  134.5342  159.9819 H   0  0  0  0  0  0  0  0  0  0  0  0  # atno 6907 bound_to 6896
  151.5409  133.3427  159.2943 H   0  0  0  0  0  0  0  0  0  0  0  0  # atno 6908 bound_to 6896
  150.8471  134.7815  159.7042 H   0  0  0  0  0  0  0  0  0  0  0  0  # atno 6909 bound_to 6896
  145.7980  140.8672  143.0246 H   0  0  0  0  0  0  0  0  0  0  0  0  # atno 7974 bound_to 7965
  156.1797  140.1669  156.8297 H   0  0  0  0  0  0  0  0  0  0  0  0  # atno 8008 bound_to 7997
  154.5346  140.0749  156.8439 H   0  0  0  0  0  0  0  0  0  0  0  0  # atno 8009 bound_to 7997
  155.3337  140.3380  155.4241 H   0  0  0  0  0  0  0  0  0  0  0  0  # atno 8010 bound_to 7997
  139.9112  144.6270  150.8535 H   0  0  0  0  0  0  0  0  0  0  0  0  # atno 10167 bound_to 10162
  156.0106  130.5235  150.6512 H   0  0  0  0  0  0  0  0  0  0  0  0  # atno 10718 bound_to 10713
  154.5262  135.2797  155.1220 H   0  0  0  0  0  0  0  0  0  0  0  0  # atno 10763 bound_to 10752
  154.2758  135.6295  153.5331 H   0  0  0  0  0  0  0  0  0  0  0  0  # atno 10764 bound_to 10752
  152.9947  135.5639  154.5764 H   0  0  0  0  0  0  0  0  0  0  0  0  # atno 10765 bound_to 10752
  140.9169  134.1495  157.4345 H   0  0  0  0  0  0  0  0  0  0  0  0  # atno 11005 bound_to 11000
  144.6772  140.0218  143.7483 LP  0  0  0  0  0  0  0  0  0  0  0  0  # atno 17320 bound_to 7965
  145.9908  139.3013  143.0986 LP  0  0  0  0  0  0  0  0  0  0  0  0  # atno 17321 bound_to 7965
  140.7685  143.3364  151.2300 LP  0  0  0  0  0  0  0  0  0  0  0  0  # atno 17342 bound_to 10162
  139.6941  143.9643  152.2874 LP  0  0  0  0  0  0  0  0  0  0  0  0  # atno 17343 bound_to 10162
  157.4273  131.0844  151.1073 LP  0  0  0  0  0  0  0  0  0  0  0  0  # atno 17370 bound_to 10713
  157.1656  130.6245  149.5624 LP  0  0  0  0  0  0  0  0  0  0  0  0  # atno 17371 bound_to 10713
  139.8768  134.9957  156.5756 LP  0  0  0  0  0  0  0  0  0  0  0  0  # atno 17394 bound_to 11000
  140.8038  133.8484  155.8750 LP  0  0  0  0  0  0  0  0  0  0  0  0  # atno 17395 bound_to 11000

$$$$
