AV-unprocessed.smi:2556|AV-procd|sdf|10026|dock10
  -GOLD-   2272014 73D 1   1.00000     0.00000
 Structure written by MMmdl.
 34 36  0  0  0  0  0  0  0  0  2 V2000
  155.0359  134.9678  161.9111 C   0  0  0  0  0  0  0  0  0  0  0  0
  154.7393  136.0016  160.9147 N   0  0  0  0  0  0  0  0  0  0  0  0
  154.4491  135.7174  159.6033 C   0  0  0  0  0  0  0  0  0  0  0  0
  154.4299  134.5401  159.2436 O   0  0  0  0  0  0  0  0  0  0  0  0
  154.1857  136.7450  158.7209 N   0  5  0  0  0  0  0  0  0  0  0  0
  154.1756  138.0828  159.0203 C   0  0  0  0  0  0  0  0  0  0  0  0
  153.9473  139.0144  158.2503 O   0  0  0  0  0  0  0  0  0  0  0  0
  154.4792  138.3319  160.4432 C   0  0  0  0  0  0  0  0  0  0  0  0
  154.7489  137.3534  161.3498 C   0  0  0  0  0  0  0  0  0  0  0  0
  154.9963  137.8811  162.6125 N   0  0  0  0  0  0  0  0  0  0  0  0
  154.8584  139.1896  162.3955 C   0  0  0  0  0  0  0  0  0  0  0  0
  154.5492  139.5424  161.1311 N   0  0  0  0  0  0  0  0  0  0  0  0
  154.3438  140.8956  160.6393 C   0  0  0  0  0  0  0  0  0  0  0  0
  153.2068  141.6293  161.3774 C   0  0  1  0  0  0  0  0  0  0  0  0
  153.6272  141.9824  162.6820 O   0  0  0  0  0  0  0  0  0  0  0  0
  152.7181  142.8292  160.5809 C   0  0  0  0  0  0  0  0  0  0  0  0
  151.8366  143.7709  161.1574 C   0  0  0  0  0  0  0  0  0  0  0  0
  151.3987  144.8827  160.4116 C   0  0  0  0  0  0  0  0  0  0  0  0
  151.8421  145.0618  159.0871 C   0  0  0  0  0  0  0  0  0  0  0  0
  152.7259  144.1298  158.5099 C   0  0  0  0  0  0  0  0  0  0  0  0
  153.1636  143.0176  159.2551 C   0  0  0  0  0  0  0  0  0  0  0  0
  155.0751  133.9542  161.5116 H   0  0  0  0  0  0  0  0  0  0  0  0
  154.2780  134.9819  162.6947 H   0  0  0  0  0  0  0  0  0  0  0  0
  156.0019  135.1675  162.3755 H   0  0  0  0  0  0  0  0  0  0  0  0
  154.9827  139.9172  163.1841 H   0  0  0  0  0  0  0  0  0  0  0  0
  155.2788  141.4481  160.7430 H   0  0  0  0  0  0  0  0  0  0  0  0
  154.1382  140.8468  159.5697 H   0  0  0  0  0  0  0  0  0  0  0  0
  152.3664  140.9461  161.5034 H   0  0  0  0  0  0  0  0  0  0  0  0
  153.0499  142.6558  163.0081 H   0  0  0  0  0  0  0  0  0  0  0  0
  151.4951  143.6461  162.1746 H   0  0  0  0  0  0  0  0  0  0  0  0
  150.7243  145.5992  160.8565 H   0  0  0  0  0  0  0  0  0  0  0  0
  151.5071  145.9149  158.5156 H   0  0  0  0  0  0  0  0  0  0  0  0
  153.0700  144.2683  157.4957 H   0  0  0  0  0  0  0  0  0  0  0  0
  153.8461  142.3103  158.8062 H   0  0  0  0  0  0  0  0  0  0  0  0
  1  2  1  0  0  0  0
  1 22  1  0  0  0  0
  1 23  1  0  0  0  0
  1 24  1  0  0  0  0
  2  9  1  0  0  0  0
  2  3  1  0  0  0  0
  3  4  2  0  0  0  0
  3  5  1  0  0  0  0
  5  6  1  0  0  0  0
  6  7  2  0  0  0  0
  6  8  1  0  0  0  0
  8 12  1  0  0  0  0
  8  9  2  0  0  0  0
  9 10  1  0  0  0  0
 10 11  2  0  0  0  0
 11 12  1  0  0  0  0
 11 25  1  0  0  0  0
 12 13  1  0  0  0  0
 13 14  1  0  0  0  0
 13 26  1  0  0  0  0
 13 27  1  0  0  0  0
 14 15  1  0  0  0  0
 14 16  1  0  0  0  0
 14 28  1  0  0  0  0
 15 29  1  0  0  0  0
 16 21  1  0  0  0  0
 16 17  2  0  0  0  0
 17 18  1  0  0  0  0
 17 30  1  0  0  0  0
 18 19  2  0  0  0  0
 18 31  1  0  0  0  0
 19 20  1  0  0  0  0
 19 32  1  0  0  0  0
 20 21  2  0  0  0  0
 20 33  1  0  0  0  0
 21 34  1  0  0  0  0
M  CHG  1   5  -1
M  END
> <s_m_source_file>
AV-unprocessed.smi

> <i_m_source_file_index>
2556

> <i_lp_mmshare_version>
43012

> <i_f3d_flags>
0

> <s_epik_input>
Tz1jMVtuSF1jKD1PKW4oW0NIM10pYyhjMTIpbltjSF1uMltDSDJdW0NASF0oW09IXSljM1tjSF1bY0hdW2NIXVtjSF1bY0hdMw==

> <s_epik_cmdline>
J2VwaWtfcHl0aG9uJywgJy1waCcsICc3LjAnLCAnLXRuJywgJzgnLCAnLW1hJywgJzIwMCcsICctbWV0YWxfYmluZGluZycsICctaW1hZScsICc8aW5maWxlLm1hZT4nLCAnLW9tYWUnLCAnPG91dGZpbGUubWFlPic=

> <r_lp_tautomer_probability>
1

> <r_epik_Ionization_Penalty>
4.84872

> <r_epik_Ionization_Penalty_Charging>
0.03865

> <r_epik_Ionization_Penalty_Neutral>
4.81007

> <r_epik_State_Penalty>
4.80988

> <r_epik_Charging_Adjusted_Penalty>
4.84853

> <i_epik_Tot_Q>
-1

> <i_epik_Tot_abs_Q>
1

> <r_epik_Metal_State_Penalty>
0.994041

> <b_epik_Metal_Only>
1

> <s_lp_Force_Field>
OPLS_2005

> <r_lp_Energy>
31.8708

> <b_lp_Chiralities_Consistent>
1

> <s_lp_Variant>
AV-unprocessed.smi:2556-4

> <Gold.Version>
5.8.1

> <Gold.Id.Protein>
6NUR|6NUR_protein|mol2

> <Gold.PLP.Fitness>
48.8454

> <Gold.PLP.PLP>
-45.6921

> <Gold.PLP.part.hbond>
-2.4514

> <Gold.PLP.part.metal>
0.0000

> <Gold.PLP.part.buried>
-4.9063

> <Gold.PLP.part.nonpolar>
-39.2232

> <Gold.PLP.part.repulsive>
0.0000

> <Gold.PLP.ligand.clash>
0.0000

> <Gold.PLP.ligand.torsion>
0.3722

> <Gold.PLP.Chemscore.Hbond>
1.2915

> <Gold.PLP.Chemscore.CHOScore>
0.0000

> <Gold.PLP.Chemscore.Metal>
0.0000

> <Gold.Chemscore.Hbonds>
donor molecule, donor type, donor heavy atom, donor atom, acceptor molecule, acceptor atom, score
      P1  H  6896  6907       L1     4  0.80
      P1  H  7997  8008       L1     7  0.20

> <Gold.PLP.Chemscore.Internal.Correction>
0.0233

> <Gold.Rescore>
     Score         DG    S(hbond)    S(metal)    S(lipo)     H(rot)  DE(clash)    DE(int)     intcor
     11.31     -12.08       0.02        0.00     105.74       2.28       0.06       0.72       ----

> <Gold.Chemscore.Fitness>
11.3054

> <Gold.Chemscore.DG>
-12.0816

> <Gold.Chemscore.ZeroCoef>
-5.4800

> <Gold.Chemscore.Hbond>
0.0219

> <Gold.Chemscore.Metal>
0.0000

> <Gold.Chemscore.Lipo>
105.7403

> <Gold.Chemscore.Internal_Hbond>
0.0000

> <Gold.Chemscore.DEClash>
0.0559

> <Gold.Chemscore.DEInternal>
0.7204

> <Gold.Chemscore.Rot>
2.2824

> <Gold.Chemscore.Internal.Correction>
   9.000000E+99

> <Gold.Chemscore.Hbonds>
donor molecule, donor type, donor heavy atom, donor atom, acceptor molecule, acceptor atom, score
      P1  H  6896  6907       L1     4  0.12
      P1  H  7997  8008       L1     7  0.19

> <Gold.Chemscore.Hbond.Weighted>
-0.0731

> <Gold.Chemscore.Metal.Weighted>
-0.0000

> <Gold.Chemscore.Lipo.Weighted>
-12.3716

> <Gold.Chemscore.Internal_Hbond.Weighted>
0.0000

> <Gold.Chemscore.DEClash.Weighted>
0.0559

> <Gold.Chemscore.DEInternal.Weighted>
0.7204

> <Gold.Chemscore.Rot.Weighted>
5.8431

> <Gold.Chemscore.Internal.Correction.Weighted>
   9.000000E+99

> <Gold.Protein.RotatedTorsions>
[ 6907 6896 6895 6894 ] final   91.00 input  -60.11 | X-H torsion
[ 7974 7965 7964 7962 ] final  -88.96 input  175.53 | X-H torsion
[ 8008 7997 7996 7995 ] final -149.52 input   59.86 | X-H torsion
[ 10167 10162 10161 10158 ] final    4.51 input  -65.29 | X-H torsion
[ 10718 10713 10712 10709 ] final   24.87 input   66.30 | X-H torsion
[ 10763 10752 10751 10750 ] final -145.99 input  -60.55 | X-H torsion
[ 11005 11000 10999 10996 ] final  -20.99 input  -57.11 | X-H torsion

> <Gold.Protein.ActiveResidues>
 VAL166  LYS551  ARG553  GLY616  TRP617  ASP618  TYR619  PRO620  LYS621  CYS622 
 ASP623  PHE694  ASN695  SER759  ASP760  ASP761  ALA762  ILE779  LEU786  VAL792 
 PHE793  MET794  SER795  GLU796  ALA797  LYS798  CYS799  TRP800  GLU811  SER814 

> <Gold.Protein.RotatedAtoms>
  152.5448  134.1724  159.8602 H   0  0  0  0  0  0  0  0  0  0  0  0  # atno 6907 bound_to 6896
  151.1733  133.4763  159.2601 H   0  0  0  0  0  0  0  0  0  0  0  0  # atno 6908 bound_to 6896
  151.1252  135.0112  159.8612 H   0  0  0  0  0  0  0  0  0  0  0  0  # atno 6909 bound_to 6896
  145.4461  140.9560  143.2048 H   0  0  0  0  0  0  0  0  0  0  0  0  # atno 7974 bound_to 7965
  155.6089  140.0669  157.2712 H   0  0  0  0  0  0  0  0  0  0  0  0  # atno 8008 bound_to 7997
  154.4259  140.1805  156.1299 H   0  0  0  0  0  0  0  0  0  0  0  0  # atno 8009 bound_to 7997
  156.0100  140.3327  155.6935 H   0  0  0  0  0  0  0  0  0  0  0  0  # atno 8010 bound_to 7997
  140.6531  143.7496  150.7607 H   0  0  0  0  0  0  0  0  0  0  0  0  # atno 10167 bound_to 10162
  157.1857  130.6823  149.6130 H   0  0  0  0  0  0  0  0  0  0  0  0  # atno 10718 bound_to 10713
  154.8357  135.3398  154.6592 H   0  0  0  0  0  0  0  0  0  0  0  0  # atno 10763 bound_to 10752
  153.7207  135.6958  153.5018 H   0  0  0  0  0  0  0  0  0  0  0  0  # atno 10764 bound_to 10752
  153.2384  135.4393  155.0624 H   0  0  0  0  0  0  0  0  0  0  0  0  # atno 10765 bound_to 10752
  140.8518  133.7851  155.9974 H   0  0  0  0  0  0  0  0  0  0  0  0  # atno 11005 bound_to 11000
  144.8090  139.5996  143.7038 LP  0  0  0  0  0  0  0  0  0  0  0  0  # atno 17320 bound_to 7965
  146.2530  139.6240  142.9414 LP  0  0  0  0  0  0  0  0  0  0  0  0  # atno 17321 bound_to 7965
  140.1150  143.4664  152.2347 LP  0  0  0  0  0  0  0  0  0  0  0  0  # atno 17342 bound_to 10162
  139.5749  144.7482  151.3792 LP  0  0  0  0  0  0  0  0  0  0  0  0  # atno 17343 bound_to 10162
  155.9718  130.4631  150.6171 LP  0  0  0  0  0  0  0  0  0  0  0  0  # atno 17370 bound_to 10713
  157.3909  131.0795  151.1394 LP  0  0  0  0  0  0  0  0  0  0  0  0  # atno 17371 bound_to 10713
  140.8782  134.2644  157.5157 LP  0  0  0  0  0  0  0  0  0  0  0  0  # atno 17394 bound_to 11000
  139.8704  134.9602  156.4355 LP  0  0  0  0  0  0  0  0  0  0  0  0  # atno 17395 bound_to 11000

$$$$
