AV-unprocessed.smi:1631|AV-procd|sdf|6527|dock9
  -GOLD-   22720 7203D 1   1.00000     0.00000
 Structure written by MMmdl.
 38 39  0  0  0  0  0  0  0  0  1 V2000
  154.9755  136.5602  163.0865 C   0  0  0  0  0  0  0  0  0  0  0  0
  154.7786  136.9423  161.6444 C   0  0  0  0  0  0  0  0  0  0  0  0
  154.3792  138.1493  161.4141 N   0  0  0  0  0  0  0  0  0  0  0  0
  154.1830  138.6096  160.1266 N   0  0  0  0  0  0  0  0  0  0  0  0
  153.7874  140.0224  160.0447 C   0  0  0  0  0  0  0  0  0  0  0  0
  152.6104  140.2582  159.0663 C   0  0  1  0  0  0  0  0  0  0  0  0
  151.5266  139.4563  159.4880 O   0  0  0  0  0  0  0  0  0  0  0  0
  152.2081  141.7310  158.9482 C   0  0  0  0  0  0  0  0  0  0  0  0
  152.8709  142.6639  159.7794 C   0  0  0  0  0  0  0  0  0  0  0  0
  152.5779  144.0364  159.7071 C   0  0  0  0  0  0  0  0  0  0  0  0
  151.6078  144.4944  158.8017 C   0  0  0  0  0  0  0  0  0  0  0  0
  150.9287  143.5779  157.9794 C   0  0  0  0  0  0  0  0  0  0  0  0
  151.2097  142.1920  158.0416 C   0  0  0  0  0  0  0  0  0  0  0  0
  150.4222  141.2383  157.1418 C   0  0  0  0  0  0  0  0  0  0  0  0
  149.6019  141.8946  156.3204 F   0  0  0  0  0  0  0  0  0  0  0  0
  151.2521  140.5197  156.3882 F   0  0  0  0  0  0  0  0  0  0  0  0
  149.6752  140.4198  157.8833 F   0  0  0  0  0  0  0  0  0  0  0  0
  154.3402  137.8566  159.0012 C   0  0  0  0  0  0  0  0  0  0  0  0
  154.1321  138.3018  157.8716 O   0  0  0  0  0  0  0  0  0  0  0  0
  154.7922  136.4895  159.2687 C   0  0  0  0  0  0  0  0  0  0  0  0
  154.9901  135.6722  158.1154 C   0  0  0  0  0  0  0  0  0  0  0  0
  155.1295  135.0090  157.1768 N   0  0  0  0  0  0  0  0  0  0  0  0
  155.0146  136.0340  160.5271 C   0  0  0  0  0  0  0  0  0  0  0  0
  155.4887  134.6256  160.8577 C   0  0  0  0  0  0  0  0  0  0  0  0
  154.3805  135.6830  163.3409 H   0  0  0  0  0  0  0  0  0  0  0  0
  154.6818  137.3639  163.7636 H   0  0  0  0  0  0  0  0  0  0  0  0
  156.0224  136.3296  163.2849 H   0  0  0  0  0  0  0  0  0  0  0  0
  153.5251  140.3936  161.0375 H   0  0  0  0  0  0  0  0  0  0  0  0
  154.6483  140.6222  159.7437 H   0  0  0  0  0  0  0  0  0  0  0  0
  152.9079  139.8621  158.0994 H   0  0  0  0  0  0  0  0  0  0  0  0
  151.4051  138.7621  158.8583 H   0  0  0  0  0  0  0  0  0  0  0  0
  153.6226  142.3269  160.4780 H   0  0  0  0  0  0  0  0  0  0  0  0
  153.0982  144.7359  160.3447 H   0  0  0  0  0  0  0  0  0  0  0  0
  151.3789  145.5481  158.7415 H   0  0  0  0  0  0  0  0  0  0  0  0
  150.1821  143.9591  157.2993 H   0  0  0  0  0  0  0  0  0  0  0  0
  155.7168  134.0466  159.9634 H   0  0  0  0  0  0  0  0  0  0  0  0
  154.7209  134.0866  161.4134 H   0  0  0  0  0  0  0  0  0  0  0  0
  156.3947  134.6556  161.4636 H   0  0  0  0  0  0  0  0  0  0  0  0
  1  2  1  0  0  0  0
  1 25  1  0  0  0  0
  1 26  1  0  0  0  0
  1 27  1  0  0  0  0
  2 23  1  0  0  0  0
  2  3  2  0  0  0  0
  3  4  1  0  0  0  0
  4  5  1  0  0  0  0
  4 18  1  0  0  0  0
  5  6  1  0  0  0  0
  5 28  1  0  0  0  0
  5 29  1  0  0  0  0
  6  7  1  0  0  0  0
  6  8  1  0  0  0  0
  6 30  1  0  0  0  0
  7 31  1  0  0  0  0
  8 13  1  0  0  0  0
  8  9  2  0  0  0  0
  9 10  1  0  0  0  0
  9 32  1  0  0  0  0
 10 11  2  0  0  0  0
 10 33  1  0  0  0  0
 11 12  1  0  0  0  0
 11 34  1  0  0  0  0
 12 13  2  0  0  0  0
 12 35  1  0  0  0  0
 13 14  1  0  0  0  0
 14 15  1  0  0  0  0
 14 16  1  0  0  0  0
 14 17  1  0  0  0  0
 18 19  2  0  0  0  0
 18 20  1  0  0  0  0
 20 21  1  0  0  0  0
 20 23  2  0  0  0  0
 21 22  3  0  0  0  0
 23 24  1  0  0  0  0
 24 36  1  0  0  0  0
 24 37  1  0  0  0  0
 24 38  1  0  0  0  0
M  END
> <s_m_source_file>
AV-unprocessed.smi

> <i_m_source_file_index>
1631

> <i_lp_mmshare_version>
43012

> <i_f3d_flags>
0

> <s_epik_input>
TiNDYyhjMVtDSDNdKWMoPU8pbihuYzFbQ0gzXSlbQ0gyXVtDQEhdKFtPSF0pYzJbY0hdW2NIXVtjSF1bY0hdYzJDKEYpKEYpRg==

> <s_epik_cmdline>
J2VwaWtfcHl0aG9uJywgJy1waCcsICc3LjAnLCAnLXRuJywgJzgnLCAnLW1hJywgJzIwMCcsICctbWV0YWxfYmluZGluZycsICctaW1hZScsICc8aW5maWxlLm1hZT4nLCAnLW9tYWUnLCAnPG91dGZpbGUubWFlPic=

> <r_lp_tautomer_probability>
1

> <r_epik_Ionization_Penalty>
7.1854e-08

> <r_epik_Ionization_Penalty_Charging>
1.40848e-10

> <r_epik_Ionization_Penalty_Neutral>
7.17131e-08

> <r_epik_State_Penalty>
-0

> <r_epik_Charging_Adjusted_Penalty>
1.40848e-10

> <i_epik_Tot_Q>
0

> <i_epik_Tot_abs_Q>
0

> <r_epik_Metal_State_Penalty>
-0

> <b_epik_Metal_Only>
0

> <s_lp_Force_Field>
OPLS_2005

> <r_lp_Energy>
27.8833

> <b_lp_Chiralities_Consistent>
1

> <s_lp_Variant>
AV-unprocessed.smi:1631-2

> <Gold.Version>
5.8.1

> <Gold.Id.Protein>
6NUR|6NUR_protein|mol2

> <Gold.PLP.Fitness>
47.5474

> <Gold.PLP.PLP>
-42.2144

> <Gold.PLP.part.hbond>
-2.0000

> <Gold.PLP.part.metal>
0.0000

> <Gold.PLP.part.buried>
-2.4863

> <Gold.PLP.part.nonpolar>
-37.3663

> <Gold.PLP.part.repulsive>
0.0000

> <Gold.PLP.ligand.clash>
1.4290

> <Gold.PLP.ligand.torsion>
0.2487

> <Gold.PLP.Chemscore.Hbond>
1.9193

> <Gold.PLP.Chemscore.CHOScore>
0.0000

> <Gold.PLP.Chemscore.Metal>
0.0000

> <Gold.Chemscore.Hbonds>
donor molecule, donor type, donor heavy atom, donor atom, acceptor molecule, acceptor atom, score
      P1  H  7997  8009       L1    19  0.96
      P1  H 10752 10764       L1    22  0.99

> <Gold.PLP.Chemscore.Internal.Correction>
1.5017

> <Gold.Rescore>
     Score         DG    S(hbond)    S(metal)    S(lipo)     H(rot)  DE(clash)    DE(int)     intcor
     14.75     -19.27       1.90        0.00     109.74       2.11       0.66       3.86       ----

> <Gold.Chemscore.Fitness>
14.7536

> <Gold.Chemscore.DG>
-19.2729

> <Gold.Chemscore.ZeroCoef>
-5.4800

> <Gold.Chemscore.Hbond>
1.9045

> <Gold.Chemscore.Metal>
0.0000

> <Gold.Chemscore.Lipo>
109.7402

> <Gold.Chemscore.Internal_Hbond>
0.0000

> <Gold.Chemscore.DEClash>
0.6607

> <Gold.Chemscore.DEInternal>
3.8586

> <Gold.Chemscore.Rot>
2.1124

> <Gold.Chemscore.Internal.Correction>
   9.000000E+99

> <Gold.Chemscore.Hbonds>
donor molecule, donor type, donor heavy atom, donor atom, acceptor molecule, acceptor atom, score
      P1  H  7997  8009       L1    19  0.91
      P1  H 10752 10764       L1    22  0.92

> <Gold.Chemscore.Hbond.Weighted>
-6.3610

> <Gold.Chemscore.Metal.Weighted>
-0.0000

> <Gold.Chemscore.Lipo.Weighted>
-12.8396

> <Gold.Chemscore.Internal_Hbond.Weighted>
0.0000

> <Gold.Chemscore.DEClash.Weighted>
0.6607

> <Gold.Chemscore.DEInternal.Weighted>
3.8586

> <Gold.Chemscore.Rot.Weighted>
5.4078

> <Gold.Chemscore.Internal.Correction.Weighted>
   9.000000E+99

> <Gold.Protein.RotatedTorsions>
[ 6907 6896 6895 6894 ] final  -11.47 input  -60.11 | X-H torsion
[ 7974 7965 7964 7962 ] final   76.78 input  175.53 | X-H torsion
[ 8008 7997 7996 7995 ] final  140.74 input   59.86 | X-H torsion
[ 10167 10162 10161 10158 ] final  170.72 input  -65.29 | X-H torsion
[ 10718 10713 10712 10709 ] final  -31.91 input   66.30 | X-H torsion
[ 10763 10752 10751 10750 ] final   43.77 input  -60.55 | X-H torsion
[ 11005 11000 10999 10996 ] final  158.59 input  -57.11 | X-H torsion

> <Gold.Protein.ActiveResidues>
 VAL166  LYS551  ARG553  GLY616  TRP617  ASP618  TYR619  PRO620  LYS621  CYS622 
 ASP623  PHE694  ASN695  SER759  ASP760  ASP761  ALA762  ILE779  LEU786  VAL792 
 PHE793  MET794  SER795  GLU796  ALA797  LYS798  CYS799  TRP800  GLU811  SER814 

> <Gold.Protein.RotatedAtoms>
  151.3856  135.0947  159.9509 H   0  0  0  0  0  0  0  0  0  0  0  0  # atno 6907 bound_to 6896
  152.5095  133.9029  159.7460 H   0  0  0  0  0  0  0  0  0  0  0  0  # atno 6908 bound_to 6896
  150.9472  133.6534  159.2808 H   0  0  0  0  0  0  0  0  0  0  0  0  # atno 6909 bound_to 6896
  145.6984  139.2575  143.1719 H   0  0  0  0  0  0  0  0  0  0  0  0  # atno 7974 bound_to 7965
  156.2975  140.2333  156.4451 H   0  0  0  0  0  0  0  0  0  0  0  0  # atno 8008 bound_to 7997
  154.8151  140.0441  157.1391 H   0  0  0  0  0  0  0  0  0  0  0  0  # atno 8009 bound_to 7997
  154.9378  140.3025  155.5139 H   0  0  0  0  0  0  0  0  0  0  0  0  # atno 8010 bound_to 7997
  139.5026  144.3566  151.9868 H   0  0  0  0  0  0  0  0  0  0  0  0  # atno 10167 bound_to 10162
  156.3814  130.4357  149.7466 H   0  0  0  0  0  0  0  0  0  0  0  0  # atno 10718 bound_to 10713
  152.9854  135.6091  154.3166 H   0  0  0  0  0  0  0  0  0  0  0  0  # atno 10763 bound_to 10752
  154.2878  135.2775  155.2670 H   0  0  0  0  0  0  0  0  0  0  0  0  # atno 10764 bound_to 10752
  154.4980  135.5874  153.6565 H   0  0  0  0  0  0  0  0  0  0  0  0  # atno 10765 bound_to 10752
  140.1879  134.8428  157.2879 H   0  0  0  0  0  0  0  0  0  0  0  0  # atno 11005 bound_to 11000
  146.0819  140.7754  142.9637 LP  0  0  0  0  0  0  0  0  0  0  0  0  # atno 17320 bound_to 7965
  144.6975  140.3502  143.7183 LP  0  0  0  0  0  0  0  0  0  0  0  0  # atno 17321 bound_to 7965
  140.3002  144.3655  150.6062 LP  0  0  0  0  0  0  0  0  0  0  0  0  # atno 17342 bound_to 10162
  140.5879  143.2169  151.7308 LP  0  0  0  0  0  0  0  0  0  0  0  0  # atno 17343 bound_to 10162
  156.4555  130.7927  151.2948 LP  0  0  0  0  0  0  0  0  0  0  0  0  # atno 17370 bound_to 10713
  157.7492  131.0082  150.3220 LP  0  0  0  0  0  0  0  0  0  0  0  0  # atno 17371 bound_to 10713
  140.2192  134.4044  155.7574 LP  0  0  0  0  0  0  0  0  0  0  0  0  # atno 17394 bound_to 11000
  141.2225  133.7157  156.8463 LP  0  0  0  0  0  0  0  0  0  0  0  0  # atno 17395 bound_to 11000

$$$$
