#       Name:                AV-unprocessed.smi:236
#       Creating user name   scv26
#       Creation time:       Thu Mar 26 20:39:47 2020


#       File generated by GOLD software.
#

@<TRIPOS>MOLECULE
AV-unprocessed.smi:236
    70    74     1
SMALL
NO_CHARGES


@<TRIPOS>ATOM
      1 ****        -7.4798  -0.9359   1.0633 C.3            1 S1                 0.0000
      2 ****        -6.5140  -1.4825   2.1249 C.3            1 S1                 0.0000
      3 ****        -6.4400  -2.9041   2.0576 O.3            1 S1                 0.0000
      4 ****        -5.1332  -3.3452   2.4157 C.3            1 S1                 0.0000
      5 ****        -4.3821  -2.0947   2.8641 C.3            1 S1                 0.0000
      6 ****        -5.0553  -0.9927   2.0544 C.3            1 S1                 0.0000
      7 ****        -4.9135   0.2337   2.7459 O.3            1 S1                 0.0000
      8 ****        -4.5063  -0.8468   0.6079 C.3            1 S1                 0.0000
      9 ****        -3.0837  -0.5515   0.5418 N.pl3          1 S1                 0.0000
     10 ****        -2.0585  -1.4604   0.4059 C.2            1 S1                 0.0000
     11 ****        -0.8591  -0.9471   0.3780 N.2            1 S1                 0.0000
     12 ****        -1.0739   0.4221   0.4818 C.ar           1 S1                 0.0000
     13 ****        -0.2252   1.5650   0.5166 C.ar           1 S1                 0.0000
     14 ****         1.1228   1.5302   0.4642 N.3            1 S1                 0.0000
     15 ****         1.7297   1.0820   1.7097 C.3            1 S1                 0.0000
     16 ****         3.2572   1.2320   1.6295 C.3            1 S1                 0.0000
     17 ****         3.7425   0.5316   0.4881 O.3            1 S1                 0.0000
     18 ****         3.2121   1.0443  -0.7333 C.3            1 S1                 0.0000
     19 ****         3.8545   0.2733  -1.8931 C.3            1 S1                 0.0000
     20 ****         5.2089   0.6732  -2.0199 O.3            1 S1                 0.0000
     21 ****         5.8913  -0.0263  -3.0459 C.3            1 S1                 0.0000
     22 ****         7.3281   0.4474  -3.0968 C.3            1 S1                 0.0000
     23 ****         7.7486   1.5570  -4.0343 C.3            1 S1                 0.0000
     24 ****         8.1858   0.1400  -4.3034 C.3            1 S1                 0.0000
     25 ****         1.6811   0.8692  -0.7091 C.3            1 S1                 0.0000
     26 ****        -0.8040   2.7844   0.6382 N.ar           1 S1                 0.0000
     27 ****        -2.1344   2.8878   0.7130 C.ar           1 S1                 0.0000
     28 ****        -3.0505   1.9169   0.6929 N.ar           1 S1                 0.0000
     29 ****        -2.4689   0.6879   0.5804 C.ar           1 S1                 0.0000
     30 ****        -7.5163   0.1534   1.0908 H              1 S1                 0.0000
     31 ****        -8.4904  -1.3053   1.2375 H              1 S1                 0.0000
     32 ****        -7.1911  -1.2410   0.0576 H              1 S1                 0.0000
     33 ****        -6.9167  -1.2468   3.1120 H              1 S1                 0.0000
     34 ****        -5.1704  -4.1062   3.1954 H              1 S1                 0.0000
     35 ****        -4.6594  -3.7843   1.5371 H              1 S1                 0.0000
     36 ****        -4.5614  -1.9417   3.9300 H              1 S1                 0.0000
     37 ****        -3.3040  -2.1700   2.7301 H              1 S1                 0.0000
     38 ****        -5.3904   0.9005   2.2752 H              1 S1                 0.0000
     39 ****        -4.6855  -1.7606   0.0407 H              1 S1                 0.0000
     40 ****        -5.0350  -0.0536   0.0782 H              1 S1                 0.0000
     41 ****        -2.2293  -2.5252   0.3396 H              1 S1                 0.0000
     42 ****         1.3410   1.6637   2.5464 H              1 S1                 0.0000
     43 ****         1.4674   0.0386   1.8908 H              1 S1                 0.0000
     44 ****         3.5430   2.2836   1.5736 H              1 S1                 0.0000
     45 ****         3.7231   0.8213   2.5251 H              1 S1                 0.0000
     46 ****         3.4564   2.1041  -0.8279 H              1 S1                 0.0000
     47 ****         3.7788  -0.8019  -1.7229 H              1 S1                 0.0000
     48 ****         3.3299   0.4967  -2.8235 H              1 S1                 0.0000
     49 ****         5.8818  -1.0979  -2.8425 H              1 S1                 0.0000
     50 ****         5.4107   0.1373  -4.0118 H              1 S1                 0.0000
     51 ****         7.8392   0.4041  -2.1366 H              1 S1                 0.0000
     52 ****         6.9914   1.9822  -4.6900 H              1 S1                 0.0000
     53 ****         8.5013   2.2569  -3.6773 H              1 S1                 0.0000
     54 ****         9.2304  -0.1071  -4.1261 H              1 S1                 0.0000
     55 ****         7.7195  -0.3780  -5.1392 H              1 S1                 0.0000
     56 ****         1.4371  -0.1932  -0.6933 H              1 S1                 0.0000
     57 ****         1.2388   1.2898  -1.6133 H              1 S1                 0.0000
     58 ****        -2.5197   3.8925   0.8051 H              1 S1                 0.0000
     59 ****        -6.6455  -3.2021   1.1254 LP             1 S1                 0.0000
     60 ****        -7.1070  -3.3001   2.6888 LP             1 S1                 0.0000
     61 ****        -3.9463   0.4827   2.7961 LP             1 S1                 0.0000
     62 ****        -5.2831   0.1441   3.6708 LP             1 S1                 0.0000
     63 ****         0.0140  -1.4284   0.2999 LP             1 S1                 0.0000
     64 ****         1.3824   2.4888   0.3478 LP             1 S1                 0.0000
     65 ****         3.4862  -0.4316   0.5699 LP             1 S1                 0.0000
     66 ****         4.7391   0.6103   0.4632 LP             1 S1                 0.0000
     67 ****         5.6754   0.5032  -1.1518 LP             1 S1                 0.0000
     68 ****         5.2358   1.6511  -2.2268 LP             1 S1                 0.0000
     69 ****        -0.2358   3.6065   0.6720 LP             1 S1                 0.0000
     70 ****        -4.0368   2.0707   0.7527 LP             1 S1                 0.0000
@<TRIPOS>BOND
    1    1    2 1     
    2    1   30 1     
    3    1   31 1     
    4    1   32 1     
    5    2    6 1     
    6    2    3 1     
    7    2   33 1     
    8    3    4 1     
    9    4    5 1     
   10    4   34 1     
   11    4   35 1     
   12    5    6 1     
   13    5   36 1     
   14    5   37 1     
   15    6    7 1     
   16    6    8 1     
   17    7   38 1     
   18    8    9 1     
   19    8   39 1     
   20    8   40 1     
   21    9   29 1     
   22    9   10 1     
   23   10   11 2     
   24   10   41 1     
   25   11   12 1     
   26   12   29 ar    
   27   12   13 ar    
   28   13   14 1     
   29   13   26 ar    
   30   14   25 1     
   31   14   15 1     
   32   15   16 1     
   33   15   42 1     
   34   15   43 1     
   35   16   17 1     
   36   16   44 1     
   37   16   45 1     
   38   17   18 1     
   39   18   19 1     
   40   18   25 1     
   41   18   46 1     
   42   19   20 1     
   43   19   47 1     
   44   19   48 1     
   45   20   21 1     
   46   21   22 1     
   47   21   49 1     
   48   21   50 1     
   49   22   24 1     
   50   22   23 1     
   51   22   51 1     
   52   23   24 1     
   53   23   52 1     
   54   23   53 1     
   55   24   54 1     
   56   24   55 1     
   57   25   56 1     
   58   25   57 1     
   59   26   27 ar    
   60   27   28 ar    
   61   27   58 1     
   62   28   29 ar    
   63    3   59 1     
   64    3   60 1     
   65    7   61 1     
   66    7   62 1     
   67   11   63 1     
   68   14   64 1     
   69   17   65 1     
   70   17   66 1     
   71   20   67 1     
   72   20   68 1     
   73   26   69 1     
   74   28   70 1     
@<TRIPOS>SUBSTRUCTURE
      1 S1             1
@<TRIPOS>SET
LONE_PAIRS      STATIC     ATOMS    <user>   **** ""
12 59 60 61 62 63 64 65 66 67 68 69 70
DONOR_HYDROGENS      STATIC     ATOMS    <user>   **** ""
1 38
ATOM$BLUE        STATIC     ATOMS    COLORGROUP SYSTEM
12 59 60 61 62 63 64 65 66 67 68 69 70
ATOM$RED        STATIC     ATOMS    COLORGROUP SYSTEM
1 38
