#       Name:                AV-unprocessed.smi:861
#       Creating user name   scv26
#       Creation time:       Fri Mar 27 01:45:05 2020


#       File generated by GOLD software.
#

@<TRIPOS>MOLECULE
AV-unprocessed.smi:861
    48    49     1
SMALL
NO_CHARGES


@<TRIPOS>ATOM
      1 ****        -4.3979  -2.9687  -3.6516 C.3            1 S1                 0.0000
      2 ****        -4.7064  -1.8789  -2.6107 C.3            1 S1                 0.0000
      3 ****        -6.2236  -1.6561  -2.5090 C.3            1 S1                 0.0000
      4 ****        -3.9787  -0.5511  -2.9072 C.3            1 S1                 0.0000
      5 ****        -2.4471  -0.6231  -2.7479 C.3            1 S1                 0.0000
      6 ****        -1.7909   0.6823  -3.0283 N.4            1 S1                 1.0000
      7 ****        -1.9064   1.6825  -1.9362 C.3            1 S1                 0.0000
      8 ****        -0.9081   1.3946  -0.7990 C.3            1 S1                 0.0000
      9 ****         0.4111   1.3195  -1.3257 O.3            1 S1                 0.0000
     10 ****         0.5615   0.2709  -2.2779 C.3            1 S1                 0.0000
     11 ****         2.0328   0.2315  -2.7174 C.3            1 S1                 0.0000
     12 ****         2.9071  -0.2012  -1.6374 N.pl3          1 S1                 0.0000
     13 ****         4.2957  -0.2503  -1.8196 C.ar           1 S1                 0.0000
     14 ****         5.2123  -0.6582  -0.8228 C.ar           1 S1                 0.0000
     15 ****         6.5818  -0.6603  -1.1378 C.ar           1 S1                 0.0000
     16 ****         6.9536  -0.2553  -2.4320 C.ar           1 S1                 0.0000
     17 ****         6.0617   0.1309  -3.3712 N.ar           1 S1                 0.0000
     18 ****         4.7587   0.1230  -3.0391 N.pl3          1 S1                 1.0000
     19 ****        -0.3785   0.5593  -3.4681 C.3            1 S1                 0.0000
     20 ****        -4.6736  -2.6470  -4.6564 H              1 S1                 0.0000
     21 ****        -4.9514  -3.8828  -3.4347 H              1 S1                 0.0000
     22 ****        -3.3410  -3.2329  -3.6621 H              1 S1                 0.0000
     23 ****        -4.3698  -2.2395  -1.6377 H              1 S1                 0.0000
     24 ****        -6.6357  -1.2947  -3.4518 H              1 S1                 0.0000
     25 ****        -6.4653  -0.9243  -1.7376 H              1 S1                 0.0000
     26 ****        -6.7414  -2.5810  -2.2531 H              1 S1                 0.0000
     27 ****        -4.2273  -0.2156  -3.9151 H              1 S1                 0.0000
     28 ****        -4.3740   0.2081  -2.2331 H              1 S1                 0.0000
     29 ****        -2.1801  -0.9837  -1.7545 H              1 S1                 0.0000
     30 ****        -2.0641  -1.3605  -3.4529 H              1 S1                 0.0000
     31 ****        -1.6929   2.6668  -2.3552 H              1 S1                 0.0000
     32 ****        -2.9229   1.7344  -1.5484 H              1 S1                 0.0000
     33 ****        -0.9446   2.1960  -0.0610 H              1 S1                 0.0000
     34 ****        -1.1567   0.4731  -0.2714 H              1 S1                 0.0000
     35 ****         0.2995  -0.6858  -1.8220 H              1 S1                 0.0000
     36 ****         2.1432  -0.4661  -3.5484 H              1 S1                 0.0000
     37 ****         2.3448   1.2138  -3.0746 H              1 S1                 0.0000
     38 ****         2.5160  -0.3286  -0.7146 H              1 S1                 0.0000
     39 ****         4.8893  -0.9625   0.1616 H              1 S1                 0.0000
     40 ****         7.3238  -0.9614  -0.4130 H              1 S1                 0.0000
     41 ****         7.9937  -0.2399  -2.7230 H              1 S1                 0.0000
     42 ****        -0.2840  -0.2093  -4.2361 H              1 S1                 0.0000
     43 ****        -0.0871   1.4978  -3.9421 H              1 S1                 0.0000
     44 ****        -2.2917   1.0608  -3.8201 H              1 S1                 0.0000
     45 ****         4.0807   0.4137  -3.7439 H              1 S1                 0.0000
     46 ****         1.0486   1.1613  -0.5717 LP             1 S1                 0.0000
     47 ****         0.6289   2.1888  -1.7695 LP             1 S1                 0.0000
     48 ****         6.3608   0.4132  -4.2827 LP             1 S1                 0.0000
@<TRIPOS>BOND
    1    1    2 1     
    2    1   20 1     
    3    1   21 1     
    4    1   22 1     
    5    2    3 1     
    6    2    4 1     
    7    2   23 1     
    8    3   24 1     
    9    3   25 1     
   10    3   26 1     
   11    4    5 1     
   12    4   27 1     
   13    4   28 1     
   14    5    6 1     
   15    5   29 1     
   16    5   30 1     
   17    6   19 1     
   18    6    7 1     
   19    6   44 1     
   20    7    8 1     
   21    7   31 1     
   22    7   32 1     
   23    8    9 1     
   24    8   33 1     
   25    8   34 1     
   26    9   10 1     
   27   10   11 1     
   28   10   19 1     
   29   10   35 1     
   30   11   12 1     
   31   11   36 1     
   32   11   37 1     
   33   12   13 1     
   34   12   38 1     
   35   13   18 ar    
   36   13   14 ar    
   37   14   15 ar    
   38   14   39 1     
   39   15   16 ar    
   40   15   40 1     
   41   16   17 ar    
   42   16   41 1     
   43   17   18 ar    
   44   18   45 1     
   45   19   42 1     
   46   19   43 1     
   47    9   46 1     
   48    9   47 1     
   49   17   48 1     
@<TRIPOS>SUBSTRUCTURE
      1 S1             1
@<TRIPOS>SET
LONE_PAIRS      STATIC     ATOMS    <user>   **** ""
3 46 47 48
DONOR_HYDROGENS      STATIC     ATOMS    <user>   **** ""
3 44 38 45
ATOM$BLUE        STATIC     ATOMS    COLORGROUP SYSTEM
3 46 47 48
ATOM$RED        STATIC     ATOMS    COLORGROUP SYSTEM
3 44 38 45
