AV-unprocessed.smi:1645|AV-procd|sdf|6620|dock9
  -GOLD-   22720 7323D 1   1.00000     0.00000
 Structure written by MMmdl.
 55 58  0  0  0  0  0  0  0  0  4 V2000
  147.2921  136.5177  156.8917 O   0  0  0  0  0  0  0  0  0  0  0  0
  146.5476  137.2125  156.1931 C   0  0  0  0  0  0  0  0  0  0  0  0
  146.7646  138.5326  156.0510 N   0  0  0  0  0  0  0  0  0  0  0  0
  147.7694  139.3733  156.6070 C   0  0  0  0  0  0  0  0  0  0  0  0
  148.8890  138.7374  157.1818 C   0  0  0  0  0  0  0  0  0  0  0  0
  149.9247  139.5069  157.7492 C   0  0  0  0  0  0  0  0  0  0  0  0
  149.8383  140.9214  157.7405 C   0  0  0  0  0  0  0  0  0  0  0  0
  150.8225  141.7762  158.2866 N   0  0  0  0  0  0  0  0  0  0  0  0
  151.2369  142.9048  157.4467 C   0  0  0  0  0  0  0  0  0  0  0  0
  151.9688  143.9800  158.2675 C   0  0  0  0  0  0  0  0  0  0  0  0
  153.1314  143.3721  159.0641 C   0  0  0  0  0  0  0  0  0  0  0  0
  152.6149  142.2262  159.9443 C   0  0  0  0  0  0  0  0  0  0  0  0
  151.8746  141.1705  159.1056 C   0  0  0  0  0  0  0  0  0  0  0  0
  148.7413  141.4866  157.1815 N   0  3  0  0  0  0  0  0  0  0  0  0
  147.7263  140.7881  156.6284 C   0  0  0  0  0  0  0  0  0  0  0  0
  145.4493  136.8058  155.5015 N   0  5  0  0  0  0  0  0  0  0  0  0
  144.3061  136.0895  156.0822 C   0  0  2  0  0  0  0  0  0  0  0  0
  144.8118  135.0635  157.1027 C   0  0  0  0  0  0  0  0  0  0  0  0
  145.1445  133.7970  156.2908 C   0  0  0  0  0  0  0  0  0  0  0  0
  144.4475  133.9151  154.9842 N   0  3  2  0  0  0  0  0  0  0  0  0
  145.3804  133.8156  153.8251 C   0  0  0  0  0  0  0  0  0  0  0  0
  144.6995  134.1645  152.4967 C   0  0  0  0  0  0  0  0  0  0  0  0
  144.1557  135.5933  152.5507 C   0  0  0  0  0  0  0  0  0  0  0  0
  143.1332  135.7120  153.6888 C   0  0  0  0  0  0  0  0  0  0  0  0
  143.6271  135.1564  155.0546 C   0  0  2  0  0  0  0  0  0  0  0  0
  146.0932  139.0049  155.4634 H   0  0  0  0  0  0  0  0  0  0  0  0
  148.9598  137.6594  157.1866 H   0  0  0  0  0  0  0  0  0  0  0  0
  150.7735  138.9913  158.1716 H   0  0  0  0  0  0  0  0  0  0  0  0
  151.8915  142.5286  156.6595 H   0  0  0  0  0  0  0  0  0  0  0  0
  150.3868  143.3718  156.9500 H   0  0  0  0  0  0  0  0  0  0  0  0
  152.3378  144.7654  157.6073 H   0  0  0  0  0  0  0  0  0  0  0  0
  151.2668  144.4565  158.9532 H   0  0  0  0  0  0  0  0  0  0  0  0
  153.8949  142.9992  158.3801 H   0  0  0  0  0  0  0  0  0  0  0  0
  153.6072  144.1358  159.6800 H   0  0  0  0  0  0  0  0  0  0  0  0
  153.4435  141.7623  160.4799 H   0  0  0  0  0  0  0  0  0  0  0  0
  151.9414  142.6260  160.7039 H   0  0  0  0  0  0  0  0  0  0  0  0
  151.4472  140.4324  159.7848 H   0  0  0  0  0  0  0  0  0  0  0  0
  152.5770  140.6481  158.4549 H   0  0  0  0  0  0  0  0  0  0  0  0
  146.9323  141.4018  156.2338 H   0  0  0  0  0  0  0  0  0  0  0  0
  143.5793  136.7593  156.5435 H   0  0  0  0  0  0  0  0  0  0  0  0
  145.6575  135.4191  157.6934 H   0  0  0  0  0  0  0  0  0  0  0  0
  144.0084  134.8357  157.8043 H   0  0  0  0  0  0  0  0  0  0  0  0
  146.2245  133.7050  156.1587 H   0  0  0  0  0  0  0  0  0  0  0  0
  144.8123  132.8991  156.8129 H   0  0  0  0  0  0  0  0  0  0  0  0
  146.2314  134.4826  153.9716 H   0  0  0  0  0  0  0  0  0  0  0  0
  145.7824  132.8027  153.7834 H   0  0  0  0  0  0  0  0  0  0  0  0
  145.4149  134.0719  151.6790 H   0  0  0  0  0  0  0  0  0  0  0  0
  143.8930  133.4603  152.2894 H   0  0  0  0  0  0  0  0  0  0  0  0
  144.9736  136.2992  152.6952 H   0  0  0  0  0  0  0  0  0  0  0  0
  143.6875  135.8540  151.6013 H   0  0  0  0  0  0  0  0  0  0  0  0
  142.7784  136.7407  153.7758 H   0  0  0  0  0  0  0  0  0  0  0  0
  142.2562  135.1345  153.3931 H   0  0  0  0  0  0  0  0  0  0  0  0
  142.7137  134.8355  155.5592 H   0  0  0  0  0  0  0  0  0  0  0  0
  143.8003  133.1451  154.8984 H   0  0  0  0  0  0  0  0  0  0  0  0
  148.6739  142.5042  157.1797 H   0  0  0  0  0  0  0  0  0  0  0  0
  1  2  2  0  0  0  0
  2  3  1  0  0  0  0
  2 16  1  0  0  0  0
  3  4  1  0  0  0  0
  3 26  1  0  0  0  0
  4 15  1  0  0  0  0
  4  5  2  0  0  0  0
  5  6  1  0  0  0  0
  5 27  1  0  0  0  0
  6  7  2  0  0  0  0
  6 28  1  0  0  0  0
  7  8  1  0  0  0  0
  7 14  1  0  0  0  0
  8 13  1  0  0  0  0
  8  9  1  0  0  0  0
  9 10  1  0  0  0  0
  9 29  1  0  0  0  0
  9 30  1  0  0  0  0
 10 11  1  0  0  0  0
 10 31  1  0  0  0  0
 10 32  1  0  0  0  0
 11 12  1  0  0  0  0
 11 33  1  0  0  0  0
 11 34  1  0  0  0  0
 12 13  1  0  0  0  0
 12 35  1  0  0  0  0
 12 36  1  0  0  0  0
 13 37  1  0  0  0  0
 13 38  1  0  0  0  0
 14 15  2  0  0  0  0
 14 55  1  0  0  0  0
 15 39  1  0  0  0  0
 16 17  1  0  0  0  0
 17 25  1  0  0  0  0
 17 18  1  0  0  0  0
 17 40  1  0  0  0  0
 18 19  1  0  0  0  0
 18 41  1  0  0  0  0
 18 42  1  0  0  0  0
 19 20  1  0  0  0  0
 19 43  1  0  0  0  0
 19 44  1  0  0  0  0
 20 25  1  0  0  0  0
 20 21  1  0  0  0  0
 20 54  1  0  0  0  0
 21 22  1  0  0  0  0
 21 45  1  0  0  0  0
 21 46  1  0  0  0  0
 22 23  1  0  0  0  0
 22 47  1  0  0  0  0
 22 48  1  0  0  0  0
 23 24  1  0  0  0  0
 23 49  1  0  0  0  0
 23 50  1  0  0  0  0
 24 25  1  0  0  0  0
 24 51  1  0  0  0  0
 24 52  1  0  0  0  0
 25 53  1  0  0  0  0
M  CHG  1  14   1
M  CHG  1  16  -1
M  CHG  1  20   1
M  END
> <s_m_source_file>
AV-unprocessed.smi

> <i_m_source_file_index>
1645

> <i_lp_mmshare_version>
43012

> <i_f3d_flags>
0

> <s_epik_input>
W0NIMl0xW0NIMl1bQ0gyXVtDSDJdW0NASF0oTjEyKVtDQEBIXShbQ0gyXVtDSDJdMilbTkhdQyg9TylbTkhdYzNbY0hdW2NIXWMobltjSF0zKU40W0NIMl1bQ0gyXVtDSDJdW0NIMl1bQ0gyXTQ=

> <s_epik_cmdline>
J2VwaWtfcHl0aG9uJywgJy1waCcsICc3LjAnLCAnLXRuJywgJzgnLCAnLW1hJywgJzIwMCcsICctbWV0YWxfYmluZGluZycsICctaW1hZScsICc8aW5maWxlLm1hZT4nLCAnLW9tYWUnLCAnPG91dGZpbGUubWFlPic=

> <r_lp_tautomer_probability>
0.999994

> <r_epik_Ionization_Penalty>
8.55589

> <r_epik_Ionization_Penalty_Charging>
8.55589

> <r_epik_Ionization_Penalty_Neutral>
3.8092e-06

> <r_epik_State_Penalty>
8.15703

> <r_epik_Charging_Adjusted_Penalty>
16.7129

> <i_epik_Tot_Q>
1

> <i_epik_Tot_abs_Q>
3

> <r_epik_Metal_State_Penalty>
4.13781

> <b_epik_Metal_Only>
1

> <s_lp_Force_Field>
OPLS_2005

> <r_lp_Energy>
58.0783

> <b_lp_Chiralities_Consistent>
1

> <s_lp_Variant>
AV-unprocessed.smi:1645-21

> <Gold.Version>
5.8.1

> <Gold.Id.Protein>
6NUR|6NUR_protein|mol2

> <Gold.PLP.Fitness>
38.8123

> <Gold.PLP.PLP>
-28.5911

> <Gold.PLP.part.hbond>
-2.0000

> <Gold.PLP.part.metal>
0.0000

> <Gold.PLP.part.buried>
-4.4654

> <Gold.PLP.part.nonpolar>
-23.3576

> <Gold.PLP.part.repulsive>
0.1093

> <Gold.PLP.ligand.clash>
0.0061

> <Gold.PLP.ligand.torsion>
1.1396

> <Gold.PLP.Chemscore.Hbond>
3.9825

> <Gold.PLP.Chemscore.CHOScore>
0.0000

> <Gold.PLP.Chemscore.Metal>
0.0000

> <Gold.Chemscore.Hbonds>
donor molecule, donor type, donor heavy atom, donor atom, acceptor molecule, acceptor atom, score
      L1  H    20    54       P1 10957  2.00

> <Gold.PLP.Chemscore.Internal.Correction>
0.5589

> <Gold.Rescore>
     Score         DG    S(hbond)    S(metal)    S(lipo)     H(rot)  DE(clash)    DE(int)     intcor
     14.66     -18.63       1.98        0.00      81.42       1.17       0.03       3.93       ----

> <Gold.Chemscore.Fitness>
14.6630

> <Gold.Chemscore.DG>
-18.6319

> <Gold.Chemscore.ZeroCoef>
-5.4800

> <Gold.Chemscore.Hbond>
1.9847

> <Gold.Chemscore.Metal>
0.0000

> <Gold.Chemscore.Lipo>
81.4216

> <Gold.Chemscore.Internal_Hbond>
0.0000

> <Gold.Chemscore.DEClash>
0.0349

> <Gold.Chemscore.DEInternal>
3.9340

> <Gold.Chemscore.Rot>
1.1731

> <Gold.Chemscore.Internal.Correction>
   9.000000E+99

> <Gold.Chemscore.Hbonds>
donor molecule, donor type, donor heavy atom, donor atom, acceptor molecule, acceptor atom, score
      L1  H    20    54       P1 10957  1.00

> <Gold.Chemscore.Hbond.Weighted>
-6.6288

> <Gold.Chemscore.Metal.Weighted>
-0.0000

> <Gold.Chemscore.Lipo.Weighted>
-9.5263

> <Gold.Chemscore.Internal_Hbond.Weighted>
0.0000

> <Gold.Chemscore.DEClash.Weighted>
0.0349

> <Gold.Chemscore.DEInternal.Weighted>
3.9340

> <Gold.Chemscore.Rot.Weighted>
3.0032

> <Gold.Chemscore.Internal.Correction.Weighted>
   9.000000E+99

> <Gold.Protein.RotatedTorsions>
[ 6907 6896 6895 6894 ] final  159.23 input  -60.11 | X-H torsion
[ 7974 7965 7964 7962 ] final   71.89 input  175.53 | X-H torsion
[ 8008 7997 7996 7995 ] final  111.61 input   59.86 | X-H torsion
[ 10167 10162 10161 10158 ] final  -66.10 input  -65.29 | X-H torsion
[ 10718 10713 10712 10709 ] final  164.90 input   66.30 | X-H torsion
[ 10763 10752 10751 10750 ] final   79.08 input  -60.55 | X-H torsion
[ 11005 11000 10999 10996 ] final   96.33 input  -57.11 | X-H torsion

> <Gold.Protein.ActiveResidues>
 VAL166  LYS551  ARG553  GLY616  TRP617  ASP618  TYR619  PRO620  LYS621  CYS622 
 ASP623  PHE694  ASN695  SER759  ASP760  ASP761  ALA762  ILE779  LEU786  VAL792 
 PHE793  MET794  SER795  GLU796  ALA797  LYS798  CYS799  TRP800  GLU811  SER814 

> <Gold.Protein.RotatedAtoms>
  151.9887  133.3783  159.4135 H   0  0  0  0  0  0  0  0  0  0  0  0  # atno 6907 bound_to 6896
  150.6925  134.3960  159.5107 H   0  0  0  0  0  0  0  0  0  0  0  0  # atno 6908 bound_to 6896
  152.1690  134.8849  160.0586 H   0  0  0  0  0  0  0  0  0  0  0  0  # atno 6909 bound_to 6896
  145.7602  139.2797  143.1381 H   0  0  0  0  0  0  0  0  0  0  0  0  # atno 7974 bound_to 7965
  156.2136  140.3016  155.9788 H   0  0  0  0  0  0  0  0  0  0  0  0  # atno 8008 bound_to 7997
  155.2663  140.0432  157.3019 H   0  0  0  0  0  0  0  0  0  0  0  0  # atno 8009 bound_to 7997
  154.5735  140.2355  155.8166 H   0  0  0  0  0  0  0  0  0  0  0  0  # atno 8010 bound_to 7997
  140.5682  143.2316  151.6593 H   0  0  0  0  0  0  0  0  0  0  0  0  # atno 10167 bound_to 10162
  157.0877  131.0409  151.2549 H   0  0  0  0  0  0  0  0  0  0  0  0  # atno 10718 bound_to 10713
  153.0924  135.4853  154.8715 H   0  0  0  0  0  0  0  0  0  0  0  0  # atno 10763 bound_to 10752
  154.7285  135.3055  154.8933 H   0  0  0  0  0  0  0  0  0  0  0  0  # atno 10764 bound_to 10752
  153.9576  135.6816  153.4798 H   0  0  0  0  0  0  0  0  0  0  0  0  # atno 10765 bound_to 10752
  139.8782  134.8945  156.4143 H   0  0  0  0  0  0  0  0  0  0  0  0  # atno 11005 bound_to 11000
  146.0272  140.8292  142.9894 LP  0  0  0  0  0  0  0  0  0  0  0  0  # atno 17320 bound_to 7965
  144.6832  140.2715  143.7305 LP  0  0  0  0  0  0  0  0  0  0  0  0  # atno 17321 bound_to 7965
  139.5103  144.3546  152.0620 LP  0  0  0  0  0  0  0  0  0  0  0  0  # atno 17342 bound_to 10162
  140.2680  144.3995  150.6161 LP  0  0  0  0  0  0  0  0  0  0  0  0  # atno 17343 bound_to 10162
  157.4747  130.7729  149.7356 LP  0  0  0  0  0  0  0  0  0  0  0  0  # atno 17370 bound_to 10713
  155.9906  130.3943  150.3020 LP  0  0  0  0  0  0  0  0  0  0  0  0  # atno 17371 bound_to 10713
  140.9179  133.7666  155.9870 LP  0  0  0  0  0  0  0  0  0  0  0  0  # atno 17394 bound_to 11000
  140.8473  134.2995  157.5289 LP  0  0  0  0  0  0  0  0  0  0  0  0  # atno 17395 bound_to 11000

$$$$
