AV-unprocessed.smi:3086|AV-procd|sdf|11764|dock2
  -GOLD-   2272017143D 1   1.00000     0.00000
 Structure written by MMmdl.
 30 31  0  0  0  0  0  0  0  0  2 V2000
  152.0215  141.0138  159.0268 C   0  0  0  0  0  0  0  0  0  0  0  0
  151.8507  140.4652  157.6515 C   0  0  0  0  0  0  0  0  0  0  0  0
  152.7987  139.7050  157.0319 N   0  0  0  0  0  0  0  0  0  0  0  0
  152.1977  139.4792  155.8688 C   0  0  0  0  0  0  0  0  0  0  0  0
  152.8050  138.6969  154.7499 C   0  0  0  0  0  0  0  0  0  0  0  0
  150.9778  140.0334  155.7939 N   0  0  0  0  0  0  0  0  0  0  0  0
  150.0155  140.0718  154.6975 C   0  0  2  0  0  0  0  0  0  0  0  0
  148.7580  140.8657  155.0998 C   0  0  0  0  0  0  0  0  0  0  0  0
  147.7475  140.8923  153.9429 C   0  0  0  0  0  0  0  0  0  0  0  0
  147.4180  139.4677  153.4658 C   0  0  0  0  0  0  0  0  0  0  0  0
  148.6515  138.7406  153.0943 N   0  3  0  0  0  0  0  0  0  0  0  0
  149.6276  138.6591  154.2028 C   0  0  0  0  0  0  0  0  0  0  0  0
  150.7459  140.7035  156.9496 N   0  0  0  0  0  0  0  0  0  0  0  0
  153.0157  140.7861  159.4126 H   0  0  0  0  0  0  0  0  0  0  0  0
  151.2825  140.5807  159.7012 H   0  0  0  0  0  0  0  0  0  0  0  0
  151.8944  142.0967  159.0206 H   0  0  0  0  0  0  0  0  0  0  0  0
  153.8453  138.4578  154.9728 H   0  0  0  0  0  0  0  0  0  0  0  0
  152.7754  139.2735  153.8251 H   0  0  0  0  0  0  0  0  0  0  0  0
  152.2583  137.7651  154.6040 H   0  0  0  0  0  0  0  0  0  0  0  0
  150.4912  140.5890  153.8633 H   0  0  0  0  0  0  0  0  0  0  0  0
  148.2952  140.4131  155.9784 H   0  0  0  0  0  0  0  0  0  0  0  0
  149.0277  141.8846  155.3807 H   0  0  0  0  0  0  0  0  0  0  0  0
  146.8358  141.4017  154.2564 H   0  0  0  0  0  0  0  0  0  0  0  0
  148.1558  141.4719  153.1139 H   0  0  0  0  0  0  0  0  0  0  0  0
  146.8986  138.9160  154.2505 H   0  0  0  0  0  0  0  0  0  0  0  0
  146.7507  139.5018  152.6043 H   0  0  0  0  0  0  0  0  0  0  0  0
  148.4056  137.8043  152.8048 H   0  0  0  0  0  0  0  0  0  0  0  0
  150.5108  138.1215  153.8564 H   0  0  0  0  0  0  0  0  0  0  0  0
  149.1871  138.0664  155.0059 H   0  0  0  0  0  0  0  0  0  0  0  0
  149.0856  139.2186  152.3177 H   0  0  0  0  0  0  0  0  0  0  0  0
  1  2  1  0  0  0  0
  1 14  1  0  0  0  0
  1 15  1  0  0  0  0
  1 16  1  0  0  0  0
  2 13  2  0  0  0  0
  2  3  1  0  0  0  0
  3  4  2  0  0  0  0
  4  5  1  0  0  0  0
  4  6  1  0  0  0  0
  5 17  1  0  0  0  0
  5 18  1  0  0  0  0
  5 19  1  0  0  0  0
  6  7  1  0  0  0  0
  6 13  1  0  0  0  0
  7 12  1  0  0  0  0
  7  8  1  0  0  0  0
  7 20  1  0  0  0  0
  8  9  1  0  0  0  0
  8 21  1  0  0  0  0
  8 22  1  0  0  0  0
  9 10  1  0  0  0  0
  9 23  1  0  0  0  0
  9 24  1  0  0  0  0
 10 11  1  0  0  0  0
 10 25  1  0  0  0  0
 10 26  1  0  0  0  0
 11 12  1  0  0  0  0
 11 27  1  0  0  0  0
 11 30  1  0  0  0  0
 12 28  1  0  0  0  0
 12 29  1  0  0  0  0
M  CHG  1  11   1
M  END
> <s_m_source_file>
AV-unprocessed.smi

> <i_m_source_file_index>
3086

> <i_lp_mmshare_version>
43012

> <i_f3d_flags>
0

> <s_epik_input>
W0NIM11jMW5jKFtDSDNdKW4objEpW0NAQEhdMltDSDJdW0NIMl1bQ0gyXVtOSF1bQ0gyXTI=

> <s_epik_cmdline>
J2VwaWtfcHl0aG9uJywgJy1waCcsICc3LjAnLCAnLXRuJywgJzgnLCAnLW1hJywgJzIwMCcsICctbWV0YWxfYmluZGluZycsICctaW1hZScsICc8aW5maWxlLm1hZT4nLCAnLW9tYWUnLCAnPG91dGZpbGUubWFlPic=

> <r_lp_tautomer_probability>
1

> <r_epik_Ionization_Penalty>
0.000522417

> <r_epik_Ionization_Penalty_Charging>
0.000474443

> <r_epik_Ionization_Penalty_Neutral>
4.79736e-05

> <r_epik_State_Penalty>
-0

> <r_epik_Charging_Adjusted_Penalty>
0.000474443

> <i_epik_Tot_Q>
1

> <i_epik_Tot_abs_Q>
1

> <r_epik_Metal_State_Penalty>
-0

> <b_epik_Metal_Only>
0

> <s_lp_Force_Field>
OPLS_2005

> <r_lp_Energy>
16.4369

> <b_lp_Chiralities_Consistent>
1

> <s_lp_Variant>
AV-unprocessed.smi:3086-1

> <Gold.Version>
5.8.1

> <Gold.Id.Protein>
6NUR|6NUR_protein|mol2

> <Gold.PLP.Fitness>
38.8380

> <Gold.PLP.PLP>
-27.6257

> <Gold.PLP.part.hbond>
-2.9151

> <Gold.PLP.part.metal>
0.0000

> <Gold.PLP.part.buried>
-2.2536

> <Gold.PLP.part.nonpolar>
-22.9848

> <Gold.PLP.part.repulsive>
0.0970

> <Gold.PLP.ligand.clash>
0.0000

> <Gold.PLP.ligand.torsion>
0.0399

> <Gold.PLP.Chemscore.Hbond>
3.7503

> <Gold.PLP.Chemscore.CHOScore>
0.0000

> <Gold.PLP.Chemscore.Metal>
0.0000

> <Gold.Chemscore.Hbonds>
donor molecule, donor type, donor heavy atom, donor atom, acceptor molecule, acceptor atom, score
      L1  H    11    27       P1  7948  1.79
      L1  H    11    30       P1  7957  0.93
      P1  H  7997  8008       L1     3  1.00

> <Gold.PLP.Chemscore.Internal.Correction>
0.0414

> <Gold.Rescore>
     Score         DG    S(hbond)    S(metal)    S(lipo)     H(rot)  DE(clash)    DE(int)     intcor
     17.84     -17.91       2.81        0.00      48.01       1.00       0.00       0.07       ----

> <Gold.Chemscore.Fitness>
17.8388

> <Gold.Chemscore.DG>
-17.9123

> <Gold.Chemscore.ZeroCoef>
-5.4800

> <Gold.Chemscore.Hbond>
2.8070

> <Gold.Chemscore.Metal>
0.0000

> <Gold.Chemscore.Lipo>
48.0068

> <Gold.Chemscore.Internal_Hbond>
0.0000

> <Gold.Chemscore.DEClash>
0.0004

> <Gold.Chemscore.DEInternal>
0.0731

> <Gold.Chemscore.Rot>
1.0000

> <Gold.Chemscore.Internal.Correction>
   9.000000E+99

> <Gold.Chemscore.Hbonds>
donor molecule, donor type, donor heavy atom, donor atom, acceptor molecule, acceptor atom, score
      L1  H    11    27       P1  7948  0.88
      L1  H    11    30       P1  7957  0.88
      P1  H  7997  8008       L1     3  0.50

> <Gold.Chemscore.Hbond.Weighted>
-9.3755

> <Gold.Chemscore.Metal.Weighted>
-0.0000

> <Gold.Chemscore.Lipo.Weighted>
-5.6168

> <Gold.Chemscore.Internal_Hbond.Weighted>
0.0000

> <Gold.Chemscore.DEClash.Weighted>
0.0004

> <Gold.Chemscore.DEInternal.Weighted>
0.0731

> <Gold.Chemscore.Rot.Weighted>
2.5600

> <Gold.Chemscore.Internal.Correction.Weighted>
   9.000000E+99

> <Gold.Protein.RotatedTorsions>
[ 6907 6896 6895 6894 ] final   49.36 input  -60.11 | X-H torsion
[ 7974 7965 7964 7962 ] final  -21.92 input  175.53 | X-H torsion
[ 8008 7997 7996 7995 ] final  -59.62 input   59.86 | X-H torsion
[ 10167 10162 10161 10158 ] final -138.13 input  -65.29 | X-H torsion
[ 10718 10713 10712 10709 ] final  166.34 input   66.30 | X-H torsion
[ 10763 10752 10751 10750 ] final -155.02 input  -60.55 | X-H torsion
[ 11005 11000 10999 10996 ] final  175.20 input  -57.11 | X-H torsion

> <Gold.Protein.ActiveResidues>
 VAL166  LYS551  ARG553  GLY616  TRP617  ASP618  TYR619  PRO620  LYS621  CYS622 
 ASP623  PHE694  ASN695  SER759  ASP760  ASP761  ALA762  ILE779  LEU786  VAL792 
 PHE793  MET794  SER795  GLU796  ALA797  LYS798  CYS799  TRP800  GLU811  SER814 

> <Gold.Protein.RotatedAtoms>
  152.2898  134.7734  160.0379 H   0  0  0  0  0  0  0  0  0  0  0  0  # atno 6907 bound_to 6896
  151.8284  133.3399  159.3614 H   0  0  0  0  0  0  0  0  0  0  0  0  # atno 6908 bound_to 6896
  150.7225  134.5436  159.5804 H   0  0  0  0  0  0  0  0  0  0  0  0  # atno 6909 bound_to 6896
  146.1706  140.4407  142.8534 H   0  0  0  0  0  0  0  0  0  0  0  0  # atno 7974 bound_to 7965
  154.4361  140.1057  156.6145 H   0  0  0  0  0  0  0  0  0  0  0  0  # atno 8008 bound_to 7997
  155.5774  140.3490  155.4512 H   0  0  0  0  0  0  0  0  0  0  0  0  # atno 8009 bound_to 7997
  156.0344  140.1268  157.0213 H   0  0  0  0  0  0  0  0  0  0  0  0  # atno 8010 bound_to 7997
  139.8509  143.7200  152.2658 H   0  0  0  0  0  0  0  0  0  0  0  0  # atno 10167 bound_to 10162
  157.0672  131.0356  151.2625 H   0  0  0  0  0  0  0  0  0  0  0  0  # atno 10718 bound_to 10713
  154.7817  135.3177  154.7974 H   0  0  0  0  0  0  0  0  0  0  0  0  # atno 10763 bound_to 10752
  153.8684  135.6846  153.4781 H   0  0  0  0  0  0  0  0  0  0  0  0  # atno 10764 bound_to 10752
  153.1456  135.4721  154.9499 H   0  0  0  0  0  0  0  0  0  0  0  0  # atno 10765 bound_to 10752
  140.3596  134.7124  157.4322 H   0  0  0  0  0  0  0  0  0  0  0  0  # atno 11005 bound_to 11000
  144.8157  140.6463  143.6386 LP  0  0  0  0  0  0  0  0  0  0  0  0  # atno 17320 bound_to 7965
  145.4351  139.1543  143.4001 LP  0  0  0  0  0  0  0  0  0  0  0  0  # atno 17321 bound_to 7965
  139.7466  144.7545  151.0570 LP  0  0  0  0  0  0  0  0  0  0  0  0  # atno 17342 bound_to 10162
  140.7787  143.4908  150.9895 LP  0  0  0  0  0  0  0  0  0  0  0  0  # atno 17343 bound_to 10162
  157.4907  130.7820  149.7505 LP  0  0  0  0  0  0  0  0  0  0  0  0  # atno 17370 bound_to 10713
  155.9961  130.3908  150.2793 LP  0  0  0  0  0  0  0  0  0  0  0  0  # atno 17371 bound_to 10713
  140.0637  134.5959  155.8719 LP  0  0  0  0  0  0  0  0  0  0  0  0  # atno 17394 bound_to 11000
  141.1988  133.6603  156.5810 LP  0  0  0  0  0  0  0  0  0  0  0  0  # atno 17395 bound_to 11000

$$$$
