AV-unprocessed.smi:191|AV-procd|sdf|1493|dock7
  -GOLD-   2262019313D 1   1.00000     0.00000
 Structure written by MMmdl.
 46 48  0  0  0  0  0  0  0  0  1 V2000
  149.4959  141.3785  155.0082 C   0  0  0  0  0  0  0  0  0  0  0  0
  149.4274  140.1995  155.9874 C   0  0  0  0  0  0  0  0  0  0  0  0
  150.3687  140.3394  157.0957 N   0  0  0  0  0  0  0  0  0  0  0  0
  150.2848  141.5676  157.8869 C   0  0  0  0  0  0  0  0  0  0  0  0
  151.6398  142.0306  158.4581 C   0  0  2  0  0  0  0  0  0  0  0  0
  152.1208  141.0912  159.5699 C   0  0  0  0  0  0  0  0  0  0  0  0
  151.5778  143.4198  158.9425 C   0  0  0  0  0  0  0  0  0  0  0  0
  151.5292  144.5113  159.3228 N   0  0  0  0  0  0  0  0  0  0  0  0
  150.4456  139.2159  157.8414 C   0  0  0  0  0  0  0  0  0  0  0  0
  151.6828  138.7641  158.1604 N   0  0  0  0  0  0  0  0  0  0  0  0
  151.8183  137.6578  158.8978 C   0  0  0  0  0  0  0  0  0  0  0  0
  150.8666  136.8708  159.4053 N   0  0  0  0  0  0  0  0  0  0  0  0
  149.6209  137.3250  159.0857 C   0  0  0  0  0  0  0  0  0  0  0  0
  149.3216  138.4805  158.3108 C   0  0  0  0  0  0  0  0  0  0  0  0
  147.9458  138.6272  158.1857 N   0  0  0  0  0  0  0  0  0  0  0  0
  147.4587  137.6119  158.8451 C   0  0  0  0  0  0  0  0  0  0  0  0
  148.3933  136.7844  159.4274 N   0  0  0  0  0  0  0  0  0  0  0  0
  148.1225  135.5896  160.2130 C   0  0  0  0  0  0  0  0  0  0  0  0
  147.4217  135.8616  161.5608 C   0  0  0  0  0  0  0  0  0  0  0  0
  147.0441  134.5438  162.2598 C   0  0  0  0  0  0  0  0  0  0  0  0
  146.1627  133.7728  161.4681 O   0  0  0  0  0  0  0  0  0  0  0  0
  148.1005  136.8987  162.4666 C   0  0  0  0  0  0  0  0  0  0  0  0
  146.8698  137.6316  162.6442 O   0  0  0  0  0  0  0  0  0  0  0  0
  146.2966  136.9065  161.5358 C   0  0  0  0  0  0  0  0  0  0  0  0
  148.8201  141.2179  154.1682 H   0  0  0  0  0  0  0  0  0  0  0  0
  150.5025  141.4954  154.6052 H   0  0  0  0  0  0  0  0  0  0  0  0
  149.2108  142.3181  155.4808 H   0  0  0  0  0  0  0  0  0  0  0  0
  148.4150  140.1090  156.3832 H   0  0  0  0  0  0  0  0  0  0  0  0
  149.6309  139.2777  155.4392 H   0  0  0  0  0  0  0  0  0  0  0  0
  149.8761  142.3642  157.2660 H   0  0  0  0  0  0  0  0  0  0  0  0
  149.5717  141.4215  158.6989 H   0  0  0  0  0  0  0  0  0  0  0  0
  152.3920  142.0167  157.6692 H   0  0  0  0  0  0  0  0  0  0  0  0
  153.0913  141.4063  159.9541 H   0  0  0  0  0  0  0  0  0  0  0  0
  152.2255  140.0697  159.2032 H   0  0  0  0  0  0  0  0  0  0  0  0
  151.4204  141.0771  160.4055 H   0  0  0  0  0  0  0  0  0  0  0  0
  152.8345  137.3607  159.1117 H   0  0  0  0  0  0  0  0  0  0  0  0
  146.3954  137.4409  158.9317 H   0  0  0  0  0  0  0  0  0  0  0  0
  147.5241  134.9112  159.6037 H   0  0  0  0  0  0  0  0  0  0  0  0
  149.0707  135.0746  160.3718 H   0  0  0  0  0  0  0  0  0  0  0  0
  147.9344  133.9423  162.4473 H   0  0  0  0  0  0  0  0  0  0  0  0
  146.5909  134.7195  163.2354 H   0  0  0  0  0  0  0  0  0  0  0  0
  145.9177  134.2807  160.7093 H   0  0  0  0  0  0  0  0  0  0  0  0
  148.4865  136.4916  163.4019 H   0  0  0  0  0  0  0  0  0  0  0  0
  148.8592  137.4992  161.9615 H   0  0  0  0  0  0  0  0  0  0  0  0
  146.2711  137.5174  160.6323 H   0  0  0  0  0  0  0  0  0  0  0  0
  145.3085  136.5031  161.7607 H   0  0  0  0  0  0  0  0  0  0  0  0
  1  2  1  0  0  0  0
  1 25  1  0  0  0  0
  1 26  1  0  0  0  0
  1 27  1  0  0  0  0
  2  3  1  0  0  0  0
  2 28  1  0  0  0  0
  2 29  1  0  0  0  0
  3  4  1  0  0  0  0
  3  9  1  0  0  0  0
  4  5  1  0  0  0  0
  4 30  1  0  0  0  0
  4 31  1  0  0  0  0
  5  6  1  0  0  0  0
  5  7  1  0  0  0  0
  5 32  1  0  0  0  0
  6 33  1  0  0  0  0
  6 34  1  0  0  0  0
  6 35  1  0  0  0  0
  7  8  3  0  0  0  0
  9 14  1  0  0  0  0
  9 10  2  0  0  0  0
 10 11  1  0  0  0  0
 11 12  2  0  0  0  0
 11 36  1  0  0  0  0
 12 13  1  0  0  0  0
 13 17  1  0  0  0  0
 13 14  2  0  0  0  0
 14 15  1  0  0  0  0
 15 16  2  0  0  0  0
 16 17  1  0  0  0  0
 16 37  1  0  0  0  0
 17 18  1  0  0  0  0
 18 19  1  0  0  0  0
 18 38  1  0  0  0  0
 18 39  1  0  0  0  0
 19 24  1  0  0  0  0
 19 20  1  0  0  0  0
 19 22  1  0  0  0  0
 20 21  1  0  0  0  0
 20 40  1  0  0  0  0
 20 41  1  0  0  0  0
 21 42  1  0  0  0  0
 22 23  1  0  0  0  0
 22 43  1  0  0  0  0
 22 44  1  0  0  0  0
 23 24  1  0  0  0  0
 24 45  1  0  0  0  0
 24 46  1  0  0  0  0
M  END
> <s_m_source_file>
AV-unprocessed.smi

> <i_m_source_file_index>
191

> <i_lp_mmshare_version>
43012

> <i_f3d_flags>
0

> <s_epik_input>
TiNDW0NAQEhdKFtDSDNdKVtDSDJdTihbQ0gyXVtDSDNdKWMobltjSF1uMSljKGMxMiluW2NIXW4yW0NIMl1DMyhbQ0gyXVtPSF0pW0NIMl1PW0NIMl0z

> <s_epik_cmdline>
J2VwaWtfcHl0aG9uJywgJy1waCcsICc3LjAnLCAnLXRuJywgJzgnLCAnLW1hJywgJzIwMCcsICctbWV0YWxfYmluZGluZycsICctaW1hZScsICc8aW5maWxlLm1hZT4nLCAnLW9tYWUnLCAnPG91dGZpbGUubWFlPic=

> <r_lp_tautomer_probability>
1

> <r_epik_Ionization_Penalty>
0.000569684

> <r_epik_Ionization_Penalty_Charging>
0

> <r_epik_Ionization_Penalty_Neutral>
0.000569684

> <r_epik_State_Penalty>
0.000286009

> <r_epik_Charging_Adjusted_Penalty>
0.000286009

> <i_epik_Tot_Q>
0

> <i_epik_Tot_abs_Q>
0

> <r_epik_Metal_State_Penalty>
-0

> <b_epik_Metal_Only>
0

> <s_lp_Force_Field>
OPLS_2005

> <r_lp_Energy>
28.3961

> <b_lp_Chiralities_Consistent>
1

> <s_lp_Variant>
AV-unprocessed.smi:191-1

> <Gold.Version>
5.8.1

> <Gold.Id.Protein>
6NUR|6NUR_protein|mol2

> <Gold.PLP.Fitness>
38.1105

> <Gold.PLP.PLP>
-36.5978

> <Gold.PLP.part.hbond>
-3.6824

> <Gold.PLP.part.metal>
0.0000

> <Gold.PLP.part.buried>
-2.3257

> <Gold.PLP.part.nonpolar>
-30.0721

> <Gold.PLP.part.repulsive>
0.0694

> <Gold.PLP.ligand.clash>
0.0000

> <Gold.PLP.ligand.torsion>
1.1446

> <Gold.PLP.Chemscore.Hbond>
1.0000

> <Gold.PLP.Chemscore.CHOScore>
0.0000

> <Gold.PLP.Chemscore.Metal>
0.0000

> <Gold.Chemscore.Hbonds>
donor molecule, donor type, donor heavy atom, donor atom, acceptor molecule, acceptor atom, score
      P1  H  6896  6907       L1    12  1.00

> <Gold.PLP.Chemscore.Internal.Correction>
0.8018

> <Gold.Rescore>
     Score         DG    S(hbond)    S(metal)    S(lipo)     H(rot)  DE(clash)    DE(int)     intcor
      6.09      -8.86       0.98        0.00      76.07       3.43       1.55       1.23       ----

> <Gold.Chemscore.Fitness>
6.0880

> <Gold.Chemscore.DG>
-8.8620

> <Gold.Chemscore.ZeroCoef>
-5.4800

> <Gold.Chemscore.Hbond>
0.9771

> <Gold.Chemscore.Metal>
0.0000

> <Gold.Chemscore.Lipo>
76.0693

> <Gold.Chemscore.Internal_Hbond>
0.0000

> <Gold.Chemscore.DEClash>
1.5463

> <Gold.Chemscore.DEInternal>
1.2277

> <Gold.Chemscore.Rot>
3.4303

> <Gold.Chemscore.Internal.Correction>
   9.000000E+99

> <Gold.Chemscore.Hbonds>
donor molecule, donor type, donor heavy atom, donor atom, acceptor molecule, acceptor atom, score
      P1  H  6896  6907       L1    12  0.86

> <Gold.Chemscore.Hbond.Weighted>
-3.2636

> <Gold.Chemscore.Metal.Weighted>
-0.0000

> <Gold.Chemscore.Lipo.Weighted>
-8.9001

> <Gold.Chemscore.Internal_Hbond.Weighted>
0.0000

> <Gold.Chemscore.DEClash.Weighted>
1.5463

> <Gold.Chemscore.DEInternal.Weighted>
1.2277

> <Gold.Chemscore.Rot.Weighted>
8.7817

> <Gold.Chemscore.Internal.Correction.Weighted>
   9.000000E+99

> <Gold.Protein.RotatedTorsions>
[ 6907 6896 6895 6894 ] final   -4.29 input  -60.11 | X-H torsion
[ 7974 7965 7964 7962 ] final   54.38 input  175.53 | X-H torsion
[ 8008 7997 7996 7995 ] final  170.72 input   59.86 | X-H torsion
[ 10167 10162 10161 10158 ] final  -67.42 input  -65.29 | X-H torsion
[ 10718 10713 10712 10709 ] final  144.95 input   66.30 | X-H torsion
[ 10763 10752 10751 10750 ] final -141.92 input  -60.55 | X-H torsion
[ 11005 11000 10999 10996 ] final  -67.58 input  -57.11 | X-H torsion

> <Gold.Protein.ActiveResidues>
 VAL166  LYS551  ARG553  GLY616  TRP617  ASP618  TYR619  PRO620  LYS621  CYS622 
 ASP623  PHE694  ASN695  SER759  ASP760  ASP761  ALA762  ILE779  LEU786  VAL792 
 PHE793  MET794  SER795  GLU796  ALA797  LYS798  CYS799  TRP800  GLU811  SER814 

> <Gold.Protein.RotatedAtoms>
  151.5001  135.1061  159.9826 H   0  0  0  0  0  0  0  0  0  0  0  0  # atno 6907 bound_to 6896
  152.4705  133.8016  159.6966 H   0  0  0  0  0  0  0  0  0  0  0  0  # atno 6908 bound_to 6896
  150.8712  133.7440  159.2986 H   0  0  0  0  0  0  0  0  0  0  0  0  # atno 6909 bound_to 6896
  145.9614  139.4062  143.0246 H   0  0  0  0  0  0  0  0  0  0  0  0  # atno 7974 bound_to 7965
  156.1338  140.1530  156.9025 H   0  0  0  0  0  0  0  0  0  0  0  0  # atno 8008 bound_to 7997
  154.4931  140.0846  156.7677 H   0  0  0  0  0  0  0  0  0  0  0  0  # atno 8009 bound_to 7997
  155.4206  140.3423  155.4273 H   0  0  0  0  0  0  0  0  0  0  0  0  # atno 8010 bound_to 7997
  140.5584  143.2312  151.6776 H   0  0  0  0  0  0  0  0  0  0  0  0  # atno 10167 bound_to 10162
  157.3510  131.0951  151.1000 H   0  0  0  0  0  0  0  0  0  0  0  0  # atno 10718 bound_to 10713
  154.8528  135.3511  154.5944 H   0  0  0  0  0  0  0  0  0  0  0  0  # atno 10763 bound_to 10752
  153.6554  135.6992  153.5200 H   0  0  0  0  0  0  0  0  0  0  0  0  # atno 10764 bound_to 10752
  153.2860  135.4249  155.1081 H   0  0  0  0  0  0  0  0  0  0  0  0  # atno 10765 bound_to 10752
  141.1511  133.6722  156.6315 H   0  0  0  0  0  0  0  0  0  0  0  0  # atno 11005 bound_to 11000
  145.8034  140.9760  143.0986 LP  0  0  0  0  0  0  0  0  0  0  0  0  # atno 17320 bound_to 7965
  144.6816  139.9831  143.7483 LP  0  0  0  0  0  0  0  0  0  0  0  0  # atno 17321 bound_to 7965
  139.5058  144.3703  152.0477 LP  0  0  0  0  0  0  0  0  0  0  0  0  # atno 17342 bound_to 10162
  140.2827  144.3842  150.6114 LP  0  0  0  0  0  0  0  0  0  0  0  0  # atno 17343 bound_to 10162
  157.2175  130.6466  149.5798 LP  0  0  0  0  0  0  0  0  0  0  0  0  # atno 17370 bound_to 10713
  155.9721  130.4640  150.6201 LP  0  0  0  0  0  0  0  0  0  0  0  0  # atno 17371 bound_to 10713
  140.3463  134.7806  157.4434 LP  0  0  0  0  0  0  0  0  0  0  0  0  # atno 17394 bound_to 11000
  140.0897  134.5618  155.8457 LP  0  0  0  0  0  0  0  0  0  0  0  0  # atno 17395 bound_to 11000

$$$$
