#       Name:                AV-unprocessed.smi:419
#       Creating user name   scv26
#       Creation time:       Thu Mar 26 22:48:49 2020


#       File generated by GOLD software.
#

@<TRIPOS>MOLECULE
AV-unprocessed.smi:419
    52    54     1
SMALL
NO_CHARGES


@<TRIPOS>ATOM
      1 ****        -8.0329   1.2393   0.7965 C.3            1 S1                 0.0000
      2 ****        -7.0682   2.2713   0.9424 O.3            1 S1                 0.0000
      3 ****        -5.7431   1.9547   0.7327 C.ar           1 S1                 0.0000
      4 ****        -4.8033   2.9935   0.8803 C.ar           1 S1                 0.0000
      5 ****        -3.4297   2.7563   0.6845 C.ar           1 S1                 0.0000
      6 ****        -2.9616   1.4741   0.3367 C.ar           1 S1                 0.0000
      7 ****        -1.6016   1.3279   0.1651 O.3            1 S1                 0.0000
      8 ****        -1.1007   0.0416  -0.1759 C.3            1 S1                 0.0000
      9 ****         0.4308   0.1177  -0.2893 C.3            1 S1                 0.0000
     10 ****         0.7313   0.6616  -1.5593 O.3            1 S1                 0.0000
     11 ****         1.0799  -1.2795  -0.2106 C.3            1 S1                 0.0000
     12 ****         2.5113  -1.2001   0.0779 N.am           1 S1                 0.0000
     13 ****         3.0777  -0.9905   1.2902 C.2            1 S1                 0.0000
     14 ****         2.4730  -0.8291   2.3502 O.2            1 S1                 0.0000
     15 ****         4.4218  -0.9909   1.1311 N.am           1 S1                 0.0000
     16 ****         5.4287  -0.8063   2.1691 C.3            1 S1                 0.0000
     17 ****         4.7247  -1.2088  -0.2189 C.ar           1 S1                 0.0000
     18 ****         5.9596  -1.2984  -0.8836 C.ar           1 S1                 0.0000
     19 ****         5.9264  -1.5263  -2.2793 C.ar           1 S1                 0.0000
     20 ****         4.6908  -1.6550  -2.9655 C.ar           1 S1                 0.0000
     21 ****         3.4620  -1.5613  -2.2706 C.ar           1 S1                 0.0000
     22 ****         3.5233  -1.3380  -0.8838 C.ar           1 S1                 0.0000
     23 ****        -3.9028   0.4259   0.1871 C.ar           1 S1                 0.0000
     24 ****        -5.2774   0.6633   0.3827 C.ar           1 S1                 0.0000
     25 ****        -9.0256   1.6441   0.9928 H              1 S1                 0.0000
     26 ****        -7.8612   0.4294   1.5069 H              1 S1                 0.0000
     27 ****        -8.0359   0.8369  -0.2174 H              1 S1                 0.0000
     28 ****        -5.1391   3.9848   1.1477 H              1 S1                 0.0000
     29 ****        -2.7273   3.5682   0.8039 H              1 S1                 0.0000
     30 ****        -1.3698  -0.6501   0.6240 H              1 S1                 0.0000
     31 ****        -1.5420  -0.3317  -1.1021 H              1 S1                 0.0000
     32 ****         0.8230   0.7634   0.4978 H              1 S1                 0.0000
     33 ****         0.3401   1.5202  -1.6155 H              1 S1                 0.0000
     34 ****         0.6188  -1.8538   0.5945 H              1 S1                 0.0000
     35 ****         0.8925  -1.8525  -1.1194 H              1 S1                 0.0000
     36 ****         6.1486  -0.0452   1.8676 H              1 S1                 0.0000
     37 ****         5.9674  -1.7386   2.3391 H              1 S1                 0.0000
     38 ****         4.9876  -0.4916   3.1158 H              1 S1                 0.0000
     39 ****         6.8955  -1.1979  -0.3541 H              1 S1                 0.0000
     40 ****         6.8529  -1.6026  -2.8292 H              1 S1                 0.0000
     41 ****         4.6881  -1.8264  -4.0318 H              1 S1                 0.0000
     42 ****         2.5198  -1.6567  -2.7895 H              1 S1                 0.0000
     43 ****        -3.5964  -0.5744  -0.0778 H              1 S1                 0.0000
     44 ****        -5.9564  -0.1664   0.2581 H              1 S1                 0.0000
     45 ****        -7.1460   2.6208   1.8761 LP             1 S1                 0.0000
     46 ****        -7.3069   2.9948   0.2947 LP             1 S1                 0.0000
     47 ****        -1.1640   1.5984   1.0226 LP             1 S1                 0.0000
     48 ****        -1.3256   1.9558  -0.5626 LP             1 S1                 0.0000
     49 ****         0.3580   0.0726  -2.2761 LP             1 S1                 0.0000
     50 ****         1.7225   0.7339  -1.6700 LP             1 S1                 0.0000
     51 ****         1.4732  -0.8469   2.3632 LP             1 S1                 0.0000
     52 ****         2.9815  -0.6803   3.1983 LP             1 S1                 0.0000
@<TRIPOS>BOND
    1    1    2 1     
    2    1   25 1     
    3    1   26 1     
    4    1   27 1     
    5    2    3 1     
    6    3   24 ar    
    7    3    4 ar    
    8    4    5 ar    
    9    4   28 1     
   10    5    6 ar    
   11    5   29 1     
   12    6    7 1     
   13    6   23 ar    
   14    7    8 1     
   15    8    9 1     
   16    8   30 1     
   17    8   31 1     
   18    9   10 1     
   19    9   11 1     
   20    9   32 1     
   21   10   33 1     
   22   11   12 1     
   23   11   34 1     
   24   11   35 1     
   25   12   22 1     
   26   12   13 am    
   27   13   14 2     
   28   13   15 am    
   29   15   16 1     
   30   15   17 1     
   31   16   36 1     
   32   16   37 1     
   33   16   38 1     
   34   17   22 ar    
   35   17   18 ar    
   36   18   19 ar    
   37   18   39 1     
   38   19   20 ar    
   39   19   40 1     
   40   20   21 ar    
   41   20   41 1     
   42   21   22 ar    
   43   21   42 1     
   44   23   24 ar    
   45   23   43 1     
   46   24   44 1     
   47    2   45 1     
   48    2   46 1     
   49    7   47 1     
   50    7   48 1     
   51   10   49 1     
   52   10   50 1     
   53   14   51 1     
   54   14   52 1     
@<TRIPOS>SUBSTRUCTURE
      1 S1             1
@<TRIPOS>SET
LONE_PAIRS      STATIC     ATOMS    <user>   **** ""
8 45 46 47 48 49 50 51 52
DONOR_HYDROGENS      STATIC     ATOMS    <user>   **** ""
1 33
ATOM$BLUE        STATIC     ATOMS    COLORGROUP SYSTEM
8 45 46 47 48 49 50 51 52
ATOM$RED        STATIC     ATOMS    COLORGROUP SYSTEM
1 33
