AV-unprocessed.smi:2804|AV-procd|sdf|10810|dock10
  -GOLD-   2272015243D 1   1.00000     0.00000
 Structure written by MMmdl.
 35 36  0  0  0  0  0  0  0  0  1 V2000
  154.9878  139.4806  162.2665 C   0  0  0  0  0  0  0  0  0  0  0  0
  154.0012  139.8871  161.1671 C   0  0  0  0  0  0  0  0  0  0  0  0
  154.1404  141.3644  160.7675 C   0  0  0  0  0  0  0  0  0  0  0  0
  153.1524  141.7342  159.7571 N   0  0  0  0  0  0  0  0  0  0  0  0
  152.7882  140.9998  158.6797 C   0  0  0  0  0  0  0  0  0  0  0  0
  153.2265  139.8893  158.3801 O   0  0  0  0  0  0  0  0  0  0  0  0
  151.8663  141.7053  157.9828 N   0  0  0  0  0  0  0  0  0  0  0  0
  151.2170  141.2954  156.7359 C   0  0  0  0  0  0  0  0  0  0  0  0
  150.5652  139.8864  156.7828 C   0  0  1  0  0  0  0  0  0  0  0  0
  149.2657  139.8996  157.3495 O   0  0  0  0  0  0  0  0  0  0  0  0
  150.5068  139.2022  155.4025 C   0  0  0  0  0  0  0  0  0  0  0  0
  149.9600  137.9911  155.5125 F   0  0  0  0  0  0  0  0  0  0  0  0
  149.8031  139.9322  154.5369 F   0  0  0  0  0  0  0  0  0  0  0  0
  151.7438  139.0504  154.9289 F   0  0  0  0  0  0  0  0  0  0  0  0
  151.6442  142.9319  158.6253 C   0  0  0  0  0  0  0  0  0  0  0  0
  150.8055  144.0104  158.2946 C   0  0  0  0  0  0  0  0  0  0  0  0
  150.8205  145.1295  159.1596 C   0  0  0  0  0  0  0  0  0  0  0  0
  151.6548  145.1498  160.3076 C   0  0  0  0  0  0  0  0  0  0  0  0
  152.4916  144.0513  160.6149 C   0  0  0  0  0  0  0  0  0  0  0  0
  152.4551  142.9510  159.7407 C   0  0  0  0  0  0  0  0  0  0  0  0
  154.8633  138.4302  162.5306 H   0  0  0  0  0  0  0  0  0  0  0  0
  154.8356  140.0709  163.1704 H   0  0  0  0  0  0  0  0  0  0  0  0
  156.0191  139.6223  161.9424 H   0  0  0  0  0  0  0  0  0  0  0  0
  154.1584  139.2535  160.2932 H   0  0  0  0  0  0  0  0  0  0  0  0
  152.9840  139.6936  161.5098 H   0  0  0  0  0  0  0  0  0  0  0  0
  154.0234  142.0016  161.6455 H   0  0  0  0  0  0  0  0  0  0  0  0
  155.1427  141.5601  160.3852 H   0  0  0  0  0  0  0  0  0  0  0  0
  150.4791  142.0473  156.4527 H   0  0  0  0  0  0  0  0  0  0  0  0
  151.9581  141.3218  155.9367 H   0  0  0  0  0  0  0  0  0  0  0  0
  151.1731  139.2602  157.4371 H   0  0  0  0  0  0  0  0  0  0  0  0
  149.0545  140.7875  157.5943 H   0  0  0  0  0  0  0  0  0  0  0  0
  150.1762  143.9915  157.4172 H   0  0  0  0  0  0  0  0  0  0  0  0
  150.1904  145.9796  158.9429 H   0  0  0  0  0  0  0  0  0  0  0  0
  151.6521  146.0153  160.9539 H   0  0  0  0  0  0  0  0  0  0  0  0
  153.1314  144.0634  161.4846 H   0  0  0  0  0  0  0  0  0  0  0  0
  1  2  1  0  0  0  0
  1 21  1  0  0  0  0
  1 22  1  0  0  0  0
  1 23  1  0  0  0  0
  2  3  1  0  0  0  0
  2 24  1  0  0  0  0
  2 25  1  0  0  0  0
  3  4  1  0  0  0  0
  3 26  1  0  0  0  0
  3 27  1  0  0  0  0
  4 20  1  0  0  0  0
  4  5  1  0  0  0  0
  5  6  2  0  0  0  0
  5  7  1  0  0  0  0
  7  8  1  0  0  0  0
  7 15  1  0  0  0  0
  8  9  1  0  0  0  0
  8 28  1  0  0  0  0
  8 29  1  0  0  0  0
  9 10  1  0  0  0  0
  9 11  1  0  0  0  0
  9 30  1  0  0  0  0
 10 31  1  0  0  0  0
 11 12  1  0  0  0  0
 11 13  1  0  0  0  0
 11 14  1  0  0  0  0
 15 20  2  0  0  0  0
 15 16  1  0  0  0  0
 16 17  2  0  0  0  0
 16 32  1  0  0  0  0
 17 18  1  0  0  0  0
 17 33  1  0  0  0  0
 18 19  2  0  0  0  0
 18 34  1  0  0  0  0
 19 20  1  0  0  0  0
 19 35  1  0  0  0  0
M  END
> <s_m_source_file>
AV-unprocessed.smi

> <i_m_source_file_index>
2804

> <i_lp_mmshare_version>
43012

> <i_f3d_flags>
0

> <s_epik_input>
W2NIXTFbY0hdW2NIXVtjSF1jKGMxMiluKFtDSDJdW0NIMl1bQ0gzXSljKD1PKW4yW0NIMl1bQ0BIXShbT0hdKUMoRikoRilG

> <s_epik_cmdline>
J2VwaWtfcHl0aG9uJywgJy1waCcsICc3LjAnLCAnLXRuJywgJzgnLCAnLW1hJywgJzIwMCcsICctbWV0YWxfYmluZGluZycsICctaW1hZScsICc8aW5maWxlLm1hZT4nLCAnLW9tYWUnLCAnPG91dGZpbGUubWFlPic=

> <r_epik_Ionization_Penalty>
0.0117937

> <r_epik_Ionization_Penalty_Charging>
3.30828e-09

> <r_epik_Ionization_Penalty_Neutral>
0.0117937

> <r_epik_State_Penalty>
0.00909547

> <r_epik_Charging_Adjusted_Penalty>
0.00909547

> <i_epik_Tot_Q>
0

> <i_epik_Tot_abs_Q>
0

> <r_epik_Metal_State_Penalty>
0.00909547

> <b_epik_Metal_Only>
0

> <s_lp_Force_Field>
OPLS_2005

> <r_lp_Energy>
49.0105

> <b_lp_Chiralities_Consistent>
1

> <s_lp_Variant>
AV-unprocessed.smi:2804-2

> <Gold.Version>
5.8.1

> <Gold.Id.Protein>
6NUR|6NUR_protein|mol2

> <Gold.PLP.Fitness>
46.8734

> <Gold.PLP.PLP>
-45.1171

> <Gold.PLP.part.hbond>
-1.0000

> <Gold.PLP.part.metal>
0.0000

> <Gold.PLP.part.buried>
-4.5977

> <Gold.PLP.part.nonpolar>
-39.4026

> <Gold.PLP.part.repulsive>
0.0000

> <Gold.PLP.ligand.clash>
0.0000

> <Gold.PLP.ligand.torsion>
0.6543

> <Gold.PLP.Chemscore.Hbond>
1.0000

> <Gold.PLP.Chemscore.CHOScore>
0.0000

> <Gold.PLP.Chemscore.Metal>
0.0000

> <Gold.Chemscore.Hbonds>
donor molecule, donor type, donor heavy atom, donor atom, acceptor molecule, acceptor atom, score
      P1  H  7997  8009       L1     6  1.00

> <Gold.PLP.Chemscore.Internal.Correction>
0.0649

> <Gold.Rescore>
     Score         DG    S(hbond)    S(metal)    S(lipo)     H(rot)  DE(clash)    DE(int)     intcor
     15.05     -15.38       0.92        0.00     108.95       2.32       0.06       0.28       ----

> <Gold.Chemscore.Fitness>
15.0510

> <Gold.Chemscore.DG>
-15.3832

> <Gold.Chemscore.ZeroCoef>
-5.4800

> <Gold.Chemscore.Hbond>
0.9229

> <Gold.Chemscore.Metal>
0.0000

> <Gold.Chemscore.Lipo>
108.9520

> <Gold.Chemscore.Internal_Hbond>
0.0000

> <Gold.Chemscore.DEClash>
0.0566

> <Gold.Chemscore.DEInternal>
0.2755

> <Gold.Chemscore.Rot>
2.3152

> <Gold.Chemscore.Internal.Correction>
   9.000000E+99

> <Gold.Chemscore.Hbonds>
donor molecule, donor type, donor heavy atom, donor atom, acceptor molecule, acceptor atom, score
      P1  H  7997  8009       L1     6  0.77

> <Gold.Chemscore.Hbond.Weighted>
-3.0826

> <Gold.Chemscore.Metal.Weighted>
-0.0000

> <Gold.Chemscore.Lipo.Weighted>
-12.7474

> <Gold.Chemscore.Internal_Hbond.Weighted>
0.0000

> <Gold.Chemscore.DEClash.Weighted>
0.0566

> <Gold.Chemscore.DEInternal.Weighted>
0.2755

> <Gold.Chemscore.Rot.Weighted>
5.9268

> <Gold.Chemscore.Internal.Correction.Weighted>
   9.000000E+99

> <Gold.Protein.RotatedTorsions>
[ 6907 6896 6895 6894 ] final  -30.66 input  -60.11 | X-H torsion
[ 7974 7965 7964 7962 ] final  -49.05 input  175.53 | X-H torsion
[ 8008 7997 7996 7995 ] final  150.29 input   59.86 | X-H torsion
[ 10167 10162 10161 10158 ] final  -32.89 input  -65.29 | X-H torsion
[ 10718 10713 10712 10709 ] final   70.75 input   66.30 | X-H torsion
[ 10763 10752 10751 10750 ] final   55.08 input  -60.55 | X-H torsion
[ 11005 11000 10999 10996 ] final  176.08 input  -57.11 | X-H torsion

> <Gold.Protein.ActiveResidues>
 VAL166  LYS551  ARG553  GLY616  TRP617  ASP618  TYR619  PRO620  LYS621  CYS622 
 ASP623  PHE694  ASN695  SER759  ASP760  ASP761  ALA762  ILE779  LEU786  VAL792 
 PHE793  MET794  SER795  GLU796  ALA797  LYS798  CYS799  TRP800  GLU811  SER814 

> <Gold.Protein.RotatedAtoms>
  151.1026  134.9981  159.8455 H   0  0  0  0  0  0  0  0  0  0  0  0  # atno 6907 bound_to 6896
  152.5438  134.1932  159.8692 H   0  0  0  0  0  0  0  0  0  0  0  0  # atno 6908 bound_to 6896
  151.1976  133.4585  159.2629 H   0  0  0  0  0  0  0  0  0  0  0  0  # atno 6909 bound_to 6896
  145.9447  140.7629  142.9534 H   0  0  0  0  0  0  0  0  0  0  0  0  # atno 7974 bound_to 7965
  156.2721  140.2079  156.5993 H   0  0  0  0  0  0  0  0  0  0  0  0  # atno 8008 bound_to 7997
  154.6919  140.0529  157.0395 H   0  0  0  0  0  0  0  0  0  0  0  0  # atno 8009 bound_to 7997
  155.0854  140.3191  155.4592 H   0  0  0  0  0  0  0  0  0  0  0  0  # atno 8010 bound_to 7997
  140.7214  143.3661  151.1869 H   0  0  0  0  0  0  0  0  0  0  0  0  # atno 10167 bound_to 10162
  157.6416  130.9493  150.0694 H   0  0  0  0  0  0  0  0  0  0  0  0  # atno 10718 bound_to 10713
  152.9812  135.5723  154.5008 H   0  0  0  0  0  0  0  0  0  0  0  0  # atno 10763 bound_to 10752
  154.4528  135.2779  155.1771 H   0  0  0  0  0  0  0  0  0  0  0  0  # atno 10764 bound_to 10752
  154.3392  135.6233  153.5641 H   0  0  0  0  0  0  0  0  0  0  0  0  # atno 10765 bound_to 10752
  140.3692  134.7044  157.4381 H   0  0  0  0  0  0  0  0  0  0  0  0  # atno 11005 bound_to 11000
  144.6785  140.2337  143.7352 LP  0  0  0  0  0  0  0  0  0  0  0  0  # atno 17320 bound_to 7965
  145.8252  139.2061  143.1915 LP  0  0  0  0  0  0  0  0  0  0  0  0  # atno 17321 bound_to 7965
  139.7222  143.9204  152.2990 LP  0  0  0  0  0  0  0  0  0  0  0  0  # atno 17342 bound_to 10162
  139.8965  144.6936  150.8712 LP  0  0  0  0  0  0  0  0  0  0  0  0  # atno 17343 bound_to 10162
  156.1702  130.3646  149.9175 LP  0  0  0  0  0  0  0  0  0  0  0  0  # atno 17370 bound_to 10713
  156.7152  130.8985  151.3613 LP  0  0  0  0  0  0  0  0  0  0  0  0  # atno 17371 bound_to 10713
  140.0565  134.6056  155.8799 LP  0  0  0  0  0  0  0  0  0  0  0  0  # atno 17394 bound_to 11000
  141.1960  133.6589  156.5669 LP  0  0  0  0  0  0  0  0  0  0  0  0  # atno 17395 bound_to 11000

$$$$
