AV-unprocessed.smi:2415|AV-procd|sdf|9543|dock3
  -GOLD-   2272013173D 1   1.00000     0.00000
 Structure written by MMmdl.
 33 34  0  0  0  0  0  0  0  0  1 V2000
  152.2018  145.2952  158.8983 C   0  0  0  0  0  0  0  0  0  0  0  0
  152.3266  143.7899  158.9949 C   0  0  0  0  0  0  0  0  0  0  0  0
  152.9754  143.1715  160.0836 C   0  0  0  0  0  0  0  0  0  0  0  0
  153.0266  141.7628  160.0545 C   0  0  0  0  0  0  0  0  0  0  0  0
  153.6944  140.9715  161.1582 C   0  0  0  0  0  0  0  0  0  0  0  0
  152.4855  141.0518  159.0417 N   0  0  0  0  0  0  0  0  0  0  0  0
  151.8805  141.7390  158.0629 C   0  0  0  0  0  0  0  0  0  0  0  0
  151.3240  141.0220  157.0048 N   0  0  0  0  0  0  0  0  0  0  0  0
  150.5625  141.8396  156.0608 C   0  0  0  0  0  0  0  0  0  0  0  0
  149.6908  140.9693  155.1463 C   0  0  0  0  0  0  0  0  0  0  0  0
  150.5194  140.0312  154.4769 O   0  0  0  0  0  0  0  0  0  0  0  0
  151.1395  139.1446  155.3983 C   0  0  0  0  0  0  0  0  0  0  0  0
  152.0636  139.9165  156.3707 C   0  0  2  0  0  0  0  0  0  0  0  0
  152.6680  138.8927  157.3508 C   0  0  0  0  0  0  0  0  0  0  0  0
  151.8172  138.2366  158.1440 N   0  0  0  0  0  0  0  0  0  0  0  0
  153.8828  138.7069  157.4007 O   0  0  0  0  0  0  0  0  0  0  0  0
  151.7845  143.0715  157.9874 N   0  0  0  0  0  0  0  0  0  0  0  0
  152.7648  145.7881  159.6913 H   0  0  0  0  0  0  0  0  0  0  0  0
  151.1568  145.5938  158.9846 H   0  0  0  0  0  0  0  0  0  0  0  0
  152.5834  145.6483  157.9399 H   0  0  0  0  0  0  0  0  0  0  0  0
  153.4082  143.7428  160.8917 H   0  0  0  0  0  0  0  0  0  0  0  0
  153.9103  141.6045  162.0193 H   0  0  0  0  0  0  0  0  0  0  0  0
  154.6325  140.5454  160.8019 H   0  0  0  0  0  0  0  0  0  0  0  0
  153.0489  140.1569  161.4884 H   0  0  0  0  0  0  0  0  0  0  0  0
  149.9240  142.5508  156.5864 H   0  0  0  0  0  0  0  0  0  0  0  0
  151.2595  142.4273  155.4616 H   0  0  0  0  0  0  0  0  0  0  0  0
  148.9135  140.4560  155.7149 H   0  0  0  0  0  0  0  0  0  0  0  0
  149.1873  141.5901  154.4052 H   0  0  0  0  0  0  0  0  0  0  0  0
  150.3712  138.5873  155.9386 H   0  0  0  0  0  0  0  0  0  0  0  0
  151.7142  138.4128  154.8292 H   0  0  0  0  0  0  0  0  0  0  0  0
  152.8743  140.3617  155.7905 H   0  0  0  0  0  0  0  0  0  0  0  0
  152.1661  137.5611  158.8082 H   0  0  0  0  0  0  0  0  0  0  0  0
  150.8273  138.4252  158.0807 H   0  0  0  0  0  0  0  0  0  0  0  0
  1  2  1  0  0  0  0
  1 18  1  0  0  0  0
  1 19  1  0  0  0  0
  1 20  1  0  0  0  0
  2 17  1  0  0  0  0
  2  3  2  0  0  0  0
  3  4  1  0  0  0  0
  3 21  1  0  0  0  0
  4  5  1  0  0  0  0
  4  6  2  0  0  0  0
  5 22  1  0  0  0  0
  5 23  1  0  0  0  0
  5 24  1  0  0  0  0
  6  7  1  0  0  0  0
  7  8  1  0  0  0  0
  7 17  2  0  0  0  0
  8 13  1  0  0  0  0
  8  9  1  0  0  0  0
  9 10  1  0  0  0  0
  9 25  1  0  0  0  0
  9 26  1  0  0  0  0
 10 11  1  0  0  0  0
 10 27  1  0  0  0  0
 10 28  1  0  0  0  0
 11 12  1  0  0  0  0
 12 13  1  0  0  0  0
 12 29  1  0  0  0  0
 12 30  1  0  0  0  0
 13 14  1  0  0  0  0
 13 31  1  0  0  0  0
 14 15  1  0  0  0  0
 14 16  2  0  0  0  0
 15 32  1  0  0  0  0
 15 33  1  0  0  0  0
M  END
> <s_m_source_file>
AV-unprocessed.smi

> <i_m_source_file_index>
2415

> <i_lp_mmshare_version>
43012

> <i_f3d_flags>
0

> <s_epik_input>
W0NIM11jMVtjSF1jKFtDSDNdKW5jKG4xKU4yW0NIMl1bQ0gyXU9bQ0gyXVtDQEhdMkMoPU8pW05IMl0=

> <s_epik_cmdline>
J2VwaWtfcHl0aG9uJywgJy1waCcsICc3LjAnLCAnLXRuJywgJzgnLCAnLW1hJywgJzIwMCcsICctbWV0YWxfYmluZGluZycsICctaW1hZScsICc8aW5maWxlLm1hZT4nLCAnLW9tYWUnLCAnPG91dGZpbGUubWFlPic=

> <r_lp_tautomer_probability>
1

> <r_epik_Ionization_Penalty>
2.01639e-05

> <r_epik_Ionization_Penalty_Charging>
0

> <r_epik_Ionization_Penalty_Neutral>
2.01639e-05

> <r_epik_State_Penalty>
-0

> <r_epik_Charging_Adjusted_Penalty>
0

> <i_epik_Tot_Q>
0

> <i_epik_Tot_abs_Q>
0

> <r_epik_Metal_State_Penalty>
-0

> <b_epik_Metal_Only>
0

> <s_lp_Force_Field>
OPLS_2005

> <r_lp_Energy>
9.24332

> <b_lp_Chiralities_Consistent>
1

> <s_lp_Variant>
AV-unprocessed.smi:2415-2

> <Gold.Version>
5.8.1

> <Gold.Id.Protein>
6NUR|6NUR_protein|mol2

> <Gold.PLP.Fitness>
41.8036

> <Gold.PLP.PLP>
-35.9094

> <Gold.PLP.part.hbond>
-1.7522

> <Gold.PLP.part.metal>
0.0000

> <Gold.PLP.part.buried>
-4.2107

> <Gold.PLP.part.nonpolar>
-29.9987

> <Gold.PLP.part.repulsive>
0.2397

> <Gold.PLP.ligand.clash>
0.0542

> <Gold.PLP.ligand.torsion>
0.2332

> <Gold.PLP.Chemscore.Hbond>
1.9920

> <Gold.PLP.Chemscore.CHOScore>
0.0000

> <Gold.PLP.Chemscore.Metal>
0.0000

> <Gold.Chemscore.Hbonds>
donor molecule, donor type, donor heavy atom, donor atom, acceptor molecule, acceptor atom, score
      P1  H  7989  7998       L1    11  1.00
      P1  H  7997  8008       L1    16  0.99

> <Gold.PLP.Chemscore.Internal.Correction>
0.4388

> <Gold.Rescore>
     Score         DG    S(hbond)    S(metal)    S(lipo)     H(rot)  DE(clash)    DE(int)     intcor
     15.68     -17.46       1.65        0.00      86.91       1.44       0.14       1.63       ----

> <Gold.Chemscore.Fitness>
15.6836

> <Gold.Chemscore.DG>
-17.4563

> <Gold.Chemscore.ZeroCoef>
-5.4800

> <Gold.Chemscore.Hbond>
1.6463

> <Gold.Chemscore.Metal>
0.0000

> <Gold.Chemscore.Lipo>
86.9134

> <Gold.Chemscore.Internal_Hbond>
0.0000

> <Gold.Chemscore.DEClash>
0.1423

> <Gold.Chemscore.DEInternal>
1.6304

> <Gold.Chemscore.Rot>
1.4419

> <Gold.Chemscore.Internal.Correction>
   9.000000E+99

> <Gold.Chemscore.Hbonds>
donor molecule, donor type, donor heavy atom, donor atom, acceptor molecule, acceptor atom, score
      P1  H  7989  7998       L1    11  0.62
      P1  H  7997  8008       L1    16  0.57

> <Gold.Chemscore.Hbond.Weighted>
-5.4986

> <Gold.Chemscore.Metal.Weighted>
-0.0000

> <Gold.Chemscore.Lipo.Weighted>
-10.1689

> <Gold.Chemscore.Internal_Hbond.Weighted>
0.0000

> <Gold.Chemscore.DEClash.Weighted>
0.1423

> <Gold.Chemscore.DEInternal.Weighted>
1.6304

> <Gold.Chemscore.Rot.Weighted>
3.6912

> <Gold.Chemscore.Internal.Correction.Weighted>
   9.000000E+99

> <Gold.Protein.RotatedTorsions>
[ 6907 6896 6895 6894 ] final  -22.00 input  -60.11 | X-H torsion
[ 7974 7965 7964 7962 ] final  -27.78 input  175.53 | X-H torsion
[ 8008 7997 7996 7995 ] final  -83.20 input   59.86 | X-H torsion
[ 10167 10162 10161 10158 ] final   50.40 input  -65.29 | X-H torsion
[ 10718 10713 10712 10709 ] final  123.80 input   66.30 | X-H torsion
[ 10763 10752 10751 10750 ] final   88.44 input  -60.55 | X-H torsion
[ 11005 11000 10999 10996 ] final   48.38 input  -57.11 | X-H torsion

> <Gold.Protein.ActiveResidues>
 VAL166  LYS551  ARG553  GLY616  TRP617  ASP618  TYR619  PRO620  LYS621  CYS622 
 ASP623  PHE694  ASN695  SER759  ASP760  ASP761  ALA762  ILE779  LEU786  VAL792 
 PHE793  MET794  SER795  GLU796  ALA797  LYS798  CYS799  TRP800  GLU811  SER814 

> <Gold.Protein.RotatedAtoms>
  151.2250  135.0533  159.8964 H   0  0  0  0  0  0  0  0  0  0  0  0  # atno 6907 bound_to 6896
  152.5411  134.0599  159.8158 H   0  0  0  0  0  0  0  0  0  0  0  0  # atno 6908 bound_to 6896
  151.0771  133.5371  159.2655 H   0  0  0  0  0  0  0  0  0  0  0  0  # atno 6909 bound_to 6896
  146.1334  140.5196  142.8683 H   0  0  0  0  0  0  0  0  0  0  0  0  # atno 7974 bound_to 7965
  154.6165  140.0622  156.9561 H   0  0  0  0  0  0  0  0  0  0  0  0  # atno 8008 bound_to 7997
  155.1887  140.3305  155.4344 H   0  0  0  0  0  0  0  0  0  0  0  0  # atno 8009 bound_to 7997
  156.2407  140.1885  156.6978 H   0  0  0  0  0  0  0  0  0  0  0  0  # atno 8010 bound_to 7997
  140.2728  144.3245  150.6285 H   0  0  0  0  0  0  0  0  0  0  0  0  # atno 10167 bound_to 10162
  157.5636  131.1088  150.8495 H   0  0  0  0  0  0  0  0  0  0  0  0  # atno 10718 bound_to 10713
  153.1768  135.4507  154.9976 H   0  0  0  0  0  0  0  0  0  0  0  0  # atno 10763 bound_to 10752
  154.8004  135.3253  154.7567 H   0  0  0  0  0  0  0  0  0  0  0  0  # atno 10764 bound_to 10752
  153.8036  135.6960  153.4906 H   0  0  0  0  0  0  0  0  0  0  0  0  # atno 10765 bound_to 10752
  140.1196  134.4847  155.8609 H   0  0  0  0  0  0  0  0  0  0  0  0  # atno 11005 bound_to 11000
  144.7714  140.5646  143.6667 LP  0  0  0  0  0  0  0  0  0  0  0  0  # atno 17320 bound_to 7965
  145.5210  139.1476  143.3552 LP  0  0  0  0  0  0  0  0  0  0  0  0  # atno 17321 bound_to 7965
  140.5875  143.2169  151.7314 LP  0  0  0  0  0  0  0  0  0  0  0  0  # atno 17342 bound_to 10162
  139.4984  144.3988  152.0203 LP  0  0  0  0  0  0  0  0  0  0  0  0  # atno 17343 bound_to 10162
  156.8986  130.5238  149.5283 LP  0  0  0  0  0  0  0  0  0  0  0  0  # atno 17370 bound_to 10713
  156.0686  130.5724  150.9338 LP  0  0  0  0  0  0  0  0  0  0  0  0  # atno 17371 bound_to 10713
  141.2149  133.6756  156.6862 LP  0  0  0  0  0  0  0  0  0  0  0  0  # atno 17394 bound_to 11000
  140.2983  134.8185  157.4076 LP  0  0  0  0  0  0  0  0  0  0  0  0  # atno 17395 bound_to 11000

$$$$
