AV-unprocessed.smi:210|AV-procd|sdf|1613|dock8
  -GOLD-   2262019533D 1   1.00000     0.00000
 Structure written by MMmdl.
 57 61  0  0  0  0  0  0  0  0  1 V2000
  151.8930  145.4301  159.5336 C   0  0  0  0  0  0  0  0  0  0  0  0
  151.0632  144.6228  158.7167 O   0  0  0  0  0  0  0  0  0  0  0  0
  151.7884  143.6228  158.0185 C   0  0  2  0  0  0  0  0  0  0  0  0
  150.9148  142.5579  157.3390 C   0  0  0  0  0  0  0  0  0  0  0  0
  151.9706  141.5321  157.7880 C   0  0  2  0  0  0  0  0  0  0  0  0
  151.4673  140.2108  158.1954 N   0  0  0  0  0  0  0  0  0  0  0  0
  152.1436  139.3898  159.1975 C   0  0  0  0  0  0  0  0  0  0  0  0
  150.6552  139.5886  157.2979 C   0  0  0  0  0  0  0  0  0  0  0  0
  150.6109  140.0874  156.0342 N   0  0  0  0  0  0  0  0  0  0  0  0
  149.8350  139.5226  155.1056 C   0  0  0  0  0  0  0  0  0  0  0  0
  149.0375  138.4601  155.2195 N   0  0  0  0  0  0  0  0  0  0  0  0
  149.0839  137.9402  156.4790 C   0  0  0  0  0  0  0  0  0  0  0  0
  149.8520  138.4391  157.5715 C   0  0  0  0  0  0  0  0  0  0  0  0
  149.6343  137.6417  158.6910 N   0  0  0  0  0  0  0  0  0  0  0  0
  148.7791  136.7426  158.2904 C   0  0  0  0  0  0  0  0  0  0  0  0
  148.4162  136.8298  156.9666 N   0  0  0  0  0  0  0  0  0  0  0  0
  147.4712  135.9979  156.2804 C   0  0  0  0  0  0  0  0  0  0  0  0
  147.7631  134.5173  156.0118 C   0  0  0  0  0  0  0  0  0  0  0  0
  146.9570  134.6106  154.6955 C   0  0  0  0  0  0  0  0  0  0  0  0
  147.5199  133.8409  153.4843 C   0  0  0  0  0  0  0  0  0  0  0  0
  147.0348  134.3368  152.2528 O   0  0  0  0  0  0  0  0  0  0  0  0
  145.4745  134.2157  154.8362 C   0  0  0  0  0  0  0  0  0  0  0  0
  145.3290  132.8531  155.1819 O   0  0  0  0  0  0  0  0  0  0  0  0
  147.2501  136.1273  154.7705 C   0  0  0  0  0  0  0  0  0  0  0  0
  152.3330  142.5034  158.9309 C   0  0  0  0  0  0  0  0  0  0  0  0
  151.8317  142.3464  160.3804 C   0  0  0  0  0  0  0  0  0  0  0  0
  153.1371  143.0039  160.8388 C   0  0  0  0  0  0  0  0  0  0  0  0
  153.7552  142.5918  159.4983 C   0  0  0  0  0  0  0  0  0  0  0  0
  151.2844  146.1664  160.0584 H   0  0  0  0  0  0  0  0  0  0  0  0
  152.6324  145.9683  158.9396 H   0  0  0  0  0  0  0  0  0  0  0  0
  152.4134  144.8298  160.2806 H   0  0  0  0  0  0  0  0  0  0  0  0
  152.5606  144.0237  157.3580 H   0  0  0  0  0  0  0  0  0  0  0  0
  149.9413  142.4799  157.8236 H   0  0  0  0  0  0  0  0  0  0  0  0
  150.8192  142.6719  156.2591 H   0  0  0  0  0  0  0  0  0  0  0  0
  152.7708  141.4842  157.0470 H   0  0  0  0  0  0  0  0  0  0  0  0
  151.5493  138.5151  159.4626 H   0  0  0  0  0  0  0  0  0  0  0  0
  152.2845  139.9509  160.1207 H   0  0  0  0  0  0  0  0  0  0  0  0
  153.1185  139.0548  158.8442 H   0  0  0  0  0  0  0  0  0  0  0  0
  149.8577  139.9875  154.1312 H   0  0  0  0  0  0  0  0  0  0  0  0
  148.3943  135.9817  158.9537 H   0  0  0  0  0  0  0  0  0  0  0  0
  146.5281  136.1133  156.8172 H   0  0  0  0  0  0  0  0  0  0  0  0
  148.8270  134.3262  155.8636 H   0  0  0  0  0  0  0  0  0  0  0  0
  147.3497  133.8354  156.7556 H   0  0  0  0  0  0  0  0  0  0  0  0
  148.6088  133.8961  153.4611 H   0  0  0  0  0  0  0  0  0  0  0  0
  147.2597  132.7832  153.5359 H   0  0  0  0  0  0  0  0  0  0  0  0
  147.7235  134.8320  151.8364 H   0  0  0  0  0  0  0  0  0  0  0  0
  144.9771  134.8237  155.5928 H   0  0  0  0  0  0  0  0  0  0  0  0
  144.9300  134.3820  153.9067 H   0  0  0  0  0  0  0  0  0  0  0  0
  144.4831  132.5556  154.8831 H   0  0  0  0  0  0  0  0  0  0  0  0
  146.4165  136.7736  154.4940 H   0  0  0  0  0  0  0  0  0  0  0  0
  148.1589  136.4238  154.2442 H   0  0  0  0  0  0  0  0  0  0  0  0
  150.9270  142.9013  160.6288 H   0  0  0  0  0  0  0  0  0  0  0  0
  151.7674  141.3117  160.7156 H   0  0  0  0  0  0  0  0  0  0  0  0
  153.0480  144.0861  160.9471 H   0  0  0  0  0  0  0  0  0  0  0  0
  153.5977  142.5448  161.7137 H   0  0  0  0  0  0  0  0  0  0  0  0
  154.2527  141.6218  159.5448 H   0  0  0  0  0  0  0  0  0  0  0  0
  154.3890  143.3491  159.0359 H   0  0  0  0  0  0  0  0  0  0  0  0
  1  2  1  0  0  0  0
  1 29  1  0  0  0  0
  1 30  1  0  0  0  0
  1 31  1  0  0  0  0
  2  3  1  0  0  0  0
  3 25  1  0  0  0  0
  3  4  1  0  0  0  0
  3 32  1  0  0  0  0
  4  5  1  0  0  0  0
  4 33  1  0  0  0  0
  4 34  1  0  0  0  0
  5  6  1  0  0  0  0
  5 25  1  0  0  0  0
  5 35  1  0  0  0  0
  6  7  1  0  0  0  0
  6  8  1  0  0  0  0
  7 36  1  0  0  0  0
  7 37  1  0  0  0  0
  7 38  1  0  0  0  0
  8 13  1  0  0  0  0
  8  9  2  0  0  0  0
  9 10  1  0  0  0  0
 10 11  2  0  0  0  0
 10 39  1  0  0  0  0
 11 12  1  0  0  0  0
 12 16  1  0  0  0  0
 12 13  2  0  0  0  0
 13 14  1  0  0  0  0
 14 15  2  0  0  0  0
 15 16  1  0  0  0  0
 15 40  1  0  0  0  0
 16 17  1  0  0  0  0
 17 24  1  0  0  0  0
 17 18  1  0  0  0  0
 17 41  1  0  0  0  0
 18 19  1  0  0  0  0
 18 42  1  0  0  0  0
 18 43  1  0  0  0  0
 19 20  1  0  0  0  0
 19 22  1  0  0  0  0
 19 24  1  0  0  0  0
 20 21  1  0  0  0  0
 20 44  1  0  0  0  0
 20 45  1  0  0  0  0
 21 46  1  0  0  0  0
 22 23  1  0  0  0  0
 22 47  1  0  0  0  0
 22 48  1  0  0  0  0
 23 49  1  0  0  0  0
 24 50  1  0  0  0  0
 24 51  1  0  0  0  0
 25 28  1  0  0  0  0
 25 26  1  0  0  0  0
 26 27  1  0  0  0  0
 26 52  1  0  0  0  0
 26 53  1  0  0  0  0
 27 28  1  0  0  0  0
 27 54  1  0  0  0  0
 27 55  1  0  0  0  0
 28 56  1  0  0  0  0
 28 57  1  0  0  0  0
M  END
> <s_m_source_file>
AV-unprocessed.smi

> <i_m_source_file_index>
210

> <i_lp_mmshare_version>
43012

> <i_f3d_flags>
0

> <s_epik_input>
W0NIMl0xW0NIMl1bQ0gyXUMxMltDQEhdKE9bQ0gzXSlbQ0gyXVtDQEhdMk4oW0NIM10pYyhuW2NIXW4zKWMoYzM0KW5bY0hdbjRbQ0hdKFtDSDJdNSlbQ0gyXUM1KFtDSDJdW09IXSlbQ0gyXVtPSF0=

> <s_epik_cmdline>
J2VwaWtfcHl0aG9uJywgJy1waCcsICc3LjAnLCAnLXRuJywgJzgnLCAnLW1hJywgJzIwMCcsICctbWV0YWxfYmluZGluZycsICctaW1hZScsICc8aW5maWxlLm1hZT4nLCAnLW9tYWUnLCAnPG91dGZpbGUubWFlPic=

> <r_lp_tautomer_probability>
1

> <r_epik_Ionization_Penalty>
0.00313676

> <r_epik_Ionization_Penalty_Charging>
0

> <r_epik_Ionization_Penalty_Neutral>
0.00313676

> <r_epik_State_Penalty>
0.00199132

> <r_epik_Charging_Adjusted_Penalty>
0.00199132

> <i_epik_Tot_Q>
0

> <i_epik_Tot_abs_Q>
0

> <r_epik_Metal_State_Penalty>
-0

> <b_epik_Metal_Only>
0

> <s_lp_Force_Field>
OPLS_2005

> <r_lp_Energy>
62.7777

> <b_lp_Chiralities_Consistent>
1

> <s_lp_Variant>
AV-unprocessed.smi:210-3

> <Gold.Version>
5.8.1

> <Gold.Id.Protein>
6NUR|6NUR_protein|mol2

> <Gold.PLP.Fitness>
40.9637

> <Gold.PLP.PLP>
-35.7624

> <Gold.PLP.part.hbond>
-2.0000

> <Gold.PLP.part.metal>
0.0000

> <Gold.PLP.part.buried>
-5.0764

> <Gold.PLP.part.nonpolar>
-28.7725

> <Gold.PLP.part.repulsive>
0.2243

> <Gold.PLP.ligand.clash>
0.0000

> <Gold.PLP.ligand.torsion>
1.1305

> <Gold.PLP.Chemscore.Hbond>
2.0000

> <Gold.PLP.Chemscore.CHOScore>
0.0000

> <Gold.PLP.Chemscore.Metal>
0.0000

> <Gold.Chemscore.Hbonds>
donor molecule, donor type, donor heavy atom, donor atom, acceptor molecule, acceptor atom, score
      L1  H    21    46       P1  7948  1.00
      L1  H    23    49       P1 10957  1.00

> <Gold.PLP.Chemscore.Internal.Correction>
1.4624

> <Gold.Rescore>
     Score         DG    S(hbond)    S(metal)    S(lipo)     H(rot)  DE(clash)    DE(int)     intcor
     10.82     -15.45       1.94        0.00     101.65       3.29       0.18       4.45       ----

> <Gold.Chemscore.Fitness>
10.8176

> <Gold.Chemscore.DG>
-15.4508

> <Gold.Chemscore.ZeroCoef>
-5.4800

> <Gold.Chemscore.Hbond>
1.9439

> <Gold.Chemscore.Metal>
0.0000

> <Gold.Chemscore.Lipo>
101.6489

> <Gold.Chemscore.Internal_Hbond>
0.0000

> <Gold.Chemscore.DEClash>
0.1788

> <Gold.Chemscore.DEInternal>
4.4545

> <Gold.Chemscore.Rot>
3.2870

> <Gold.Chemscore.Internal.Correction>
   9.000000E+99

> <Gold.Chemscore.Hbonds>
donor molecule, donor type, donor heavy atom, donor atom, acceptor molecule, acceptor atom, score
      L1  H    21    46       P1  7948  0.48
      L1  H    23    49       P1 10957  0.94

> <Gold.Chemscore.Hbond.Weighted>
-6.4926

> <Gold.Chemscore.Metal.Weighted>
-0.0000

> <Gold.Chemscore.Lipo.Weighted>
-11.8929

> <Gold.Chemscore.Internal_Hbond.Weighted>
0.0000

> <Gold.Chemscore.DEClash.Weighted>
0.1788

> <Gold.Chemscore.DEInternal.Weighted>
4.4545

> <Gold.Chemscore.Rot.Weighted>
8.4147

> <Gold.Chemscore.Internal.Correction.Weighted>
   9.000000E+99

> <Gold.Protein.RotatedTorsions>
[ 6907 6896 6895 6894 ] final -162.19 input  -60.11 | X-H torsion
[ 7974 7965 7964 7962 ] final  -81.33 input  175.53 | X-H torsion
[ 8008 7997 7996 7995 ] final   41.10 input   59.86 | X-H torsion
[ 10167 10162 10161 10158 ] final   49.43 input  -65.29 | X-H torsion
[ 10718 10713 10712 10709 ] final  -82.92 input   66.30 | X-H torsion
[ 10763 10752 10751 10750 ] final  -62.13 input  -60.55 | X-H torsion
[ 11005 11000 10999 10996 ] final   85.96 input  -57.11 | X-H torsion

> <Gold.Protein.ActiveResidues>
 VAL166  LYS551  ARG553  GLY616  TRP617  ASP618  TYR619  PRO620  LYS621  CYS622 
 ASP623  PHE694  ASN695  SER759  ASP760  ASP761  ALA762  ILE779  LEU786  VAL792 
 PHE793  MET794  SER795  GLU796  ALA797  LYS798  CYS799  TRP800  GLU811  SER814 

> <Gold.Protein.RotatedAtoms>
  151.3764  133.3836  159.2705 H   0  0  0  0  0  0  0  0  0  0  0  0  # atno 6907 bound_to 6896
  150.9611  134.8999  159.7741 H   0  0  0  0  0  0  0  0  0  0  0  0  # atno 6908 bound_to 6896
  152.5149  134.3723  159.9375 H   0  0  0  0  0  0  0  0  0  0  0  0  # atno 6909 bound_to 6896
  145.5480  140.9500  143.1514 H   0  0  0  0  0  0  0  0  0  0  0  0  # atno 7974 bound_to 7965
  155.2641  140.3361  155.4270 H   0  0  0  0  0  0  0  0  0  0  0  0  # atno 8008 bound_to 7997
  156.2161  140.1790  156.7627 H   0  0  0  0  0  0  0  0  0  0  0  0  # atno 8009 bound_to 7997
  154.5756  140.0662  156.9014 H   0  0  0  0  0  0  0  0  0  0  0  0  # atno 8010 bound_to 7997
  140.2830  144.3135  150.6259 H   0  0  0  0  0  0  0  0  0  0  0  0  # atno 10167 bound_to 10162
  156.0026  130.4649  150.4179 H   0  0  0  0  0  0  0  0  0  0  0  0  # atno 10718 bound_to 10713
  154.2952  135.6245  153.5401 H   0  0  0  0  0  0  0  0  0  0  0  0  # atno 10763 bound_to 10752
  152.9847  135.5665  154.5346 H   0  0  0  0  0  0  0  0  0  0  0  0  # atno 10764 bound_to 10752
  154.4965  135.2870  155.1431 H   0  0  0  0  0  0  0  0  0  0  0  0  # atno 10765 bound_to 10752
  139.8957  134.8322  156.2654 H   0  0  0  0  0  0  0  0  0  0  0  0  # atno 11005 bound_to 11000
  144.7543  139.7113  143.7260 LP  0  0  0  0  0  0  0  0  0  0  0  0  # atno 17320 bound_to 7965
  146.1936  139.5190  142.9789 LP  0  0  0  0  0  0  0  0  0  0  0  0  # atno 17321 bound_to 7965
  140.5796  143.2174  151.7452 LP  0  0  0  0  0  0  0  0  0  0  0  0  # atno 17342 bound_to 10162
  139.4958  144.4099  152.0091 LP  0  0  0  0  0  0  0  0  0  0  0  0  # atno 17343 bound_to 10162
  157.2237  131.0488  151.2532 LP  0  0  0  0  0  0  0  0  0  0  0  0  # atno 17370 bound_to 10713
  157.3776  130.7214  149.6608 LP  0  0  0  0  0  0  0  0  0  0  0  0  # atno 17371 bound_to 10713
  141.0135  133.7082  156.1150 LP  0  0  0  0  0  0  0  0  0  0  0  0  # atno 17394 bound_to 11000
  140.7334  134.4229  157.5563 LP  0  0  0  0  0  0  0  0  0  0  0  0  # atno 17395 bound_to 11000

$$$$
