AV-unprocessed.smi:1055|AV-procd|sdf|4624|dock2
  -GOLD-   22720 3123D 1   1.00000     0.00000
 Structure written by MMmdl.
 52 53  0  0  0  0  0  0  0  0  3 V2000
  146.4022  133.5131  150.6991 C   0  0  0  0  0  0  0  0  0  0  0  0
  145.2115  134.0945  150.9210 C   0  0  0  0  0  0  0  0  0  0  0  0
  143.9322  133.2869  151.0359 C   0  0  0  0  0  0  0  0  0  0  0  0
  145.0628  135.6009  151.0663 C   0  0  0  0  0  0  0  0  0  0  0  0
  146.0265  136.1565  152.0489 N   0  3  2  0  0  0  0  0  0  0  0  0
  145.9087  135.5100  153.3800 C   0  0  0  0  0  0  0  0  0  0  0  0
  147.0203  135.9891  154.3283 C   0  0  0  0  0  0  0  0  0  0  0  0
  147.0107  137.5231  154.4703 C   0  0  1  0  0  0  0  0  0  0  0  0
  148.1346  137.9797  155.2836 N   0  0  0  0  0  0  0  0  0  0  0  0
  148.2997  139.2293  155.7410 C   0  0  0  0  0  0  0  0  0  0  0  0
  147.5008  140.1394  155.5239 O   0  0  0  0  0  0  0  0  0  0  0  0
  149.4273  139.3360  156.4660 N   0  0  0  0  0  0  0  0  0  0  0  0
  149.9642  140.4778  157.1223 C   0  0  0  0  0  0  0  0  0  0  0  0
  150.8879  140.2578  158.1656 C   0  0  0  0  0  0  0  0  0  0  0  0
  151.4595  141.3544  158.8428 C   0  0  0  0  0  0  0  0  0  0  0  0
  151.1077  142.6745  158.4693 C   0  0  0  0  0  0  0  0  0  0  0  0
  151.6369  143.8229  159.0973 N   0  0  0  0  0  0  0  0  0  0  0  0
  151.0547  145.1319  158.8228 C   0  0  0  0  0  0  0  0  0  0  0  0
  152.6802  143.6810  160.1048 C   0  0  0  0  0  0  0  0  0  0  0  0
  150.2230  142.8362  157.4552 N   0  3  0  0  0  0  0  0  0  0  0  0
  149.6517  141.8155  156.7802 C   0  0  0  0  0  0  0  0  0  0  0  0
  147.0818  138.1693  153.0767 C   0  0  0  0  0  0  0  0  0  0  0  0
  145.9710  137.6387  152.1547 C   0  0  0  0  0  0  0  0  0  0  0  0
  146.4924  132.4414  150.5956 H   0  0  0  0  0  0  0  0  0  0  0  0
  147.3064  134.0986  150.6173 H   0  0  0  0  0  0  0  0  0  0  0  0
  143.2114  133.6106  150.2846 H   0  0  0  0  0  0  0  0  0  0  0  0
  143.4833  133.4156  152.0210 H   0  0  0  0  0  0  0  0  0  0  0  0
  144.1190  132.2225  150.8879 H   0  0  0  0  0  0  0  0  0  0  0  0
  145.1886  136.0982  150.1030 H   0  0  0  0  0  0  0  0  0  0  0  0
  144.0407  135.8006  151.3911 H   0  0  0  0  0  0  0  0  0  0  0  0
  144.9283  135.7272  153.8072 H   0  0  0  0  0  0  0  0  0  0  0  0
  145.9743  134.4268  153.2708 H   0  0  0  0  0  0  0  0  0  0  0  0
  146.8945  135.5174  155.3035 H   0  0  0  0  0  0  0  0  0  0  0  0
  147.9879  135.6577  153.9481 H   0  0  0  0  0  0  0  0  0  0  0  0
  146.0778  137.8329  154.9457 H   0  0  0  0  0  0  0  0  0  0  0  0
  148.8395  137.2935  155.5107 H   0  0  0  0  0  0  0  0  0  0  0  0
  149.9507  138.4822  156.5931 H   0  0  0  0  0  0  0  0  0  0  0  0
  151.1593  139.2522  158.4523 H   0  0  0  0  0  0  0  0  0  0  0  0
  152.1626  141.1624  159.6394 H   0  0  0  0  0  0  0  0  0  0  0  0
  151.0683  145.3441  157.7533 H   0  0  0  0  0  0  0  0  0  0  0  0
  151.6098  145.9252  159.3236 H   0  0  0  0  0  0  0  0  0  0  0  0
  150.0226  145.1716  159.1721 H   0  0  0  0  0  0  0  0  0  0  0  0
  153.5827  143.2568  159.6639 H   0  0  0  0  0  0  0  0  0  0  0  0
  152.3475  143.0308  160.9145 H   0  0  0  0  0  0  0  0  0  0  0  0
  152.9437  144.6453  160.5400 H   0  0  0  0  0  0  0  0  0  0  0  0
  148.9798  142.1206  155.9929 H   0  0  0  0  0  0  0  0  0  0  0  0
  147.0007  139.2536  153.1626 H   0  0  0  0  0  0  0  0  0  0  0  0
  148.0530  137.9668  152.6223 H   0  0  0  0  0  0  0  0  0  0  0  0
  146.0837  138.0921  151.1696 H   0  0  0  0  0  0  0  0  0  0  0  0
  144.9928  137.9420  152.5311 H   0  0  0  0  0  0  0  0  0  0  0  0
  146.9459  135.9221  151.7026 H   0  0  0  0  0  0  0  0  0  0  0  0
  149.9739  143.7871  157.1820 H   0  0  0  0  0  0  0  0  0  0  0  0
  1  2  2  0  0  0  0
  1 24  1  0  0  0  0
  1 25  1  0  0  0  0
  2  3  1  0  0  0  0
  2  4  1  0  0  0  0
  3 26  1  0  0  0  0
  3 27  1  0  0  0  0
  3 28  1  0  0  0  0
  4  5  1  0  0  0  0
  4 29  1  0  0  0  0
  4 30  1  0  0  0  0
  5 23  1  0  0  0  0
  5  6  1  0  0  0  0
  5 51  1  0  0  0  0
  6  7  1  0  0  0  0
  6 31  1  0  0  0  0
  6 32  1  0  0  0  0
  7  8  1  0  0  0  0
  7 33  1  0  0  0  0
  7 34  1  0  0  0  0
  8  9  1  0  0  0  0
  8 22  1  0  0  0  0
  8 35  1  0  0  0  0
  9 10  1  0  0  0  0
  9 36  1  0  0  0  0
 10 11  2  0  0  0  0
 10 12  1  0  0  0  0
 12 13  1  0  0  0  0
 12 37  1  0  0  0  0
 13 21  1  0  0  0  0
 13 14  2  0  0  0  0
 14 15  1  0  0  0  0
 14 38  1  0  0  0  0
 15 16  2  0  0  0  0
 15 39  1  0  0  0  0
 16 17  1  0  0  0  0
 16 20  1  0  0  0  0
 17 18  1  0  0  0  0
 17 19  1  0  0  0  0
 18 40  1  0  0  0  0
 18 41  1  0  0  0  0
 18 42  1  0  0  0  0
 19 43  1  0  0  0  0
 19 44  1  0  0  0  0
 19 45  1  0  0  0  0
 20 21  2  0  0  0  0
 20 52  1  0  0  0  0
 21 46  1  0  0  0  0
 22 23  1  0  0  0  0
 22 47  1  0  0  0  0
 22 48  1  0  0  0  0
 23 49  1  0  0  0  0
 23 50  1  0  0  0  0
M  CHG  1   5   1
M  CHG  1  20   1
M  END
> <s_m_source_file>
AV-unprocessed.smi

> <i_m_source_file_index>
1055

> <i_lp_mmshare_version>
43012

> <i_f3d_flags>
0

> <s_epik_input>
W0NIMl09QyhbQ0gzXSlbQ0gyXU4xW0NIMl1bQ0gyXVtDSF0oW0NIMl1bQ0gyXTEpW05IXUMoPU8pW05IXWMyW2NIXVtjSF1jKE4oW0NIM10pW0NIM10pbltjSF0y

> <s_epik_cmdline>
J2VwaWtfcHl0aG9uJywgJy1waCcsICc3LjAnLCAnLXRuJywgJzgnLCAnLW1hJywgJzIwMCcsICctbWV0YWxfYmluZGluZycsICctaW1hZScsICc8aW5maWxlLm1hZT4nLCAnLW9tYWUnLCAnPG91dGZpbGUubWFlPic=

> <r_lp_tautomer_probability>
0.999994

> <r_epik_Ionization_Penalty>
0.344238

> <r_epik_Ionization_Penalty_Charging>
0.344219

> <r_epik_Ionization_Penalty_Neutral>
1.87459e-05

> <r_epik_State_Penalty>
0.320654

> <r_epik_Charging_Adjusted_Penalty>
0.664873

> <i_epik_Tot_Q>
2

> <i_epik_Tot_abs_Q>
2

> <r_epik_Metal_State_Penalty>
0.58246

> <b_epik_Metal_Only>
0

> <s_lp_Force_Field>
OPLS_2005

> <r_lp_Energy>
26.1172

> <b_lp_Chiralities_Consistent>
1

> <s_lp_Variant>
AV-unprocessed.smi:1055-1

> <Gold.Version>
5.8.1

> <Gold.Id.Protein>
6NUR|6NUR_protein|mol2

> <Gold.PLP.Fitness>
44.5234

> <Gold.PLP.PLP>
-34.6513

> <Gold.PLP.part.hbond>
-2.0000

> <Gold.PLP.part.metal>
0.0000

> <Gold.PLP.part.buried>
-2.2151

> <Gold.PLP.part.nonpolar>
-31.4698

> <Gold.PLP.part.repulsive>
0.0638

> <Gold.PLP.ligand.clash>
0.0000

> <Gold.PLP.ligand.torsion>
0.3092

> <Gold.PLP.Chemscore.Hbond>
3.4560

> <Gold.PLP.Chemscore.CHOScore>
0.0000

> <Gold.PLP.Chemscore.Metal>
0.0000

> <Gold.Chemscore.Hbonds>
donor molecule, donor type, donor heavy atom, donor atom, acceptor molecule, acceptor atom, score
      L1  H     5    51       P1  7948  1.92
      L1  H    20    52       P1  8028  1.37

> <Gold.PLP.Chemscore.Internal.Correction>
0.1226

> <Gold.Rescore>
     Score         DG    S(hbond)    S(metal)    S(lipo)     H(rot)  DE(clash)    DE(int)     intcor
     16.05     -18.24       1.64        0.00      91.66       1.35       0.79       1.40       ----

> <Gold.Chemscore.Fitness>
16.0487

> <Gold.Chemscore.DG>
-18.2398

> <Gold.Chemscore.ZeroCoef>
-5.4800

> <Gold.Chemscore.Hbond>
1.6415

> <Gold.Chemscore.Metal>
0.0000

> <Gold.Chemscore.Lipo>
91.6605

> <Gold.Chemscore.Internal_Hbond>
0.0000

> <Gold.Chemscore.DEClash>
0.7949

> <Gold.Chemscore.DEInternal>
1.3962

> <Gold.Chemscore.Rot>
1.3465

> <Gold.Chemscore.Internal.Correction>
   9.000000E+99

> <Gold.Chemscore.Hbonds>
donor molecule, donor type, donor heavy atom, donor atom, acceptor molecule, acceptor atom, score
      L1  H     5    51       P1  7948  0.89
      L1  H    20    52       P1  8028  0.62

> <Gold.Chemscore.Hbond.Weighted>
-5.4825

> <Gold.Chemscore.Metal.Weighted>
-0.0000

> <Gold.Chemscore.Lipo.Weighted>
-10.7243

> <Gold.Chemscore.Internal_Hbond.Weighted>
0.0000

> <Gold.Chemscore.DEClash.Weighted>
0.7949

> <Gold.Chemscore.DEInternal.Weighted>
1.3962

> <Gold.Chemscore.Rot.Weighted>
3.4470

> <Gold.Chemscore.Internal.Correction.Weighted>
   9.000000E+99

> <Gold.Protein.RotatedTorsions>
[ 6907 6896 6895 6894 ] final    0.60 input  -60.11 | X-H torsion
[ 7974 7965 7964 7962 ] final  152.07 input  175.53 | X-H torsion
[ 8008 7997 7996 7995 ] final -172.91 input   59.86 | X-H torsion
[ 10167 10162 10161 10158 ] final  -24.50 input  -65.29 | X-H torsion
[ 10718 10713 10712 10709 ] final  -71.87 input   66.30 | X-H torsion
[ 10763 10752 10751 10750 ] final   59.77 input  -60.55 | X-H torsion
[ 11005 11000 10999 10996 ] final -139.33 input  -57.11 | X-H torsion

> <Gold.Protein.ActiveResidues>
 VAL166  LYS551  ARG553  GLY616  TRP617  ASP618  TYR619  PRO620  LYS621  CYS622 
 ASP623  PHE694  ASN695  SER759  ASP760  ASP761  ALA762  ILE779  LEU786  VAL792 
 PHE793  MET794  SER795  GLU796  ALA797  LYS798  CYS799  TRP800  GLU811  SER814 

> <Gold.Protein.RotatedAtoms>
  151.5790  135.1059  160.0012 H   0  0  0  0  0  0  0  0  0  0  0  0  # atno 6907 bound_to 6896
  152.4363  133.7363  159.6626 H   0  0  0  0  0  0  0  0  0  0  0  0  # atno 6908 bound_to 6896
  150.8261  133.8099  159.3141 H   0  0  0  0  0  0  0  0  0  0  0  0  # atno 6909 bound_to 6896
  144.8248  139.6621  143.6085 H   0  0  0  0  0  0  0  0  0  0  0  0  # atno 7974 bound_to 7965
  155.9506  140.1125  157.0980 H   0  0  0  0  0  0  0  0  0  0  0  0  # atno 8008 bound_to 7997
  154.4109  140.1201  156.5114 H   0  0  0  0  0  0  0  0  0  0  0  0  # atno 8009 bound_to 7997
  155.6847  140.3473  155.4871 H   0  0  0  0  0  0  0  0  0  0  0  0  # atno 8010 bound_to 7997
  140.7288  143.4347  151.0747 H   0  0  0  0  0  0  0  0  0  0  0  0  # atno 10167 bound_to 10162
  156.0344  130.4360  150.2508 H   0  0  0  0  0  0  0  0  0  0  0  0  # atno 10718 bound_to 10713
  152.9903  135.5560  154.5767 H   0  0  0  0  0  0  0  0  0  0  0  0  # atno 10763 bound_to 10752
  154.5156  135.2805  155.1308 H   0  0  0  0  0  0  0  0  0  0  0  0  # atno 10764 bound_to 10752
  154.2682  135.6368  153.5353 H   0  0  0  0  0  0  0  0  0  0  0  0  # atno 10765 bound_to 10752
  140.8530  134.2262  157.4750 H   0  0  0  0  0  0  0  0  0  0  0  0  # atno 11005 bound_to 11000
  146.2553  139.6289  142.9399 LP  0  0  0  0  0  0  0  0  0  0  0  0  # atno 17320 bound_to 7965
  145.5025  141.0437  143.2532 LP  0  0  0  0  0  0  0  0  0  0  0  0  # atno 17321 bound_to 7965
  139.8008  143.8086  152.3162 LP  0  0  0  0  0  0  0  0  0  0  0  0  # atno 17342 bound_to 10162
  139.8102  144.7339  150.9707 LP  0  0  0  0  0  0  0  0  0  0  0  0  # atno 17343 bound_to 10162
  157.0609  131.0089  151.3223 LP  0  0  0  0  0  0  0  0  0  0  0  0  # atno 17370 bound_to 10713
  157.5071  130.7916  149.7666 LP  0  0  0  0  0  0  0  0  0  0  0  0  # atno 17371 bound_to 10713
  139.8704  134.9693  156.4660 LP  0  0  0  0  0  0  0  0  0  0  0  0  # atno 17394 bound_to 11000
  140.8768  133.7947  155.9424 LP  0  0  0  0  0  0  0  0  0  0  0  0  # atno 17395 bound_to 11000

$$$$
