AV-unprocessed.smi:2624|AV-procd|sdf|10233|dock9
  -GOLD-   2272014243D 1   1.00000     0.00000
 Structure written by MMmdl.
 39 40  0  0  0  0  0  0  0  0  1 V2000
  145.8811  144.0943  153.8019 C   0  0  0  0  0  0  0  0  0  0  0  0
  147.1179  143.4033  153.8221 O   0  0  0  0  0  0  0  0  0  0  0  0
  146.9885  142.0472  153.4310 C   0  0  0  0  0  0  0  0  0  0  0  0
  146.4637  141.2351  154.6243 C   0  0  0  0  0  0  0  0  0  0  0  0
  147.1086  141.6445  155.8791 N   0  0  0  0  0  0  0  0  0  0  0  0
  148.4656  141.3032  156.0384 C   0  0  0  0  0  0  0  0  0  0  0  0
  149.1625  141.6312  157.1423 C   0  0  0  0  0  0  0  0  0  0  0  0
  150.5910  141.2556  157.2703 C   0  0  0  0  0  0  0  0  0  0  0  0
  151.0747  140.3529  156.5859 O   0  0  0  0  0  0  0  0  0  0  0  0
  151.4319  141.9826  158.2659 C   0  0  0  0  0  0  0  0  0  0  0  0
  151.8592  141.2744  159.4119 C   0  0  0  0  0  0  0  0  0  0  0  0
  152.6435  141.9042  160.3990 C   0  0  0  0  0  0  0  0  0  0  0  0
  153.0792  141.1306  161.6261 C   0  0  0  0  0  0  0  0  0  0  0  0
  153.0123  143.2541  160.2420 C   0  0  0  0  0  0  0  0  0  0  0  0
  152.6070  143.9652  159.0977 C   0  0  0  0  0  0  0  0  0  0  0  0
  151.8249  143.3391  158.1064 C   0  0  0  0  0  0  0  0  0  0  0  0
  151.4916  144.0647  156.9961 O   0  0  0  0  0  0  0  0  0  0  0  0
  148.4634  142.3440  158.1936 C   0  0  0  0  0  0  0  0  0  0  0  0
  147.1624  142.6655  158.0509 C   0  0  0  0  0  0  0  0  0  0  0  0
  146.4556  143.3635  159.0732 C   0  0  0  0  0  0  0  0  0  0  0  0
  145.8889  143.9124  159.9201 N   0  0  0  0  0  0  0  0  0  0  0  0
  146.4039  142.3119  156.8427 C   0  0  0  0  0  0  0  0  0  0  0  0
  145.2120  142.5907  156.7009 O   0  0  0  0  0  0  0  0  0  0  0  0
  146.0347  145.1297  154.1053 H   0  0  0  0  0  0  0  0  0  0  0  0
  145.1667  143.6442  154.4924 H   0  0  0  0  0  0  0  0  0  0  0  0
  145.4471  144.0978  152.8014 H   0  0  0  0  0  0  0  0  0  0  0  0
  146.3022  141.9688  152.5862 H   0  0  0  0  0  0  0  0  0  0  0  0
  147.9560  141.6587  153.1085 H   0  0  0  0  0  0  0  0  0  0  0  0
  145.3822  141.3574  154.6993 H   0  0  0  0  0  0  0  0  0  0  0  0
  146.6144  140.1693  154.4441 H   0  0  0  0  0  0  0  0  0  0  0  0
  148.8953  140.7647  155.2049 H   0  0  0  0  0  0  0  0  0  0  0  0
  151.5755  140.2398  159.5455 H   0  0  0  0  0  0  0  0  0  0  0  0
  153.9225  141.6153  162.1192 H   0  0  0  0  0  0  0  0  0  0  0  0
  153.3830  140.1192  161.3542 H   0  0  0  0  0  0  0  0  0  0  0  0
  152.2574  141.0632  162.3392 H   0  0  0  0  0  0  0  0  0  0  0  0
  153.6116  143.7468  160.9937 H   0  0  0  0  0  0  0  0  0  0  0  0
  152.9068  144.9965  158.9795 H   0  0  0  0  0  0  0  0  0  0  0  0
  150.5582  144.1411  156.8698 H   0  0  0  0  0  0  0  0  0  0  0  0
  148.9764  142.6180  159.1042 H   0  0  0  0  0  0  0  0  0  0  0  0
  1  2  1  0  0  0  0
  1 24  1  0  0  0  0
  1 25  1  0  0  0  0
  1 26  1  0  0  0  0
  2  3  1  0  0  0  0
  3  4  1  0  0  0  0
  3 27  1  0  0  0  0
  3 28  1  0  0  0  0
  4  5  1  0  0  0  0
  4 29  1  0  0  0  0
  4 30  1  0  0  0  0
  5 22  1  0  0  0  0
  5  6  1  0  0  0  0
  6  7  2  0  0  0  0
  6 31  1  0  0  0  0
  7  8  1  0  0  0  0
  7 18  1  0  0  0  0
  8  9  2  0  0  0  0
  8 10  1  0  0  0  0
 10 16  1  0  0  0  0
 10 11  2  0  0  0  0
 11 12  1  0  0  0  0
 11 32  1  0  0  0  0
 12 13  1  0  0  0  0
 12 14  2  0  0  0  0
 13 33  1  0  0  0  0
 13 34  1  0  0  0  0
 13 35  1  0  0  0  0
 14 15  1  0  0  0  0
 14 36  1  0  0  0  0
 15 16  2  0  0  0  0
 15 37  1  0  0  0  0
 16 17  1  0  0  0  0
 17 38  1  0  0  0  0
 18 19  2  0  0  0  0
 18 39  1  0  0  0  0
 19 20  1  0  0  0  0
 19 22  1  0  0  0  0
 20 21  3  0  0  0  0
 22 23  2  0  0  0  0
M  END
> <s_m_source_file>
AV-unprocessed.smi

> <i_m_source_file_index>
2624

> <i_lp_mmshare_version>
43012

> <i_f3d_flags>
0

> <s_epik_input>
W0NIM11PW0NIMl1bQ0gyXW4xW2NIXWMoW2NIXWMoQyNOKWMxPU8pQyg9TyljMltjSF1jKFtDSDNdKVtjSF1bY0hdYzJbT0hd

> <s_epik_cmdline>
J2VwaWtfcHl0aG9uJywgJy1waCcsICc3LjAnLCAnLXRuJywgJzgnLCAnLW1hJywgJzIwMCcsICctbWV0YWxfYmluZGluZycsICctaW1hZScsICc8aW5maWxlLm1hZT4nLCAnLW9tYWUnLCAnPG91dGZpbGUubWFlPic=

> <r_epik_Ionization_Penalty>
0.124493

> <r_epik_Ionization_Penalty_Charging>
5.62591e-11

> <r_epik_Ionization_Penalty_Neutral>
0.124493

> <r_epik_State_Penalty>
0.113971

> <r_epik_Charging_Adjusted_Penalty>
0.113971

> <i_epik_Tot_Q>
0

> <i_epik_Tot_abs_Q>
0

> <r_epik_Metal_State_Penalty>
0.113971

> <b_epik_Metal_Only>
0

> <s_lp_Force_Field>
OPLS_2005

> <r_lp_Energy>
23.5595

> <b_lp_Chiralities_Consistent>
1

> <s_lp_Variant>
AV-unprocessed.smi:2624-1

> <Gold.Version>
5.8.1

> <Gold.Id.Protein>
6NUR|6NUR_protein|mol2

> <Gold.PLP.Fitness>
43.0755

> <Gold.PLP.PLP>
-41.8231

> <Gold.PLP.part.hbond>
-2.0000

> <Gold.PLP.part.metal>
0.0000

> <Gold.PLP.part.buried>
-6.0200

> <Gold.PLP.part.nonpolar>
-33.2272

> <Gold.PLP.part.repulsive>
0.3350

> <Gold.PLP.ligand.clash>
0.0000

> <Gold.PLP.ligand.torsion>
1.7656

> <Gold.PLP.Chemscore.Hbond>
1.0197

> <Gold.PLP.Chemscore.CHOScore>
0.0000

> <Gold.PLP.Chemscore.Metal>
0.0000

> <Gold.Chemscore.Hbonds>
donor molecule, donor type, donor heavy atom, donor atom, acceptor molecule, acceptor atom, score
      L1  H    17    38       P1  8028  0.77
      P1  H  8022  8030       L1     2  0.37

> <Gold.PLP.Chemscore.Internal.Correction>
1.7246

> <Gold.Rescore>
     Score         DG    S(hbond)    S(metal)    S(lipo)     H(rot)  DE(clash)    DE(int)     intcor
     14.23     -16.14       1.00        0.00     105.12       1.94       0.02       1.89       ----

> <Gold.Chemscore.Fitness>
14.2301

> <Gold.Chemscore.DG>
-16.1431

> <Gold.Chemscore.ZeroCoef>
-5.4800

> <Gold.Chemscore.Hbond>
0.9977

> <Gold.Chemscore.Metal>
0.0000

> <Gold.Chemscore.Lipo>
105.1185

> <Gold.Chemscore.Internal_Hbond>
0.0000

> <Gold.Chemscore.DEClash>
0.0182

> <Gold.Chemscore.DEInternal>
1.8948

> <Gold.Chemscore.Rot>
1.9407

> <Gold.Chemscore.Internal.Correction>
   9.000000E+99

> <Gold.Chemscore.Hbonds>
donor molecule, donor type, donor heavy atom, donor atom, acceptor molecule, acceptor atom, score
      L1  H    17    38       P1  8028  0.72
      P1  H  8022  8030       L1     2  0.22

> <Gold.Chemscore.Hbond.Weighted>
-3.3325

> <Gold.Chemscore.Metal.Weighted>
-0.0000

> <Gold.Chemscore.Lipo.Weighted>
-12.2989

> <Gold.Chemscore.Internal_Hbond.Weighted>
0.0000

> <Gold.Chemscore.DEClash.Weighted>
0.0182

> <Gold.Chemscore.DEInternal.Weighted>
1.8948

> <Gold.Chemscore.Rot.Weighted>
4.9682

> <Gold.Chemscore.Internal.Correction.Weighted>
   9.000000E+99

> <Gold.Protein.RotatedTorsions>
[ 6907 6896 6895 6894 ] final  146.24 input  -60.11 | X-H torsion
[ 7974 7965 7964 7962 ] final  -33.36 input  175.53 | X-H torsion
[ 8008 7997 7996 7995 ] final  117.88 input   59.86 | X-H torsion
[ 10167 10162 10161 10158 ] final  -54.20 input  -65.29 | X-H torsion
[ 10718 10713 10712 10709 ] final   35.98 input   66.30 | X-H torsion
[ 10763 10752 10751 10750 ] final  -42.93 input  -60.55 | X-H torsion
[ 11005 11000 10999 10996 ] final  -84.23 input  -57.11 | X-H torsion

> <Gold.Protein.ActiveResidues>
 VAL166  LYS551  ARG553  GLY616  TRP617  ASP618  TYR619  PRO620  LYS621  CYS622 
 ASP623  PHE694  ASN695  SER759  ASP760  ASP761  ALA762  ILE779  LEU786  VAL792 
 PHE793  MET794  SER795  GLU796  ALA797  LYS798  CYS799  TRP800  GLU811  SER814 

> <Gold.Protein.RotatedAtoms>
  152.1705  133.4640  159.4906 H   0  0  0  0  0  0  0  0  0  0  0  0  # atno 6907 bound_to 6896
  150.6919  134.1959  159.4312 H   0  0  0  0  0  0  0  0  0  0  0  0  # atno 6908 bound_to 6896
  151.9866  135.0001  160.0610 H   0  0  0  0  0  0  0  0  0  0  0  0  # atno 6909 bound_to 6896
  146.0917  140.5906  142.8861 H   0  0  0  0  0  0  0  0  0  0  0  0  # atno 7974 bound_to 7965
  156.2517  140.2887  156.0748 H   0  0  0  0  0  0  0  0  0  0  0  0  # atno 8008 bound_to 7997
  155.1631  140.0400  157.2864 H   0  0  0  0  0  0  0  0  0  0  0  0  # atno 8009 bound_to 7997
  154.6378  140.2515  155.7364 H   0  0  0  0  0  0  0  0  0  0  0  0  # atno 8010 bound_to 7997
  140.6443  143.2526  151.4902 H   0  0  0  0  0  0  0  0  0  0  0  0  # atno 10167 bound_to 10162
  157.3293  130.7489  149.6836 H   0  0  0  0  0  0  0  0  0  0  0  0  # atno 10718 bound_to 10713
  153.9872  135.6710  153.4752 H   0  0  0  0  0  0  0  0  0  0  0  0  # atno 10763 bound_to 10752
  153.0721  135.4968  154.8324 H   0  0  0  0  0  0  0  0  0  0  0  0  # atno 10764 bound_to 10752
  154.7130  135.3101  154.9129 H   0  0  0  0  0  0  0  0  0  0  0  0  # atno 10765 bound_to 10752
  141.1652  133.7335  156.8837 H   0  0  0  0  0  0  0  0  0  0  0  0  # atno 11005 bound_to 11000
  144.7365  140.4823  143.6900 LP  0  0  0  0  0  0  0  0  0  0  0  0  # atno 17320 bound_to 7965
  145.6026  139.1505  143.3120 LP  0  0  0  0  0  0  0  0  0  0  0  0  # atno 17321 bound_to 7965
  139.5653  144.2057  152.1755 LP  0  0  0  0  0  0  0  0  0  0  0  0  # atno 17342 bound_to 10162
  140.1337  144.5265  150.6787 LP  0  0  0  0  0  0  0  0  0  0  0  0  # atno 17343 bound_to 10162
  155.9694  130.4200  150.4401 LP  0  0  0  0  0  0  0  0  0  0  0  0  # atno 17370 bound_to 10713
  157.2430  131.0529  151.2425 LP  0  0  0  0  0  0  0  0  0  0  0  0  # atno 17371 bound_to 10713
  140.1697  134.9108  157.2818 LP  0  0  0  0  0  0  0  0  0  0  0  0  # atno 17394 bound_to 11000
  140.2516  134.3676  155.7440 LP  0  0  0  0  0  0  0  0  0  0  0  0  # atno 17395 bound_to 11000

$$$$
