AV-unprocessed.smi:283|AV-procd|sdf|2149|dock6
  -GOLD-   2262021483D 1   1.00000     0.00000
 Structure written by MMmdl.
 48 51  0  0  0  0  0  0  0  0  1 V2000
  151.0484  140.2161  155.7715 C   0  0  0  0  0  0  0  0  0  0  0  0
  150.1478  141.1902  156.5424 C   0  0  2  0  0  0  0  0  0  0  0  0
  149.4630  142.0831  155.6092 N   0  0  0  0  0  0  0  0  0  0  0  0
  148.2459  141.7613  155.1163 C   0  0  0  0  0  0  0  0  0  0  0  0
  147.2607  142.6916  155.0177 N   0  0  0  0  0  0  0  0  0  0  0  0
  146.0661  142.3489  154.5283 C   0  0  0  0  0  0  0  0  0  0  0  0
  145.6550  141.1568  154.0926 N   0  0  0  0  0  0  0  0  0  0  0  0
  146.6380  140.2150  154.1942 C   0  0  0  0  0  0  0  0  0  0  0  0
  147.9521  140.4397  154.6925 C   0  0  0  0  0  0  0  0  0  0  0  0
  148.6843  139.2611  154.6436 N   0  0  0  0  0  0  0  0  0  0  0  0
  147.8463  138.3911  154.1478 C   0  0  0  0  0  0  0  0  0  0  0  0
  146.5915  138.8768  153.8521 N   0  0  0  0  0  0  0  0  0  0  0  0
  145.4331  138.1080  153.2916 C   0  0  2  0  0  0  0  0  0  0  0  0
  145.0765  137.1124  154.2005 O   0  0  0  0  0  0  0  0  0  0  0  0
  144.7781  135.9077  153.5037 C   0  0  2  0  0  0  0  0  0  0  0  0
  144.9111  134.6852  154.4292 C   0  0  0  0  0  0  0  0  0  0  0  0
  143.7311  134.5152  155.1857 O   0  0  0  0  0  0  0  0  0  0  0  0
  145.7321  135.9375  152.3003 C   0  0  2  0  0  0  0  0  0  0  0  0
  147.0115  135.4260  152.6342 O   0  0  0  0  0  0  0  0  0  0  0  0
  145.7628  137.4222  151.9487 C   0  0  2  0  0  0  0  0  0  0  0  0
  146.9665  137.8353  151.3219 O   0  0  0  0  0  0  0  0  0  0  0  0
  150.9473  141.9179  157.6253 C   0  0  0  0  0  0  0  0  0  0  0  0
  151.1232  143.3185  157.5394 C   0  0  0  0  0  0  0  0  0  0  0  0
  151.8527  144.0126  158.5226 C   0  0  0  0  0  0  0  0  0  0  0  0
  152.4194  143.3116  159.6021 C   0  0  0  0  0  0  0  0  0  0  0  0
  152.2595  141.9165  159.6927 C   0  0  0  0  0  0  0  0  0  0  0  0
  151.5307  141.2159  158.7103 C   0  0  0  0  0  0  0  0  0  0  0  0
  151.3780  139.5009  158.8684 Cl  0  0  0  0  0  0  0  0  0  0  0  0
  144.6360  138.8471  153.2033 H   0  0  0  0  0  0  0  0  0  0  0  0
  143.7572  135.9798  153.1232 H   0  0  0  0  0  0  0  0  0  0  0  0
  145.3452  135.3410  151.4735 H   0  0  0  0  0  0  0  0  0  0  0  0
  144.9353  137.6381  151.2714 H   0  0  0  0  0  0  0  0  0  0  0  0
  151.5076  139.4924  156.4455 H   0  0  0  0  0  0  0  0  0  0  0  0
  151.8494  140.7414  155.2501 H   0  0  0  0  0  0  0  0  0  0  0  0
  150.4777  139.6570  155.0294 H   0  0  0  0  0  0  0  0  0  0  0  0
  149.3680  140.5942  157.0147 H   0  0  0  0  0  0  0  0  0  0  0  0
  149.8524  143.0113  155.5292 H   0  0  0  0  0  0  0  0  0  0  0  0
  145.3350  143.1423  154.4803 H   0  0  0  0  0  0  0  0  0  0  0  0
  148.1198  137.3583  153.9890 H   0  0  0  0  0  0  0  0  0  0  0  0
  145.0498  133.7792  153.8383 H   0  0  0  0  0  0  0  0  0  0  0  0
  145.7732  134.7790  155.0905 H   0  0  0  0  0  0  0  0  0  0  0  0
  143.4006  133.6424  155.0378 H   0  0  0  0  0  0  0  0  0  0  0  0
  147.6556  136.1025  152.4923 H   0  0  0  0  0  0  0  0  0  0  0  0
  147.6949  137.5225  151.8357 H   0  0  0  0  0  0  0  0  0  0  0  0
  150.6959  143.8706  156.7150 H   0  0  0  0  0  0  0  0  0  0  0  0
  151.9773  145.0828  158.4476 H   0  0  0  0  0  0  0  0  0  0  0  0
  152.9787  143.8423  160.3583 H   0  0  0  0  0  0  0  0  0  0  0  0
  152.7001  141.3810  160.5207 H   0  0  0  0  0  0  0  0  0  0  0  0
  1  2  1  0  0  0  0
  1 33  1  0  0  0  0
  1 34  1  0  0  0  0
  1 35  1  0  0  0  0
  2  3  1  0  0  0  0
  2 22  1  0  0  0  0
  2 36  1  0  0  0  0
  3  4  1  0  0  0  0
  3 37  1  0  0  0  0
  4  9  1  0  0  0  0
  4  5  2  0  0  0  0
  5  6  1  0  0  0  0
  6  7  2  0  0  0  0
  6 38  1  0  0  0  0
  7  8  1  0  0  0  0
  8 12  1  0  0  0  0
  8  9  2  0  0  0  0
  9 10  1  0  0  0  0
 10 11  2  0  0  0  0
 11 12  1  0  0  0  0
 11 39  1  0  0  0  0
 12 13  1  0  0  0  0
 13 29  1  0  0  0  0
 13 20  1  0  0  0  0
 13 14  1  0  0  0  0
 14 15  1  0  0  0  0
 15 30  1  0  0  0  0
 15 16  1  0  0  0  0
 15 18  1  0  0  0  0
 16 17  1  0  0  0  0
 16 40  1  0  0  0  0
 16 41  1  0  0  0  0
 17 42  1  0  0  0  0
 18 31  1  0  0  0  0
 18 19  1  0  0  0  0
 18 20  1  0  0  0  0
 19 43  1  0  0  0  0
 20 32  1  0  0  0  0
 20 21  1  0  0  0  0
 21 44  1  0  0  0  0
 22 27  1  0  0  0  0
 22 23  2  0  0  0  0
 23 24  1  0  0  0  0
 23 45  1  0  0  0  0
 24 25  2  0  0  0  0
 24 46  1  0  0  0  0
 25 26  1  0  0  0  0
 25 47  1  0  0  0  0
 26 27  2  0  0  0  0
 26 48  1  0  0  0  0
 27 28  1  0  0  0  0
M  END
> <s_m_source_file>
AV-unprocessed.smi

> <i_m_source_file_index>
283

> <i_lp_mmshare_version>
43012

> <i_f3d_flags>
0

> <s_epik_input>
Q2xjMVtjSF1bY0hdW2NIXVtjSF1jMVtDQEhdKFtDSDNdKVtOSF1jKG5bY0hdbjIpYyhjMjMpbltjSF1uM1tDQEBIXTRPW0NASF0oW0NIMl1bT0hdKVtDQEBIXShbT0hdKVtDQEhdNFtPSF0=

> <s_epik_cmdline>
J2VwaWtfcHl0aG9uJywgJy1waCcsICc3LjAnLCAnLXRuJywgJzgnLCAnLW1hJywgJzIwMCcsICctbWV0YWxfYmluZGluZycsICctaW1hZScsICc8aW5maWxlLm1hZT4nLCAnLW9tYWUnLCAnPG91dGZpbGUubWFlPic=

> <r_lp_tautomer_probability>
1

> <r_epik_Ionization_Penalty>
0.000266407

> <r_epik_Ionization_Penalty_Charging>
0

> <r_epik_Ionization_Penalty_Neutral>
0.000266407

> <r_epik_State_Penalty>
-0

> <r_epik_Charging_Adjusted_Penalty>
0

> <i_epik_Tot_Q>
0

> <i_epik_Tot_abs_Q>
0

> <r_epik_Metal_State_Penalty>
-0

> <b_epik_Metal_Only>
0

> <s_epik_Chemistry_Notes>
This compound contains an acetal/aminal-like group ( X-CH(R)-Y where X, Y are N, S, or O) that may be acid/base labile, releasing an aldehyde.

> <s_lp_Force_Field>
OPLS_2005

> <r_lp_Energy>
56.6736

> <b_lp_Chiralities_Consistent>
1

> <s_lp_Variant>
AV-unprocessed.smi:283-25

> <Gold.Version>
5.8.1

> <Gold.Id.Protein>
6NUR|6NUR_protein|mol2

> <Gold.PLP.Fitness>
48.5955

> <Gold.PLP.PLP>
-37.6636

> <Gold.PLP.part.hbond>
-3.8714

> <Gold.PLP.part.metal>
0.0000

> <Gold.PLP.part.buried>
-6.3180

> <Gold.PLP.part.nonpolar>
-33.8778

> <Gold.PLP.part.repulsive>
5.0011

> <Gold.PLP.ligand.clash>
0.0000

> <Gold.PLP.ligand.torsion>
1.0170

> <Gold.PLP.Chemscore.Hbond>
3.3990

> <Gold.PLP.Chemscore.CHOScore>
0.9035

> <Gold.PLP.Chemscore.Metal>
0.0000

> <Gold.Chemscore.Hbonds>
donor molecule, donor type, donor heavy atom, donor atom, acceptor molecule, acceptor atom, score
      L1  H     3    37       P1  8028  0.54
      L1  H    17    42       P1 10957  1.00
      L1  H    19    43       P1  7948  0.57
      L1  H    21    44       P1  7948  0.82
      P1  H  7954  7966       L1    21  0.30
      L1  C    11    39       P1  7948  0.94

> <Gold.PLP.Chemscore.Internal.Correction>
0.0583

> <Gold.Rescore>
     Score         DG    S(hbond)    S(metal)    S(lipo)     H(rot)  DE(clash)    DE(int)     intcor
     12.89     -17.27       3.39        0.00      93.56       4.10       1.28       3.11       ----

> <Gold.Chemscore.Fitness>
12.8868

> <Gold.Chemscore.DG>
-17.2716

> <Gold.Chemscore.ZeroCoef>
-5.4800

> <Gold.Chemscore.Hbond>
3.3931

> <Gold.Chemscore.Metal>
0.0000

> <Gold.Chemscore.Lipo>
93.5597

> <Gold.Chemscore.Internal_Hbond>
0.0000

> <Gold.Chemscore.DEClash>
1.2775

> <Gold.Chemscore.DEInternal>
3.1073

> <Gold.Chemscore.Rot>
4.0968

> <Gold.Chemscore.Internal.Correction>
   9.000000E+99

> <Gold.Chemscore.Hbonds>
donor molecule, donor type, donor heavy atom, donor atom, acceptor molecule, acceptor atom, score
      L1  H     3    37       P1  8028  0.55
      L1  H    17    42       P1 10957  0.93
      L1  H    19    43       P1  7948  0.57
      L1  H    21    44       P1  7948  0.80

> <Gold.Chemscore.Hbond.Weighted>
-11.3331

> <Gold.Chemscore.Metal.Weighted>
-0.0000

> <Gold.Chemscore.Lipo.Weighted>
-10.9465

> <Gold.Chemscore.Internal_Hbond.Weighted>
0.0000

> <Gold.Chemscore.DEClash.Weighted>
1.2775

> <Gold.Chemscore.DEInternal.Weighted>
3.1073

> <Gold.Chemscore.Rot.Weighted>
10.4879

> <Gold.Chemscore.Internal.Correction.Weighted>
   9.000000E+99

> <Gold.Protein.RotatedTorsions>
[ 6907 6896 6895 6894 ] final -141.56 input  -60.11 | X-H torsion
[ 7974 7965 7964 7962 ] final -156.11 input  175.53 | X-H torsion
[ 8008 7997 7996 7995 ] final   86.02 input   59.86 | X-H torsion
[ 10167 10162 10161 10158 ] final   -0.29 input  -65.29 | X-H torsion
[ 10718 10713 10712 10709 ] final  -32.35 input   66.30 | X-H torsion
[ 10763 10752 10751 10750 ] final  155.87 input  -60.55 | X-H torsion
[ 11005 11000 10999 10996 ] final  -52.37 input  -57.11 | X-H torsion

> <Gold.Protein.ActiveResidues>
 VAL166  LYS551  ARG553  GLY616  TRP617  ASP618  TYR619  PRO620  LYS621  CYS622 
 ASP623  PHE694  ASN695  SER759  ASP760  ASP761  ALA762  ILE779  LEU786  VAL792 
 PHE793  MET794  SER795  GLU796  ALA797  LYS798  CYS799  TRP800  GLU811  SER814 

> <Gold.Protein.RotatedAtoms>
  151.0754  133.5432  159.2623 H   0  0  0  0  0  0  0  0  0  0  0  0  # atno 6907 bound_to 6896
  151.2356  135.0570  159.9015 H   0  0  0  0  0  0  0  0  0  0  0  0  # atno 6908 bound_to 6896
  152.5417  134.0536  159.8175 H   0  0  0  0  0  0  0  0  0  0  0  0  # atno 6909 bound_to 6896
  144.7608  140.4156  143.5978 H   0  0  0  0  0  0  0  0  0  0  0  0  # atno 7974 bound_to 7965
  155.9574  140.3396  155.6461 H   0  0  0  0  0  0  0  0  0  0  0  0  # atno 8008 bound_to 7997
  155.6842  140.0741  157.2491 H   0  0  0  0  0  0  0  0  0  0  0  0  # atno 8009 bound_to 7997
  154.4135  140.1669  156.2003 H   0  0  0  0  0  0  0  0  0  0  0  0  # atno 8010 bound_to 7997
  140.6761  143.6912  150.8026 H   0  0  0  0  0  0  0  0  0  0  0  0  # atno 10167 bound_to 10162
  156.3760  130.4348  149.7507 H   0  0  0  0  0  0  0  0  0  0  0  0  # atno 10718 bound_to 10713
  154.1753  135.2802  155.3069 H   0  0  0  0  0  0  0  0  0  0  0  0  # atno 10763 bound_to 10752
  154.6044  135.5519  153.7411 H   0  0  0  0  0  0  0  0  0  0  0  0  # atno 10764 bound_to 10752
  153.0153  135.6400  154.1892 H   0  0  0  0  0  0  0  0  0  0  0  0  # atno 10765 bound_to 10752
  141.0920  133.6631  156.4014 H   0  0  0  0  0  0  0  0  0  0  0  0  # atno 11005 bound_to 11000
  145.6625  139.1584  143.2800 LP  0  0  0  0  0  0  0  0  0  0  0  0  # atno 17320 bound_to 7965
  146.1669  140.6704  142.9251 LP  0  0  0  0  0  0  0  0  0  0  0  0  # atno 17321 bound_to 7965
  140.0606  143.5159  152.2630 LP  0  0  0  0  0  0  0  0  0  0  0  0  # atno 17342 bound_to 10162
  139.6054  144.7594  151.3074 LP  0  0  0  0  0  0  0  0  0  0  0  0  # atno 17343 bound_to 10162
  156.4616  130.7954  151.2974 LP  0  0  0  0  0  0  0  0  0  0  0  0  # atno 17370 bound_to 10713
  157.7488  131.0064  150.3150 LP  0  0  0  0  0  0  0  0  0  0  0  0  # atno 17371 bound_to 10713
  140.5229  134.6287  157.5324 LP  0  0  0  0  0  0  0  0  0  0  0  0  # atno 17394 bound_to 11000
  139.9748  134.7233  155.9970 LP  0  0  0  0  0  0  0  0  0  0  0  0  # atno 17395 bound_to 11000

$$$$
