AV-unprocessed.smi:2835|AV-procd|sdf|10918|dock8
  -GOLD-   2272015363D 1   1.00000     0.00000
 Structure written by MMmdl.
 34 35  0  0  0  0  0  0  0  0  2 V2000
  150.0935  143.2755  158.2711 O   0  0  0  0  0  0  0  0  0  0  0  0
  151.2420  142.8642  158.1165 C   0  0  0  0  0  0  0  0  0  0  0  0
  152.3837  143.6243  158.8126 C   0  0  0  0  0  0  0  0  0  0  0  0
  152.9209  142.9493  159.9862 N   0  0  0  0  0  0  0  0  0  0  0  0
  152.7707  143.2898  161.3147 C   0  0  0  0  0  0  0  0  0  0  0  0
  153.4712  142.3772  162.0501 C   0  0  0  0  0  0  0  0  0  0  0  0
  154.0222  141.5050  161.0702 C   0  0  0  0  0  0  0  0  0  0  0  0
  153.6872  141.8467  159.8367 N   0  0  0  0  0  0  0  0  0  0  0  0
  151.5750  141.7891  157.3731 N   0  0  0  0  0  0  0  0  0  0  0  0
  150.7791  140.8340  156.5867 C   0  0  0  0  0  0  0  0  0  0  0  0
  151.8253  139.9835  155.8204 C   0  0  0  0  0  0  0  0  0  0  0  0
  151.7528  139.9467  154.5716 O   0  0  0  0  0  0  0  0  0  0  0  0
  152.6613  139.3409  156.4950 O   0  5  0  0  0  0  0  0  0  0  0  0
  149.8196  139.9304  157.4257 C   0  0  0  0  0  0  0  0  0  0  0  0
  148.8890  139.0611  156.5571 C   0  0  0  0  0  0  0  0  0  0  0  0
  148.0650  139.9248  155.5915 C   0  0  0  0  0  0  0  0  0  0  0  0
  148.9721  140.8165  154.7315 C   0  0  0  0  0  0  0  0  0  0  0  0
  149.9095  141.6724  155.6062 C   0  0  0  0  0  0  0  0  0  0  0  0
  153.1955  143.7743  158.1002 H   0  0  0  0  0  0  0  0  0  0  0  0
  152.0300  144.6147  159.1028 H   0  0  0  0  0  0  0  0  0  0  0  0
  152.1903  144.1479  161.6210 H   0  0  0  0  0  0  0  0  0  0  0  0
  153.5775  142.3406  163.1241 H   0  0  0  0  0  0  0  0  0  0  0  0
  154.6510  140.6394  161.2178 H   0  0  0  0  0  0  0  0  0  0  0  0
  152.5614  141.5727  157.3732 H   0  0  0  0  0  0  0  0  0  0  0  0
  150.3765  139.2907  158.1120 H   0  0  0  0  0  0  0  0  0  0  0  0
  149.1829  140.5584  158.0498 H   0  0  0  0  0  0  0  0  0  0  0  0
  149.4694  138.3298  155.9936 H   0  0  0  0  0  0  0  0  0  0  0  0
  148.2197  138.4870  157.1981 H   0  0  0  0  0  0  0  0  0  0  0  0
  147.4529  139.2884  154.9518 H   0  0  0  0  0  0  0  0  0  0  0  0
  147.3742  140.5487  156.1601 H   0  0  0  0  0  0  0  0  0  0  0  0
  149.5555  140.1977  154.0492 H   0  0  0  0  0  0  0  0  0  0  0  0
  148.3606  141.4657  154.1043 H   0  0  0  0  0  0  0  0  0  0  0  0
  149.3008  142.3707  156.1828 H   0  0  0  0  0  0  0  0  0  0  0  0
  150.5323  142.2987  154.9656 H   0  0  0  0  0  0  0  0  0  0  0  0
  1  2  2  0  0  0  0
  2  3  1  0  0  0  0
  2  9  1  0  0  0  0
  3  4  1  0  0  0  0
  3 19  1  0  0  0  0
  3 20  1  0  0  0  0
  4  8  1  0  0  0  0
  4  5  1  0  0  0  0
  5  6  2  0  0  0  0
  5 21  1  0  0  0  0
  6  7  1  0  0  0  0
  6 22  1  0  0  0  0
  7  8  2  0  0  0  0
  7 23  1  0  0  0  0
  9 10  1  0  0  0  0
  9 24  1  0  0  0  0
 10 18  1  0  0  0  0
 10 11  1  0  0  0  0
 10 14  1  0  0  0  0
 11 12  2  0  0  0  0
 11 13  1  0  0  0  0
 14 15  1  0  0  0  0
 14 25  1  0  0  0  0
 14 26  1  0  0  0  0
 15 16  1  0  0  0  0
 15 27  1  0  0  0  0
 15 28  1  0  0  0  0
 16 17  1  0  0  0  0
 16 29  1  0  0  0  0
 16 30  1  0  0  0  0
 17 18  1  0  0  0  0
 17 31  1  0  0  0  0
 17 32  1  0  0  0  0
 18 33  1  0  0  0  0
 18 34  1  0  0  0  0
M  CHG  1  13  -1
M  END
> <s_m_source_file>
AV-unprocessed.smi

> <i_m_source_file_index>
2835

> <i_lp_mmshare_version>
43012

> <i_f3d_flags>
0

> <s_epik_input>
bjFbY0hdW2NIXVtjSF1uMVtDSDJdQyg9TylbTkhdQzIoQyg9TylbT0hdKVtDSDJdW0NIMl1bQ0gyXVtDSDJdW0NIMl0y

> <s_epik_cmdline>
J2VwaWtfcHl0aG9uJywgJy1waCcsICc3LjAnLCAnLXRuJywgJzgnLCAnLW1hJywgJzIwMCcsICctbWV0YWxfYmluZGluZycsICctaW1hZScsICc8aW5maWxlLm1hZT4nLCAnLW9tYWUnLCAnPG91dGZpbGUubWFlPic=

> <r_lp_tautomer_probability>
1

> <r_epik_Ionization_Penalty>
0.000342313

> <r_epik_Ionization_Penalty_Charging>
0.000323848

> <r_epik_Ionization_Penalty_Neutral>
1.84652e-05

> <r_epik_State_Penalty>
0.000195685

> <r_epik_Charging_Adjusted_Penalty>
0.000519533

> <i_epik_Tot_Q>
-1

> <i_epik_Tot_abs_Q>
1

> <r_epik_Metal_State_Penalty>
-0

> <b_epik_Metal_Only>
0

> <s_lp_Force_Field>
OPLS_2005

> <r_lp_Energy>
5.56985

> <b_lp_Chiralities_Consistent>
1

> <s_lp_Variant>
AV-unprocessed.smi:2835-1

> <Gold.Version>
5.8.1

> <Gold.Id.Protein>
6NUR|6NUR_protein|mol2

> <Gold.PLP.Fitness>
46.0602

> <Gold.PLP.PLP>
-38.2589

> <Gold.PLP.part.hbond>
-2.0000

> <Gold.PLP.part.metal>
0.0000

> <Gold.PLP.part.buried>
-5.3542

> <Gold.PLP.part.nonpolar>
-30.8072

> <Gold.PLP.part.repulsive>
0.5828

> <Gold.PLP.ligand.clash>
0.0000

> <Gold.PLP.ligand.torsion>
0.4919

> <Gold.PLP.Chemscore.Hbond>
2.9120

> <Gold.PLP.Chemscore.CHOScore>
0.0000

> <Gold.PLP.Chemscore.Metal>
0.0000

> <Gold.Chemscore.Hbonds>
donor molecule, donor type, donor heavy atom, donor atom, acceptor molecule, acceptor atom, score
      P1  H  7989  7998       L1    12  0.70
      P1  H  7997  8009       L1    13  2.00

> <Gold.PLP.Chemscore.Internal.Correction>
0.0492

> <Gold.Rescore>
     Score         DG    S(hbond)    S(metal)    S(lipo)     H(rot)  DE(clash)    DE(int)     intcor
     13.36     -15.14       1.92        0.00      72.32       2.03       0.01       1.77       ----

> <Gold.Chemscore.Fitness>
13.3627

> <Gold.Chemscore.DG>
-15.1431

> <Gold.Chemscore.ZeroCoef>
-5.4800

> <Gold.Chemscore.Hbond>
1.9187

> <Gold.Chemscore.Metal>
0.0000

> <Gold.Chemscore.Lipo>
72.3167

> <Gold.Chemscore.Internal_Hbond>
0.0000

> <Gold.Chemscore.DEClash>
0.0137

> <Gold.Chemscore.DEInternal>
1.7666

> <Gold.Chemscore.Rot>
2.0338

> <Gold.Chemscore.Internal.Correction>
   9.000000E+99

> <Gold.Chemscore.Hbonds>
donor molecule, donor type, donor heavy atom, donor atom, acceptor molecule, acceptor atom, score
      P1  H  7989  7998       L1    12  0.66
      P1  H  7997  8009       L1    13  0.88

> <Gold.Chemscore.Hbond.Weighted>
-6.4086

> <Gold.Chemscore.Metal.Weighted>
-0.0000

> <Gold.Chemscore.Lipo.Weighted>
-8.4611

> <Gold.Chemscore.Internal_Hbond.Weighted>
0.0000

> <Gold.Chemscore.DEClash.Weighted>
0.0137

> <Gold.Chemscore.DEInternal.Weighted>
1.7666

> <Gold.Chemscore.Rot.Weighted>
5.2066

> <Gold.Chemscore.Internal.Correction.Weighted>
   9.000000E+99

> <Gold.Protein.RotatedTorsions>
[ 6907 6896 6895 6894 ] final  -57.74 input  -60.11 | X-H torsion
[ 7974 7965 7964 7962 ] final -142.49 input  175.53 | X-H torsion
[ 8008 7997 7996 7995 ] final -172.22 input   59.86 | X-H torsion
[ 10167 10162 10161 10158 ] final  119.85 input  -65.29 | X-H torsion
[ 10718 10713 10712 10709 ] final  114.84 input   66.30 | X-H torsion
[ 10763 10752 10751 10750 ] final -165.80 input  -60.55 | X-H torsion
[ 11005 11000 10999 10996 ] final -123.81 input  -57.11 | X-H torsion

> <Gold.Protein.ActiveResidues>
 VAL166  LYS551  ARG553  GLY616  TRP617  ASP618  TYR619  PRO620  LYS621  CYS622 
 ASP623  PHE694  ASN695  SER759  ASP760  ASP761  ALA762  ILE779  LEU786  VAL792 
 PHE793  MET794  SER795  GLU796  ALA797  LYS798  CYS799  TRP800  GLU811  SER814 

> <Gold.Protein.RotatedAtoms>
  150.8062  134.7188  159.6645 H   0  0  0  0  0  0  0  0  0  0  0  0  # atno 6907 bound_to 6896
  152.4181  134.6001  160.0007 H   0  0  0  0  0  0  0  0  0  0  0  0  # atno 6908 bound_to 6896
  151.6224  133.3301  159.3127 H   0  0  0  0  0  0  0  0  0  0  0  0  # atno 6909 bound_to 6896
  144.8439  140.5951  143.5434 H   0  0  0  0  0  0  0  0  0  0  0  0  # atno 7974 bound_to 7965
  155.9418  140.1110  157.1049 H   0  0  0  0  0  0  0  0  0  0  0  0  # atno 8008 bound_to 7997
  154.4091  140.1217  156.5003 H   0  0  0  0  0  0  0  0  0  0  0  0  # atno 8009 bound_to 7997
  155.6952  140.3472  155.4912 H   0  0  0  0  0  0  0  0  0  0  0  0  # atno 8010 bound_to 7997
  139.6020  144.7059  151.3041 H   0  0  0  0  0  0  0  0  0  0  0  0  # atno 10167 bound_to 10162
  157.6257  131.1004  150.7244 H   0  0  0  0  0  0  0  0  0  0  0  0  # atno 10718 bound_to 10713
  154.6896  135.2968  154.9498 H   0  0  0  0  0  0  0  0  0  0  0  0  # atno 10763 bound_to 10752
  154.0466  135.6650  153.4800 H   0  0  0  0  0  0  0  0  0  0  0  0  # atno 10764 bound_to 10752
  153.0603  135.5120  154.7981 H   0  0  0  0  0  0  0  0  0  0  0  0  # atno 10765 bound_to 10752
  140.9890  134.0566  157.3677 H   0  0  0  0  0  0  0  0  0  0  0  0  # atno 11005 bound_to 11000
  145.4636  139.1510  143.3853 LP  0  0  0  0  0  0  0  0  0  0  0  0  # atno 17320 bound_to 7965
  146.2727  140.4767  142.8808 LP  0  0  0  0  0  0  0  0  0  0  0  0  # atno 17321 bound_to 7965
  140.7256  143.7012  150.7844 LP  0  0  0  0  0  0  0  0  0  0  0  0  # atno 17342 bound_to 10162
  140.0590  143.5174  152.2637 LP  0  0  0  0  0  0  0  0  0  0  0  0  # atno 17343 bound_to 10162
  156.7592  130.4793  149.5440 LP  0  0  0  0  0  0  0  0  0  0  0  0  # atno 17370 bound_to 10713
  156.1428  130.6256  151.0491 LP  0  0  0  0  0  0  0  0  0  0  0  0  # atno 17371 bound_to 10713
  139.8983  135.0154  156.7144 LP  0  0  0  0  0  0  0  0  0  0  0  0  # atno 17394 bound_to 11000
  140.7069  133.9257  155.8060 LP  0  0  0  0  0  0  0  0  0  0  0  0  # atno 17395 bound_to 11000

$$$$
