#       Name:                AV-unprocessed.smi:171
#       Creating user name   scv26
#       Creation time:       Thu Mar 26 19:17:57 2020


#       File generated by GOLD software.
#

@<TRIPOS>MOLECULE
AV-unprocessed.smi:171
    66    69     1
SMALL
NO_CHARGES


@<TRIPOS>ATOM
      1 ****        -4.3335  -2.1095   3.4345 C.3            1 S1                 0.0000
      2 ****        -3.4231  -2.2206   2.2012 C.3            1 S1                 0.0000
      3 ****        -2.7516  -3.6022   2.1608 C.3            1 S1                 0.0000
      4 ****        -2.3610  -1.0997   2.1126 C.3            1 S1                 0.0000
      5 ****        -2.9261   0.3404   1.9163 C.3            1 S1                 0.0000
      6 ****        -3.0425   1.1890   3.2076 C.2            1 S1                 0.0000
      7 ****        -3.1761   0.6528   4.3054 O.2            1 S1                 0.0000
      8 ****        -2.9981   2.5284   3.0899 N.am           1 S1                 0.0000
      9 ****        -2.7920   3.2763   1.8470 C.3            1 S1                 0.0000
     10 ****        -2.8271   2.3954   0.5801 C.3            1 S1                 0.0000
     11 ****        -2.2434   1.0817   0.8403 N.3            1 S1                 0.0000
     12 ****        -0.8850   1.0888   0.7562 C.ar           1 S1                 0.0000
     13 ****        -0.1194   1.0182   1.8778 N.ar           1 S1                 0.0000
     14 ****         1.2131   1.0381   1.7875 C.ar           1 S1                 0.0000
     15 ****         1.9732   1.1198   0.6943 N.ar           1 S1                 0.0000
     16 ****         1.2119   1.1881  -0.4358 C.ar           1 S1                 0.0000
     17 ****        -0.2098   1.1875  -0.4913 C.ar           1 S1                 0.0000
     18 ****        -0.6323   1.2828  -1.8102 N.2            1 S1                 0.0000
     19 ****         0.4770   1.3373  -2.4956 C.2            1 S1                 0.0000
     20 ****         1.6362   1.2532  -1.7534 N.pl3          1 S1                 0.0000
     21 ****         3.0122   1.2957  -2.2374 C.3            1 S1                 0.0000
     22 ****         3.4290   0.1511  -3.2042 C.3            1 S1                 0.0000
     23 ****         2.6731   0.2797  -4.3966 O.3            1 S1                 0.0000
     24 ****         4.8976   0.2539  -3.5972 C.3            1 S1                 0.0000
     25 ****         5.2334  -1.1662  -4.0240 C.3            1 S1                 0.0000
     26 ****         4.5418  -1.9518  -3.0701 O.3            1 S1                 0.0000
     27 ****         3.3064  -1.3257  -2.7229 C.3            1 S1                 0.0000
     28 ****         3.1315  -1.5685  -1.2167 C.3            1 S1                 0.0000
     29 ****        -3.7534  -2.1189   4.3578 H              1 S1                 0.0000
     30 ****        -5.0379  -2.9404   3.4778 H              1 S1                 0.0000
     31 ****        -4.9233  -1.1936   3.4146 H              1 S1                 0.0000
     32 ****        -4.0571  -2.1502   1.3165 H              1 S1                 0.0000
     33 ****        -2.0930  -3.7469   3.0179 H              1 S1                 0.0000
     34 ****        -2.1539  -3.7257   1.2572 H              1 S1                 0.0000
     35 ****        -3.4929  -4.4019   2.1724 H              1 S1                 0.0000
     36 ****        -1.7010  -1.1410   2.9805 H              1 S1                 0.0000
     37 ****        -1.7238  -1.3520   1.2642 H              1 S1                 0.0000
     38 ****        -3.9506   0.2284   1.5589 H              1 S1                 0.0000
     39 ****        -3.0849   3.0728   3.9359 H              1 S1                 0.0000
     40 ****        -3.5259   4.0789   1.7743 H              1 S1                 0.0000
     41 ****        -1.8151   3.7548   1.9235 H              1 S1                 0.0000
     42 ****        -3.8630   2.2448   0.2729 H              1 S1                 0.0000
     43 ****        -2.3440   2.9073  -0.2532 H              1 S1                 0.0000
     44 ****         1.7459   0.9785   2.7251 H              1 S1                 0.0000
     45 ****         0.4698   1.4402  -3.5703 H              1 S1                 0.0000
     46 ****         3.1564   2.2597  -2.7275 H              1 S1                 0.0000
     47 ****         3.6784   1.3050  -1.3745 H              1 S1                 0.0000
     48 ****         2.9431  -0.3992  -4.9960 H              1 S1                 0.0000
     49 ****         5.0951   0.9935  -4.3743 H              1 S1                 0.0000
     50 ****         5.5035   0.5161  -2.7286 H              1 S1                 0.0000
     51 ****         4.8498  -1.3804  -5.0226 H              1 S1                 0.0000
     52 ****         6.3043  -1.3701  -4.0126 H              1 S1                 0.0000
     53 ****         2.5019  -1.8391  -3.2522 H              1 S1                 0.0000
     54 ****         2.1348  -1.2918  -0.8801 H              1 S1                 0.0000
     55 ****         3.8655  -1.0161  -0.6298 H              1 S1                 0.0000
     56 ****         3.2538  -2.6264  -0.9833 H              1 S1                 0.0000
     57 ****        -3.2109  -0.3442   4.3739 LP             1 S1                 0.0000
     58 ****        -3.2499   1.2136   5.1301 LP             1 S1                 0.0000
     59 ****        -2.4524   0.4618   0.0840 LP             1 S1                 0.0000
     60 ****        -0.5562   0.9510   2.7748 LP             1 S1                 0.0000
     61 ****         2.9732   1.1297   0.7021 LP             1 S1                 0.0000
     62 ****        -1.5705   1.3047  -2.1556 LP             1 S1                 0.0000
     63 ****         2.8384   1.1769  -4.8061 LP             1 S1                 0.0000
     64 ****         1.6994   0.1812  -4.1914 LP             1 S1                 0.0000
     65 ****         5.1057  -2.0487  -2.2499 LP             1 S1                 0.0000
     66 ****         4.3576  -2.8555  -3.4567 LP             1 S1                 0.0000
@<TRIPOS>BOND
    1    1    2 1     
    2    1   29 1     
    3    1   30 1     
    4    1   31 1     
    5    2    3 1     
    6    2    4 1     
    7    2   32 1     
    8    3   33 1     
    9    3   34 1     
   10    3   35 1     
   11    4    5 1     
   12    4   36 1     
   13    4   37 1     
   14    5   11 1     
   15    5    6 1     
   16    5   38 1     
   17    6    7 2     
   18    6    8 am    
   19    8    9 1     
   20    8   39 1     
   21    9   10 1     
   22    9   40 1     
   23    9   41 1     
   24   10   11 1     
   25   10   42 1     
   26   10   43 1     
   27   11   12 1     
   28   12   17 ar    
   29   12   13 ar    
   30   13   14 ar    
   31   14   15 ar    
   32   14   44 1     
   33   15   16 ar    
   34   16   20 1     
   35   16   17 ar    
   36   17   18 1     
   37   18   19 2     
   38   19   20 1     
   39   19   45 1     
   40   20   21 1     
   41   21   22 1     
   42   21   46 1     
   43   21   47 1     
   44   22   27 1     
   45   22   23 1     
   46   22   24 1     
   47   23   48 1     
   48   24   25 1     
   49   24   49 1     
   50   24   50 1     
   51   25   26 1     
   52   25   51 1     
   53   25   52 1     
   54   26   27 1     
   55   27   28 1     
   56   27   53 1     
   57   28   54 1     
   58   28   55 1     
   59   28   56 1     
   60    7   57 1     
   61    7   58 1     
   62   11   59 1     
   63   13   60 1     
   64   15   61 1     
   65   18   62 1     
   66   23   63 1     
   67   23   64 1     
   68   26   65 1     
   69   26   66 1     
@<TRIPOS>SUBSTRUCTURE
      1 S1             1
@<TRIPOS>SET
LONE_PAIRS      STATIC     ATOMS    <user>   **** ""
10 57 58 59 60 61 62 63 64 65 66
DONOR_HYDROGENS      STATIC     ATOMS    <user>   **** ""
2 39 48
ATOM$BLUE        STATIC     ATOMS    COLORGROUP SYSTEM
10 57 58 59 60 61 62 63 64 65 66
ATOM$RED        STATIC     ATOMS    COLORGROUP SYSTEM
2 39 48
