AV-unprocessed.smi:1047|AV-procd|sdf|4601|dock4
  -GOLD-   22720 3 93D 1   1.00000     0.00000
 Structure written by MMmdl.
 57 59  0  0  0  0  0  0  0  0  3 V2000
  142.7532  146.5460  154.8049 C   0  0  0  0  0  0  0  0  0  0  0  0
  143.2018  145.9309  156.1385 C   0  0  0  0  0  0  0  0  0  0  0  0
  143.0229  144.4547  156.1742 N   0  3  2  0  0  0  0  0  0  0  0  0
  143.2598  143.8622  157.5131 C   0  0  0  0  0  0  0  0  0  0  0  0
  144.7653  143.7377  157.8080 C   0  0  0  0  0  0  0  0  0  0  0  0
  145.3884  142.9729  156.7827 O   0  0  0  0  0  0  0  0  0  0  0  0
  145.2797  143.5841  155.5016 C   0  0  1  0  0  0  0  0  0  0  0  0
  146.0508  142.7095  154.5010 C   0  0  0  0  0  0  0  0  0  0  0  0
  147.3797  142.3756  155.0042 N   0  0  0  0  0  0  0  0  0  0  0  0
  148.1224  141.4722  154.1314 C   0  0  0  0  0  0  0  0  0  0  0  0
  149.2839  140.7979  154.8800 C   0  0  1  0  0  0  0  0  0  0  0  0
  150.0487  140.0793  153.9341 O   0  0  0  0  0  0  0  0  0  0  0  0
  150.1887  141.8099  155.6146 C   0  0  0  0  0  0  0  0  0  0  0  0
  151.1240  141.1639  156.5465 N   0  0  0  0  0  0  0  0  0  0  0  0
  151.7815  139.9785  156.4301 C   0  0  0  0  0  0  0  0  0  0  0  0
  152.5320  139.8124  157.5537 N   0  3  0  0  0  0  0  0  0  0  0  0
  152.3547  140.9099  158.3989 C   0  0  0  0  0  0  0  0  0  0  0  0
  152.9035  141.1971  159.6431 C   0  0  0  0  0  0  0  0  0  0  0  0
  152.5203  142.4133  160.2518 C   0  0  0  0  0  0  0  0  0  0  0  0
  153.1020  142.7580  161.6121 C   0  0  0  0  0  0  0  0  0  0  0  0
  151.6129  143.2962  159.6109 C   0  0  0  0  0  0  0  0  0  0  0  0
  151.2089  144.6022  160.2739 C   0  0  0  0  0  0  0  0  0  0  0  0
  151.0652  142.9853  158.3458 C   0  0  0  0  0  0  0  0  0  0  0  0
  151.4524  141.7821  157.7593 C   0  0  0  0  0  0  0  0  0  0  0  0
  143.7815  143.7080  155.1382 C   0  0  0  0  0  0  0  0  0  0  0  0
  142.7992  147.6343  154.8520 H   0  0  0  0  0  0  0  0  0  0  0  0
  141.7250  146.2698  154.5692 H   0  0  0  0  0  0  0  0  0  0  0  0
  143.3859  146.2339  153.9745 H   0  0  0  0  0  0  0  0  0  0  0  0
  144.2340  146.2056  156.3550 H   0  0  0  0  0  0  0  0  0  0  0  0
  142.5960  146.3785  156.9274 H   0  0  0  0  0  0  0  0  0  0  0  0
  142.7580  144.4426  158.2882 H   0  0  0  0  0  0  0  0  0  0  0  0
  142.8071  142.8698  157.5339 H   0  0  0  0  0  0  0  0  0  0  0  0
  145.2367  144.7181  157.8899 H   0  0  0  0  0  0  0  0  0  0  0  0
  144.9173  143.2337  158.7626 H   0  0  0  0  0  0  0  0  0  0  0  0
  145.7517  144.5672  155.5427 H   0  0  0  0  0  0  0  0  0  0  0  0
  145.4912  141.7897  154.3268 H   0  0  0  0  0  0  0  0  0  0  0  0
  146.1211  143.2163  153.5377 H   0  0  0  0  0  0  0  0  0  0  0  0
  147.3012  141.9644  155.9291 H   0  0  0  0  0  0  0  0  0  0  0  0
  147.4475  140.7047  153.7491 H   0  0  0  0  0  0  0  0  0  0  0  0
  148.5023  142.0123  153.2630 H   0  0  0  0  0  0  0  0  0  0  0  0
  148.8866  140.0759  155.5950 H   0  0  0  0  0  0  0  0  0  0  0  0
  149.5916  140.0891  153.1073 H   0  0  0  0  0  0  0  0  0  0  0  0
  150.7450  142.4304  154.9119 H   0  0  0  0  0  0  0  0  0  0  0  0
  149.5803  142.4950  156.2059 H   0  0  0  0  0  0  0  0  0  0  0  0
  151.7195  139.2932  155.5972 H   0  0  0  0  0  0  0  0  0  0  0  0
  153.5950  140.5205  160.1236 H   0  0  0  0  0  0  0  0  0  0  0  0
  152.3081  142.8627  162.3522 H   0  0  0  0  0  0  0  0  0  0  0  0
  153.6591  143.6942  161.5653 H   0  0  0  0  0  0  0  0  0  0  0  0
  153.7839  141.9824  161.9625 H   0  0  0  0  0  0  0  0  0  0  0  0
  150.5123  145.1664  159.6529 H   0  0  0  0  0  0  0  0  0  0  0  0
  152.0828  145.2301  160.4480 H   0  0  0  0  0  0  0  0  0  0  0  0
  150.7223  144.4109  161.2307 H   0  0  0  0  0  0  0  0  0  0  0  0
  150.3781  143.6612  157.8594 H   0  0  0  0  0  0  0  0  0  0  0  0
  143.3472  142.7104  155.0601 H   0  0  0  0  0  0  0  0  0  0  0  0
  143.6551  144.1650  154.1577 H   0  0  0  0  0  0  0  0  0  0  0  0
  142.0435  144.3051  155.9766 H   0  0  0  0  0  0  0  0  0  0  0  0
  153.1212  139.0084  157.7281 H   0  0  0  0  0  0  0  0  0  0  0  0
  1  2  1  0  0  0  0
  1 26  1  0  0  0  0
  1 27  1  0  0  0  0
  1 28  1  0  0  0  0
  2  3  1  0  0  0  0
  2 29  1  0  0  0  0
  2 30  1  0  0  0  0
  3 25  1  0  0  0  0
  3  4  1  0  0  0  0
  3 56  1  0  0  0  0
  4  5  1  0  0  0  0
  4 31  1  0  0  0  0
  4 32  1  0  0  0  0
  5  6  1  0  0  0  0
  5 33  1  0  0  0  0
  5 34  1  0  0  0  0
  6  7  1  0  0  0  0
  7  8  1  0  0  0  0
  7 25  1  0  0  0  0
  7 35  1  0  0  0  0
  8  9  1  0  0  0  0
  8 36  1  0  0  0  0
  8 37  1  0  0  0  0
  9 10  1  0  0  0  0
  9 38  1  0  0  0  0
 10 11  1  0  0  0  0
 10 39  1  0  0  0  0
 10 40  1  0  0  0  0
 11 12  1  0  0  0  0
 11 13  1  0  0  0  0
 11 41  1  0  0  0  0
 12 42  1  0  0  0  0
 13 14  1  0  0  0  0
 13 43  1  0  0  0  0
 13 44  1  0  0  0  0
 14 24  1  0  0  0  0
 14 15  1  0  0  0  0
 15 16  2  0  0  0  0
 15 45  1  0  0  0  0
 16 17  1  0  0  0  0
 16 57  1  0  0  0  0
 17 24  2  0  0  0  0
 17 18  1  0  0  0  0
 18 19  2  0  0  0  0
 18 46  1  0  0  0  0
 19 20  1  0  0  0  0
 19 21  1  0  0  0  0
 20 47  1  0  0  0  0
 20 48  1  0  0  0  0
 20 49  1  0  0  0  0
 21 22  1  0  0  0  0
 21 23  2  0  0  0  0
 22 50  1  0  0  0  0
 22 51  1  0  0  0  0
 22 52  1  0  0  0  0
 23 24  1  0  0  0  0
 23 53  1  0  0  0  0
 25 54  1  0  0  0  0
 25 55  1  0  0  0  0
M  CHG  1   3   1
M  CHG  1  16   1
M  END
> <s_m_source_file>
AV-unprocessed.smi

> <i_m_source_file_index>
1047

> <i_lp_mmshare_version>
43012

> <i_f3d_flags>
0

> <s_epik_input>
W0NIM11bQ0gyXU4xW0NIMl1bQ0gyXU9bQ0BIXShbQ0gyXTEpW0NIMl1bTkhdW0NIMl1bQ0BIXShbT0hdKVtDSDJdbihbY0hdbjIpYyhjMjMpW2NIXWMoW0NIM10pYyhbY0hdMylbQ0gzXQ==

> <s_epik_cmdline>
J2VwaWtfcHl0aG9uJywgJy1waCcsICc3LjAnLCAnLXRuJywgJzgnLCAnLW1hJywgJzIwMCcsICctbWV0YWxfYmluZGluZycsICctaW1hZScsICc8aW5maWxlLm1hZT4nLCAnLW9tYWUnLCAnPG91dGZpbGUubWFlPic=

> <r_epik_Ionization_Penalty>
2.03028

> <r_epik_Ionization_Penalty_Charging>
1.21256

> <r_epik_Ionization_Penalty_Neutral>
0.817715

> <r_epik_State_Penalty>
2.54959

> <r_epik_Charging_Adjusted_Penalty>
3.76215

> <i_epik_Tot_Q>
2

> <i_epik_Tot_abs_Q>
2

> <r_epik_Metal_State_Penalty>
6.52811

> <b_epik_Metal_Only>
0

> <s_lp_Force_Field>
OPLS_2005

> <r_lp_Energy>
33.7029

> <b_lp_Chiralities_Consistent>
1

> <s_lp_Variant>
AV-unprocessed.smi:1047-42

> <Gold.Version>
5.8.1

> <Gold.Id.Protein>
6NUR|6NUR_protein|mol2

> <Gold.PLP.Fitness>
56.3925

> <Gold.PLP.PLP>
-51.8376

> <Gold.PLP.part.hbond>
-3.0000

> <Gold.PLP.part.metal>
0.0000

> <Gold.PLP.part.buried>
-7.4689

> <Gold.PLP.part.nonpolar>
-41.6270

> <Gold.PLP.part.repulsive>
0.3823

> <Gold.PLP.ligand.clash>
0.0000

> <Gold.PLP.ligand.torsion>
0.6103

> <Gold.PLP.Chemscore.Hbond>
1.8960

> <Gold.PLP.Chemscore.CHOScore>
0.0000

> <Gold.PLP.Chemscore.Metal>
0.0000

> <Gold.Chemscore.Hbonds>
donor molecule, donor type, donor heavy atom, donor atom, acceptor molecule, acceptor atom, score
      L1  H    12    42       P1  7957  1.00
      P1  H  7989  7998       L1    12  0.86

> <Gold.PLP.Chemscore.Internal.Correction>
0.0874

> <Gold.Rescore>
     Score         DG    S(hbond)    S(metal)    S(lipo)     H(rot)  DE(clash)    DE(int)     intcor
     16.35     -17.82       1.11        0.00     132.95       2.71       0.06       1.41       ----

> <Gold.Chemscore.Fitness>
16.3508

> <Gold.Chemscore.DG>
-17.8207

> <Gold.Chemscore.ZeroCoef>
-5.4800

> <Gold.Chemscore.Hbond>
1.1138

> <Gold.Chemscore.Metal>
0.0000

> <Gold.Chemscore.Lipo>
132.9520

> <Gold.Chemscore.Internal_Hbond>
0.0000

> <Gold.Chemscore.DEClash>
0.0620

> <Gold.Chemscore.DEInternal>
1.4079

> <Gold.Chemscore.Rot>
2.7088

> <Gold.Chemscore.Internal.Correction>
   9.000000E+99

> <Gold.Chemscore.Hbonds>
donor molecule, donor type, donor heavy atom, donor atom, acceptor molecule, acceptor atom, score
      L1  H    12    42       P1  7957  0.93
      P1  H  7989  7998       L1    12  0.24

> <Gold.Chemscore.Hbond.Weighted>
-3.7199

> <Gold.Chemscore.Metal.Weighted>
-0.0000

> <Gold.Chemscore.Lipo.Weighted>
-15.5554

> <Gold.Chemscore.Internal_Hbond.Weighted>
0.0000

> <Gold.Chemscore.DEClash.Weighted>
0.0620

> <Gold.Chemscore.DEInternal.Weighted>
1.4079

> <Gold.Chemscore.Rot.Weighted>
6.9346

> <Gold.Chemscore.Internal.Correction.Weighted>
   9.000000E+99

> <Gold.Protein.RotatedTorsions>
[ 6907 6896 6895 6894 ] final  -53.34 input  -60.11 | X-H torsion
[ 7974 7965 7964 7962 ] final   49.26 input  175.53 | X-H torsion
[ 8008 7997 7996 7995 ] final   41.59 input   59.86 | X-H torsion
[ 10167 10162 10161 10158 ] final   84.30 input  -65.29 | X-H torsion
[ 10718 10713 10712 10709 ] final   38.01 input   66.30 | X-H torsion
[ 10763 10752 10751 10750 ] final  114.88 input  -60.55 | X-H torsion
[ 11005 11000 10999 10996 ] final   51.46 input  -57.11 | X-H torsion

> <Gold.Protein.ActiveResidues>
 VAL166  LYS551  ARG553  GLY616  TRP617  ASP618  TYR619  PRO620  LYS621  CYS622 
 ASP623  PHE694  ASN695  SER759  ASP760  ASP761  ALA762  ILE779  LEU786  VAL792 
 PHE793  MET794  SER795  GLU796  ALA797  LYS798  CYS799  TRP800  GLU811  SER814 

> <Gold.Protein.RotatedAtoms>
  150.8435  134.7736  159.6951 H   0  0  0  0  0  0  0  0  0  0  0  0  # atno 6907 bound_to 6896
  152.4517  134.5375  159.9839 H   0  0  0  0  0  0  0  0  0  0  0  0  # atno 6908 bound_to 6896
  151.5510  133.3379  159.2989 H   0  0  0  0  0  0  0  0  0  0  0  0  # atno 6909 bound_to 6896
  146.0126  139.4560  142.9946 H   0  0  0  0  0  0  0  0  0  0  0  0  # atno 7974 bound_to 7965
  155.2721  140.3366  155.4264 H   0  0  0  0  0  0  0  0  0  0  0  0  # atno 8008 bound_to 7997
  156.2128  140.1777  156.7698 H   0  0  0  0  0  0  0  0  0  0  0  0  # atno 8009 bound_to 7997
  154.5710  140.0670  156.8949 H   0  0  0  0  0  0  0  0  0  0  0  0  # atno 8010 bound_to 7997
  139.9095  144.6280  150.8552 H   0  0  0  0  0  0  0  0  0  0  0  0  # atno 10167 bound_to 10162
  157.3538  130.7612  149.6997 H   0  0  0  0  0  0  0  0  0  0  0  0  # atno 10718 bound_to 10713
  153.5139  135.3612  155.2600 H   0  0  0  0  0  0  0  0  0  0  0  0  # atno 10763 bound_to 10752
  154.8740  135.4029  154.3337 H   0  0  0  0  0  0  0  0  0  0  0  0  # atno 10764 bound_to 10752
  153.3995  135.7074  153.6503 H   0  0  0  0  0  0  0  0  0  0  0  0  # atno 10765 bound_to 10752
  140.0931  134.5182  155.8833 H   0  0  0  0  0  0  0  0  0  0  0  0  # atno 11005 bound_to 11000
  145.7318  141.0039  143.1347 LP  0  0  0  0  0  0  0  0  0  0  0  0  # atno 17320 bound_to 7965
  144.6959  139.8993  143.7457 LP  0  0  0  0  0  0  0  0  0  0  0  0  # atno 17321 bound_to 7965
  140.7688  143.3376  151.2275 LP  0  0  0  0  0  0  0  0  0  0  0  0  # atno 17342 bound_to 10162
  139.6955  143.9620  152.2880 LP  0  0  0  0  0  0  0  0  0  0  0  0  # atno 17343 bound_to 10162
  155.9726  130.4133  150.4075 LP  0  0  0  0  0  0  0  0  0  0  0  0  # atno 17370 bound_to 10713
  157.2142  131.0467  151.2582 LP  0  0  0  0  0  0  0  0  0  0  0  0  # atno 17371 bound_to 10713
  141.2084  133.6673  156.6368 LP  0  0  0  0  0  0  0  0  0  0  0  0  # atno 17394 bound_to 11000
  140.3324  134.7917  157.4336 LP  0  0  0  0  0  0  0  0  0  0  0  0  # atno 17395 bound_to 11000

$$$$
