#       Name:                AV-unprocessed.smi:271
#       Creating user name   scv26
#       Creation time:       Thu Mar 26 21:27:57 2020


#       File generated by GOLD software.
#

@<TRIPOS>MOLECULE
AV-unprocessed.smi:271
    67    69     1
SMALL
NO_CHARGES


@<TRIPOS>ATOM
      1 ****        -2.7686  -3.8798   1.7940 C.3            1 S1                 0.0000
      2 ****        -3.2911  -2.5931   1.1369 C.3            1 S1                 0.0000
      3 ****        -3.2287  -2.7102  -0.3957 C.3            1 S1                 0.0000
      4 ****        -2.5243  -1.3632   1.6612 C.3            1 S1                 0.0000
      5 ****        -3.1506  -0.0167   1.2402 C.3            1 S1                 0.0000
      6 ****        -2.4841   1.1499   1.8194 N.3            1 S1                 0.0000
      7 ****        -3.1883   2.4156   1.6244 C.3            1 S1                 0.0000
      8 ****        -2.5873   3.5793   2.4292 C.3            1 S1                 0.0000
      9 ****        -3.3539   4.8233   2.2685 C.1            1 S1                 0.0000
     10 ****        -3.9573   5.8023   2.1417 N.1            1 S1                 0.0000
     11 ****        -1.1684   1.2278   1.5154 C.ar           1 S1                 0.0000
     12 ****        -0.2886   1.1195   2.5411 N.ar           1 S1                 0.0000
     13 ****         1.0244   1.1792   2.3014 C.ar           1 S1                 0.0000
     14 ****         1.6534   1.3366   1.1349 N.ar           1 S1                 0.0000
     15 ****         0.7707   1.4428   0.1008 C.ar           1 S1                 0.0000
     16 ****        -0.6482   1.4074   0.2027 C.ar           1 S1                 0.0000
     17 ****        -1.2188   1.5624  -1.0542 N.2            1 S1                 0.0000
     18 ****        -0.1950   1.6800  -1.8542 C.2            1 S1                 0.0000
     19 ****         1.0398   1.5975  -1.2491 N.pl3          1 S1                 0.0000
     20 ****         2.3354   1.6823  -1.9085 C.3            1 S1                 0.0000
     21 ****         2.8858   0.3205  -2.4171 C.3            1 S1                 0.0000
     22 ****         1.9137  -0.3824  -3.3951 C.3            1 S1                 0.0000
     23 ****         1.6522   0.4277  -4.5224 O.3            1 S1                 0.0000
     24 ****         3.2886  -0.6204  -1.2512 C.3            1 S1                 0.0000
     25 ****         4.4250  -0.1037  -0.3837 C.3            1 S1                 0.0000
     26 ****         4.8743  -1.3662   0.3426 C.3            1 S1                 0.0000
     27 ****         4.6543  -2.4315  -0.5747 O.3            1 S1                 0.0000
     28 ****         3.8786  -1.9699  -1.6762 C.3            1 S1                 0.0000
     29 ****        -1.7179  -4.0487   1.5551 H              1 S1                 0.0000
     30 ****        -3.3305  -4.7511   1.4563 H              1 S1                 0.0000
     31 ****        -2.8596  -3.8336   2.8796 H              1 S1                 0.0000
     32 ****        -4.3384  -2.4865   1.4226 H              1 S1                 0.0000
     33 ****        -2.1987  -2.7782  -0.7469 H              1 S1                 0.0000
     34 ****        -3.6920  -1.8540  -0.8852 H              1 S1                 0.0000
     35 ****        -3.7559  -3.5998  -0.7412 H              1 S1                 0.0000
     36 ****        -2.4946  -1.4003   2.7512 H              1 S1                 0.0000
     37 ****        -1.4875  -1.4249   1.3278 H              1 S1                 0.0000
     38 ****        -3.1573   0.0778   0.1546 H              1 S1                 0.0000
     39 ****        -4.1953  -0.0020   1.5528 H              1 S1                 0.0000
     40 ****        -3.2064   2.6669   0.5633 H              1 S1                 0.0000
     41 ****        -4.2280   2.2805   1.9244 H              1 S1                 0.0000
     42 ****        -2.5639   3.3368   3.4918 H              1 S1                 0.0000
     43 ****        -1.5633   3.7886   2.1187 H              1 S1                 0.0000
     44 ****         1.6631   1.0856   3.1674 H              1 S1                 0.0000
     45 ****        -0.3136   1.8200  -2.9187 H              1 S1                 0.0000
     46 ****         2.2372   2.3755  -2.7445 H              1 S1                 0.0000
     47 ****         3.0414   2.1548  -1.2257 H              1 S1                 0.0000
     48 ****         3.7958   0.5387  -2.9784 H              1 S1                 0.0000
     49 ****         2.3418  -1.3127  -3.7675 H              1 S1                 0.0000
     50 ****         0.9755  -0.6451  -2.9066 H              1 S1                 0.0000
     51 ****         1.0858  -0.0491  -5.1101 H              1 S1                 0.0000
     52 ****         2.4212  -0.8173  -0.6195 H              1 S1                 0.0000
     53 ****         5.2368   0.2759  -1.0058 H              1 S1                 0.0000
     54 ****         4.1327   0.6873   0.3053 H              1 S1                 0.0000
     55 ****         5.9166  -1.3182   0.6587 H              1 S1                 0.0000
     56 ****         4.2583  -1.5353   1.2267 H              1 S1                 0.0000
     57 ****         3.1111  -2.6973  -1.9416 H              1 S1                 0.0000
     58 ****         4.5415  -1.8495  -2.5343 H              1 S1                 0.0000
     59 ****        -2.5302   0.9849   2.8046 LP             1 S1                 0.0000
     60 ****        -4.4788   6.6484   2.0321 LP             1 S1                 0.0000
     61 ****        -0.6219   0.9951   3.4756 LP             1 S1                 0.0000
     62 ****         2.6475   1.3722   1.0320 LP             1 S1                 0.0000
     63 ****        -2.1901   1.5798  -1.2912 LP             1 S1                 0.0000
     64 ****         2.5106   0.6478  -4.9859 LP             1 S1                 0.0000
     65 ****         1.2032   1.2731  -4.2333 LP             1 S1                 0.0000
     66 ****         4.1661  -3.1718  -0.1124 LP             1 S1                 0.0000
     67 ****         5.5346  -2.7697  -0.9076 LP             1 S1                 0.0000
@<TRIPOS>BOND
    1    1    2 1     
    2    1   29 1     
    3    1   30 1     
    4    1   31 1     
    5    2    3 1     
    6    2    4 1     
    7    2   32 1     
    8    3   33 1     
    9    3   34 1     
   10    3   35 1     
   11    4    5 1     
   12    4   36 1     
   13    4   37 1     
   14    5    6 1     
   15    5   38 1     
   16    5   39 1     
   17    6    7 1     
   18    6   11 1     
   19    7    8 1     
   20    7   40 1     
   21    7   41 1     
   22    8    9 1     
   23    8   42 1     
   24    8   43 1     
   25    9   10 3     
   26   11   16 ar    
   27   11   12 ar    
   28   12   13 ar    
   29   13   14 ar    
   30   13   44 1     
   31   14   15 ar    
   32   15   19 1     
   33   15   16 ar    
   34   16   17 1     
   35   17   18 2     
   36   18   19 1     
   37   18   45 1     
   38   19   20 1     
   39   20   21 1     
   40   20   46 1     
   41   20   47 1     
   42   21   22 1     
   43   21   24 1     
   44   21   48 1     
   45   22   23 1     
   46   22   49 1     
   47   22   50 1     
   48   23   51 1     
   49   24   28 1     
   50   24   25 1     
   51   24   52 1     
   52   25   26 1     
   53   25   53 1     
   54   25   54 1     
   55   26   27 1     
   56   26   55 1     
   57   26   56 1     
   58   27   28 1     
   59   28   57 1     
   60   28   58 1     
   61    6   59 1     
   62   10   60 1     
   63   12   61 1     
   64   14   62 1     
   65   17   63 1     
   66   23   64 1     
   67   23   65 1     
   68   27   66 1     
   69   27   67 1     
@<TRIPOS>SUBSTRUCTURE
      1 S1             1
@<TRIPOS>SET
LONE_PAIRS      STATIC     ATOMS    <user>   **** ""
9 59 60 61 62 63 64 65 66 67
DONOR_HYDROGENS      STATIC     ATOMS    <user>   **** ""
1 51
ATOM$BLUE        STATIC     ATOMS    COLORGROUP SYSTEM
9 59 60 61 62 63 64 65 66 67
ATOM$RED        STATIC     ATOMS    COLORGROUP SYSTEM
1 51
