AV-unprocessed.smi:1|AV-procd|sdf|20|dock8
  -GOLD-   2262015123D 1   1.00000     0.00000
 Structure written by MMmdl.
 56 61  0  0  0  0  0  0  0  0  2 V2000
  150.5542  141.8789  155.8687 O   0  0  0  0  0  0  0  0  0  0  0  0
  151.4304  141.5478  156.6704 C   0  0  0  0  0  0  0  0  0  0  0  0
  152.1777  140.4148  156.6663 N   0  5  0  0  0  0  0  0  0  0  0  0
  151.6941  139.3011  156.0947 C   0  0  0  0  0  0  0  0  0  0  0  0
  151.7636  139.1349  154.7494 N   0  0  0  0  0  0  0  0  0  0  0  0
  151.2875  138.0218  154.1804 C   0  0  0  0  0  0  0  0  0  0  0  0
  150.7098  136.9645  154.7584 N   0  0  0  0  0  0  0  0  0  0  0  0
  150.6212  137.1228  156.1110 C   0  0  0  0  0  0  0  0  0  0  0  0
  151.0821  138.2569  156.8417 C   0  0  0  0  0  0  0  0  0  0  0  0
  150.8354  138.1028  158.1973 N   0  0  0  0  0  0  0  0  0  0  0  0
  150.2538  136.9063  158.2297 C   0  0  0  0  0  0  0  0  0  0  0  0
  150.0970  136.2569  157.0589 N   0  0  0  0  0  0  0  0  0  0  0  0
  149.4734  134.9134  156.8545 C   0  0  1  0  0  0  0  0  0  0  0  0
  148.1694  135.0781  156.3812 O   0  0  0  0  0  0  0  0  0  0  0  0
  148.0394  134.5407  155.0676 C   0  0  2  0  0  0  0  0  0  0  0  0
  146.6159  134.0298  154.8202 C   0  0  0  0  0  0  0  0  0  0  0  0
  146.4253  133.8744  153.4240 O   0  0  0  0  0  0  0  0  0  0  0  0
  145.1933  133.9785  152.8923 C   0  0  0  0  0  0  0  0  0  0  0  0
  144.2630  134.5756  153.4376 O   0  0  0  0  0  0  0  0  0  0  0  0
  145.0734  133.2936  151.5729 C   0  0  0  0  0  0  0  0  0  0  0  0
  146.2429  132.8480  150.9140 C   0  0  0  0  0  0  0  0  0  0  0  0
  146.1603  132.1963  149.6682 C   0  0  0  0  0  0  0  0  0  0  0  0
  144.9071  131.9823  149.0657 C   0  0  0  0  0  0  0  0  0  0  0  0
  143.7362  132.4213  149.7105 C   0  0  0  0  0  0  0  0  0  0  0  0
  143.8166  133.0731  150.9566 C   0  0  0  0  0  0  0  0  0  0  0  0
  149.1231  133.4669  154.9970 C   0  0  2  0  0  0  0  0  0  0  0  0
  148.7037  132.2662  155.6245 O   0  0  0  0  0  0  0  0  0  0  0  0
  149.9663  131.6896  156.5543 S   0  0  0  0  0  0  0  0  0  0  0  0
  149.4924  131.5543  157.9402 O   0  0  0  0  0  0  0  0  0  0  0  0
  150.6121  130.5877  155.8252 O   0  0  0  0  0  0  0  0  0  0  0  0
  150.9640  133.0277  156.4680 O   0  0  0  0  0  0  0  0  0  0  0  0
  150.2544  134.0750  155.8307 C   0  0  2  0  0  0  0  0  0  0  0  0
  151.7063  142.4387  157.8519 C   0  0  0  0  0  0  0  0  0  0  0  0
  151.2343  143.7711  157.8494 C   0  0  0  0  0  0  0  0  0  0  0  0
  151.5055  144.6292  158.9330 C   0  0  0  0  0  0  0  0  0  0  0  0
  152.2605  144.1667  160.0270 C   0  0  0  0  0  0  0  0  0  0  0  0
  152.7472  142.8462  160.0348 C   0  0  0  0  0  0  0  0  0  0  0  0
  152.4760  141.9872  158.9518 C   0  0  0  0  0  0  0  0  0  0  0  0
  151.3866  137.9695  153.1065 H   0  0  0  0  0  0  0  0  0  0  0  0
  149.9262  136.4738  159.1635 H   0  0  0  0  0  0  0  0  0  0  0  0
  149.4412  134.4647  157.8483 H   0  0  0  0  0  0  0  0  0  0  0  0
  148.2774  135.3170  154.3409 H   0  0  0  0  0  0  0  0  0  0  0  0
  146.4797  133.0628  155.3063 H   0  0  0  0  0  0  0  0  0  0  0  0
  145.8792  134.7179  155.2371 H   0  0  0  0  0  0  0  0  0  0  0  0
  147.2160  133.0008  151.3576 H   0  0  0  0  0  0  0  0  0  0  0  0
  147.0604  131.8605  149.1747 H   0  0  0  0  0  0  0  0  0  0  0  0
  144.8442  131.4823  148.1105 H   0  0  0  0  0  0  0  0  0  0  0  0
  142.7730  132.2575  149.2500 H   0  0  0  0  0  0  0  0  0  0  0  0
  142.8982  133.3961  151.4245 H   0  0  0  0  0  0  0  0  0  0  0  0
  149.4291  133.2476  153.9736 H   0  0  0  0  0  0  0  0  0  0  0  0
  150.9085  134.6996  155.2217 H   0  0  0  0  0  0  0  0  0  0  0  0
  150.6554  144.1422  157.0160 H   0  0  0  0  0  0  0  0  0  0  0  0
  151.1348  145.6435  158.9230 H   0  0  0  0  0  0  0  0  0  0  0  0
  152.4694  144.8247  160.8571 H   0  0  0  0  0  0  0  0  0  0  0  0
  153.3326  142.4914  160.8701 H   0  0  0  0  0  0  0  0  0  0  0  0
  152.8684  140.9806  158.9721 H   0  0  0  0  0  0  0  0  0  0  0  0
  1  2  2  0  0  0  0
  2  3  1  0  0  0  0
  2 33  1  0  0  0  0
  3  4  1  0  0  0  0
  4  9  1  0  0  0  0
  4  5  2  0  0  0  0
  5  6  1  0  0  0  0
  6  7  2  0  0  0  0
  6 39  1  0  0  0  0
  7  8  1  0  0  0  0
  8 12  1  0  0  0  0
  8  9  2  0  0  0  0
  9 10  1  0  0  0  0
 10 11  2  0  0  0  0
 11 12  1  0  0  0  0
 11 40  1  0  0  0  0
 12 13  1  0  0  0  0
 13 32  1  0  0  0  0
 13 14  1  0  0  0  0
 13 41  1  0  0  0  0
 14 15  1  0  0  0  0
 15 16  1  0  0  0  0
 15 26  1  0  0  0  0
 15 42  1  0  0  0  0
 16 17  1  0  0  0  0
 16 43  1  0  0  0  0
 16 44  1  0  0  0  0
 17 18  1  0  0  0  0
 18 19  2  0  0  0  0
 18 20  1  0  0  0  0
 20 25  1  0  0  0  0
 20 21  2  0  0  0  0
 21 22  1  0  0  0  0
 21 45  1  0  0  0  0
 22 23  2  0  0  0  0
 22 46  1  0  0  0  0
 23 24  1  0  0  0  0
 23 47  1  0  0  0  0
 24 25  2  0  0  0  0
 24 48  1  0  0  0  0
 25 49  1  0  0  0  0
 26 32  1  0  0  0  0
 26 27  1  0  0  0  0
 26 50  1  0  0  0  0
 27 28  1  0  0  0  0
 28 29  2  0  0  0  0
 28 30  2  0  0  0  0
 28 31  1  0  0  0  0
 31 32  1  0  0  0  0
 32 51  1  0  0  0  0
 33 38  1  0  0  0  0
 33 34  2  0  0  0  0
 34 35  1  0  0  0  0
 34 52  1  0  0  0  0
 35 36  2  0  0  0  0
 35 53  1  0  0  0  0
 36 37  1  0  0  0  0
 36 54  1  0  0  0  0
 37 38  2  0  0  0  0
 37 55  1  0  0  0  0
 38 56  1  0  0  0  0
M  CHG  1   3  -1
M  END
> <s_m_source_file>
AV-unprocessed.smi

> <i_m_source_file_index>
1

> <i_lp_mmshare_version>
43012

> <i_f3d_flags>
0

> <s_epik_input>
W2NIXTFbY0hdW2NIXVtjSF1bY0hdYzFDKD1PKVtOSF1jKG5bY0hdbjIpYyhjMjMpbltjSF1uM1tDQEBIXShbQ0BIXShbQ0BIXTQ1KU9TKE81KSg9Tyk9TylPW0NASF00W0NIMl1PQyg9TyljNltjSF1bY0hdW2NIXVtjSF1bY0hdNg==

> <s_epik_cmdline>
J2VwaWtfcHl0aG9uJywgJy1waCcsICc3LjAnLCAnLXRuJywgJzgnLCAnLW1hJywgJzIwMCcsICctbWV0YWxfYmluZGluZycsICctaW1hZScsICc8aW5maWxlLm1hZT4nLCAnLW9tYWUnLCAnPG91dGZpbGUubWFlPic=

> <r_lp_tautomer_probability>
1

> <r_epik_Ionization_Penalty>
4.39121

> <r_epik_Ionization_Penalty_Charging>
3.39398

> <r_epik_Ionization_Penalty_Neutral>
0.997232

> <r_epik_State_Penalty>
3.39839

> <r_epik_Charging_Adjusted_Penalty>
6.79237

> <i_epik_Tot_Q>
-1

> <i_epik_Tot_abs_Q>
1

> <r_epik_Metal_State_Penalty>
0.497663

> <b_epik_Metal_Only>
1

> <s_epik_Chemistry_Notes>
This compound has an ester and may undergo hydrolysis at high or low pH. This compound contains an acetal/aminal-like group ( X-CH(R)-Y where X, Y are N, S, or O) that may be acid/base labile, releasing an aldehyde.

> <s_lp_Force_Field>
OPLS_2005

> <r_lp_Energy>
42.8802

> <b_lp_Chiralities_Consistent>
1

> <s_lp_Variant>
AV-unprocessed.smi:1-20

> <Gold.Version>
5.8.1

> <Gold.Id.Protein>
6NUR|6NUR_protein|mol2

> <Gold.PLP.Fitness>
61.4704

> <Gold.PLP.PLP>
-54.2295

> <Gold.PLP.part.hbond>
-2.0000

> <Gold.PLP.part.metal>
0.0000

> <Gold.PLP.part.buried>
-5.8289

> <Gold.PLP.part.nonpolar>
-44.8325

> <Gold.PLP.part.repulsive>
0.5263

> <Gold.PLP.ligand.clash>
0.0000

> <Gold.PLP.ligand.torsion>
2.1780

> <Gold.PLP.Chemscore.Hbond>
2.9099

> <Gold.PLP.Chemscore.CHOScore>
0.7438

> <Gold.PLP.Chemscore.Metal>
0.0000

> <Gold.Chemscore.Hbonds>
donor molecule, donor type, donor heavy atom, donor atom, acceptor molecule, acceptor atom, score
      P1  H  7989  7998       L1     5  0.75
      P1  H  7997  8010       L1     3  1.19
      L1  C     6    39       P1  7949  0.93

> <Gold.PLP.Chemscore.Internal.Correction>
0.6358

> <Gold.Rescore>
     Score         DG    S(hbond)    S(metal)    S(lipo)     H(rot)  DE(clash)    DE(int)     intcor
     17.93     -19.94       1.05        0.00     139.88       2.11       0.10       1.91       ----

> <Gold.Chemscore.Fitness>
17.9267

> <Gold.Chemscore.DG>
-19.9371

> <Gold.Chemscore.ZeroCoef>
-5.4800

> <Gold.Chemscore.Hbond>
1.0486

> <Gold.Chemscore.Metal>
0.0000

> <Gold.Chemscore.Lipo>
139.8759

> <Gold.Chemscore.Internal_Hbond>
0.0000

> <Gold.Chemscore.DEClash>
0.1029

> <Gold.Chemscore.DEInternal>
1.9075

> <Gold.Chemscore.Rot>
2.1136

> <Gold.Chemscore.Internal.Correction>
   9.000000E+99

> <Gold.Chemscore.Hbonds>
donor molecule, donor type, donor heavy atom, donor atom, acceptor molecule, acceptor atom, score
      P1  H  7989  7998       L1     5  0.61
      P1  H  7997  8010       L1     3  0.20

> <Gold.Chemscore.Hbond.Weighted>
-3.5023

> <Gold.Chemscore.Metal.Weighted>
-0.0000

> <Gold.Chemscore.Lipo.Weighted>
-16.3655

> <Gold.Chemscore.Internal_Hbond.Weighted>
0.0000

> <Gold.Chemscore.DEClash.Weighted>
0.1029

> <Gold.Chemscore.DEInternal.Weighted>
1.9075

> <Gold.Chemscore.Rot.Weighted>
5.4107

> <Gold.Chemscore.Internal.Correction.Weighted>
   9.000000E+99

> <Gold.Protein.RotatedTorsions>
[ 6907 6896 6895 6894 ] final  117.67 input  -60.11 | X-H torsion
[ 7974 7965 7964 7962 ] final -106.90 input  175.53 | X-H torsion
[ 8008 7997 7996 7995 ] final   70.37 input   59.86 | X-H torsion
[ 10167 10162 10161 10158 ] final -165.77 input  -65.29 | X-H torsion
[ 10718 10713 10712 10709 ] final  -72.65 input   66.30 | X-H torsion
[ 10763 10752 10751 10750 ] final  -43.54 input  -60.55 | X-H torsion
[ 11005 11000 10999 10996 ] final  106.60 input  -57.11 | X-H torsion

> <Gold.Protein.ActiveResidues>
 VAL166  LYS551  ARG553  GLY616  TRP617  ASP618  TYR619  PRO620  LYS621  CYS622 
 ASP623  PHE694  ASN695  SER759  ASP760  ASP761  ALA762  ILE779  LEU786  VAL792 
 PHE793  MET794  SER795  GLU796  ALA797  LYS798  CYS799  TRP800  GLU811  SER814 

> <Gold.Protein.RotatedAtoms>
  152.4596  133.7794  159.6841 H   0  0  0  0  0  0  0  0  0  0  0  0  # atno 6907 bound_to 6896
  150.8534  133.7742  159.3023 H   0  0  0  0  0  0  0  0  0  0  0  0  # atno 6908 bound_to 6896
  151.5330  135.1071  159.9959 H   0  0  0  0  0  0  0  0  0  0  0  0  # atno 6909 bound_to 6896
  145.2120  140.9100  143.3309 H   0  0  0  0  0  0  0  0  0  0  0  0  # atno 7974 bound_to 7965
  155.7378  140.3491  155.5090 H   0  0  0  0  0  0  0  0  0  0  0  0  # atno 8008 bound_to 7997
  155.9122  140.1052  157.1292 H   0  0  0  0  0  0  0  0  0  0  0  0  # atno 8009 bound_to 7997
  154.4057  140.1265  156.4559 H   0  0  0  0  0  0  0  0  0  0  0  0  # atno 8010 bound_to 7997
  139.6159  144.0720  152.1887 H   0  0  0  0  0  0  0  0  0  0  0  0  # atno 10167 bound_to 10162
  156.0311  130.4377  150.2625 H   0  0  0  0  0  0  0  0  0  0  0  0  # atno 10718 bound_to 10713
  153.9973  135.6698  153.4757 H   0  0  0  0  0  0  0  0  0  0  0  0  # atno 10763 bound_to 10752
  153.0678  135.4991  154.8235 H   0  0  0  0  0  0  0  0  0  0  0  0  # atno 10764 bound_to 10752
  154.7074  135.3090  154.9212 H   0  0  0  0  0  0  0  0  0  0  0  0  # atno 10765 bound_to 10752
  139.8816  134.9374  156.5691 H   0  0  0  0  0  0  0  0  0  0  0  0  # atno 11005 bound_to 11000
  144.9847  139.3748  143.6245 LP  0  0  0  0  0  0  0  0  0  0  0  0  # atno 17320 bound_to 7965
  146.3395  139.9003  142.8795 LP  0  0  0  0  0  0  0  0  0  0  0  0  # atno 17321 bound_to 7965
  140.0350  144.6051  150.7457 LP  0  0  0  0  0  0  0  0  0  0  0  0  # atno 17342 bound_to 10162
  140.7351  143.2736  151.3810 LP  0  0  0  0  0  0  0  0  0  0  0  0  # atno 17343 bound_to 10162
  157.0727  131.0121  151.3184 LP  0  0  0  0  0  0  0  0  0  0  0  0  # atno 17370 bound_to 10713
  157.4987  130.7866  149.7582 LP  0  0  0  0  0  0  0  0  0  0  0  0  # atno 17371 bound_to 10713
  140.8112  133.8428  155.8811 LP  0  0  0  0  0  0  0  0  0  0  0  0  # atno 17394 bound_to 11000
  140.9505  134.1785  157.4731 LP  0  0  0  0  0  0  0  0  0  0  0  0  # atno 17395 bound_to 11000

$$$$
