AV-unprocessed.smi:3004|AV-procd|sdf|11440|dock4
  -GOLD-   2272016373D 1   1.00000     0.00000
 Structure written by MMmdl.
 47 48  0  0  0  0  0  0  0  0  2 V2000
  145.7631  131.0312  153.5479 C   0  0  0  0  0  0  0  0  0  0  0  0
  145.4433  131.7741  152.2844 C   0  0  0  0  0  0  0  0  0  0  0  0
  144.7627  131.2979  151.1291 C   0  0  0  0  0  0  0  0  0  0  0  0
  144.7469  132.3687  150.2806 C   0  0  0  0  0  0  0  0  0  0  0  0
  144.1757  132.5012  148.9070 C   0  0  0  0  0  0  0  0  0  0  0  0
  145.3914  133.4059  150.9318 N   0  0  0  0  0  0  0  0  0  0  0  0
  145.6423  134.7643  150.4732 C   0  0  0  0  0  0  0  0  0  0  0  0
  145.2032  135.7986  151.5118 C   0  0  0  0  0  0  0  0  0  0  0  0
  144.0092  135.9355  151.7777 O   0  0  0  0  0  0  0  0  0  0  0  0
  146.1744  136.5195  152.0942 N   0  0  0  0  0  0  0  0  0  0  0  0
  145.9636  137.5321  153.1207 C   0  0  0  0  0  0  0  0  0  0  0  0
  146.7326  138.8288  152.7971 C   0  0  0  0  0  0  0  0  0  0  0  0
  146.0968  140.0496  153.3628 N   0  3  1  0  0  0  0  0  0  0  0  0
  145.4899  139.7940  154.6976 C   0  0  0  0  0  0  0  0  0  0  0  0
  144.6476  140.9895  155.1700 C   0  0  0  0  0  0  0  0  0  0  0  0
  145.4791  142.2766  155.1871 C   0  0  0  0  0  0  0  0  0  0  0  0
  146.1088  142.5079  153.8066 C   0  0  0  0  0  0  0  0  0  0  0  0
  146.9316  141.2922  153.3283 C   0  0  1  0  0  0  0  0  0  0  0  0
  148.2701  141.1604  154.0867 C   0  0  0  0  0  0  0  0  0  0  0  0
  145.8145  133.0376  152.1611 N   0  0  0  0  0  0  0  0  0  0  0  0
  145.2928  130.0476  153.5567 H   0  0  0  0  0  0  0  0  0  0  0  0
  145.4107  131.5744  154.4248 H   0  0  0  0  0  0  0  0  0  0  0  0
  146.8382  130.8854  153.6546 H   0  0  0  0  0  0  0  0  0  0  0  0
  144.3502  130.3158  150.9496 H   0  0  0  0  0  0  0  0  0  0  0  0
  143.7133  131.5677  148.5861 H   0  0  0  0  0  0  0  0  0  0  0  0
  144.9522  132.7559  148.1857 H   0  0  0  0  0  0  0  0  0  0  0  0
  143.4134  133.2797  148.8759 H   0  0  0  0  0  0  0  0  0  0  0  0
  146.7051  134.8886  150.2592 H   0  0  0  0  0  0  0  0  0  0  0  0
  145.1095  134.9237  149.5349 H   0  0  0  0  0  0  0  0  0  0  0  0
  147.1281  136.3401  151.8131 H   0  0  0  0  0  0  0  0  0  0  0  0
  144.8908  137.7162  153.1625 H   0  0  0  0  0  0  0  0  0  0  0  0
  146.2565  137.1425  154.0972 H   0  0  0  0  0  0  0  0  0  0  0  0
  147.7341  138.7464  153.2213 H   0  0  0  0  0  0  0  0  0  0  0  0
  146.8749  138.9351  151.7216 H   0  0  0  0  0  0  0  0  0  0  0  0
  144.8476  138.9141  154.6452 H   0  0  0  0  0  0  0  0  0  0  0  0
  146.2681  139.5643  155.4262 H   0  0  0  0  0  0  0  0  0  0  0  0
  143.7896  141.1167  154.5084 H   0  0  0  0  0  0  0  0  0  0  0  0
  144.2449  140.7928  156.1641 H   0  0  0  0  0  0  0  0  0  0  0  0
  144.8509  143.1252  155.4597 H   0  0  0  0  0  0  0  0  0  0  0  0
  146.2558  142.2090  155.9495 H   0  0  0  0  0  0  0  0  0  0  0  0
  145.3148  142.7080  153.0852 H   0  0  0  0  0  0  0  0  0  0  0  0
  146.7302  143.4040  153.8251 H   0  0  0  0  0  0  0  0  0  0  0  0
  147.1772  141.4987  152.2873 H   0  0  0  0  0  0  0  0  0  0  0  0
  148.8267  142.0972  154.0481 H   0  0  0  0  0  0  0  0  0  0  0  0
  148.9125  140.3982  153.6466 H   0  0  0  0  0  0  0  0  0  0  0  0
  148.1289  140.9114  155.1381 H   0  0  0  0  0  0  0  0  0  0  0  0
  145.3126  140.2407  152.7554 H   0  0  0  0  0  0  0  0  0  0  0  0
  1  2  1  0  0  0  0
  1 21  1  0  0  0  0
  1 22  1  0  0  0  0
  1 23  1  0  0  0  0
  2 20  2  0  0  0  0
  2  3  1  0  0  0  0
  3  4  2  0  0  0  0
  3 24  1  0  0  0  0
  4  5  1  0  0  0  0
  4  6  1  0  0  0  0
  5 25  1  0  0  0  0
  5 26  1  0  0  0  0
  5 27  1  0  0  0  0
  6  7  1  0  0  0  0
  6 20  1  0  0  0  0
  7  8  1  0  0  0  0
  7 28  1  0  0  0  0
  7 29  1  0  0  0  0
  8  9  2  0  0  0  0
  8 10  1  0  0  0  0
 10 11  1  0  0  0  0
 10 30  1  0  0  0  0
 11 12  1  0  0  0  0
 11 31  1  0  0  0  0
 11 32  1  0  0  0  0
 12 13  1  0  0  0  0
 12 33  1  0  0  0  0
 12 34  1  0  0  0  0
 13 18  1  0  0  0  0
 13 14  1  0  0  0  0
 13 47  1  0  0  0  0
 14 15  1  0  0  0  0
 14 35  1  0  0  0  0
 14 36  1  0  0  0  0
 15 16  1  0  0  0  0
 15 37  1  0  0  0  0
 15 38  1  0  0  0  0
 16 17  1  0  0  0  0
 16 39  1  0  0  0  0
 16 40  1  0  0  0  0
 17 18  1  0  0  0  0
 17 41  1  0  0  0  0
 17 42  1  0  0  0  0
 18 19  1  0  0  0  0
 18 43  1  0  0  0  0
 19 44  1  0  0  0  0
 19 45  1  0  0  0  0
 19 46  1  0  0  0  0
M  CHG  1  13   1
M  END
> <s_m_source_file>
AV-unprocessed.smi

> <i_m_source_file_index>
3004

> <i_lp_mmshare_version>
43012

> <i_f3d_flags>
0

> <s_epik_input>
W0NIM11jMVtjSF1jKFtDSDNdKW4objEpW0NIMl1DKD1PKVtOSF1bQ0gyXVtDSDJdTjJbQ0gyXVtDSDJdW0NIMl1bQ0gyXVtDQEhdMltDSDNd

> <s_epik_cmdline>
J2VwaWtfcHl0aG9uJywgJy1waCcsICc3LjAnLCAnLXRuJywgJzgnLCAnLW1hJywgJzIwMCcsICctbWV0YWxfYmluZGluZycsICctaW1hZScsICc8aW5maWxlLm1hZT4nLCAnLW9tYWUnLCAnPG91dGZpbGUubWFlPic=

> <r_lp_tautomer_probability>
1

> <r_epik_Ionization_Penalty>
0.00303644

> <r_epik_Ionization_Penalty_Charging>
0.00284254

> <r_epik_Ionization_Penalty_Neutral>
0.000193908

> <r_epik_State_Penalty>
-0

> <r_epik_Charging_Adjusted_Penalty>
0.00284254

> <i_epik_Tot_Q>
1

> <i_epik_Tot_abs_Q>
1

> <r_epik_Metal_State_Penalty>
-0

> <b_epik_Metal_Only>
0

> <s_lp_Force_Field>
OPLS_2005

> <r_lp_Energy>
17.9546

> <b_lp_Chiralities_Consistent>
1

> <s_lp_Variant>
AV-unprocessed.smi:3004-2

> <Gold.Version>
5.8.1

> <Gold.Id.Protein>
6NUR|6NUR_protein|mol2

> <Gold.PLP.Fitness>
45.9944

> <Gold.PLP.PLP>
-37.9967

> <Gold.PLP.part.hbond>
-2.0000

> <Gold.PLP.part.metal>
0.0000

> <Gold.PLP.part.buried>
-5.8352

> <Gold.PLP.part.nonpolar>
-30.3822

> <Gold.PLP.part.repulsive>
0.3095

> <Gold.PLP.ligand.clash>
0.0000

> <Gold.PLP.ligand.torsion>
0.5361

> <Gold.PLP.Chemscore.Hbond>
3.0000

> <Gold.PLP.Chemscore.CHOScore>
0.0000

> <Gold.PLP.Chemscore.Metal>
0.0000

> <Gold.Chemscore.Hbonds>
donor molecule, donor type, donor heavy atom, donor atom, acceptor molecule, acceptor atom, score
      L1  H    10    30       P1  7948  1.00
      L1  H    13    47       P1 10175  2.00

> <Gold.PLP.Chemscore.Internal.Correction>
0.0700

> <Gold.Rescore>
     Score         DG    S(hbond)    S(metal)    S(lipo)     H(rot)  DE(clash)    DE(int)     intcor
     16.21     -16.86       1.65        0.00      86.55       1.67       0.02       0.63       ----

> <Gold.Chemscore.Fitness>
16.2063

> <Gold.Chemscore.DG>
-16.8599

> <Gold.Chemscore.ZeroCoef>
-5.4800

> <Gold.Chemscore.Hbond>
1.6519

> <Gold.Chemscore.Metal>
0.0000

> <Gold.Chemscore.Lipo>
86.5536

> <Gold.Chemscore.Internal_Hbond>
0.0000

> <Gold.Chemscore.DEClash>
0.0241

> <Gold.Chemscore.DEInternal>
0.6295

> <Gold.Chemscore.Rot>
1.6657

> <Gold.Chemscore.Internal.Correction>
   9.000000E+99

> <Gold.Chemscore.Hbonds>
donor molecule, donor type, donor heavy atom, donor atom, acceptor molecule, acceptor atom, score
      L1  H    10    30       P1  7948  1.00
      L1  H    13    47       P1 10175  0.91

> <Gold.Chemscore.Hbond.Weighted>
-5.5172

> <Gold.Chemscore.Metal.Weighted>
-0.0000

> <Gold.Chemscore.Lipo.Weighted>
-10.1268

> <Gold.Chemscore.Internal_Hbond.Weighted>
0.0000

> <Gold.Chemscore.DEClash.Weighted>
0.0241

> <Gold.Chemscore.DEInternal.Weighted>
0.6295

> <Gold.Chemscore.Rot.Weighted>
4.2641

> <Gold.Chemscore.Internal.Correction.Weighted>
   9.000000E+99

> <Gold.Protein.RotatedTorsions>
[ 6907 6896 6895 6894 ] final -108.62 input  -60.11 | X-H torsion
[ 7974 7965 7964 7962 ] final -111.81 input  175.53 | X-H torsion
[ 8008 7997 7996 7995 ] final    5.84 input   59.86 | X-H torsion
[ 10167 10162 10161 10158 ] final  -89.18 input  -65.29 | X-H torsion
[ 10718 10713 10712 10709 ] final  -29.17 input   66.30 | X-H torsion
[ 10763 10752 10751 10750 ] final   51.95 input  -60.55 | X-H torsion
[ 11005 11000 10999 10996 ] final -111.53 input  -57.11 | X-H torsion

> <Gold.Protein.ActiveResidues>
 VAL166  LYS551  ARG553  GLY616  TRP617  ASP618  TYR619  PRO620  LYS621  CYS622 
 ASP623  PHE694  ASN695  SER759  ASP760  ASP761  ALA762  ILE779  LEU786  VAL792 
 PHE793  MET794  SER795  GLU796  ALA797  LYS798  CYS799  TRP800  GLU811  SER814 

> <Gold.Protein.RotatedAtoms>
  150.7513  133.9650  159.3527 H   0  0  0  0  0  0  0  0  0  0  0  0  # atno 6907 bound_to 6896
  151.7579  135.0815  160.0350 H   0  0  0  0  0  0  0  0  0  0  0  0  # atno 6908 bound_to 6896
  152.3423  133.6044  159.5921 H   0  0  0  0  0  0  0  0  0  0  0  0  # atno 6909 bound_to 6896
  145.1516  140.8832  143.3643 H   0  0  0  0  0  0  0  0  0  0  0  0  # atno 7974 bound_to 7965
  154.7335  140.2735  155.6435 H   0  0  0  0  0  0  0  0  0  0  0  0  # atno 8008 bound_to 7997
  156.2856  140.2711  156.1967 H   0  0  0  0  0  0  0  0  0  0  0  0  # atno 8009 bound_to 7997
  155.0351  140.0371  157.2478 H   0  0  0  0  0  0  0  0  0  0  0  0  # atno 8010 bound_to 7997
  140.3673  143.2811  151.9542 H   0  0  0  0  0  0  0  0  0  0  0  0  # atno 10167 bound_to 10162
  156.4158  130.4417  149.7219 H   0  0  0  0  0  0  0  0  0  0  0  0  # atno 10718 bound_to 10713
  152.9787  135.5829  154.4499 H   0  0  0  0  0  0  0  0  0  0  0  0  # atno 10763 bound_to 10752
  154.4089  135.2770  155.2051 H   0  0  0  0  0  0  0  0  0  0  0  0  # atno 10764 bound_to 10752
  154.3850  135.6138  153.5865 H   0  0  0  0  0  0  0  0  0  0  0  0  # atno 10765 bound_to 10752
  141.0729  133.9350  157.2449 H   0  0  0  0  0  0  0  0  0  0  0  0  # atno 11005 bound_to 11000
  145.0425  139.3248  143.5969 LP  0  0  0  0  0  0  0  0  0  0  0  0  # atno 17320 bound_to 7965
  146.3494  139.9804  142.8696 LP  0  0  0  0  0  0  0  0  0  0  0  0  # atno 17321 bound_to 7965
  139.4807  144.5938  151.7725 LP  0  0  0  0  0  0  0  0  0  0  0  0  # atno 17342 bound_to 10162
  140.5068  144.1086  150.5984 LP  0  0  0  0  0  0  0  0  0  0  0  0  # atno 17343 bound_to 10162
  156.4179  130.7754  151.2770 LP  0  0  0  0  0  0  0  0  0  0  0  0  # atno 17370 bound_to 10713
  157.7508  131.0191  150.3656 LP  0  0  0  0  0  0  0  0  0  0  0  0  # atno 17371 bound_to 10713
  139.9541  135.0169  156.9079 LP  0  0  0  0  0  0  0  0  0  0  0  0  # atno 17394 bound_to 11000
  140.5636  134.0511  155.7407 LP  0  0  0  0  0  0  0  0  0  0  0  0  # atno 17395 bound_to 11000

$$$$
