AV-unprocessed.smi:972|AV-procd|sdf|4296|dock10
  -GOLD-   22720 2203D 1   1.00000     0.00000
 Structure written by MMmdl.
 51 53  0  0  0  0  0  0  0  0  2 V2000
  136.3036  142.6394  153.7796 C   0  0  0  0  0  0  0  0  0  0  0  0
  136.6369  141.3319  154.5366 C   0  0  0  0  0  0  0  0  0  0  0  0
  136.7633  141.7223  156.0281 C   0  0  0  0  0  0  0  0  0  0  0  0
  135.4832  140.3275  154.3624 C   0  0  0  0  0  0  0  0  0  0  0  0
  137.9430  140.7071  154.0155 C   0  0  0  0  0  0  0  0  0  0  0  0
  137.8976  139.4223  153.6397 N   0  0  0  0  0  0  0  0  0  0  0  0
  139.0586  138.8213  153.3029 C   0  0  0  0  0  0  0  0  0  0  0  0
  140.2971  139.5033  153.3777 C   0  0  0  0  0  0  0  0  0  0  0  0
  141.5646  138.9588  153.0328 N   0  0  0  0  0  0  0  0  0  0  0  0
  141.9988  137.6922  153.1497 C   0  0  0  0  0  0  0  0  0  0  0  0
  141.3557  136.7562  153.6227 O   0  0  0  0  0  0  0  0  0  0  0  0
  143.2527  137.5659  152.6913 N   0  0  0  0  0  0  0  0  0  0  0  0
  144.0155  136.3206  152.6649 C   0  0  2  0  0  0  0  0  0  0  0  0
  145.2655  136.4555  151.7747 C   0  0  0  0  0  0  0  0  0  0  0  0
  146.0159  135.1174  151.6661 C   0  0  0  0  0  0  0  0  0  0  0  0
  145.1242  134.0443  151.1605 N   0  3  1  0  0  0  0  0  0  0  0  0
  145.8492  132.7735  150.9427 C   0  0  0  0  0  0  0  0  0  0  0  0
  145.5616  132.1296  149.6063 C   0  0  0  0  0  0  0  0  0  0  0  0
  144.9460  131.5645  150.8672 C   0  0  0  0  0  0  0  0  0  0  0  0
  143.9321  133.8667  152.0266 C   0  0  0  0  0  0  0  0  0  0  0  0
  143.1323  135.1755  152.1417 C   0  0  0  0  0  0  0  0  0  0  0  0
  140.2311  140.8404  153.8181 C   0  0  0  0  0  0  0  0  0  0  0  0
  139.0634  141.4285  154.1517 N   0  0  0  0  0  0  0  0  0  0  0  0
  135.4038  143.1098  154.1772 H   0  0  0  0  0  0  0  0  0  0  0  0
  136.1226  142.4633  152.7187 H   0  0  0  0  0  0  0  0  0  0  0  0
  137.1147  143.3639  153.8610 H   0  0  0  0  0  0  0  0  0  0  0  0
  137.5918  142.4130  156.1892 H   0  0  0  0  0  0  0  0  0  0  0  0
  136.9282  140.8530  156.6658 H   0  0  0  0  0  0  0  0  0  0  0  0
  135.8565  142.2085  156.3898 H   0  0  0  0  0  0  0  0  0  0  0  0
  134.5396  140.7381  154.7232 H   0  0  0  0  0  0  0  0  0  0  0  0
  135.6734  139.4063  154.9144 H   0  0  0  0  0  0  0  0  0  0  0  0
  135.3463  140.0598  153.3141 H   0  0  0  0  0  0  0  0  0  0  0  0
  138.9668  137.7997  152.9708 H   0  0  0  0  0  0  0  0  0  0  0  0
  142.2321  139.6235  152.6696 H   0  0  0  0  0  0  0  0  0  0  0  0
  143.7075  138.3886  152.3232 H   0  0  0  0  0  0  0  0  0  0  0  0
  144.3272  136.0742  153.6819 H   0  0  0  0  0  0  0  0  0  0  0  0
  144.9774  136.7920  150.7776 H   0  0  0  0  0  0  0  0  0  0  0  0
  145.9357  137.2168  152.1755 H   0  0  0  0  0  0  0  0  0  0  0  0
  146.8679  135.2326  150.9947 H   0  0  0  0  0  0  0  0  0  0  0  0
  146.4168  134.8306  152.6395 H   0  0  0  0  0  0  0  0  0  0  0  0
  146.8392  132.6980  151.3892 H   0  0  0  0  0  0  0  0  0  0  0  0
  144.9011  132.6490  148.9141 H   0  0  0  0  0  0  0  0  0  0  0  0
  146.3619  131.5562  149.1428 H   0  0  0  0  0  0  0  0  0  0  0  0
  145.3407  130.6189  151.2334 H   0  0  0  0  0  0  0  0  0  0  0  0
  143.8764  131.7083  151.0108 H   0  0  0  0  0  0  0  0  0  0  0  0
  143.2932  133.0847  151.6142 H   0  0  0  0  0  0  0  0  0  0  0  0
  144.2461  133.5296  153.0160 H   0  0  0  0  0  0  0  0  0  0  0  0
  142.2784  135.0282  152.8043 H   0  0  0  0  0  0  0  0  0  0  0  0
  142.7242  135.4369  151.1639 H   0  0  0  0  0  0  0  0  0  0  0  0
  141.1221  141.4440  153.9121 H   0  0  0  0  0  0  0  0  0  0  0  0
  144.7878  134.3444  150.2565 H   0  0  0  0  0  0  0  0  0  0  0  0
  1  2  1  0  0  0  0
  1 24  1  0  0  0  0
  1 25  1  0  0  0  0
  1 26  1  0  0  0  0
  2  3  1  0  0  0  0
  2  4  1  0  0  0  0
  2  5  1  0  0  0  0
  3 27  1  0  0  0  0
  3 28  1  0  0  0  0
  3 29  1  0  0  0  0
  4 30  1  0  0  0  0
  4 31  1  0  0  0  0
  4 32  1  0  0  0  0
  5 23  1  0  0  0  0
  5  6  2  0  0  0  0
  6  7  1  0  0  0  0
  7  8  2  0  0  0  0
  7 33  1  0  0  0  0
  8  9  1  0  0  0  0
  8 22  1  0  0  0  0
  9 10  1  0  0  0  0
  9 34  1  0  0  0  0
 10 11  2  0  0  0  0
 10 12  1  0  0  0  0
 12 13  1  0  0  0  0
 12 35  1  0  0  0  0
 13 21  1  0  0  0  0
 13 14  1  0  0  0  0
 13 36  1  0  0  0  0
 14 15  1  0  0  0  0
 14 37  1  0  0  0  0
 14 38  1  0  0  0  0
 15 16  1  0  0  0  0
 15 39  1  0  0  0  0
 15 40  1  0  0  0  0
 16 17  1  0  0  0  0
 16 20  1  0  0  0  0
 16 51  1  0  0  0  0
 17 19  1  0  0  0  0
 17 18  1  0  0  0  0
 17 41  1  0  0  0  0
 18 19  1  0  0  0  0
 18 42  1  0  0  0  0
 18 43  1  0  0  0  0
 19 44  1  0  0  0  0
 19 45  1  0  0  0  0
 20 21  1  0  0  0  0
 20 46  1  0  0  0  0
 20 47  1  0  0  0  0
 21 48  1  0  0  0  0
 21 49  1  0  0  0  0
 22 23  2  0  0  0  0
 22 50  1  0  0  0  0
M  CHG  1  16   1
M  END
> <s_m_source_file>
AV-unprocessed.smi

> <i_m_source_file_index>
972

> <i_lp_mmshare_version>
43012

> <i_f3d_flags>
0

> <s_epik_input>
W0NIM11DKFtDSDNdKShbQ0gzXSljMW5bY0hdYyhbY0hdbjEpW05IXUMoPU8pW05IXVtDSF0yW0NIMl1bQ0gyXU4oW0NIMl1bQ0gyXTIpW0NIXTNbQ0gyXVtDSDJdMw==

> <s_epik_cmdline>
J2VwaWtfcHl0aG9uJywgJy1waCcsICc3LjAnLCAnLXRuJywgJzgnLCAnLW1hJywgJzIwMCcsICctbWV0YWxfYmluZGluZycsICctaW1hZScsICc8aW5maWxlLm1hZT4nLCAnLW9tYWUnLCAnPG91dGZpbGUubWFlPic=

> <r_lp_tautomer_probability>
1

> <r_epik_Ionization_Penalty>
0.123264

> <r_epik_Ionization_Penalty_Charging>
0.123242

> <r_epik_Ionization_Penalty_Neutral>
2.24743e-05

> <r_epik_State_Penalty>
0.112739

> <r_epik_Charging_Adjusted_Penalty>
0.235981

> <i_epik_Tot_Q>
1

> <i_epik_Tot_abs_Q>
1

> <r_epik_Metal_State_Penalty>
0.112739

> <b_epik_Metal_Only>
0

> <s_lp_Force_Field>
OPLS_2005

> <r_lp_Energy>
25.9284

> <b_lp_Chiralities_Consistent>
1

> <s_lp_Variant>
AV-unprocessed.smi:972-1

> <Gold.Version>
5.8.1

> <Gold.Id.Protein>
6NUR|6NUR_protein|mol2

> <Gold.PLP.Fitness>
42.0574

> <Gold.PLP.PLP>
-34.9477

> <Gold.PLP.part.hbond>
-3.7473

> <Gold.PLP.part.metal>
0.0000

> <Gold.PLP.part.buried>
0.0020

> <Gold.PLP.part.nonpolar>
-31.4087

> <Gold.PLP.part.repulsive>
0.3839

> <Gold.PLP.ligand.clash>
0.0000

> <Gold.PLP.ligand.torsion>
1.3148

> <Gold.PLP.Chemscore.Hbond>
1.7823

> <Gold.PLP.Chemscore.CHOScore>
0.9988

> <Gold.PLP.Chemscore.Metal>
0.0000

> <Gold.Chemscore.Hbonds>
donor molecule, donor type, donor heavy atom, donor atom, acceptor molecule, acceptor atom, score
      L1  H     9    34       P1 10175  1.00
      L1  H    12    35       P1 10175  0.78
      L1  C    22    50       P1 10174  1.00

> <Gold.PLP.Chemscore.Internal.Correction>
1.3959

> <Gold.Rescore>
     Score         DG    S(hbond)    S(metal)    S(lipo)     H(rot)  DE(clash)    DE(int)     intcor
     13.94     -16.65       1.48        0.00      82.18       1.32       0.02       2.68       ----

> <Gold.Chemscore.Fitness>
13.9401

> <Gold.Chemscore.DG>
-16.6451

> <Gold.Chemscore.ZeroCoef>
-5.4800

> <Gold.Chemscore.Hbond>
1.4763

> <Gold.Chemscore.Metal>
0.0000

> <Gold.Chemscore.Lipo>
82.1799

> <Gold.Chemscore.Internal_Hbond>
0.0000

> <Gold.Chemscore.DEClash>
0.0224

> <Gold.Chemscore.DEInternal>
2.6827

> <Gold.Chemscore.Rot>
1.3207

> <Gold.Chemscore.Internal.Correction>
   9.000000E+99

> <Gold.Chemscore.Hbonds>
donor molecule, donor type, donor heavy atom, donor atom, acceptor molecule, acceptor atom, score
      L1  H     9    34       P1 10175  0.59
      L1  H    12    35       P1 10175  0.74

> <Gold.Chemscore.Hbond.Weighted>
-4.9310

> <Gold.Chemscore.Metal.Weighted>
-0.0000

> <Gold.Chemscore.Lipo.Weighted>
-9.6150

> <Gold.Chemscore.Internal_Hbond.Weighted>
0.0000

> <Gold.Chemscore.DEClash.Weighted>
0.0224

> <Gold.Chemscore.DEInternal.Weighted>
2.6827

> <Gold.Chemscore.Rot.Weighted>
3.3809

> <Gold.Chemscore.Internal.Correction.Weighted>
   9.000000E+99

> <Gold.Protein.RotatedTorsions>
[ 6907 6896 6895 6894 ] final -110.65 input  -60.11 | X-H torsion
[ 7974 7965 7964 7962 ] final  -88.45 input  175.53 | X-H torsion
[ 8008 7997 7996 7995 ] final -119.15 input   59.86 | X-H torsion
[ 10167 10162 10161 10158 ] final  -39.43 input  -65.29 | X-H torsion
[ 10718 10713 10712 10709 ] final  155.97 input   66.30 | X-H torsion
[ 10763 10752 10751 10750 ] final  -60.07 input  -60.55 | X-H torsion
[ 11005 11000 10999 10996 ] final  161.80 input  -57.11 | X-H torsion

> <Gold.Protein.ActiveResidues>
 VAL166  LYS551  ARG553  GLY616  TRP617  ASP618  TYR619  PRO620  LYS621  CYS622 
 ASP623  PHE694  ASN695  SER759  ASP760  ASP761  ALA762  ILE779  LEU786  VAL792 
 PHE793  MET794  SER795  GLU796  ALA797  LYS798  CYS799  TRP800  GLU811  SER814 

> <Gold.Protein.RotatedAtoms>
  150.7638  133.9351  159.3438 H   0  0  0  0  0  0  0  0  0  0  0  0  # atno 6907 bound_to 6896
  151.7253  135.0884  160.0300 H   0  0  0  0  0  0  0  0  0  0  0  0  # atno 6908 bound_to 6896
  152.3624  133.6276  159.6061 H   0  0  0  0  0  0  0  0  0  0  0  0  # atno 6909 bound_to 6896
  145.4530  140.9561  143.2012 H   0  0  0  0  0  0  0  0  0  0  0  0  # atno 7974 bound_to 7965
  155.1111  140.0397  157.2724 H   0  0  0  0  0  0  0  0  0  0  0  0  # atno 8008 bound_to 7997
  154.6684  140.2607  155.7007 H   0  0  0  0  0  0  0  0  0  0  0  0  # atno 8009 bound_to 7997
  156.2648  140.2802  156.1184 H   0  0  0  0  0  0  0  0  0  0  0  0  # atno 8010 bound_to 7997
  140.7064  143.3215  151.2781 H   0  0  0  0  0  0  0  0  0  0  0  0  # atno 10167 bound_to 10162
  157.2112  131.0698  151.1968 H   0  0  0  0  0  0  0  0  0  0  0  0  # atno 10718 bound_to 10713
  154.2635  135.6303  153.5283 H   0  0  0  0  0  0  0  0  0  0  0  0  # atno 10763 bound_to 10752
  152.9891  135.5593  154.5678 H   0  0  0  0  0  0  0  0  0  0  0  0  # atno 10764 bound_to 10752
  154.5232  135.2884  155.1219 H   0  0  0  0  0  0  0  0  0  0  0  0  # atno 10765 bound_to 10752
  140.2194  134.8207  157.3205 H   0  0  0  0  0  0  0  0  0  0  0  0  # atno 11005 bound_to 11000
  144.8049  139.6069  143.7055 LP  0  0  0  0  0  0  0  0  0  0  0  0  # atno 17320 bound_to 7965
  146.2494  139.6166  142.9438 LP  0  0  0  0  0  0  0  0  0  0  0  0  # atno 17321 bound_to 7965
  139.6670  144.0087  152.2729 LP  0  0  0  0  0  0  0  0  0  0  0  0  # atno 17342 bound_to 10162
  139.9673  144.6517  150.8022 LP  0  0  0  0  0  0  0  0  0  0  0  0  # atno 17343 bound_to 10162
  157.3670  130.7161  149.6539 LP  0  0  0  0  0  0  0  0  0  0  0  0  # atno 17370 bound_to 10713
  155.9690  130.4209  150.4446 LP  0  0  0  0  0  0  0  0  0  0  0  0  # atno 17371 bound_to 10713
  140.1865  134.4424  155.7740 LP  0  0  0  0  0  0  0  0  0  0  0  0  # atno 17394 bound_to 11000
  141.2223  133.7007  156.7956 LP  0  0  0  0  0  0  0  0  0  0  0  0  # atno 17395 bound_to 11000

$$$$
