#       Name:                AV-unprocessed.smi:1919
#       Creating user name   scv26
#       Creation time:       Fri Mar 27 09:51:50 2020


#       File generated by GOLD software.
#

@<TRIPOS>MOLECULE
AV-unprocessed.smi:1919
    41    43     1
SMALL
NO_CHARGES


@<TRIPOS>ATOM
      1 ****        -0.9836   3.3411   0.8456 O.3            1 S1                 0.0000
      2 ****        -1.5426   3.0308  -0.4122 C.3            1 S1                 0.0000
      3 ****        -2.0663   1.6286  -0.4924 C.2            1 S1                 0.0000
      4 ****        -3.3750   1.3721  -0.5134 N.2            1 S1                 0.0000
      5 ****        -3.4149  -0.0041  -0.6176 C.ar           1 S1                 0.0000
      6 ****        -4.5152  -0.8882  -0.6903 C.ar           1 S1                 0.0000
      7 ****        -4.3076  -2.2784  -0.8054 C.ar           1 S1                 0.0000
      8 ****        -2.9999  -2.8035  -0.8500 C.ar           1 S1                 0.0000
      9 ****        -1.8900  -1.9402  -0.7769 C.ar           1 S1                 0.0000
     10 ****        -2.1025  -0.5532  -0.6584 C.ar           1 S1                 0.0000
     11 ****        -1.2517   0.5436  -0.5589 N.pl3          1 S1                 0.0000
     12 ****         0.2055   0.4920  -0.5509 C.3            1 S1                 0.0000
     13 ****         0.7754  -0.1133   0.7486 C.3            1 S1                 0.0000
     14 ****         0.3482   0.6409   1.8659 O.3            1 S1                 0.0000
     15 ****         2.2891  -0.2380   0.6775 C.ar           1 S1                 0.0000
     16 ****         3.1188   0.8764   0.9327 C.ar           1 S1                 0.0000
     17 ****         4.5195   0.7516   0.8518 C.ar           1 S1                 0.0000
     18 ****         5.0983  -0.4864   0.5126 C.ar           1 S1                 0.0000
     19 ****         4.2758  -1.5991   0.2520 C.ar           1 S1                 0.0000
     20 ****         4.8311  -2.7886  -0.0790 F              1 S1                 0.0000
     21 ****         2.8753  -1.4749   0.3334 C.ar           1 S1                 0.0000
     22 ****        -0.6876   4.2381   0.8294 H              1 S1                 0.0000
     23 ****        -2.3564   3.7301  -0.6078 H              1 S1                 0.0000
     24 ****        -0.8019   3.1927  -1.1951 H              1 S1                 0.0000
     25 ****        -5.5208  -0.4957  -0.6593 H              1 S1                 0.0000
     26 ****        -5.1559  -2.9446  -0.8621 H              1 S1                 0.0000
     27 ****        -2.8494  -3.8692  -0.9405 H              1 S1                 0.0000
     28 ****        -0.8875  -2.3396  -0.8125 H              1 S1                 0.0000
     29 ****         0.5195  -0.1080  -1.4060 H              1 S1                 0.0000
     30 ****         0.6159   1.4878  -0.7134 H              1 S1                 0.0000
     31 ****         0.3647  -1.1141   0.8850 H              1 S1                 0.0000
     32 ****         0.6120   0.1885   2.6524 H              1 S1                 0.0000
     33 ****         2.6835   1.8316   1.1881 H              1 S1                 0.0000
     34 ****         5.1500   1.6064   1.0479 H              1 S1                 0.0000
     35 ****         6.1723  -0.5818   0.4503 H              1 S1                 0.0000
     36 ****         2.2523  -2.3330   0.1274 H              1 S1                 0.0000
     37 ****        -0.2105   2.7342   1.0301 LP             1 S1                 0.0000
     38 ****        -1.6747   3.2269   1.5593 LP             1 S1                 0.0000
     39 ****        -4.1380   2.0167  -0.4655 LP             1 S1                 0.0000
     40 ****        -0.6472   0.7348   1.8487 LP             1 S1                 0.0000
     41 ****         0.7690   1.5478   1.8414 LP             1 S1                 0.0000
@<TRIPOS>BOND
    1    1    2 1     
    2    1   22 1     
    3    2    3 1     
    4    2   23 1     
    5    2   24 1     
    6    3   11 1     
    7    3    4 2     
    8    4    5 1     
    9    5   10 ar    
   10    5    6 ar    
   11    6    7 ar    
   12    6   25 1     
   13    7    8 ar    
   14    7   26 1     
   15    8    9 ar    
   16    8   27 1     
   17    9   10 ar    
   18    9   28 1     
   19   10   11 1     
   20   11   12 1     
   21   12   13 1     
   22   12   29 1     
   23   12   30 1     
   24   13   14 1     
   25   13   15 1     
   26   13   31 1     
   27   14   32 1     
   28   15   21 ar    
   29   15   16 ar    
   30   16   17 ar    
   31   16   33 1     
   32   17   18 ar    
   33   17   34 1     
   34   18   19 ar    
   35   18   35 1     
   36   19   20 1     
   37   19   21 ar    
   38   21   36 1     
   39    1   37 1     
   40    1   38 1     
   41    4   39 1     
   42   14   40 1     
   43   14   41 1     
@<TRIPOS>SUBSTRUCTURE
      1 S1             1
@<TRIPOS>SET
LONE_PAIRS      STATIC     ATOMS    <user>   **** ""
5 37 38 39 40 41
DONOR_HYDROGENS      STATIC     ATOMS    <user>   **** ""
2 22 32
ATOM$BLUE        STATIC     ATOMS    COLORGROUP SYSTEM
5 37 38 39 40 41
ATOM$RED        STATIC     ATOMS    COLORGROUP SYSTEM
2 22 32
