#       Name:                AV-unprocessed.smi:1585
#       Creating user name   scv26
#       Creation time:       Fri Mar 27 06:59:43 2020


#       File generated by GOLD software.
#

@<TRIPOS>MOLECULE
AV-unprocessed.smi:1585
    50    51     1
SMALL
NO_CHARGES


@<TRIPOS>ATOM
      1 ****        -4.0581   6.6232   2.2994 C.3            1 S1                 0.0000
      2 ****        -3.5669   5.2792   1.8817 C.2            1 S1                 0.0000
      3 ****        -3.5612   4.6229   0.6829 C.2            1 S1                 0.0000
      4 ****        -2.9497   3.3811   1.0010 C.2            1 S1                 0.0000
      5 ****        -2.7530   2.3897   0.0058 N.am           1 S1                 0.0000
      6 ****        -2.2145   1.1687   0.1645 C.2            1 S1                 0.0000
      7 ****        -1.7937   0.7102   1.2271 O.2            1 S1                 0.0000
      8 ****        -2.1845   0.4909  -0.9926 N.am           1 S1                 0.0000
      9 ****        -1.6857  -0.8725  -1.1470 C.3            1 S1                 0.0000
     10 ****        -0.1439  -0.9339  -1.1359 C.3            1 S1                 0.0000
     11 ****         0.3174  -0.5936  -2.4284 O.3            1 S1                 0.0000
     12 ****         0.3628  -2.3554  -0.8171 C.3            1 S1                 0.0000
     13 ****         1.8432  -2.4251  -0.7114 N.4            1 S1                 1.0000
     14 ****         2.3645  -3.7877  -0.9959 C.3            1 S1                 0.0000
     15 ****         3.9023  -3.8017  -1.0248 C.3            1 S1                 0.0000
     16 ****         4.4837  -3.2564   0.2860 C.3            1 S1                 0.0000
     17 ****         3.9061  -1.8651   0.5757 C.3            1 S1                 0.0000
     18 ****         2.3686  -1.8964   0.5768 C.3            1 S1                 0.0000
     19 ****        -2.6104   3.2884   2.2778 N.2            1 S1                 0.0000
     20 ****        -3.0048   4.5040   2.8489 O.3            1 S1                 0.0000
     21 ****        -4.0757   7.3107   1.4535 H              1 S1                 0.0000
     22 ****        -3.4153   7.0519   3.0686 H              1 S1                 0.0000
     23 ****        -5.0688   6.5556   2.7022 H              1 S1                 0.0000
     24 ****        -3.9371   4.9761  -0.2659 H              1 S1                 0.0000
     25 ****        -3.0606   2.6352  -0.9235 H              1 S1                 0.0000
     26 ****        -2.5509   0.9394  -1.8198 H              1 S1                 0.0000
     27 ****        -2.0894  -1.4740  -0.3305 H              1 S1                 0.0000
     28 ****        -2.0890  -1.3055  -2.0633 H              1 S1                 0.0000
     29 ****         0.2542  -0.2205  -0.4155 H              1 S1                 0.0000
     30 ****         0.0156   0.2786  -2.6340 H              1 S1                 0.0000
     31 ****        -0.0764  -2.7208   0.1127 H              1 S1                 0.0000
     32 ****         0.0139  -3.0299  -1.6009 H              1 S1                 0.0000
     33 ****         1.9943  -4.4852  -0.2427 H              1 S1                 0.0000
     34 ****         1.9888  -4.1328  -1.9599 H              1 S1                 0.0000
     35 ****         4.2628  -4.8162  -1.1980 H              1 S1                 0.0000
     36 ****         4.2582  -3.1999  -1.8621 H              1 S1                 0.0000
     37 ****         4.2448  -3.9340   1.1065 H              1 S1                 0.0000
     38 ****         5.5713  -3.2087   0.2257 H              1 S1                 0.0000
     39 ****         4.2727  -1.5024   1.5366 H              1 S1                 0.0000
     40 ****         4.2574  -1.1574  -0.1766 H              1 S1                 0.0000
     41 ****         1.9982  -0.8883   0.7575 H              1 S1                 0.0000
     42 ****         2.0077  -2.5151   1.4001 H              1 S1                 0.0000
     43 ****         2.2028  -1.8293  -1.4438 H              1 S1                 0.0000
     44 ****        -1.8387   1.2597   2.0614 LP             1 S1                 0.0000
     45 ****        -1.4071  -0.2115   1.2557 LP             1 S1                 0.0000
     46 ****        -0.0447  -1.2424  -3.0977 LP             1 S1                 0.0000
     47 ****         1.3169  -0.6180  -2.4473 LP             1 S1                 0.0000
     48 ****        -2.1681   2.5169   2.7350 LP             1 S1                 0.0000
     49 ****        -3.6722   4.3342   3.5740 LP             1 S1                 0.0000
     50 ****        -2.2074   4.9700   3.2323 LP             1 S1                 0.0000
@<TRIPOS>BOND
    1    1    2 1     
    2    1   21 1     
    3    1   22 1     
    4    1   23 1     
    5    2   20 1     
    6    2    3 2     
    7    3    4 1     
    8    3   24 1     
    9    4    5 1     
   10    4   19 2     
   11    5    6 am    
   12    5   25 1     
   13    6    7 2     
   14    6    8 am    
   15    8    9 1     
   16    8   26 1     
   17    9   10 1     
   18    9   27 1     
   19    9   28 1     
   20   10   11 1     
   21   10   12 1     
   22   10   29 1     
   23   11   30 1     
   24   12   13 1     
   25   12   31 1     
   26   12   32 1     
   27   13   18 1     
   28   13   14 1     
   29   13   43 1     
   30   14   15 1     
   31   14   33 1     
   32   14   34 1     
   33   15   16 1     
   34   15   35 1     
   35   15   36 1     
   36   16   17 1     
   37   16   37 1     
   38   16   38 1     
   39   17   18 1     
   40   17   39 1     
   41   17   40 1     
   42   18   41 1     
   43   18   42 1     
   44   19   20 1     
   45    7   44 1     
   46    7   45 1     
   47   11   46 1     
   48   11   47 1     
   49   19   48 1     
   50   20   49 1     
   51   20   50 1     
@<TRIPOS>SUBSTRUCTURE
      1 S1             1
@<TRIPOS>SET
LONE_PAIRS      STATIC     ATOMS    <user>   **** ""
7 44 45 46 47 48 49 50
DONOR_HYDROGENS      STATIC     ATOMS    <user>   **** ""
4 25 26 30 43
ATOM$BLUE        STATIC     ATOMS    COLORGROUP SYSTEM
7 44 45 46 47 48 49 50
ATOM$RED        STATIC     ATOMS    COLORGROUP SYSTEM
4 25 26 30 43
