#       Name:                AV-unprocessed.smi:1958
#       Creating user name   scv26
#       Creation time:       Fri Mar 27 10:06:44 2020


#       File generated by GOLD software.
#

@<TRIPOS>MOLECULE
AV-unprocessed.smi:1958
    57    58     1
SMALL
NO_CHARGES


@<TRIPOS>ATOM
      1 ****        -3.6824  -1.6139   4.0522 C.3            1 S1                 0.0000
      2 ****        -3.5215  -1.1723   2.7160 O.3            1 S1                 0.0000
      3 ****        -4.7611  -0.9530   2.0623 C.3            1 S1                 0.0000
      4 ****        -4.5032  -0.4581   0.6297 C.3            1 S1                 0.0000
      5 ****        -3.8870   0.8735   0.6151 N.am           1 S1                 0.0000
      6 ****        -2.5093   0.8549   0.4758 N.2            1 S1                 0.0000
      7 ****        -1.8408   1.9628   0.4676 C.2            1 S1                 0.0000
      8 ****        -0.3584   1.9844   0.3277 C.2            1 S1                 0.0000
      9 ****         0.2764   3.0401   0.3054 O.2            1 S1                 0.0000
     10 ****         0.2249   0.7761   0.2227 N.am           1 S1                 0.0000
     11 ****         1.6563   0.5242   0.0736 C.3            1 S1                 0.0000
     12 ****         2.0189  -0.1165  -1.2963 C.3            1 S1                 0.0000
     13 ****         1.5247   0.8117  -2.4351 C.3            1 S1                 0.0000
     14 ****         3.4561  -0.4575  -1.4208 N.3            1 S1                 0.0000
     15 ****         3.7785  -1.0785  -2.7114 C.3            1 S1                 0.0000
     16 ****         5.2632  -1.4616  -2.8385 C.3            1 S1                 0.0000
     17 ****         5.6263  -2.3303  -1.7746 O.3            1 S1                 0.0000
     18 ****         5.4060  -1.7354  -0.5034 C.3            1 S1                 0.0000
     19 ****         3.9219  -1.3570  -0.3584 C.3            1 S1                 0.0000
     20 ****        -2.5193   3.2416   0.5956 C.2            1 S1                 0.0000
     21 ****        -3.8637   3.2442   0.7297 C.2            1 S1                 0.0000
     22 ****        -4.6424   2.0049   0.7506 C.2            1 S1                 0.0000
     23 ****        -5.8658   1.9810   0.8826 O.2            1 S1                 0.0000
     24 ****        -2.7038  -1.7686   4.5065 H              1 S1                 0.0000
     25 ****        -4.2261  -2.5585   4.0934 H              1 S1                 0.0000
     26 ****        -4.2179  -0.8747   4.6495 H              1 S1                 0.0000
     27 ****        -5.3238  -1.8869   2.0290 H              1 S1                 0.0000
     28 ****        -5.3643  -0.2322   2.6166 H              1 S1                 0.0000
     29 ****        -3.8707  -1.1755   0.1034 H              1 S1                 0.0000
     30 ****        -5.4414  -0.4397   0.0727 H              1 S1                 0.0000
     31 ****        -0.3759  -0.0355   0.2498 H              1 S1                 0.0000
     32 ****         2.2431   1.4309   0.2302 H              1 S1                 0.0000
     33 ****         1.8987  -0.1429   0.8986 H              1 S1                 0.0000
     34 ****         1.4478  -1.0432  -1.3731 H              1 S1                 0.0000
     35 ****         0.4753   1.0812  -2.3257 H              1 S1                 0.0000
     36 ****         1.5909   0.3406  -3.4146 H              1 S1                 0.0000
     37 ****         2.0994   1.7380  -2.4649 H              1 S1                 0.0000
     38 ****         3.1621  -1.9668  -2.8589 H              1 S1                 0.0000
     39 ****         3.5564  -0.3988  -3.5319 H              1 S1                 0.0000
     40 ****         5.4435  -1.9673  -3.7872 H              1 S1                 0.0000
     41 ****         5.8948  -0.5720  -2.8254 H              1 S1                 0.0000
     42 ****         5.6939  -2.4422   0.2748 H              1 S1                 0.0000
     43 ****         6.0418  -0.8560  -0.3884 H              1 S1                 0.0000
     44 ****         3.8119  -0.8905   0.6185 H              1 S1                 0.0000
     45 ****         3.3158  -2.2643  -0.3490 H              1 S1                 0.0000
     46 ****        -1.9699   4.1717   0.5847 H              1 S1                 0.0000
     47 ****        -4.3808   4.1876   0.8256 H              1 S1                 0.0000
     48 ****        -3.0099  -1.8657   2.2086 LP             1 S1                 0.0000
     49 ****        -3.0060  -0.3154   2.7215 LP             1 S1                 0.0000
     50 ****        -2.0296  -0.0174   0.3812 LP             1 S1                 0.0000
     51 ****        -0.2037   3.9139   0.3823 LP             1 S1                 0.0000
     52 ****         1.2717   3.0231   0.2103 LP             1 S1                 0.0000
     53 ****         3.9277   0.4209  -1.3430 LP             1 S1                 0.0000
     54 ****         6.5961  -2.5584  -1.8607 LP             1 S1                 0.0000
     55 ****         5.0804  -3.1656  -1.8392 LP             1 S1                 0.0000
     56 ****        -6.3504   1.1064   0.8941 LP             1 S1                 0.0000
     57 ****        -6.3752   2.8362   0.9783 LP             1 S1                 0.0000
@<TRIPOS>BOND
    1    1    2 1     
    2    1   24 1     
    3    1   25 1     
    4    1   26 1     
    5    2    3 1     
    6    3    4 1     
    7    3   27 1     
    8    3   28 1     
    9    4    5 1     
   10    4   29 1     
   11    4   30 1     
   12    5   22 am    
   13    5    6 1     
   14    6    7 2     
   15    7    8 1     
   16    7   20 1     
   17    8    9 2     
   18    8   10 am    
   19   10   11 1     
   20   10   31 1     
   21   11   12 1     
   22   11   32 1     
   23   11   33 1     
   24   12   13 1     
   25   12   14 1     
   26   12   34 1     
   27   13   35 1     
   28   13   36 1     
   29   13   37 1     
   30   14   19 1     
   31   14   15 1     
   32   15   16 1     
   33   15   38 1     
   34   15   39 1     
   35   16   17 1     
   36   16   40 1     
   37   16   41 1     
   38   17   18 1     
   39   18   19 1     
   40   18   42 1     
   41   18   43 1     
   42   19   44 1     
   43   19   45 1     
   44   20   21 2     
   45   20   46 1     
   46   21   22 1     
   47   21   47 1     
   48   22   23 2     
   49    2   48 1     
   50    2   49 1     
   51    6   50 1     
   52    9   51 1     
   53    9   52 1     
   54   14   53 1     
   55   17   54 1     
   56   17   55 1     
   57   23   56 1     
   58   23   57 1     
@<TRIPOS>SUBSTRUCTURE
      1 S1             1
@<TRIPOS>SET
LONE_PAIRS      STATIC     ATOMS    <user>   **** ""
10 48 49 50 51 52 53 54 55 56 57
DONOR_HYDROGENS      STATIC     ATOMS    <user>   **** ""
1 31
ATOM$BLUE        STATIC     ATOMS    COLORGROUP SYSTEM
10 48 49 50 51 52 53 54 55 56 57
ATOM$RED        STATIC     ATOMS    COLORGROUP SYSTEM
1 31
