AV-unprocessed.smi:1234|AV-procd|sdf|5174|dock9
  -GOLD-   22720 4253D 1   1.00000     0.00000
 Structure written by MMmdl.
 32 33  0  0  0  0  0  0  0  0  2 V2000
  151.9432  137.1436  159.6318 O   0  0  0  0  0  0  0  0  0  0  0  0
  151.5592  138.2243  159.1785 C   0  0  0  0  0  0  0  0  0  0  0  0
  152.1651  139.3585  159.5544 N   0  0  0  0  0  0  0  0  0  0  0  0
  153.2757  139.4469  160.4941 C   0  0  0  0  0  0  0  0  0  0  0  0
  153.9298  140.8384  160.4228 C   0  0  0  0  0  0  0  0  0  0  0  0
  153.1354  141.9363  161.1505 C   0  0  0  0  0  0  0  0  0  0  0  0
  152.8934  141.8264  162.3536 O   0  0  0  0  0  0  0  0  0  0  0  0
  152.7232  143.0032  160.4344 N   0  0  0  0  0  0  0  0  0  0  0  0
  151.9778  144.1219  161.0083 C   0  0  0  0  0  0  0  0  0  0  0  0
  151.9601  145.2051  159.9298 C   0  0  0  0  0  0  0  0  0  0  0  0
  152.1136  144.4346  158.6257 C   0  0  0  0  0  0  0  0  0  0  0  0
  152.9541  143.2148  159.0055 C   0  0  0  0  0  0  0  0  0  0  0  0
  150.5465  138.4119  158.3017 N   0  5  0  0  0  0  0  0  0  0  0  0
  150.5188  137.7207  157.1502 C   0  0  0  0  0  0  0  0  0  0  0  0
  151.4091  136.7545  156.8720 N   0  0  0  0  0  0  0  0  0  0  0  0
  151.2028  136.1619  155.6336 N   0  0  0  0  0  0  0  0  0  0  0  0
  150.1517  136.6936  155.0099 C   0  0  0  0  0  0  0  0  0  0  0  0
  149.3163  137.9632  155.8798 S   0  0  0  0  0  0  0  0  0  0  0  0
  151.8233  140.2229  159.1610 H   0  0  0  0  0  0  0  0  0  0  0  0
  152.9091  139.2530  161.5037 H   0  0  0  0  0  0  0  0  0  0  0  0
  154.0039  138.6697  160.2559 H   0  0  0  0  0  0  0  0  0  0  0  0
  154.9317  140.7860  160.8507 H   0  0  0  0  0  0  0  0  0  0  0  0
  154.0433  141.1286  159.3776 H   0  0  0  0  0  0  0  0  0  0  0  0
  150.9633  143.7913  161.2370 H   0  0  0  0  0  0  0  0  0  0  0  0
  152.4312  144.4885  161.9306 H   0  0  0  0  0  0  0  0  0  0  0  0
  151.0567  145.8150  159.9579 H   0  0  0  0  0  0  0  0  0  0  0  0
  152.8155  145.8688  160.0637 H   0  0  0  0  0  0  0  0  0  0  0  0
  151.1323  144.1087  158.2782 H   0  0  0  0  0  0  0  0  0  0  0  0
  152.5671  145.0306  157.8333 H   0  0  0  0  0  0  0  0  0  0  0  0
  154.0134  143.4165  158.8412 H   0  0  0  0  0  0  0  0  0  0  0  0
  152.6742  142.3472  158.4066 H   0  0  0  0  0  0  0  0  0  0  0  0
  149.8649  136.3340  154.0331 H   0  0  0  0  0  0  0  0  0  0  0  0
  1  2  2  0  0  0  0
  2  3  1  0  0  0  0
  2 13  1  0  0  0  0
  3  4  1  0  0  0  0
  3 19  1  0  0  0  0
  4  5  1  0  0  0  0
  4 20  1  0  0  0  0
  4 21  1  0  0  0  0
  5  6  1  0  0  0  0
  5 22  1  0  0  0  0
  5 23  1  0  0  0  0
  6  7  2  0  0  0  0
  6  8  1  0  0  0  0
  8 12  1  0  0  0  0
  8  9  1  0  0  0  0
  9 10  1  0  0  0  0
  9 24  1  0  0  0  0
  9 25  1  0  0  0  0
 10 11  1  0  0  0  0
 10 26  1  0  0  0  0
 10 27  1  0  0  0  0
 11 12  1  0  0  0  0
 11 28  1  0  0  0  0
 11 29  1  0  0  0  0
 12 30  1  0  0  0  0
 12 31  1  0  0  0  0
 13 14  1  0  0  0  0
 14 18  1  0  0  0  0
 14 15  2  0  0  0  0
 15 16  1  0  0  0  0
 16 17  2  0  0  0  0
 17 18  1  0  0  0  0
 17 32  1  0  0  0  0
M  CHG  1  13  -1
M  END
> <s_m_source_file>
AV-unprocessed.smi

> <i_m_source_file_index>
1234

> <i_lp_mmshare_version>
43012

> <i_f3d_flags>
0

> <s_epik_input>
czFbY0hdbm5jMVtOSF1DKD1PKVtOSF1bQ0gyXVtDSDJdQyg9TylOMltDSDJdW0NIMl1bQ0gyXVtDSDJdMg==

> <s_epik_cmdline>
J2VwaWtfcHl0aG9uJywgJy1waCcsICc3LjAnLCAnLXRuJywgJzgnLCAnLW1hJywgJzIwMCcsICctbWV0YWxfYmluZGluZycsICctaW1hZScsICc8aW5maWxlLm1hZT4nLCAnLW9tYWUnLCAnPG91dGZpbGUubWFlPic=

> <r_lp_tautomer_probability>
1

> <r_epik_Ionization_Penalty>
3.2941

> <r_epik_Ionization_Penalty_Charging>
3.25456

> <r_epik_Ionization_Penalty_Neutral>
0.039538

> <r_epik_State_Penalty>
3.25212

> <r_epik_Charging_Adjusted_Penalty>
6.50668

> <i_epik_Tot_Q>
-1

> <i_epik_Tot_abs_Q>
1

> <r_epik_Metal_State_Penalty>
0.477003

> <b_epik_Metal_Only>
1

> <s_lp_Force_Field>
OPLS_2005

> <r_lp_Energy>
26.7799

> <b_lp_Chiralities_Consistent>
1

> <s_lp_Variant>
AV-unprocessed.smi:1234-2

> <Gold.Version>
5.8.1

> <Gold.Id.Protein>
6NUR|6NUR_protein|mol2

> <Gold.PLP.Fitness>
43.2034

> <Gold.PLP.PLP>
-35.9022

> <Gold.PLP.part.hbond>
-1.8681

> <Gold.PLP.part.metal>
0.0000

> <Gold.PLP.part.buried>
-5.8821

> <Gold.PLP.part.nonpolar>
-29.3608

> <Gold.PLP.part.repulsive>
0.2125

> <Gold.PLP.ligand.clash>
0.0000

> <Gold.PLP.ligand.torsion>
0.6335

> <Gold.PLP.Chemscore.Hbond>
1.8450

> <Gold.PLP.Chemscore.CHOScore>
1.0000

> <Gold.PLP.Chemscore.Metal>
0.0000

> <Gold.Chemscore.Hbonds>
donor molecule, donor type, donor heavy atom, donor atom, acceptor molecule, acceptor atom, score
      P1  H  6896  6908       L1     1  0.89
      P1  H 10752 10765       L1    16  0.75
      L1  C    17    32       P1  7948  1.00

> <Gold.PLP.Chemscore.Internal.Correction>
0.0333

> <Gold.Rescore>
     Score         DG    S(hbond)    S(metal)    S(lipo)     H(rot)  DE(clash)    DE(int)     intcor
     15.65     -16.49       1.99        0.00      75.91       1.76       0.05       0.79       ----

> <Gold.Chemscore.Fitness>
15.6488

> <Gold.Chemscore.DG>
-16.4949

> <Gold.Chemscore.ZeroCoef>
-5.4800

> <Gold.Chemscore.Hbond>
1.9874

> <Gold.Chemscore.Metal>
0.0000

> <Gold.Chemscore.Lipo>
75.9094

> <Gold.Chemscore.Internal_Hbond>
0.0000

> <Gold.Chemscore.DEClash>
0.0513

> <Gold.Chemscore.DEInternal>
0.7948

> <Gold.Chemscore.Rot>
1.7596

> <Gold.Chemscore.Internal.Correction>
   9.000000E+99

> <Gold.Chemscore.Hbonds>
donor molecule, donor type, donor heavy atom, donor atom, acceptor molecule, acceptor atom, score
      P1  H  6896  6908       L1     1  0.86
      P1  H 10752 10765       L1    16  0.68

> <Gold.Chemscore.Hbond.Weighted>
-6.6381

> <Gold.Chemscore.Metal.Weighted>
-0.0000

> <Gold.Chemscore.Lipo.Weighted>
-8.8814

> <Gold.Chemscore.Internal_Hbond.Weighted>
0.0000

> <Gold.Chemscore.DEClash.Weighted>
0.0513

> <Gold.Chemscore.DEInternal.Weighted>
0.7948

> <Gold.Chemscore.Rot.Weighted>
4.5046

> <Gold.Chemscore.Internal.Correction.Weighted>
   9.000000E+99

> <Gold.Protein.RotatedTorsions>
[ 6907 6896 6895 6894 ] final -100.55 input  -60.11 | X-H torsion
[ 7974 7965 7964 7962 ] final   88.81 input  175.53 | X-H torsion
[ 8008 7997 7996 7995 ] final   15.94 input   59.86 | X-H torsion
[ 10167 10162 10161 10158 ] final  -54.42 input  -65.29 | X-H torsion
[ 10718 10713 10712 10709 ] final -154.11 input   66.30 | X-H torsion
[ 10763 10752 10751 10750 ] final  173.52 input  -60.55 | X-H torsion
[ 11005 11000 10999 10996 ] final   11.41 input  -57.11 | X-H torsion

> <Gold.Protein.ActiveResidues>
 VAL166  LYS551  ARG553  GLY616  TRP617  ASP618  TYR619  PRO620  LYS621  CYS622 
 ASP623  PHE694  ASN695  SER759  ASP760  ASP761  ALA762  ILE779  LEU786  VAL792 
 PHE793  MET794  SER795  GLU796  ALA797  LYS798  CYS799  TRP800  GLU811  SER814 

> <Gold.Protein.RotatedAtoms>
  150.7120  134.0869  159.3917 H   0  0  0  0  0  0  0  0  0  0  0  0  # atno 6907 bound_to 6896
  151.8854  135.0435  160.0502 H   0  0  0  0  0  0  0  0  0  0  0  0  # atno 6908 bound_to 6896
  152.2534  133.5199  159.5375 H   0  0  0  0  0  0  0  0  0  0  0  0  # atno 6909 bound_to 6896
  145.5407  139.2288  143.2567 H   0  0  0  0  0  0  0  0  0  0  0  0  # atno 7974 bound_to 7965
  154.8698  140.2957  155.5488 H   0  0  0  0  0  0  0  0  0  0  0  0  # atno 8008 bound_to 7997
  156.3021  140.2462  156.3618 H   0  0  0  0  0  0  0  0  0  0  0  0  # atno 8009 bound_to 7997
  154.8829  140.0397  157.1782 H   0  0  0  0  0  0  0  0  0  0  0  0  # atno 8010 bound_to 7997
  140.6431  143.2519  151.4933 H   0  0  0  0  0  0  0  0  0  0  0  0  # atno 10167 bound_to 10162
  156.4948  130.8364  151.2585 H   0  0  0  0  0  0  0  0  0  0  0  0  # atno 10718 bound_to 10713
  154.4413  135.2762  155.1846 H   0  0  0  0  0  0  0  0  0  0  0  0  # atno 10763 bound_to 10752
  154.3711  135.6108  153.5744 H   0  0  0  0  0  0  0  0  0  0  0  0  # atno 10764 bound_to 10752
  152.9841  135.5857  154.4741 H   0  0  0  0  0  0  0  0  0  0  0  0  # atno 10765 bound_to 10752
  140.5036  134.0722  155.7800 H   0  0  0  0  0  0  0  0  0  0  0  0  # atno 11005 bound_to 11000
  146.1983  140.6227  142.9114 LP  0  0  0  0  0  0  0  0  0  0  0  0  # atno 17320 bound_to 7965
  144.7578  140.5350  143.6756 LP  0  0  0  0  0  0  0  0  0  0  0  0  # atno 17321 bound_to 7965
  139.5641  144.2085  152.1738 LP  0  0  0  0  0  0  0  0  0  0  0  0  # atno 17342 bound_to 10162
  140.1361  144.5244  150.6772 LP  0  0  0  0  0  0  0  0  0  0  0  0  # atno 17343 bound_to 10162
  157.7470  131.0001  150.2915 LP  0  0  0  0  0  0  0  0  0  0  0  0  # atno 17370 bound_to 10713
  156.3391  130.3812  149.7425 LP  0  0  0  0  0  0  0  0  0  0  0  0  # atno 17371 bound_to 10713
  141.1423  133.9117  157.2298 LP  0  0  0  0  0  0  0  0  0  0  0  0  # atno 17394 bound_to 11000
  139.9699  135.0131  156.9485 LP  0  0  0  0  0  0  0  0  0  0  0  0  # atno 17395 bound_to 11000

$$$$
