AV-unprocessed.smi:677|AV-procd|sdf|3311|dock7
  -GOLD-   22720 0273D 1   1.00000     0.00000
 Structure written by MMmdl.
 43 44  0  0  0  0  0  0  0  0  1 V2000
  146.3134  130.0515  151.9653 C   0  0  0  0  0  0  0  0  0  0  0  0
  145.9822  131.5057  151.7018 C   0  0  0  0  0  0  0  0  0  0  0  0
  144.7195  131.8706  151.1905 C   0  0  0  0  0  0  0  0  0  0  0  0
  144.4569  133.2349  150.9616 C   0  0  0  0  0  0  0  0  0  0  0  0
  145.4640  134.1790  151.2509 C   0  0  0  0  0  0  0  0  0  0  0  0
  145.2208  135.6639  151.0481 C   0  0  0  0  0  0  0  0  0  0  0  0
  145.2045  136.3699  152.4032 C   0  0  0  0  0  0  0  0  0  0  0  0
  144.2425  136.2308  153.1578 O   0  0  0  0  0  0  0  0  0  0  0  0
  146.2938  137.0924  152.7086 N   0  0  0  0  0  0  0  0  0  0  0  0
  146.5612  137.7220  153.9974 C   0  0  0  0  0  0  0  0  0  0  0  0
  147.8467  138.5736  153.9562 C   0  0  0  0  0  0  0  0  0  0  0  0
  149.0303  137.9314  154.7060 C   0  0  0  0  0  0  0  0  0  0  0  0
  150.2628  138.8524  154.6991 C   0  0  0  0  0  0  0  0  0  0  0  0
  149.9409  140.1436  155.3117 N   0  0  0  0  0  0  0  0  0  0  0  0
  151.1249  140.9958  155.3377 C   0  0  0  0  0  0  0  0  0  0  0  0
  152.3125  140.2999  155.8613 C   0  0  0  0  0  0  0  0  0  0  0  0
  153.2461  139.7535  156.2720 N   0  0  0  0  0  0  0  0  0  0  0  0
  148.8982  140.8121  154.5329 C   0  0  0  0  0  0  0  0  0  0  0  0
  147.6062  139.9762  154.5384 C   0  0  0  0  0  0  0  0  0  0  0  0
  146.6954  133.7079  151.7543 C   0  0  0  0  0  0  0  0  0  0  0  0
  146.9551  132.4021  151.9782 N   0  0  0  0  0  0  0  0  0  0  0  0
  145.4452  129.5280  152.3668 H   0  0  0  0  0  0  0  0  0  0  0  0
  147.1285  129.9539  152.6836 H   0  0  0  0  0  0  0  0  0  0  0  0
  146.6117  129.5609  151.0388 H   0  0  0  0  0  0  0  0  0  0  0  0
  143.9677  131.1239  150.9810 H   0  0  0  0  0  0  0  0  0  0  0  0
  143.4975  133.5505  150.5786 H   0  0  0  0  0  0  0  0  0  0  0  0
  145.9978  136.0904  150.4121 H   0  0  0  0  0  0  0  0  0  0  0  0
  144.2696  135.8179  150.5366 H   0  0  0  0  0  0  0  0  0  0  0  0
  147.0278  137.1492  152.0174 H   0  0  0  0  0  0  0  0  0  0  0  0
  145.7077  138.3568  154.2371 H   0  0  0  0  0  0  0  0  0  0  0  0
  146.6216  136.9815  154.7967 H   0  0  0  0  0  0  0  0  0  0  0  0
  148.1369  138.6914  152.9107 H   0  0  0  0  0  0  0  0  0  0  0  0
  148.7434  137.7089  155.7348 H   0  0  0  0  0  0  0  0  0  0  0  0
  149.3014  136.9797  154.2486 H   0  0  0  0  0  0  0  0  0  0  0  0
  151.0689  138.3700  155.2521 H   0  0  0  0  0  0  0  0  0  0  0  0
  150.6198  138.9993  153.6784 H   0  0  0  0  0  0  0  0  0  0  0  0
  151.3535  141.3807  154.3428 H   0  0  0  0  0  0  0  0  0  0  0  0
  150.9505  141.8530  155.9891 H   0  0  0  0  0  0  0  0  0  0  0  0
  148.6952  141.7925  154.9652 H   0  0  0  0  0  0  0  0  0  0  0  0
  149.2406  140.9779  153.5103 H   0  0  0  0  0  0  0  0  0  0  0  0
  146.8363  140.4913  153.9630 H   0  0  0  0  0  0  0  0  0  0  0  0
  147.2276  139.8970  155.5586 H   0  0  0  0  0  0  0  0  0  0  0  0
  147.4904  134.3985  151.9944 H   0  0  0  0  0  0  0  0  0  0  0  0
  1  2  1  0  0  0  0
  1 22  1  0  0  0  0
  1 23  1  0  0  0  0
  1 24  1  0  0  0  0
  2 21  1  0  0  0  0
  2  3  2  0  0  0  0
  3  4  1  0  0  0  0
  3 25  1  0  0  0  0
  4  5  2  0  0  0  0
  4 26  1  0  0  0  0
  5  6  1  0  0  0  0
  5 20  1  0  0  0  0
  6  7  1  0  0  0  0
  6 27  1  0  0  0  0
  6 28  1  0  0  0  0
  7  8  2  0  0  0  0
  7  9  1  0  0  0  0
  9 10  1  0  0  0  0
  9 29  1  0  0  0  0
 10 11  1  0  0  0  0
 10 30  1  0  0  0  0
 10 31  1  0  0  0  0
 11 19  1  0  0  0  0
 11 12  1  0  0  0  0
 11 32  1  0  0  0  0
 12 13  1  0  0  0  0
 12 33  1  0  0  0  0
 12 34  1  0  0  0  0
 13 14  1  0  0  0  0
 13 35  1  0  0  0  0
 13 36  1  0  0  0  0
 14 15  1  0  0  0  0
 14 18  1  0  0  0  0
 15 16  1  0  0  0  0
 15 37  1  0  0  0  0
 15 38  1  0  0  0  0
 16 17  3  0  0  0  0
 18 19  1  0  0  0  0
 18 39  1  0  0  0  0
 18 40  1  0  0  0  0
 19 41  1  0  0  0  0
 19 42  1  0  0  0  0
 20 21  2  0  0  0  0
 20 43  1  0  0  0  0
M  END
> <s_m_source_file>
AV-unprocessed.smi

> <i_m_source_file_index>
677

> <i_lp_mmshare_version>
43012

> <i_f3d_flags>
0

> <s_epik_input>
W0NIM11jMVtjSF1bY0hdYyhbY0hdbjEpW0NIMl1DKD1PKVtOSF1bQ0gyXVtDSF0yW0NIMl1bQ0gyXU4oW0NIMl1DI04pW0NIMl1bQ0gyXTI=

> <s_epik_cmdline>
J2VwaWtfcHl0aG9uJywgJy1waCcsICc3LjAnLCAnLXRuJywgJzgnLCAnLW1hJywgJzIwMCcsICctbWV0YWxfYmluZGluZycsICctaW1hZScsICc8aW5maWxlLm1hZT4nLCAnLW9tYWUnLCAnPG91dGZpbGUubWFlPic=

> <r_epik_Ionization_Penalty>
0.0175809

> <r_epik_Ionization_Penalty_Charging>
0

> <r_epik_Ionization_Penalty_Neutral>
0.0175809

> <r_epik_State_Penalty>
0.0130795

> <r_epik_Charging_Adjusted_Penalty>
0.0130795

> <i_epik_Tot_Q>
0

> <i_epik_Tot_abs_Q>
0

> <r_epik_Metal_State_Penalty>
0.0127214

> <b_epik_Metal_Only>
0

> <s_lp_Force_Field>
OPLS_2005

> <r_lp_Energy>
13.8767

> <b_lp_Chiralities_Consistent>
1

> <s_lp_Variant>
AV-unprocessed.smi:677-1

> <Gold.Version>
5.8.1

> <Gold.Id.Protein>
6NUR|6NUR_protein|mol2

> <Gold.PLP.Fitness>
42.2778

> <Gold.PLP.PLP>
-35.6473

> <Gold.PLP.part.hbond>
-2.0000

> <Gold.PLP.part.metal>
0.0000

> <Gold.PLP.part.buried>
-5.0740

> <Gold.PLP.part.nonpolar>
-29.8438

> <Gold.PLP.part.repulsive>
0.3620

> <Gold.PLP.ligand.clash>
0.0000

> <Gold.PLP.ligand.torsion>
0.9726

> <Gold.PLP.Chemscore.Hbond>
1.8480

> <Gold.PLP.Chemscore.CHOScore>
1.0000

> <Gold.PLP.Chemscore.Metal>
0.0000

> <Gold.Chemscore.Hbonds>
donor molecule, donor type, donor heavy atom, donor atom, acceptor molecule, acceptor atom, score
      L1  H     9    29       P1  7948  0.54
      P1  H  7997  8008       L1    17  0.35
      L1  C    20    43       P1  7948  1.00

> <Gold.PLP.Chemscore.Internal.Correction>
0.0318

> <Gold.Rescore>
     Score         DG    S(hbond)    S(metal)    S(lipo)     H(rot)  DE(clash)    DE(int)     intcor
     16.14     -17.29       1.91        0.00      85.31       1.78       0.17       0.97       ----

> <Gold.Chemscore.Fitness>
16.1400

> <Gold.Chemscore.DG>
-17.2879

> <Gold.Chemscore.ZeroCoef>
-5.4800

> <Gold.Chemscore.Hbond>
1.9073

> <Gold.Chemscore.Metal>
0.0000

> <Gold.Chemscore.Lipo>
85.3132

> <Gold.Chemscore.Internal_Hbond>
0.0000

> <Gold.Chemscore.DEClash>
0.1739

> <Gold.Chemscore.DEInternal>
0.9740

> <Gold.Chemscore.Rot>
1.7751

> <Gold.Chemscore.Internal.Correction>
   9.000000E+99

> <Gold.Chemscore.Hbonds>
donor molecule, donor type, donor heavy atom, donor atom, acceptor molecule, acceptor atom, score
      L1  H     9    29       P1  7948  0.52
      P1  H  7997  8008       L1    17  0.35

> <Gold.Chemscore.Hbond.Weighted>
-6.3705

> <Gold.Chemscore.Metal.Weighted>
-0.0000

> <Gold.Chemscore.Lipo.Weighted>
-9.9816

> <Gold.Chemscore.Internal_Hbond.Weighted>
0.0000

> <Gold.Chemscore.DEClash.Weighted>
0.1739

> <Gold.Chemscore.DEInternal.Weighted>
0.9740

> <Gold.Chemscore.Rot.Weighted>
4.5442

> <Gold.Chemscore.Internal.Correction.Weighted>
   9.000000E+99

> <Gold.Protein.RotatedTorsions>
[ 6907 6896 6895 6894 ] final   16.05 input  -60.11 | X-H torsion
[ 7974 7965 7964 7962 ] final -117.12 input  175.53 | X-H torsion
[ 8008 7997 7996 7995 ] final  -70.88 input   59.86 | X-H torsion
[ 10167 10162 10161 10158 ] final   15.92 input  -65.29 | X-H torsion
[ 10718 10713 10712 10709 ] final  115.50 input   66.30 | X-H torsion
[ 10763 10752 10751 10750 ] final  136.88 input  -60.55 | X-H torsion
[ 11005 11000 10999 10996 ] final  -24.33 input  -57.11 | X-H torsion

> <Gold.Protein.ActiveResidues>
 VAL166  LYS551  ARG553  GLY616  TRP617  ASP618  TYR619  PRO620  LYS621  CYS622 
 ASP623  PHE694  ASN695  SER759  ASP760  ASP761  ALA762  ILE779  LEU786  VAL792 
 PHE793  MET794  SER795  GLU796  ALA797  LYS798  CYS799  TRP800  GLU811  SER814 

> <Gold.Protein.RotatedAtoms>
  151.8278  135.0631  160.0432 H   0  0  0  0  0  0  0  0  0  0  0  0  # atno 6907 bound_to 6896
  152.2903  133.5550  159.5562 H   0  0  0  0  0  0  0  0  0  0  0  0  # atno 6908 bound_to 6896
  150.7227  134.0354  159.3790 H   0  0  0  0  0  0  0  0  0  0  0  0  # atno 6909 bound_to 6896
  145.0889  140.8476  143.3994 H   0  0  0  0  0  0  0  0  0  0  0  0  # atno 7974 bound_to 7965
  154.5045  140.0826  156.7867 H   0  0  0  0  0  0  0  0  0  0  0  0  # atno 8008 bound_to 7997
  155.3925  140.3433  155.4234 H   0  0  0  0  0  0  0  0  0  0  0  0  # atno 8009 bound_to 7997
  156.1499  140.1555  156.8775 H   0  0  0  0  0  0  0  0  0  0  0  0  # atno 8010 bound_to 7997
  140.5834  143.8937  150.6809 H   0  0  0  0  0  0  0  0  0  0  0  0  # atno 10167 bound_to 10162
  157.6218  131.1013  150.7339 H   0  0  0  0  0  0  0  0  0  0  0  0  # atno 10718 bound_to 10713
  153.8638  135.3064  155.3439 H   0  0  0  0  0  0  0  0  0  0  0  0  # atno 10763 bound_to 10752
  154.7837  135.4821  153.9902 H   0  0  0  0  0  0  0  0  0  0  0  0  # atno 10764 bound_to 10752
  153.1446  135.6831  153.9069 H   0  0  0  0  0  0  0  0  0  0  0  0  # atno 10765 bound_to 10752
  140.8835  133.7637  156.0332 H   0  0  0  0  0  0  0  0  0  0  0  0  # atno 11005 bound_to 11000
  145.1090  139.2770  143.5647 LP  0  0  0  0  0  0  0  0  0  0  0  0  # atno 17320 bound_to 7965
  146.3531  140.0680  142.8625 LP  0  0  0  0  0  0  0  0  0  0  0  0  # atno 17321 bound_to 7965
  140.2442  143.3641  152.1461 LP  0  0  0  0  0  0  0  0  0  0  0  0  # atno 17342 bound_to 10162
  139.5183  144.7004  151.5511 LP  0  0  0  0  0  0  0  0  0  0  0  0  # atno 17343 bound_to 10162
  156.7695  130.4824  149.5421 LP  0  0  0  0  0  0  0  0  0  0  0  0  # atno 17370 bound_to 10713
  156.1367  130.6216  151.0410 LP  0  0  0  0  0  0  0  0  0  0  0  0  # atno 17371 bound_to 10713
  140.8432  134.3041  157.5305 LP  0  0  0  0  0  0  0  0  0  0  0  0  # atno 17394 bound_to 11000
  139.8722  134.9428  156.3834 LP  0  0  0  0  0  0  0  0  0  0  0  0  # atno 17395 bound_to 11000

$$$$
