AV-unprocessed.smi:3158|AV-procd|sdf|12044|dock7
  -GOLD-   2272017473D 1   1.00000     0.00000
 Structure written by MMmdl.
 40 40  0  0  0  0  0  0  0  0  2 V2000
  152.7015  145.0262  158.3974 C   0  0  0  0  0  0  0  0  0  0  0  0
  151.1786  144.8943  158.2495 C   0  0  0  0  0  0  0  0  0  0  0  0
  150.4759  144.3979  159.5267 C   0  0  1  0  0  0  0  0  0  0  0  0
  150.9150  145.1926  160.7653 C   0  0  0  0  0  0  0  0  0  0  0  0
  149.0257  144.4927  159.3735 N   0  0  0  0  0  0  0  0  0  0  0  0
  148.1139  143.9869  160.2186 C   0  0  0  0  0  0  0  0  0  0  0  0
  148.4067  143.3642  161.2402 O   0  0  0  0  0  0  0  0  0  0  0  0
  146.6422  144.2120  159.8427 C   0  0  1  0  0  0  0  0  0  0  0  0
  146.2758  145.6936  160.0205 C   0  0  0  0  0  0  0  0  0  0  0  0
  146.3536  143.7884  158.4528 N   0  3  0  0  0  0  0  0  0  0  0  0
  145.0051  144.1373  157.9566 C   0  0  0  0  0  0  0  0  0  0  0  0
  144.9588  144.0996  156.4229 C   0  0  0  0  0  0  0  0  0  0  0  0
  143.7848  144.7746  155.9054 N   0  0  0  0  0  0  0  0  0  0  0  0
  143.7172  145.9457  155.1801 C   0  0  0  0  0  0  0  0  0  0  0  0
  142.3986  146.1859  154.9201 C   0  0  0  0  0  0  0  0  0  0  0  0
  141.7274  145.0932  155.5366 C   0  0  0  0  0  0  0  0  0  0  0  0
  142.5603  144.2497  156.1254 N   0  0  0  0  0  0  0  0  0  0  0  0
  153.1454  145.4241  157.4846 H   0  0  0  0  0  0  0  0  0  0  0  0
  153.1715  144.0632  158.5985 H   0  0  0  0  0  0  0  0  0  0  0  0
  152.9594  145.7021  159.2130 H   0  0  0  0  0  0  0  0  0  0  0  0
  150.7718  145.8678  157.9731 H   0  0  0  0  0  0  0  0  0  0  0  0
  150.9532  144.2254  157.4177 H   0  0  0  0  0  0  0  0  0  0  0  0
  150.7652  143.3562  159.6774 H   0  0  0  0  0  0  0  0  0  0  0  0
  151.9928  145.1215  160.9146 H   0  0  0  0  0  0  0  0  0  0  0  0
  150.4340  144.8139  161.6677 H   0  0  0  0  0  0  0  0  0  0  0  0
  150.6617  146.2492  160.6707 H   0  0  0  0  0  0  0  0  0  0  0  0
  148.6919  144.9823  158.5558 H   0  0  0  0  0  0  0  0  0  0  0  0
  146.0131  143.6248  160.5139 H   0  0  0  0  0  0  0  0  0  0  0  0
  146.4489  146.0266  161.0448 H   0  0  0  0  0  0  0  0  0  0  0  0
  145.2223  145.8651  159.7981 H   0  0  0  0  0  0  0  0  0  0  0  0
  146.8621  146.3337  159.3595 H   0  0  0  0  0  0  0  0  0  0  0  0
  147.0263  144.2335  157.8452 H   0  0  0  0  0  0  0  0  0  0  0  0
  144.2696  143.4412  158.3616 H   0  0  0  0  0  0  0  0  0  0  0  0
  144.7389  145.1320  158.3166 H   0  0  0  0  0  0  0  0  0  0  0  0
  145.8461  144.5722  155.9989 H   0  0  0  0  0  0  0  0  0  0  0  0
  144.9485  143.0678  156.0690 H   0  0  0  0  0  0  0  0  0  0  0  0
  144.6018  146.5045  154.9114 H   0  0  0  0  0  0  0  0  0  0  0  0
  141.9772  147.0166  154.3735 H   0  0  0  0  0  0  0  0  0  0  0  0
  140.6674  144.8897  155.5729 H   0  0  0  0  0  0  0  0  0  0  0  0
  146.4776  142.7874  158.3939 H   0  0  0  0  0  0  0  0  0  0  0  0
  1  2  1  0  0  0  0
  1 18  1  0  0  0  0
  1 19  1  0  0  0  0
  1 20  1  0  0  0  0
  2  3  1  0  0  0  0
  2 21  1  0  0  0  0
  2 22  1  0  0  0  0
  3  4  1  0  0  0  0
  3  5  1  0  0  0  0
  3 23  1  0  0  0  0
  4 24  1  0  0  0  0
  4 25  1  0  0  0  0
  4 26  1  0  0  0  0
  5  6  1  0  0  0  0
  5 27  1  0  0  0  0
  6  7  2  0  0  0  0
  6  8  1  0  0  0  0
  8  9  1  0  0  0  0
  8 10  1  0  0  0  0
  8 28  1  0  0  0  0
  9 29  1  0  0  0  0
  9 30  1  0  0  0  0
  9 31  1  0  0  0  0
 10 11  1  0  0  0  0
 10 32  1  0  0  0  0
 10 40  1  0  0  0  0
 11 12  1  0  0  0  0
 11 33  1  0  0  0  0
 11 34  1  0  0  0  0
 12 13  1  0  0  0  0
 12 35  1  0  0  0  0
 12 36  1  0  0  0  0
 13 17  1  0  0  0  0
 13 14  1  0  0  0  0
 14 15  2  0  0  0  0
 14 37  1  0  0  0  0
 15 16  1  0  0  0  0
 15 38  1  0  0  0  0
 16 17  2  0  0  0  0
 16 39  1  0  0  0  0
M  CHG  1  10   1
M  END
> <s_m_source_file>
AV-unprocessed.smi

> <i_m_source_file_index>
3158

> <i_lp_mmshare_version>
43012

> <i_f3d_flags>
0

> <s_epik_input>
W0NIM11bQ0gyXVtDQEhdKFtDSDNdKVtOSF1DKD1PKVtDQEhdKFtDSDNdKVtOSF1bQ0gyXVtDSDJdbjFbY0hdW2NIXVtjSF1uMQ==

> <s_epik_cmdline>
J2VwaWtfcHl0aG9uJywgJy1waCcsICc3LjAnLCAnLXRuJywgJzgnLCAnLW1hJywgJzIwMCcsICctbWV0YWxfYmluZGluZycsICctaW1hZScsICc8aW5maWxlLm1hZT4nLCAnLW9tYWUnLCAnPG91dGZpbGUubWFlPic=

> <r_lp_tautomer_probability>
1

> <r_epik_Ionization_Penalty>
0.20724

> <r_epik_Ionization_Penalty_Charging>
0.207237

> <r_epik_Ionization_Penalty_Neutral>
3.33806e-06

> <r_epik_State_Penalty>
0.197234

> <r_epik_Charging_Adjusted_Penalty>
0.404471

> <i_epik_Tot_Q>
1

> <i_epik_Tot_abs_Q>
1

> <r_epik_Metal_State_Penalty>
0.197524

> <b_epik_Metal_Only>
0

> <s_lp_Force_Field>
OPLS_2005

> <r_lp_Energy>
5.19885

> <b_lp_Chiralities_Consistent>
1

> <s_lp_Variant>
AV-unprocessed.smi:3158-4

> <Gold.Version>
5.8.1

> <Gold.Id.Protein>
6NUR|6NUR_protein|mol2

> <Gold.PLP.Fitness>
43.8023

> <Gold.PLP.PLP>
-33.0725

> <Gold.PLP.part.hbond>
-3.0000

> <Gold.PLP.part.metal>
0.0000

> <Gold.PLP.part.buried>
-2.2493

> <Gold.PLP.part.nonpolar>
-29.0494

> <Gold.PLP.part.repulsive>
0.3820

> <Gold.PLP.ligand.clash>
0.0000

> <Gold.PLP.ligand.torsion>
0.5085

> <Gold.PLP.Chemscore.Hbond>
3.8640

> <Gold.PLP.Chemscore.CHOScore>
0.0000

> <Gold.PLP.Chemscore.Metal>
0.0000

> <Gold.Chemscore.Hbonds>
donor molecule, donor type, donor heavy atom, donor atom, acceptor molecule, acceptor atom, score
      L1  H     5    27       P1  8029  1.00
      L1  H    10    32       P1  8029  1.60

> <Gold.PLP.Chemscore.Internal.Correction>
0.1548

> <Gold.Rescore>
     Score         DG    S(hbond)    S(metal)    S(lipo)     H(rot)  DE(clash)    DE(int)     intcor
     15.93     -18.23       2.63        0.00      82.33       2.21       0.81       1.49       ----

> <Gold.Chemscore.Fitness>
15.9279

> <Gold.Chemscore.DG>
-18.2292

> <Gold.Chemscore.ZeroCoef>
-5.4800

> <Gold.Chemscore.Hbond>
2.6295

> <Gold.Chemscore.Metal>
0.0000

> <Gold.Chemscore.Lipo>
82.3297

> <Gold.Chemscore.Internal_Hbond>
0.0000

> <Gold.Chemscore.DEClash>
0.8066

> <Gold.Chemscore.DEInternal>
1.4947

> <Gold.Chemscore.Rot>
2.2132

> <Gold.Chemscore.Internal.Correction>
   9.000000E+99

> <Gold.Chemscore.Hbonds>
donor molecule, donor type, donor heavy atom, donor atom, acceptor molecule, acceptor atom, score
      L1  H     5    27       P1  8029  0.97
      L1  H    10    32       P1  8029  0.13

> <Gold.Chemscore.Hbond.Weighted>
-8.7824

> <Gold.Chemscore.Metal.Weighted>
-0.0000

> <Gold.Chemscore.Lipo.Weighted>
-9.6326

> <Gold.Chemscore.Internal_Hbond.Weighted>
0.0000

> <Gold.Chemscore.DEClash.Weighted>
0.8066

> <Gold.Chemscore.DEInternal.Weighted>
1.4947

> <Gold.Chemscore.Rot.Weighted>
5.6658

> <Gold.Chemscore.Internal.Correction.Weighted>
   9.000000E+99

> <Gold.Protein.RotatedTorsions>
[ 6907 6896 6895 6894 ] final  157.60 input  -60.11 | X-H torsion
[ 7974 7965 7964 7962 ] final  113.97 input  175.53 | X-H torsion
[ 8008 7997 7996 7995 ] final  -51.95 input   59.86 | X-H torsion
[ 10167 10162 10161 10158 ] final   23.35 input  -65.29 | X-H torsion
[ 10718 10713 10712 10709 ] final    4.98 input   66.30 | X-H torsion
[ 10763 10752 10751 10750 ] final -166.18 input  -60.55 | X-H torsion
[ 11005 11000 10999 10996 ] final  105.64 input  -57.11 | X-H torsion

> <Gold.Protein.ActiveResidues>
 VAL166  LYS551  ARG553  GLY616  TRP617  ASP618  TYR619  PRO620  LYS621  CYS622 
 ASP623  PHE694  ASN695  SER759  ASP760  ASP761  ALA762  ILE779  LEU786  VAL792 
 PHE793  MET794  SER795  GLU796  ALA797  LYS798  CYS799  TRP800  GLU811  SER814 

> <Gold.Protein.RotatedAtoms>
  152.0127  133.3868  159.4226 H   0  0  0  0  0  0  0  0  0  0  0  0  # atno 6907 bound_to 6896
  150.6898  134.3712  159.5002 H   0  0  0  0  0  0  0  0  0  0  0  0  # atno 6908 bound_to 6896
  152.1475  134.9014  160.0601 H   0  0  0  0  0  0  0  0  0  0  0  0  # atno 6909 bound_to 6896
  145.2103  139.2909  143.4272 H   0  0  0  0  0  0  0  0  0  0  0  0  # atno 7974 bound_to 7965
  154.4095  140.1235  156.4912 H   0  0  0  0  0  0  0  0  0  0  0  0  # atno 8008 bound_to 7997
  155.6988  140.3495  155.4905 H   0  0  0  0  0  0  0  0  0  0  0  0  # atno 8009 bound_to 7997
  155.9403  140.1086  157.1051 H   0  0  0  0  0  0  0  0  0  0  0  0  # atno 8010 bound_to 7997
  140.5276  143.9897  150.6448 H   0  0  0  0  0  0  0  0  0  0  0  0  # atno 10167 bound_to 10162
  156.9007  130.5720  149.5648 H   0  0  0  0  0  0  0  0  0  0  0  0  # atno 10718 bound_to 10713
  154.6858  135.2962  154.9549 H   0  0  0  0  0  0  0  0  0  0  0  0  # atno 10763 bound_to 10752
  154.0529  135.6642  153.4806 H   0  0  0  0  0  0  0  0  0  0  0  0  # atno 10764 bound_to 10752
  153.0578  135.5134  154.7925 H   0  0  0  0  0  0  0  0  0  0  0  0  # atno 10765 bound_to 10752
  139.8804  134.9342  156.5544 H   0  0  0  0  0  0  0  0  0  0  0  0  # atno 11005 bound_to 11000
  146.3399  140.2377  142.8595 LP  0  0  0  0  0  0  0  0  0  0  0  0  # atno 17320 bound_to 7965
  144.9862  140.8505  143.5367 LP  0  0  0  0  0  0  0  0  0  0  0  0  # atno 17321 bound_to 7965
  140.3263  143.3106  152.0733 LP  0  0  0  0  0  0  0  0  0  0  0  0  # atno 17342 bound_to 10162
  139.4943  144.6540  151.6613 LP  0  0  0  0  0  0  0  0  0  0  0  0  # atno 17343 bound_to 10162
  156.0583  130.5641  150.9139 LP  0  0  0  0  0  0  0  0  0  0  0  0  # atno 17370 bound_to 10713
  157.6028  131.0940  150.8931 LP  0  0  0  0  0  0  0  0  0  0  0  0  # atno 17371 bound_to 10713
  140.8216  133.8349  155.8901 LP  0  0  0  0  0  0  0  0  0  0  0  0  # atno 17394 bound_to 11000
  140.9413  134.1897  157.4795 LP  0  0  0  0  0  0  0  0  0  0  0  0  # atno 17395 bound_to 11000

$$$$
