AV-unprocessed.smi:152|AV-procd|sdf|1247|dock4
  -GOLD-   2262018473D 1   1.00000     0.00000
 Structure written by MMmdl.
 58 61  0  0  0  0  0  0  0  0  2 V2000
  147.3624  133.3136  152.5997 C   0  0  0  0  0  0  0  0  0  0  0  0
  148.8398  133.0112  152.8815 C   0  0  0  0  0  0  0  0  0  0  0  0
  149.0441  132.4791  154.2513 N   0  3  1  0  0  0  0  0  0  0  0  0
  150.1606  131.5170  154.4057 C   0  0  0  0  0  0  0  0  0  0  0  0
  150.6606  131.6556  155.8503 C   0  0  0  0  0  0  0  0  0  0  0  0
  149.6802  132.6234  156.5112 C   0  0  0  0  0  0  0  0  0  0  0  0
  149.1552  133.4720  155.3473 C   0  0  1  0  0  0  0  0  0  0  0  0
  150.0812  134.6644  154.9864 C   0  0  0  0  0  0  0  0  0  0  0  0
  149.7840  135.8771  155.7553 N   0  0  0  0  0  0  0  0  0  0  0  0
  148.9113  135.7470  156.9162 C   0  0  0  0  0  0  0  0  0  0  0  0
  150.4196  137.0596  155.4978 C   0  0  0  0  0  0  0  0  0  0  0  0
  151.5278  137.0399  154.7084 N   0  0  0  0  0  0  0  0  0  0  0  0
  152.1974  138.1597  154.4278 C   0  0  0  0  0  0  0  0  0  0  0  0
  151.9404  139.4035  154.8276 N   0  0  0  0  0  0  0  0  0  0  0  0
  150.8331  139.4463  155.6205 C   0  0  0  0  0  0  0  0  0  0  0  0
  150.0176  138.3383  155.9996 C   0  0  0  0  0  0  0  0  0  0  0  0
  148.9799  138.7934  156.8089 N   0  0  0  0  0  0  0  0  0  0  0  0
  149.1691  140.0802  156.8988 C   0  0  0  0  0  0  0  0  0  0  0  0
  150.2687  140.5560  156.2249 N   0  0  0  0  0  0  0  0  0  0  0  0
  150.7199  141.9379  156.1597 C   0  0  0  0  0  0  0  0  0  0  0  0
  151.0297  142.5678  157.5412 C   0  0  0  0  0  0  0  0  0  0  0  0
  149.8080  142.6832  158.2499 O   0  0  0  0  0  0  0  0  0  0  0  0
  151.9739  141.6521  158.3458 C   0  0  0  0  0  0  0  0  0  0  0  0
  152.4501  142.3114  159.6524 C   0  0  0  0  0  0  0  0  0  0  0  0
  153.0622  143.5637  159.3694 O   0  0  0  0  0  0  0  0  0  0  0  0
  152.1601  144.4963  158.7868 C   0  0  0  0  0  0  0  0  0  0  0  0
  151.6605  143.9734  157.4282 C   0  0  0  0  0  0  0  0  0  0  0  0
  147.2415  133.7520  151.6088 H   0  0  0  0  0  0  0  0  0  0  0  0
  146.9589  134.0200  153.3256 H   0  0  0  0  0  0  0  0  0  0  0  0
  146.7534  132.4098  152.6344 H   0  0  0  0  0  0  0  0  0  0  0  0
  149.2256  132.3109  152.1392 H   0  0  0  0  0  0  0  0  0  0  0  0
  149.4098  133.9353  152.7760 H   0  0  0  0  0  0  0  0  0  0  0  0
  149.8089  130.5064  154.1957 H   0  0  0  0  0  0  0  0  0  0  0  0
  150.9697  131.7409  153.7088 H   0  0  0  0  0  0  0  0  0  0  0  0
  150.7048  130.6986  156.3709 H   0  0  0  0  0  0  0  0  0  0  0  0
  151.6650  132.0809  155.8551 H   0  0  0  0  0  0  0  0  0  0  0  0
  148.8539  132.0562  156.9422 H   0  0  0  0  0  0  0  0  0  0  0  0
  150.1267  133.1966  157.3226 H   0  0  0  0  0  0  0  0  0  0  0  0
  148.1592  133.8516  155.5785 H   0  0  0  0  0  0  0  0  0  0  0  0
  151.1282  134.3714  155.0563 H   0  0  0  0  0  0  0  0  0  0  0  0
  149.9397  134.9311  153.9392 H   0  0  0  0  0  0  0  0  0  0  0  0
  149.4706  135.9036  157.8390 H   0  0  0  0  0  0  0  0  0  0  0  0
  148.4671  134.7524  156.9641 H   0  0  0  0  0  0  0  0  0  0  0  0
  148.0943  136.4674  156.8683 H   0  0  0  0  0  0  0  0  0  0  0  0
  153.0633  138.0421  153.7931 H   0  0  0  0  0  0  0  0  0  0  0  0
  148.5127  140.7201  157.4706 H   0  0  0  0  0  0  0  0  0  0  0  0
  151.6006  141.9817  155.5171 H   0  0  0  0  0  0  0  0  0  0  0  0
  149.9473  142.5169  155.6515 H   0  0  0  0  0  0  0  0  0  0  0  0
  149.3812  141.8401  158.2528 H   0  0  0  0  0  0  0  0  0  0  0  0
  151.4901  140.6987  158.5623 H   0  0  0  0  0  0  0  0  0  0  0  0
  152.8506  141.4178  157.7404 H   0  0  0  0  0  0  0  0  0  0  0  0
  151.6227  142.4467  160.3508 H   0  0  0  0  0  0  0  0  0  0  0  0
  153.1788  141.6703  160.1485 H   0  0  0  0  0  0  0  0  0  0  0  0
  151.3274  144.6868  159.4655 H   0  0  0  0  0  0  0  0  0  0  0  0
  152.6784  145.4458  158.6513 H   0  0  0  0  0  0  0  0  0  0  0  0
  152.5062  143.9332  156.7403 H   0  0  0  0  0  0  0  0  0  0  0  0
  150.9523  144.6858  157.0035 H   0  0  0  0  0  0  0  0  0  0  0  0
  148.2102  131.9546  154.4740 H   0  0  0  0  0  0  0  0  0  0  0  0
  1  2  1  0  0  0  0
  1 28  1  0  0  0  0
  1 29  1  0  0  0  0
  1 30  1  0  0  0  0
  2  3  1  0  0  0  0
  2 31  1  0  0  0  0
  2 32  1  0  0  0  0
  3  7  1  0  0  0  0
  3  4  1  0  0  0  0
  3 58  1  0  0  0  0
  4  5  1  0  0  0  0
  4 33  1  0  0  0  0
  4 34  1  0  0  0  0
  5  6  1  0  0  0  0
  5 35  1  0  0  0  0
  5 36  1  0  0  0  0
  6  7  1  0  0  0  0
  6 37  1  0  0  0  0
  6 38  1  0  0  0  0
  7  8  1  0  0  0  0
  7 39  1  0  0  0  0
  8  9  1  0  0  0  0
  8 40  1  0  0  0  0
  8 41  1  0  0  0  0
  9 10  1  0  0  0  0
  9 11  1  0  0  0  0
 10 42  1  0  0  0  0
 10 43  1  0  0  0  0
 10 44  1  0  0  0  0
 11 16  1  0  0  0  0
 11 12  2  0  0  0  0
 12 13  1  0  0  0  0
 13 14  2  0  0  0  0
 13 45  1  0  0  0  0
 14 15  1  0  0  0  0
 15 19  1  0  0  0  0
 15 16  2  0  0  0  0
 16 17  1  0  0  0  0
 17 18  2  0  0  0  0
 18 19  1  0  0  0  0
 18 46  1  0  0  0  0
 19 20  1  0  0  0  0
 20 21  1  0  0  0  0
 20 47  1  0  0  0  0
 20 48  1  0  0  0  0
 21 27  1  0  0  0  0
 21 22  1  0  0  0  0
 21 23  1  0  0  0  0
 22 49  1  0  0  0  0
 23 24  1  0  0  0  0
 23 50  1  0  0  0  0
 23 51  1  0  0  0  0
 24 25  1  0  0  0  0
 24 52  1  0  0  0  0
 24 53  1  0  0  0  0
 25 26  1  0  0  0  0
 26 27  1  0  0  0  0
 26 54  1  0  0  0  0
 26 55  1  0  0  0  0
 27 56  1  0  0  0  0
 27 57  1  0  0  0  0
M  CHG  1   3   1
M  END
> <s_m_source_file>
AV-unprocessed.smi

> <i_m_source_file_index>
152

> <i_lp_mmshare_version>
43012

> <i_f3d_flags>
0

> <s_epik_input>
W0NIM11bQ0gyXU4xW0NIMl1bQ0gyXVtDSDJdW0NASF0xW0NIMl1OKFtDSDNdKWMobltjSF1uMiljKGMyMyluW2NIXW4zW0NIMl1DNChbT0hdKVtDSDJdW0NIMl1PW0NIMl1bQ0gyXTQ=

> <s_epik_cmdline>
J2VwaWtfcHl0aG9uJywgJy1waCcsICc3LjAnLCAnLXRuJywgJzgnLCAnLW1hJywgJzIwMCcsICctbWV0YWxfYmluZGluZycsICctaW1hZScsICc8aW5maWxlLm1hZT4nLCAnLW9tYWUnLCAnPG91dGZpbGUubWFlPic=

> <r_lp_tautomer_probability>
1

> <r_epik_Ionization_Penalty>
0.00152183

> <r_epik_Ionization_Penalty_Charging>
0.00112577

> <r_epik_Ionization_Penalty_Neutral>
0.000396066

> <r_epik_State_Penalty>
-0

> <r_epik_Charging_Adjusted_Penalty>
0.00112577

> <i_epik_Tot_Q>
1

> <i_epik_Tot_abs_Q>
1

> <r_epik_Metal_State_Penalty>
-0

> <b_epik_Metal_Only>
0

> <s_lp_Force_Field>
OPLS_2005

> <r_lp_Energy>
46.3876

> <b_lp_Chiralities_Consistent>
1

> <s_lp_Variant>
AV-unprocessed.smi:152-2

> <Gold.Version>
5.8.1

> <Gold.Id.Protein>
6NUR|6NUR_protein|mol2

> <Gold.PLP.Fitness>
51.0747

> <Gold.PLP.PLP>
-46.8020

> <Gold.PLP.part.hbond>
-2.0000

> <Gold.PLP.part.metal>
0.0000

> <Gold.PLP.part.buried>
-9.1553

> <Gold.PLP.part.nonpolar>
-36.8027

> <Gold.PLP.part.repulsive>
0.1937

> <Gold.PLP.ligand.clash>
0.0000

> <Gold.PLP.ligand.torsion>
0.9043

> <Gold.PLP.Chemscore.Hbond>
1.9760

> <Gold.PLP.Chemscore.CHOScore>
0.0000

> <Gold.PLP.Chemscore.Metal>
0.0000

> <Gold.Chemscore.Hbonds>
donor molecule, donor type, donor heavy atom, donor atom, acceptor molecule, acceptor atom, score
      P1  H  7989  7998       L1    14  0.96
      P1  H 10752 10765       L1    12  1.00

> <Gold.PLP.Chemscore.Internal.Correction>
0.1533

> <Gold.Rescore>
     Score         DG    S(hbond)    S(metal)    S(lipo)     H(rot)  DE(clash)    DE(int)     intcor
     12.98     -15.83       1.35        0.00     103.80       2.46       0.08       2.76       ----

> <Gold.Chemscore.Fitness>
12.9823

> <Gold.Chemscore.DG>
-15.8257

> <Gold.Chemscore.ZeroCoef>
-5.4800

> <Gold.Chemscore.Hbond>
1.3480

> <Gold.Chemscore.Metal>
0.0000

> <Gold.Chemscore.Lipo>
103.8010

> <Gold.Chemscore.Internal_Hbond>
0.0000

> <Gold.Chemscore.DEClash>
0.0787

> <Gold.Chemscore.DEInternal>
2.7648

> <Gold.Chemscore.Rot>
2.4614

> <Gold.Chemscore.Internal.Correction>
   9.000000E+99

> <Gold.Chemscore.Hbonds>
donor molecule, donor type, donor heavy atom, donor atom, acceptor molecule, acceptor atom, score
      P1  H  7989  7998       L1    14  0.44
      P1  H 10752 10765       L1    12  0.37

> <Gold.Chemscore.Hbond.Weighted>
-4.5022

> <Gold.Chemscore.Metal.Weighted>
-0.0000

> <Gold.Chemscore.Lipo.Weighted>
-12.1447

> <Gold.Chemscore.Internal_Hbond.Weighted>
0.0000

> <Gold.Chemscore.DEClash.Weighted>
0.0787

> <Gold.Chemscore.DEInternal.Weighted>
2.7648

> <Gold.Chemscore.Rot.Weighted>
6.3012

> <Gold.Chemscore.Internal.Correction.Weighted>
   9.000000E+99

> <Gold.Protein.RotatedTorsions>
[ 6907 6896 6895 6894 ] final  107.24 input  -60.11 | X-H torsion
[ 7974 7965 7964 7962 ] final  -71.70 input  175.53 | X-H torsion
[ 8008 7997 7996 7995 ] final -167.83 input   59.86 | X-H torsion
[ 10167 10162 10161 10158 ] final   54.19 input  -65.29 | X-H torsion
[ 10718 10713 10712 10709 ] final   57.74 input   66.30 | X-H torsion
[ 10763 10752 10751 10750 ] final  178.34 input  -60.55 | X-H torsion
[ 11005 11000 10999 10996 ] final   52.07 input  -57.11 | X-H torsion

> <Gold.Protein.ActiveResidues>
 VAL166  LYS551  ARG553  GLY616  TRP617  ASP618  TYR619  PRO620  LYS621  CYS622 
 ASP623  PHE694  ASN695  SER759  ASP760  ASP761  ALA762  ILE779  LEU786  VAL792 
 PHE793  MET794  SER795  GLU796  ALA797  LYS798  CYS799  TRP800  GLU811  SER814 

> <Gold.Protein.RotatedAtoms>
  152.5162  133.9264  159.7558 H   0  0  0  0  0  0  0  0  0  0  0  0  # atno 6907 bound_to 6896
  150.9624  133.6423  159.2759 H   0  0  0  0  0  0  0  0  0  0  0  0  # atno 6908 bound_to 6896
  151.3663  135.0919  159.9504 H   0  0  0  0  0  0  0  0  0  0  0  0  # atno 6909 bound_to 6896
  145.6747  140.9209  143.0864 H   0  0  0  0  0  0  0  0  0  0  0  0  # atno 7974 bound_to 7965
  155.8831  140.1012  157.1471 H   0  0  0  0  0  0  0  0  0  0  0  0  # atno 8008 bound_to 7997
  154.4007  140.1325  156.4285 H   0  0  0  0  0  0  0  0  0  0  0  0  # atno 8009 bound_to 7997
  155.7620  140.3463  155.5205 H   0  0  0  0  0  0  0  0  0  0  0  0  # atno 8010 bound_to 7997
  140.2328  144.3668  150.6408 H   0  0  0  0  0  0  0  0  0  0  0  0  # atno 10167 bound_to 10162
  157.5539  130.8786  149.9006 H   0  0  0  0  0  0  0  0  0  0  0  0  # atno 10718 bound_to 10713
  154.5064  135.2786  155.1379 H   0  0  0  0  0  0  0  0  0  0  0  0  # atno 10763 bound_to 10752
  154.2991  135.6251  153.5421 H   0  0  0  0  0  0  0  0  0  0  0  0  # atno 10764 bound_to 10752
  152.9911  135.5692  154.5519 H   0  0  0  0  0  0  0  0  0  0  0  0  # atno 10765 bound_to 10752
  140.0879  134.5248  155.8880 H   0  0  0  0  0  0  0  0  0  0  0  0  # atno 11005 bound_to 11000
  144.7045  139.8618  143.7434 LP  0  0  0  0  0  0  0  0  0  0  0  0  # atno 17320 bound_to 7965
  146.1015  139.4011  143.0344 LP  0  0  0  0  0  0  0  0  0  0  0  0  # atno 17321 bound_to 7965
  140.6172  143.2173  151.6767 LP  0  0  0  0  0  0  0  0  0  0  0  0  # atno 17342 bound_to 10162
  139.5104  144.3544  152.0622 LP  0  0  0  0  0  0  0  0  0  0  0  0  # atno 17343 bound_to 10162
  156.0601  130.3701  150.1001 LP  0  0  0  0  0  0  0  0  0  0  0  0  # atno 17370 bound_to 10713
  156.9171  130.9671  151.3554 LP  0  0  0  0  0  0  0  0  0  0  0  0  # atno 17371 bound_to 10713
  141.2068  133.6659  156.6269 LP  0  0  0  0  0  0  0  0  0  0  0  0  # atno 17394 bound_to 11000
  140.3393  134.7862  157.4386 LP  0  0  0  0  0  0  0  0  0  0  0  0  # atno 17395 bound_to 11000

$$$$
