AV-unprocessed.smi:840|AV-procd|sdf|3913|dock4
  -GOLD-   22720 1373D 1   1.00000     0.00000
 Structure written by MMmdl.
 36 37  0  0  0  0  0  0  0  0  2 V2000
  155.3213  139.9968  160.3044 C   0  0  0  0  0  0  0  0  0  0  0  0
  153.8187  140.2989  160.1801 C   0  0  2  0  0  0  0  0  0  0  0  0
  153.4205  140.0564  158.7937 N   0  0  0  0  0  0  0  0  0  0  0  0
  152.4606  139.2128  158.3845 C   0  0  0  0  0  0  0  0  0  0  0  0
  151.8242  138.5570  159.2131 O   0  0  0  0  0  0  0  0  0  0  0  0
  152.3003  139.1797  157.0419 N   0  5  0  0  0  0  0  0  0  0  0  0
  151.2226  138.5822  156.5079 C   0  0  0  0  0  0  0  0  0  0  0  0
  150.4693  139.1505  155.5593 N   0  0  0  0  0  0  0  0  0  0  0  0
  149.4049  138.3497  155.1417 C   0  0  0  0  0  0  0  0  0  0  0  0
  149.3508  137.1397  155.7812 C   0  0  0  0  0  0  0  0  0  0  0  0
  150.6428  136.9697  156.9350 S   0  0  0  0  0  0  0  0  0  0  0  0
  153.5904  141.7704  160.5602 C   0  0  0  0  0  0  0  0  0  0  0  0
  153.8817  142.1828  161.6842 O   0  0  0  0  0  0  0  0  0  0  0  0
  153.0514  142.5475  159.6088 N   0  0  0  0  0  0  0  0  0  0  0  0
  152.7593  143.9711  159.7503 C   0  0  0  0  0  0  0  0  0  0  0  0
  151.7326  144.2099  160.8745 C   0  0  0  0  0  0  0  0  0  0  0  0
  150.6572  145.1229  160.2818 C   0  0  0  0  0  0  0  0  0  0  0  0
  150.6568  144.7903  158.7933 C   0  0  0  0  0  0  0  0  0  0  0  0
  152.1300  144.5469  158.4659 C   0  0  0  0  0  0  0  0  0  0  0  0
  155.6755  140.1604  161.3232 H   0  0  0  0  0  0  0  0  0  0  0  0
  155.9185  140.6219  159.6388 H   0  0  0  0  0  0  0  0  0  0  0  0
  155.5296  138.9566  160.0522 H   0  0  0  0  0  0  0  0  0  0  0  0
  153.2592  139.6413  160.8485 H   0  0  0  0  0  0  0  0  0  0  0  0
  153.9085  140.5804  158.0825 H   0  0  0  0  0  0  0  0  0  0  0  0
  148.7345  138.7211  154.3811 H   0  0  0  0  0  0  0  0  0  0  0  0
  148.6357  136.3426  155.6453 H   0  0  0  0  0  0  0  0  0  0  0  0
  152.8465  142.1250  158.7152 H   0  0  0  0  0  0  0  0  0  0  0  0
  153.6798  144.5118  159.9785 H   0  0  0  0  0  0  0  0  0  0  0  0
  151.2700  143.2702  161.1809 H   0  0  0  0  0  0  0  0  0  0  0  0
  152.1902  144.6465  161.7629 H   0  0  0  0  0  0  0  0  0  0  0  0
  149.6809  144.9778  160.7453 H   0  0  0  0  0  0  0  0  0  0  0  0
  150.9423  146.1663  160.4235 H   0  0  0  0  0  0  0  0  0  0  0  0
  150.0863  143.8767  158.6205 H   0  0  0  0  0  0  0  0  0  0  0  0
  150.2158  145.5803  158.1846 H   0  0  0  0  0  0  0  0  0  0  0  0
  152.6071  145.4989  158.2299 H   0  0  0  0  0  0  0  0  0  0  0  0
  152.2530  143.9038  157.5930 H   0  0  0  0  0  0  0  0  0  0  0  0
  1  2  1  0  0  0  0
  1 20  1  0  0  0  0
  1 21  1  0  0  0  0
  1 22  1  0  0  0  0
  2  3  1  0  0  0  0
  2 12  1  0  0  0  0
  2 23  1  0  0  0  0
  3  4  1  0  0  0  0
  3 24  1  0  0  0  0
  4  5  2  0  0  0  0
  4  6  1  0  0  0  0
  6  7  1  0  0  0  0
  7 11  1  0  0  0  0
  7  8  2  0  0  0  0
  8  9  1  0  0  0  0
  9 10  2  0  0  0  0
  9 25  1  0  0  0  0
 10 11  1  0  0  0  0
 10 26  1  0  0  0  0
 12 13  2  0  0  0  0
 12 14  1  0  0  0  0
 14 15  1  0  0  0  0
 14 27  1  0  0  0  0
 15 19  1  0  0  0  0
 15 16  1  0  0  0  0
 15 28  1  0  0  0  0
 16 17  1  0  0  0  0
 16 29  1  0  0  0  0
 16 30  1  0  0  0  0
 17 18  1  0  0  0  0
 17 31  1  0  0  0  0
 17 32  1  0  0  0  0
 18 19  1  0  0  0  0
 18 33  1  0  0  0  0
 18 34  1  0  0  0  0
 19 35  1  0  0  0  0
 19 36  1  0  0  0  0
M  CHG  1   6  -1
M  END
> <s_m_source_file>
AV-unprocessed.smi

> <i_m_source_file_index>
840

> <i_lp_mmshare_version>
43012

> <i_f3d_flags>
0

> <s_epik_input>
W0NIMl0xW0NIMl1bQ0gyXVtDSDJdW0NIXTFbTkhdQyg9TylbQ0BIXShbQ0gzXSlbTkhdQyg9TylbTkhdYzJuW2NIXVtjSF1zMg==

> <s_epik_cmdline>
J2VwaWtfcHl0aG9uJywgJy1waCcsICc3LjAnLCAnLXRuJywgJzgnLCAnLW1hJywgJzIwMCcsICctbWV0YWxfYmluZGluZycsICctaW1hZScsICc8aW5maWxlLm1hZT4nLCAnLW9tYWUnLCAnPG91dGZpbGUubWFlPic=

> <r_lp_tautomer_probability>
1

> <r_epik_Ionization_Penalty>
6.35467

> <r_epik_Ionization_Penalty_Charging>
5.47395

> <r_epik_Ionization_Penalty_Neutral>
0.880717

> <r_epik_State_Penalty>
5.4739

> <r_epik_Charging_Adjusted_Penalty>
10.9479

> <i_epik_Tot_Q>
-1

> <i_epik_Tot_abs_Q>
1

> <r_epik_Metal_State_Penalty>
1.48639

> <b_epik_Metal_Only>
1

> <s_lp_Force_Field>
OPLS_2005

> <r_lp_Energy>
14.0087

> <b_lp_Chiralities_Consistent>
1

> <s_lp_Variant>
AV-unprocessed.smi:840-3

> <Gold.Version>
5.8.1

> <Gold.Id.Protein>
6NUR|6NUR_protein|mol2

> <Gold.PLP.Fitness>
52.6690

> <Gold.PLP.PLP>
-39.6149

> <Gold.PLP.part.hbond>
-2.0000

> <Gold.PLP.part.metal>
0.0000

> <Gold.PLP.part.buried>
-6.8944

> <Gold.PLP.part.nonpolar>
-31.8254

> <Gold.PLP.part.repulsive>
1.7156

> <Gold.PLP.ligand.clash>
0.0000

> <Gold.PLP.ligand.torsion>
0.4636

> <Gold.PLP.Chemscore.Hbond>
2.6500

> <Gold.PLP.Chemscore.CHOScore>
1.9797

> <Gold.PLP.Chemscore.Metal>
0.0000

> <Gold.Chemscore.Hbonds>
donor molecule, donor type, donor heavy atom, donor atom, acceptor molecule, acceptor atom, score
      P1  H  7997  8010       L1     6  0.52

> <Gold.PLP.Chemscore.Internal.Correction>
0.0925

> <Gold.Rescore>
     Score         DG    S(hbond)    S(metal)    S(lipo)     H(rot)  DE(clash)    DE(int)     intcor
     13.19     -15.47       0.85        0.00      96.58       1.62       0.21       2.07       ----

> <Gold.Chemscore.Fitness>
13.1921

> <Gold.Chemscore.DG>
-15.4719

> <Gold.Chemscore.ZeroCoef>
-5.4800

> <Gold.Chemscore.Hbond>
0.8503

> <Gold.Chemscore.Metal>
0.0000

> <Gold.Chemscore.Lipo>
96.5804

> <Gold.Chemscore.Internal_Hbond>
0.0000

> <Gold.Chemscore.DEClash>
0.2113

> <Gold.Chemscore.DEInternal>
2.0685

> <Gold.Chemscore.Rot>
1.6204

> <Gold.Chemscore.Internal.Correction>
   9.000000E+99

> <Gold.Chemscore.Hbonds>
donor molecule, donor type, donor heavy atom, donor atom, acceptor molecule, acceptor atom, score
      P1  H  7997  8010       L1     6  0.05

> <Gold.Chemscore.Hbond.Weighted>
-2.8402

> <Gold.Chemscore.Metal.Weighted>
-0.0000

> <Gold.Chemscore.Lipo.Weighted>
-11.2999

> <Gold.Chemscore.Internal_Hbond.Weighted>
0.0000

> <Gold.Chemscore.DEClash.Weighted>
0.2113

> <Gold.Chemscore.DEInternal.Weighted>
2.0685

> <Gold.Chemscore.Rot.Weighted>
4.1481

> <Gold.Chemscore.Internal.Correction.Weighted>
   9.000000E+99

> <Gold.Protein.RotatedTorsions>
[ 6907 6896 6895 6894 ] final   31.05 input  -60.11 | X-H torsion
[ 7974 7965 7964 7962 ] final  141.66 input  175.53 | X-H torsion
[ 8008 7997 7996 7995 ] final   68.44 input   59.86 | X-H torsion
[ 10167 10162 10161 10158 ] final  -75.31 input  -65.29 | X-H torsion
[ 10718 10713 10712 10709 ] final   48.60 input   66.30 | X-H torsion
[ 10763 10752 10751 10750 ] final  133.30 input  -60.55 | X-H torsion
[ 11005 11000 10999 10996 ] final  164.89 input  -57.11 | X-H torsion

> <Gold.Protein.ActiveResidues>
 VAL166  LYS551  ARG553  GLY616  TRP617  ASP618  TYR619  PRO620  LYS621  CYS622 
 ASP623  PHE694  ASN695  SER759  ASP760  ASP761  ALA762  ILE779  LEU786  VAL792 
 PHE793  MET794  SER795  GLU796  ALA797  LYS798  CYS799  TRP800  GLU811  SER814 

> <Gold.Protein.RotatedAtoms>
  152.0548  134.9631  160.0574 H   0  0  0  0  0  0  0  0  0  0  0  0  # atno 6907 bound_to 6896
  152.1018  133.4249  159.4599 H   0  0  0  0  0  0  0  0  0  0  0  0  # atno 6908 bound_to 6896
  150.6840  134.2670  159.4616 H   0  0  0  0  0  0  0  0  0  0  0  0  # atno 6909 bound_to 6896
  144.9077  139.5336  143.5724 H   0  0  0  0  0  0  0  0  0  0  0  0  # atno 7974 bound_to 7965
  155.7084  140.3494  155.4963 H   0  0  0  0  0  0  0  0  0  0  0  0  # atno 8008 bound_to 7997
  155.9378  140.1096  157.1102 H   0  0  0  0  0  0  0  0  0  0  0  0  # atno 8009 bound_to 7997
  154.4097  140.1218  156.4873 H   0  0  0  0  0  0  0  0  0  0  0  0  # atno 8010 bound_to 7997
  140.4954  143.2372  151.7840 H   0  0  0  0  0  0  0  0  0  0  0  0  # atno 10167 bound_to 10162
  157.4702  130.8251  149.7980 H   0  0  0  0  0  0  0  0  0  0  0  0  # atno 10718 bound_to 10713
  153.8048  135.3137  155.3394 H   0  0  0  0  0  0  0  0  0  0  0  0  # atno 10763 bound_to 10752
  154.8075  135.4688  154.0432 H   0  0  0  0  0  0  0  0  0  0  0  0  # atno 10764 bound_to 10752
  153.1792  135.6890  153.8590 H   0  0  0  0  0  0  0  0  0  0  0  0  # atno 10765 bound_to 10752
  140.2505  134.7980  157.3497 H   0  0  0  0  0  0  0  0  0  0  0  0  # atno 11005 bound_to 11000
  146.3142  139.7858  142.8996 LP  0  0  0  0  0  0  0  0  0  0  0  0  # atno 17320 bound_to 7965
  145.3508  141.0307  143.3339 LP  0  0  0  0  0  0  0  0  0  0  0  0  # atno 17321 bound_to 7965
  139.4860  144.4594  151.9559 LP  0  0  0  0  0  0  0  0  0  0  0  0  # atno 17342 bound_to 10162
  140.3682  144.2889  150.5923 LP  0  0  0  0  0  0  0  0  0  0  0  0  # atno 17343 bound_to 10162
  156.0070  130.3851  150.2397 LP  0  0  0  0  0  0  0  0  0  0  0  0  # atno 17370 bound_to 10713
  157.0579  131.0081  151.3232 LP  0  0  0  0  0  0  0  0  0  0  0  0  # atno 17371 bound_to 10713
  140.1562  134.4786  155.7926 LP  0  0  0  0  0  0  0  0  0  0  0  0  # atno 17394 bound_to 11000
  141.2202  133.6882  156.7466 LP  0  0  0  0  0  0  0  0  0  0  0  0  # atno 17395 bound_to 11000

$$$$
