AV-unprocessed.smi:2505|AV-procd|sdf|9854|dock3
  -GOLD-   2272013483D 1   1.00000     0.00000
 Structure written by MMmdl.
 48 52  0  0  0  0  0  0  0  0  1 V2000
  147.5776  136.0323  155.8425 O   0  0  0  0  0  0  0  0  0  0  0  0
  148.0013  136.1181  154.6925 C   0  0  0  0  0  0  0  0  0  0  0  0
  148.7975  137.1035  154.2345 N   0  0  0  0  0  0  0  0  0  0  0  0
  149.3101  138.2305  154.9303 C   0  0  0  0  0  0  0  0  0  0  0  0
  149.0429  138.5497  156.2845 C   0  0  0  0  0  0  0  0  0  0  0  0
  149.5587  139.6534  156.8679 N   0  0  0  0  0  0  0  0  0  0  0  0
  150.3225  140.4416  156.1066 C   0  0  0  0  0  0  0  0  0  0  0  0
  150.9203  141.6427  156.7707 C   0  0  0  0  0  0  0  0  0  0  0  0
  151.8739  141.4892  157.9379 C   0  0  0  0  0  0  0  0  0  0  0  0
  150.4969  142.0466  158.1682 C   0  0  0  0  0  0  0  0  0  0  0  0
  150.6461  140.2403  154.8262 N   0  0  0  0  0  0  0  0  0  0  0  0
  150.1340  139.1401  154.2348 C   0  0  0  0  0  0  0  0  0  0  0  0
  147.7089  135.1837  153.7721 N   0  0  0  0  0  0  0  0  0  0  0  0
  146.8714  133.9861  153.9475 C   0  0  1  0  0  0  0  0  0  0  0  0
  145.8739  133.7428  152.8086 C   0  0  1  0  0  0  0  0  0  0  0  0
  145.2509  134.5736  151.7443 C   0  0  0  0  0  0  0  0  0  0  0  0
  145.3815  133.5459  150.5891 C   0  0  0  0  0  0  0  0  0  0  0  0
  146.2239  132.4803  151.0965 O   0  0  0  0  0  0  0  0  0  0  0  0
  147.0348  133.1124  152.0682 C   0  0  2  0  0  0  0  0  0  0  0  0
  147.5423  132.6466  153.4535 C   0  0  0  0  0  0  0  0  0  0  0  0
  149.0592  132.5006  153.6261 C   0  0  0  0  0  0  0  0  0  0  0  0
  149.3643  131.0146  153.7852 C   0  0  0  0  0  0  0  0  0  0  0  0
  148.1441  130.4737  154.5155 C   0  0  0  0  0  0  0  0  0  0  0  0
  146.9794  131.3134  153.9881 C   0  0  0  0  0  0  0  0  0  0  0  0
  149.1111  137.0059  153.2796 H   0  0  0  0  0  0  0  0  0  0  0  0
  148.4079  137.9483  156.9154 H   0  0  0  0  0  0  0  0  0  0  0  0
  151.1206  142.4344  156.0513 H   0  0  0  0  0  0  0  0  0  0  0  0
  152.0736  140.4833  158.3027 H   0  0  0  0  0  0  0  0  0  0  0  0
  152.7127  142.1798  157.9928 H   0  0  0  0  0  0  0  0  0  0  0  0
  150.4135  143.1109  158.3781 H   0  0  0  0  0  0  0  0  0  0  0  0
  149.7809  141.4115  158.6861 H   0  0  0  0  0  0  0  0  0  0  0  0
  150.3888  138.9836  153.1966 H   0  0  0  0  0  0  0  0  0  0  0  0
  148.1210  135.3038  152.8580 H   0  0  0  0  0  0  0  0  0  0  0  0
  146.4327  133.8987  154.9428 H   0  0  0  0  0  0  0  0  0  0  0  0
  145.1467  132.9981  153.1481 H   0  0  0  0  0  0  0  0  0  0  0  0
  144.2149  134.8350  151.9610 H   0  0  0  0  0  0  0  0  0  0  0  0
  145.8171  135.4842  151.5446 H   0  0  0  0  0  0  0  0  0  0  0  0
  144.4145  133.1376  150.2948 H   0  0  0  0  0  0  0  0  0  0  0  0
  145.8372  134.0054  149.7111 H   0  0  0  0  0  0  0  0  0  0  0  0
  147.7092  133.8310  151.5915 H   0  0  0  0  0  0  0  0  0  0  0  0
  149.6173  132.9279  152.7923 H   0  0  0  0  0  0  0  0  0  0  0  0
  149.3838  133.0267  154.5248 H   0  0  0  0  0  0  0  0  0  0  0  0
  149.4416  130.5476  152.8025 H   0  0  0  0  0  0  0  0  0  0  0  0
  150.2955  130.8283  154.3210 H   0  0  0  0  0  0  0  0  0  0  0  0
  147.9983  129.4048  154.3573 H   0  0  0  0  0  0  0  0  0  0  0  0
  148.2586  130.6392  155.5876 H   0  0  0  0  0  0  0  0  0  0  0  0
  146.2336  131.4630  154.7693 H   0  0  0  0  0  0  0  0  0  0  0  0
  146.4824  130.7664  153.1860 H   0  0  0  0  0  0  0  0  0  0  0  0
  1  2  2  0  0  0  0
  2  3  1  0  0  0  0
  2 13  1  0  0  0  0
  3  4  1  0  0  0  0
  3 25  1  0  0  0  0
  4 12  1  0  0  0  0
  4  5  2  0  0  0  0
  5  6  1  0  0  0  0
  5 26  1  0  0  0  0
  6  7  2  0  0  0  0
  7  8  1  0  0  0  0
  7 11  1  0  0  0  0
  8 10  1  0  0  0  0
  8  9  1  0  0  0  0
  8 27  1  0  0  0  0
  9 10  1  0  0  0  0
  9 28  1  0  0  0  0
  9 29  1  0  0  0  0
 10 30  1  0  0  0  0
 10 31  1  0  0  0  0
 11 12  2  0  0  0  0
 12 32  1  0  0  0  0
 13 14  1  0  0  0  0
 13 33  1  0  0  0  0
 14 20  1  0  0  0  0
 14 15  1  0  0  0  0
 14 34  1  0  0  0  0
 15 19  1  0  0  0  0
 15 16  1  0  0  0  0
 15 35  1  0  0  0  0
 16 17  1  0  0  0  0
 16 36  1  0  0  0  0
 16 37  1  0  0  0  0
 17 18  1  0  0  0  0
 17 38  1  0  0  0  0
 17 39  1  0  0  0  0
 18 19  1  0  0  0  0
 19 20  1  0  0  0  0
 19 40  1  0  0  0  0
 20 24  1  0  0  0  0
 20 21  1  0  0  0  0
 21 22  1  0  0  0  0
 21 41  1  0  0  0  0
 21 42  1  0  0  0  0
 22 23  1  0  0  0  0
 22 43  1  0  0  0  0
 22 44  1  0  0  0  0
 23 24  1  0  0  0  0
 23 45  1  0  0  0  0
 23 46  1  0  0  0  0
 24 47  1  0  0  0  0
 24 48  1  0  0  0  0
M  END
> <s_m_source_file>
AV-unprocessed.smi

> <i_m_source_file_index>
2505

> <i_lp_mmshare_version>
43012

> <i_f3d_flags>
0

> <s_epik_input>
W0NIMl0xW0NIMl1bQ0hdMWMobltjSF0yKW5bY0hdYzJbTkhdQyg9TylbTkhdW0NAQEhdM1tDQEBIXShbQ0gyXVtDSDJdTzQpW0NASF00QzM1W0NIMl1bQ0gyXVtDSDJdW0NIMl01

> <s_epik_cmdline>
J2VwaWtfcHl0aG9uJywgJy1waCcsICc3LjAnLCAnLXRuJywgJzgnLCAnLW1hJywgJzIwMCcsICctbWV0YWxfYmluZGluZycsICctaW1hZScsICc8aW5maWxlLm1hZT4nLCAnLW9tYWUnLCAnPG91dGZpbGUubWFlPic=

> <r_lp_tautomer_probability>
1

> <r_epik_Ionization_Penalty>
2.6075e-05

> <r_epik_Ionization_Penalty_Charging>
0

> <r_epik_Ionization_Penalty_Neutral>
2.6075e-05

> <r_epik_State_Penalty>
-0

> <r_epik_Charging_Adjusted_Penalty>
0

> <i_epik_Tot_Q>
0

> <i_epik_Tot_abs_Q>
0

> <r_epik_Metal_State_Penalty>
-0

> <b_epik_Metal_Only>
0

> <s_lp_Force_Field>
OPLS_2005

> <r_lp_Energy>
88.0192

> <b_lp_Chiralities_Consistent>
1

> <s_lp_Variant>
AV-unprocessed.smi:2505-2

> <Gold.Version>
5.8.1

> <Gold.Id.Protein>
6NUR|6NUR_protein|mol2

> <Gold.PLP.Fitness>
44.0208

> <Gold.PLP.PLP>
-32.1489

> <Gold.PLP.part.hbond>
-2.8467

> <Gold.PLP.part.metal>
0.0000

> <Gold.PLP.part.buried>
-4.4912

> <Gold.PLP.part.nonpolar>
-25.5810

> <Gold.PLP.part.repulsive>
0.2538

> <Gold.PLP.ligand.clash>
0.0000

> <Gold.PLP.ligand.torsion>
0.2094

> <Gold.PLP.Chemscore.Hbond>
2.9680

> <Gold.PLP.Chemscore.CHOScore>
1.0000

> <Gold.PLP.Chemscore.Metal>
0.0000

> <Gold.Chemscore.Hbonds>
donor molecule, donor type, donor heavy atom, donor atom, acceptor molecule, acceptor atom, score
      L1  H     3    25       P1  7948  0.98
      L1  H    13    33       P1  7948  0.99
      P1  H  7989  7998       L1    11  1.00
      L1  C    12    32       P1  7957  1.00

> <Gold.PLP.Chemscore.Internal.Correction>
0.3867

> <Gold.Rescore>
     Score         DG    S(hbond)    S(metal)    S(lipo)     H(rot)  DE(clash)    DE(int)     intcor
     18.09     -19.57       2.43        0.00      76.74       1.17       0.10       1.38       ----

> <Gold.Chemscore.Fitness>
18.0917

> <Gold.Chemscore.DG>
-19.5708

> <Gold.Chemscore.ZeroCoef>
-5.4800

> <Gold.Chemscore.Hbond>
2.4307

> <Gold.Chemscore.Metal>
0.0000

> <Gold.Chemscore.Lipo>
76.7407

> <Gold.Chemscore.Internal_Hbond>
0.0000

> <Gold.Chemscore.DEClash>
0.0960

> <Gold.Chemscore.DEInternal>
1.3831

> <Gold.Chemscore.Rot>
1.1744

> <Gold.Chemscore.Internal.Correction>
   9.000000E+99

> <Gold.Chemscore.Hbonds>
donor molecule, donor type, donor heavy atom, donor atom, acceptor molecule, acceptor atom, score
      L1  H     3    25       P1  7948  0.92
      L1  H    13    33       P1  7948  0.90
      P1  H  7989  7998       L1    11  0.25

> <Gold.Chemscore.Hbond.Weighted>
-8.1186

> <Gold.Chemscore.Metal.Weighted>
-0.0000

> <Gold.Chemscore.Lipo.Weighted>
-8.9787

> <Gold.Chemscore.Internal_Hbond.Weighted>
0.0000

> <Gold.Chemscore.DEClash.Weighted>
0.0960

> <Gold.Chemscore.DEInternal.Weighted>
1.3831

> <Gold.Chemscore.Rot.Weighted>
3.0064

> <Gold.Chemscore.Internal.Correction.Weighted>
   9.000000E+99

> <Gold.Protein.RotatedTorsions>
[ 6907 6896 6895 6894 ] final   44.66 input  -60.11 | X-H torsion
[ 7974 7965 7964 7962 ] final -141.03 input  175.53 | X-H torsion
[ 8008 7997 7996 7995 ] final  -24.27 input   59.86 | X-H torsion
[ 10167 10162 10161 10158 ] final -118.65 input  -65.29 | X-H torsion
[ 10718 10713 10712 10709 ] final   78.51 input   66.30 | X-H torsion
[ 10763 10752 10751 10750 ] final  107.67 input  -60.55 | X-H torsion
[ 11005 11000 10999 10996 ] final  -98.41 input  -57.11 | X-H torsion

> <Gold.Protein.ActiveResidues>
 VAL166  LYS551  ARG553  GLY616  TRP617  ASP618  TYR619  PRO620  LYS621  CYS622 
 ASP623  PHE694  ASN695  SER759  ASP760  ASP761  ALA762  ILE779  LEU786  VAL792 
 PHE793  MET794  SER795  GLU796  ALA797  LYS798  CYS799  TRP800  GLU811  SER814 

> <Gold.Protein.RotatedAtoms>
  152.2352  134.8283  160.0467 H   0  0  0  0  0  0  0  0  0  0  0  0  # atno 6907 bound_to 6896
  151.9018  133.3535  159.3841 H   0  0  0  0  0  0  0  0  0  0  0  0  # atno 6908 bound_to 6896
  150.7037  134.4746  159.5486 H   0  0  0  0  0  0  0  0  0  0  0  0  # atno 6909 bound_to 6896
  144.8551  140.6129  143.5364 H   0  0  0  0  0  0  0  0  0  0  0  0  # atno 7974 bound_to 7965
  154.4538  140.1958  156.0438 H   0  0  0  0  0  0  0  0  0  0  0  0  # atno 8008 bound_to 7997
  156.0704  140.3285  155.7542 H   0  0  0  0  0  0  0  0  0  0  0  0  # atno 8009 bound_to 7997
  155.5271  140.0575  157.2886 H   0  0  0  0  0  0  0  0  0  0  0  0  # atno 8010 bound_to 7997
  140.0552  143.5021  152.2061 H   0  0  0  0  0  0  0  0  0  0  0  0  # atno 10167 bound_to 10162
  157.6747  130.9871  150.1797 H   0  0  0  0  0  0  0  0  0  0  0  0  # atno 10718 bound_to 10713
  153.4099  135.3837  155.2043 H   0  0  0  0  0  0  0  0  0  0  0  0  # atno 10763 bound_to 10752
  154.8737  135.3792  154.4513 H   0  0  0  0  0  0  0  0  0  0  0  0  # atno 10764 bound_to 10752
  153.5021  135.7088  153.5888 H   0  0  0  0  0  0  0  0  0  0  0  0  # atno 10765 bound_to 10752
  141.1346  133.8243  157.0835 H   0  0  0  0  0  0  0  0  0  0  0  0  # atno 11005 bound_to 11000
  145.4422  139.1534  143.3964 LP  0  0  0  0  0  0  0  0  0  0  0  0  # atno 17320 bound_to 7965
  146.2816  140.4544  142.8774 LP  0  0  0  0  0  0  0  0  0  0  0  0  # atno 17321 bound_to 7965
  139.5928  144.7556  151.3359 LP  0  0  0  0  0  0  0  0  0  0  0  0  # atno 17342 bound_to 10162
  140.7198  143.7167  150.7727 LP  0  0  0  0  0  0  0  0  0  0  0  0  # atno 17343 bound_to 10162
  156.2532  130.3703  149.8209 LP  0  0  0  0  0  0  0  0  0  0  0  0  # atno 17370 bound_to 10713
  156.5976  130.8533  151.3424 LP  0  0  0  0  0  0  0  0  0  0  0  0  # atno 17371 bound_to 10713
  140.0436  134.9841  157.1008 LP  0  0  0  0  0  0  0  0  0  0  0  0  # atno 17394 bound_to 11000
  140.4096  134.1995  155.7163 LP  0  0  0  0  0  0  0  0  0  0  0  0  # atno 17395 bound_to 11000

$$$$
