#       Name:                AV-unprocessed.smi:2159
#       Creating user name   scv26
#       Creation time:       Fri Mar 27 11:57:41 2020


#       File generated by GOLD software.
#

@<TRIPOS>MOLECULE
AV-unprocessed.smi:2159
    54    56     1
SMALL
NO_CHARGES


@<TRIPOS>ATOM
      1 ****        -3.5926   1.1196  -1.3715 O.2            1 S1                 0.0000
      2 ****        -2.7685   0.2473  -1.6442 C.2            1 S1                 0.0000
      3 ****        -1.3037   0.6180  -1.8790 C.3            1 S1                 0.0000
      4 ****        -0.7220   1.4244  -0.7005 C.3            1 S1                 0.0000
      5 ****         0.7428   1.3739  -0.6872 N.am           1 S1                 0.0000
      6 ****         1.4505   0.4168  -0.0711 C.2            1 S1                 0.0000
      7 ****         0.9885  -0.5282   0.5699 O.2            1 S1                 0.0000
      8 ****         2.9492   0.6267  -0.2706 C.3            1 S1                 0.0000
      9 ****         3.7100   0.7244   1.0684 C.3            1 S1                 0.0000
     10 ****         5.1306   1.2766   0.8602 C.3            1 S1                 0.0000
     11 ****         5.1663   2.5999   0.0633 C.3            1 S1                 0.0000
     12 ****         3.7821   3.0655  -0.4229 C.3            1 S1                 0.0000
     13 ****         3.0065   1.9217  -1.1098 C.3            1 S1                 0.0000
     14 ****         1.5314   2.2673  -1.3003 C.2            1 S1                 0.0000
     15 ****         1.1550   3.2460  -1.9450 O.2            1 S1                 0.0000
     16 ****        -3.0726  -1.0572  -1.7209 N.am           1 S1                 0.0000
     17 ****        -4.3767  -1.6376  -1.4144 C.3            1 S1                 0.0000
     18 ****        -4.7055  -1.6145   0.0938 C.3            1 S1                 0.0000
     19 ****        -3.5758  -2.1262   0.9721 C.ar           1 S1                 0.0000
     20 ****        -2.7125  -1.2518   1.6684 C.ar           1 S1                 0.0000
     21 ****        -1.6664  -1.7892   2.4462 C.ar           1 S1                 0.0000
     22 ****        -1.5087  -3.1887   2.5163 C.ar           1 S1                 0.0000
     23 ****        -2.4022  -4.0159   1.8055 C.ar           1 S1                 0.0000
     24 ****        -3.3902  -3.4626   1.0680 N.pl3          1 S1                 1.0000
     25 ****        -0.7285  -0.2984  -2.0236 H              1 S1                 0.0000
     26 ****        -1.2174   1.1865  -2.8055 H              1 S1                 0.0000
     27 ****        -1.0668   2.4587  -0.7523 H              1 S1                 0.0000
     28 ****        -1.1003   1.0430   0.2500 H              1 S1                 0.0000
     29 ****         3.3444  -0.2048  -0.8559 H              1 S1                 0.0000
     30 ****         3.1720   1.3687   1.7661 H              1 S1                 0.0000
     31 ****         3.7629  -0.2570   1.5412 H              1 S1                 0.0000
     32 ****         5.6161   1.4127   1.8268 H              1 S1                 0.0000
     33 ****         5.7244   0.5302   0.3311 H              1 S1                 0.0000
     34 ****         5.6184   3.3849   0.6702 H              1 S1                 0.0000
     35 ****         5.8232   2.4750  -0.7984 H              1 S1                 0.0000
     36 ****         3.2145   3.4464   0.4280 H              1 S1                 0.0000
     37 ****         3.8975   3.9061  -1.1082 H              1 S1                 0.0000
     38 ****         3.4491   1.7100  -2.0841 H              1 S1                 0.0000
     39 ****        -2.3326  -1.7003  -1.9634 H              1 S1                 0.0000
     40 ****        -5.1592  -1.1350  -1.9849 H              1 S1                 0.0000
     41 ****        -4.3569  -2.6705  -1.7631 H              1 S1                 0.0000
     42 ****        -4.9489  -0.5962   0.3994 H              1 S1                 0.0000
     43 ****        -5.6026  -2.2045   0.2843 H              1 S1                 0.0000
     44 ****        -2.8424  -0.1815   1.5994 H              1 S1                 0.0000
     45 ****        -0.9921  -1.1352   2.9797 H              1 S1                 0.0000
     46 ****        -0.7133  -3.6203   3.1062 H              1 S1                 0.0000
     47 ****        -2.3552  -5.0952   1.8023 H              1 S1                 0.0000
     48 ****        -4.0228  -4.0807   0.5593 H              1 S1                 0.0000
     49 ****        -3.3052   2.0750  -1.3027 LP             1 S1                 0.0000
     50 ****        -4.5496   0.8731  -1.2186 LP             1 S1                 0.0000
     51 ****        -0.0016  -0.6307   0.6660 LP             1 S1                 0.0000
     52 ****         1.6035  -1.1928   0.9942 LP             1 S1                 0.0000
     53 ****         0.1777   3.4315  -2.0475 LP             1 S1                 0.0000
     54 ****         1.8265   3.8556  -2.3662 LP             1 S1                 0.0000
@<TRIPOS>BOND
    1    1    2 2     
    2    2    3 1     
    3    2   16 am    
    4    3    4 1     
    5    3   25 1     
    6    3   26 1     
    7    4    5 1     
    8    4   27 1     
    9    4   28 1     
   10    5   14 am    
   11    5    6 am    
   12    6    7 2     
   13    6    8 1     
   14    8   13 1     
   15    8    9 1     
   16    8   29 1     
   17    9   10 1     
   18    9   30 1     
   19    9   31 1     
   20   10   11 1     
   21   10   32 1     
   22   10   33 1     
   23   11   12 1     
   24   11   34 1     
   25   11   35 1     
   26   12   13 1     
   27   12   36 1     
   28   12   37 1     
   29   13   14 1     
   30   13   38 1     
   31   14   15 2     
   32   16   17 1     
   33   16   39 1     
   34   17   18 1     
   35   17   40 1     
   36   17   41 1     
   37   18   19 1     
   38   18   42 1     
   39   18   43 1     
   40   19   24 ar    
   41   19   20 ar    
   42   20   21 ar    
   43   20   44 1     
   44   21   22 ar    
   45   21   45 1     
   46   22   23 ar    
   47   22   46 1     
   48   23   24 ar    
   49   23   47 1     
   50   24   48 1     
   51    1   49 1     
   52    1   50 1     
   53    7   51 1     
   54    7   52 1     
   55   15   53 1     
   56   15   54 1     
@<TRIPOS>SUBSTRUCTURE
      1 S1             1
@<TRIPOS>SET
LONE_PAIRS      STATIC     ATOMS    <user>   **** ""
6 49 50 51 52 53 54
DONOR_HYDROGENS      STATIC     ATOMS    <user>   **** ""
2 39 48
ATOM$BLUE        STATIC     ATOMS    COLORGROUP SYSTEM
6 49 50 51 52 53 54
ATOM$RED        STATIC     ATOMS    COLORGROUP SYSTEM
2 39 48
