#       Name:                AV-unprocessed.smi:3348
#       Creating user name   scv26
#       Creation time:       Fri Mar 27 19:33:53 2020


#       File generated by GOLD software.
#

@<TRIPOS>MOLECULE
AV-unprocessed.smi:3348
    50    51     1
SMALL
NO_CHARGES


@<TRIPOS>ATOM
      1 ****        -2.0850   2.2891   2.0444 C.3            1 S1                 0.0000
      2 ****        -0.9121   2.3290   1.0496 C.3            1 S1                 0.0000
      3 ****        -1.3688   2.5852  -0.4055 C.3            1 S1                 0.0000
      4 ****        -2.1859   3.7784  -0.5398 N.pl3          1 S1                 0.0000
      5 ****        -1.7817   5.0969  -0.5401 C.2            1 S1                 0.0000
      6 ****        -2.9004   5.8650  -0.6917 C.2            1 S1                 0.0000
      7 ****        -3.9544   4.9133  -0.7812 C.2            1 S1                 0.0000
      8 ****        -3.5233   3.6652  -0.6909 N.2            1 S1                 0.0000
      9 ****        -0.1451   1.0677   1.1559 N.4            1 S1                 1.0000
     10 ****         1.2097   1.0903   0.5637 C.3            1 S1                 0.0000
     11 ****         1.9528  -0.2161   0.8590 C.3            1 S1                 0.0000
     12 ****         1.2909  -1.2712   0.1789 O.3            1 S1                 0.0000
     13 ****         1.8469  -2.5630   0.4007 C.3            1 S1                 0.0000
     14 ****         3.0288  -2.8143  -0.5597 C.3            1 S1                 0.0000
     15 ****         2.5709  -2.8620  -2.0266 C.3            1 S1                 0.0000
     16 ****         1.4635  -3.9071  -2.2299 C.3            1 S1                 0.0000
     17 ****         0.2796  -3.6580  -1.2819 C.3            1 S1                 0.0000
     18 ****         0.7338  -3.6138   0.1909 C.3            1 S1                 0.0000
     19 ****        -0.4496  -3.3980   1.1477 C.3            1 S1                 0.0000
     20 ****        -2.6124   3.2425   2.0846 H              1 S1                 0.0000
     21 ****        -1.7359   2.0747   3.0551 H              1 S1                 0.0000
     22 ****        -2.8091   1.5199   1.7725 H              1 S1                 0.0000
     23 ****        -0.2558   3.1440   1.3586 H              1 S1                 0.0000
     24 ****        -0.5099   2.7019  -1.0664 H              1 S1                 0.0000
     25 ****        -1.9331   1.7290  -0.7798 H              1 S1                 0.0000
     26 ****        -0.7439   5.3760  -0.4314 H              1 S1                 0.0000
     27 ****        -2.9580   6.9425  -0.7342 H              1 S1                 0.0000
     28 ****        -5.0121   5.0915  -0.9084 H              1 S1                 0.0000
     29 ****        -0.0396   0.8586   2.1383 H              1 S1                 0.0000
     30 ****         1.1542   1.2469  -0.5135 H              1 S1                 0.0000
     31 ****         1.7685   1.9270   0.9846 H              1 S1                 0.0000
     32 ****         2.9849  -0.1356   0.5183 H              1 S1                 0.0000
     33 ****         1.9751  -0.4026   1.9339 H              1 S1                 0.0000
     34 ****         2.1972  -2.6422   1.4317 H              1 S1                 0.0000
     35 ****         3.8002  -2.0549  -0.4357 H              1 S1                 0.0000
     36 ****         3.5010  -3.7635  -0.3038 H              1 S1                 0.0000
     37 ****         2.2080  -1.8795  -2.3308 H              1 S1                 0.0000
     38 ****         3.4193  -3.0904  -2.6723 H              1 S1                 0.0000
     39 ****         1.1206  -3.8895  -3.2649 H              1 S1                 0.0000
     40 ****         1.8672  -4.9053  -2.0559 H              1 S1                 0.0000
     41 ****        -0.2098  -2.7203  -1.5485 H              1 S1                 0.0000
     42 ****        -0.4661  -4.4421  -1.4178 H              1 S1                 0.0000
     43 ****         1.1591  -4.5900   0.4294 H              1 S1                 0.0000
     44 ****        -0.9519  -2.4494   0.9560 H              1 S1                 0.0000
     45 ****        -0.1195  -3.3962   2.1869 H              1 S1                 0.0000
     46 ****        -1.1897  -4.1911   1.0391 H              1 S1                 0.0000
     47 ****        -0.6777   0.3229   0.7287 H              1 S1                 0.0000
     48 ****        -4.0663   2.8262  -0.7265 LP             1 S1                 0.0000
     49 ****         1.3272  -1.0807  -0.8021 LP             1 S1                 0.0000
     50 ****         0.3375  -1.2865   0.4804 LP             1 S1                 0.0000
@<TRIPOS>BOND
    1    1    2 1     
    2    1   20 1     
    3    1   21 1     
    4    1   22 1     
    5    2    3 1     
    6    2    9 1     
    7    2   23 1     
    8    3    4 1     
    9    3   24 1     
   10    3   25 1     
   11    4    8 1     
   12    4    5 1     
   13    5    6 2     
   14    5   26 1     
   15    6    7 1     
   16    6   27 1     
   17    7    8 2     
   18    7   28 1     
   19    9   10 1     
   20    9   29 1     
   21    9   47 1     
   22   10   11 1     
   23   10   30 1     
   24   10   31 1     
   25   11   12 1     
   26   11   32 1     
   27   11   33 1     
   28   12   13 1     
   29   13   18 1     
   30   13   14 1     
   31   13   34 1     
   32   14   15 1     
   33   14   35 1     
   34   14   36 1     
   35   15   16 1     
   36   15   37 1     
   37   15   38 1     
   38   16   17 1     
   39   16   39 1     
   40   16   40 1     
   41   17   18 1     
   42   17   41 1     
   43   17   42 1     
   44   18   19 1     
   45   18   43 1     
   46   19   44 1     
   47   19   45 1     
   48   19   46 1     
   49    8   48 1     
   50   12   49 1     
   51   12   50 1     
@<TRIPOS>SUBSTRUCTURE
      1 S1             1
@<TRIPOS>SET
LONE_PAIRS      STATIC     ATOMS    <user>   **** ""
3 48 49 50
DONOR_HYDROGENS      STATIC     ATOMS    <user>   **** ""
2 29 47
ATOM$BLUE        STATIC     ATOMS    COLORGROUP SYSTEM
3 48 49 50
ATOM$RED        STATIC     ATOMS    COLORGROUP SYSTEM
2 29 47
