AV-unprocessed.smi:249|AV-procd|sdf|1913|dock10
  -GOLD-   2262021 03D 1   1.00000     0.00000
 Structure written by MMmdl.
 64 67  0  0  0  0  0  0  0  0  2 V2000
  145.8126  132.3474  150.8123 C   0  0  0  0  0  0  0  0  0  0  0  0
  144.6477  131.9681  151.7389 C   0  0  0  0  0  0  0  0  0  0  0  0
  144.1980  133.0876  152.6097 N   0  3  1  0  0  0  0  0  0  0  0  0
  145.3099  133.6418  153.4284 C   0  0  0  0  0  0  0  0  0  0  0  0
  144.7912  134.6248  154.4894 C   0  0  0  0  0  0  0  0  0  0  0  0
  143.9720  135.7548  153.8362 C   0  0  2  0  0  0  0  0  0  0  0  0
  143.5030  136.7743  154.7833 N   0  0  0  0  0  0  0  0  0  0  0  0
  142.1176  137.2174  154.7013 C   0  0  0  0  0  0  0  0  0  0  0  0
  144.3388  137.7239  155.2695 C   0  0  0  0  0  0  0  0  0  0  0  0
  144.0863  138.3127  156.4671 N   0  0  0  0  0  0  0  0  0  0  0  0
  144.9195  139.2401  156.9484 C   0  0  0  0  0  0  0  0  0  0  0  0
  146.0380  139.7207  156.4022 N   0  0  0  0  0  0  0  0  0  0  0  0
  146.2948  139.1323  155.1990 C   0  0  0  0  0  0  0  0  0  0  0  0
  145.5090  138.1260  154.5708 C   0  0  0  0  0  0  0  0  0  0  0  0
  146.0826  137.7596  153.3600 N   0  0  0  0  0  0  0  0  0  0  0  0
  147.1476  138.5093  153.2746 C   0  0  0  0  0  0  0  0  0  0  0  0
  147.3382  139.3813  154.3238 N   0  0  0  0  0  0  0  0  0  0  0  0
  148.4334  140.3231  154.4757 C   0  0  0  0  0  0  0  0  0  0  0  0
  149.5795  139.8497  155.4094 C   0  0  1  0  0  0  0  0  0  0  0  0
  150.5387  138.9370  154.6102 C   0  0  0  0  0  0  0  0  0  0  0  0
  150.0161  137.6320  154.4622 O   0  0  0  0  0  0  0  0  0  0  0  0
  150.3307  140.9922  156.1562 C   0  0  1  0  0  0  0  0  0  0  0  0
  149.4737  141.9002  157.0268 C   0  0  0  0  0  0  0  0  0  0  0  0
  150.4910  142.5331  157.9708 C   0  0  0  0  0  0  0  0  0  0  0  0
  151.5490  141.5919  158.0970 O   0  0  0  0  0  0  0  0  0  0  0  0
  151.3325  140.5025  157.2092 C   0  0  0  0  0  0  0  0  0  0  0  0
  142.8456  135.1530  152.9683 C   0  0  0  0  0  0  0  0  0  0  0  0
  143.3869  134.1471  151.9316 C   0  0  1  0  0  0  0  0  0  0  0  0
  144.1229  134.8450  150.7674 C   0  0  0  0  0  0  0  0  0  0  0  0
  146.0134  131.5440  150.1033 H   0  0  0  0  0  0  0  0  0  0  0  0
  146.7353  132.5211  151.3656 H   0  0  0  0  0  0  0  0  0  0  0  0
  145.5852  133.2455  150.2373 H   0  0  0  0  0  0  0  0  0  0  0  0
  143.8106  131.6676  151.1077 H   0  0  0  0  0  0  0  0  0  0  0  0
  144.9012  131.0919  152.3359 H   0  0  0  0  0  0  0  0  0  0  0  0
  145.8330  132.8285  153.9330 H   0  0  0  0  0  0  0  0  0  0  0  0
  146.0443  134.1275  152.7851 H   0  0  0  0  0  0  0  0  0  0  0  0
  144.1902  134.0745  155.2124 H   0  0  0  0  0  0  0  0  0  0  0  0
  145.6348  135.0389  155.0425 H   0  0  0  0  0  0  0  0  0  0  0  0
  144.6422  136.2878  153.1612 H   0  0  0  0  0  0  0  0  0  0  0  0
  141.7143  137.4184  155.6940 H   0  0  0  0  0  0  0  0  0  0  0  0
  141.4911  136.4556  154.2367 H   0  0  0  0  0  0  0  0  0  0  0  0
  142.0385  138.1286  154.1069 H   0  0  0  0  0  0  0  0  0  0  0  0
  144.6510  139.6582  157.9072 H   0  0  0  0  0  0  0  0  0  0  0  0
  147.8189  138.4581  152.4295 H   0  0  0  0  0  0  0  0  0  0  0  0
  148.8260  140.5214  153.4778 H   0  0  0  0  0  0  0  0  0  0  0  0
  148.0256  141.2683  154.8364 H   0  0  0  0  0  0  0  0  0  0  0  0
  149.1368  139.2083  156.1717 H   0  0  0  0  0  0  0  0  0  0  0  0
  150.7430  139.3481  153.6217 H   0  0  0  0  0  0  0  0  0  0  0  0
  151.5040  138.8690  155.1129 H   0  0  0  0  0  0  0  0  0  0  0  0
  149.7093  137.5299  153.5740 H   0  0  0  0  0  0  0  0  0  0  0  0
  150.8661  141.6094  155.4328 H   0  0  0  0  0  0  0  0  0  0  0  0
  148.9313  142.6605  156.4673 H   0  0  0  0  0  0  0  0  0  0  0  0
  148.7511  141.3137  157.5964 H   0  0  0  0  0  0  0  0  0  0  0  0
  150.8940  143.4495  157.5385 H   0  0  0  0  0  0  0  0  0  0  0  0
  150.0580  142.7780  158.9407 H   0  0  0  0  0  0  0  0  0  0  0  0
  150.9142  139.6744  157.7833 H   0  0  0  0  0  0  0  0  0  0  0  0
  152.2733  140.1686  156.7711 H   0  0  0  0  0  0  0  0  0  0  0  0
  142.1199  134.6346  153.5950 H   0  0  0  0  0  0  0  0  0  0  0  0
  142.2950  135.9489  152.4653 H   0  0  0  0  0  0  0  0  0  0  0  0
  142.5074  133.6668  151.5041 H   0  0  0  0  0  0  0  0  0  0  0  0
  143.4924  135.6156  150.3229 H   0  0  0  0  0  0  0  0  0  0  0  0
  144.3715  134.1466  149.9688 H   0  0  0  0  0  0  0  0  0  0  0  0
  145.0455  135.3284  151.0863 H   0  0  0  0  0  0  0  0  0  0  0  0
  143.5708  132.6635  153.2784 H   0  0  0  0  0  0  0  0  0  0  0  0
  1  2  1  0  0  0  0
  1 30  1  0  0  0  0
  1 31  1  0  0  0  0
  1 32  1  0  0  0  0
  2  3  1  0  0  0  0
  2 33  1  0  0  0  0
  2 34  1  0  0  0  0
  3 28  1  0  0  0  0
  3  4  1  0  0  0  0
  3 64  1  0  0  0  0
  4  5  1  0  0  0  0
  4 35  1  0  0  0  0
  4 36  1  0  0  0  0
  5  6  1  0  0  0  0
  5 37  1  0  0  0  0
  5 38  1  0  0  0  0
  6  7  1  0  0  0  0
  6 27  1  0  0  0  0
  6 39  1  0  0  0  0
  7  8  1  0  0  0  0
  7  9  1  0  0  0  0
  8 40  1  0  0  0  0
  8 41  1  0  0  0  0
  8 42  1  0  0  0  0
  9 14  1  0  0  0  0
  9 10  2  0  0  0  0
 10 11  1  0  0  0  0
 11 12  2  0  0  0  0
 11 43  1  0  0  0  0
 12 13  1  0  0  0  0
 13 17  1  0  0  0  0
 13 14  2  0  0  0  0
 14 15  1  0  0  0  0
 15 16  2  0  0  0  0
 16 17  1  0  0  0  0
 16 44  1  0  0  0  0
 17 18  1  0  0  0  0
 18 19  1  0  0  0  0
 18 45  1  0  0  0  0
 18 46  1  0  0  0  0
 19 20  1  0  0  0  0
 19 22  1  0  0  0  0
 19 47  1  0  0  0  0
 20 21  1  0  0  0  0
 20 48  1  0  0  0  0
 20 49  1  0  0  0  0
 21 50  1  0  0  0  0
 22 26  1  0  0  0  0
 22 23  1  0  0  0  0
 22 51  1  0  0  0  0
 23 24  1  0  0  0  0
 23 52  1  0  0  0  0
 23 53  1  0  0  0  0
 24 25  1  0  0  0  0
 24 54  1  0  0  0  0
 24 55  1  0  0  0  0
 25 26  1  0  0  0  0
 26 56  1  0  0  0  0
 26 57  1  0  0  0  0
 27 28  1  0  0  0  0
 27 58  1  0  0  0  0
 27 59  1  0  0  0  0
 28 29  1  0  0  0  0
 28 60  1  0  0  0  0
 29 61  1  0  0  0  0
 29 62  1  0  0  0  0
 29 63  1  0  0  0  0
M  CHG  1   3   1
M  END
> <s_m_source_file>
AV-unprocessed.smi

> <i_m_source_file_index>
249

> <i_lp_mmshare_version>
43012

> <i_f3d_flags>
0

> <s_epik_input>
W0NIM11bQ0gyXU4xW0NIMl1bQ0gyXVtDQEhdKFtDSDJdW0NASF0xW0NIM10pTihbQ0gzXSljKG5bY0hdbjIpYyhjMjMpbltjSF1uM1tDSDJdW0NASF0oW0NIMl1bT0hdKVtDQEBIXTRbQ0gyXVtDSDJdT1tDSDJdNA==

> <s_epik_cmdline>
J2VwaWtfcHl0aG9uJywgJy1waCcsICc3LjAnLCAnLXRuJywgJzgnLCAnLW1hJywgJzIwMCcsICctbWV0YWxfYmluZGluZycsICctaW1hZScsICc8aW5maWxlLm1hZT4nLCAnLW9tYWUnLCAnPG91dGZpbGUubWFlPic=

> <r_lp_tautomer_probability>
1

> <r_epik_Ionization_Penalty>
0.00294688

> <r_epik_Ionization_Penalty_Charging>
0.00169971

> <r_epik_Ionization_Penalty_Neutral>
0.00124717

> <r_epik_State_Penalty>
-0

> <r_epik_Charging_Adjusted_Penalty>
0.00169971

> <i_epik_Tot_Q>
1

> <i_epik_Tot_abs_Q>
1

> <r_epik_Metal_State_Penalty>
-0

> <b_epik_Metal_Only>
0

> <s_lp_Force_Field>
OPLS_2005

> <r_lp_Energy>
54.9966

> <b_lp_Chiralities_Consistent>
1

> <s_lp_Variant>
AV-unprocessed.smi:249-16

> <Gold.Version>
5.8.1

> <Gold.Id.Protein>
6NUR|6NUR_protein|mol2

> <Gold.PLP.Fitness>
44.9578

> <Gold.PLP.PLP>
-33.7631

> <Gold.PLP.part.hbond>
-2.4327

> <Gold.PLP.part.metal>
0.0000

> <Gold.PLP.part.buried>
-5.3496

> <Gold.PLP.part.nonpolar>
-28.6950

> <Gold.PLP.part.repulsive>
0.2267

> <Gold.PLP.ligand.clash>
0.0000

> <Gold.PLP.ligand.torsion>
1.9213

> <Gold.PLP.Chemscore.Hbond>
2.9760

> <Gold.PLP.Chemscore.CHOScore>
1.6271

> <Gold.PLP.Chemscore.Metal>
0.0000

> <Gold.Chemscore.Hbonds>
donor molecule, donor type, donor heavy atom, donor atom, acceptor molecule, acceptor atom, score
      L1  H     3    64       P1 10957  2.00
      L1  H    21    50       P1  7948  0.47
      L1  C    16    44       P1  7948  0.80
      L1  C    16    44       P1  7957  0.63

> <Gold.PLP.Chemscore.Internal.Correction>
1.2280

> <Gold.Rescore>
     Score         DG    S(hbond)    S(metal)    S(lipo)     H(rot)  DE(clash)    DE(int)     intcor
     10.33     -13.59       1.42        0.00      86.88       2.65       0.10       3.15       ----

> <Gold.Chemscore.Fitness>
10.3298

> <Gold.Chemscore.DG>
-13.5859

> <Gold.Chemscore.ZeroCoef>
-5.4800

> <Gold.Chemscore.Hbond>
1.4159

> <Gold.Chemscore.Metal>
0.0000

> <Gold.Chemscore.Lipo>
86.8776

> <Gold.Chemscore.Internal_Hbond>
0.0000

> <Gold.Chemscore.DEClash>
0.1012

> <Gold.Chemscore.DEInternal>
3.1549

> <Gold.Chemscore.Rot>
2.6515

> <Gold.Chemscore.Internal.Correction>
   9.000000E+99

> <Gold.Chemscore.Hbonds>
donor molecule, donor type, donor heavy atom, donor atom, acceptor molecule, acceptor atom, score
      L1  H     3    64       P1 10957  0.34
      L1  H    21    50       P1  7948  0.36

> <Gold.Chemscore.Hbond.Weighted>
-4.7292

> <Gold.Chemscore.Metal.Weighted>
-0.0000

> <Gold.Chemscore.Lipo.Weighted>
-10.1647

> <Gold.Chemscore.Internal_Hbond.Weighted>
0.0000

> <Gold.Chemscore.DEClash.Weighted>
0.1012

> <Gold.Chemscore.DEInternal.Weighted>
3.1549

> <Gold.Chemscore.Rot.Weighted>
6.7880

> <Gold.Chemscore.Internal.Correction.Weighted>
   9.000000E+99

> <Gold.Protein.RotatedTorsions>
[ 6907 6896 6895 6894 ] final -142.47 input  -60.11 | X-H torsion
[ 7974 7965 7964 7962 ] final   -0.82 input  175.53 | X-H torsion
[ 8008 7997 7996 7995 ] final  -27.05 input   59.86 | X-H torsion
[ 10167 10162 10161 10158 ] final -135.14 input  -65.29 | X-H torsion
[ 10718 10713 10712 10709 ] final  110.10 input   66.30 | X-H torsion
[ 10763 10752 10751 10750 ] final  138.14 input  -60.55 | X-H torsion
[ 11005 11000 10999 10996 ] final  -34.09 input  -57.11 | X-H torsion

> <Gold.Protein.ActiveResidues>
 VAL166  LYS551  ARG553  GLY616  TRP617  ASP618  TYR619  PRO620  LYS621  CYS622 
 ASP623  PHE694  ASN695  SER759  ASP760  ASP761  ALA762  ILE779  LEU786  VAL792 
 PHE793  MET794  SER795  GLU796  ALA797  LYS798  CYS799  TRP800  GLU811  SER814 

> <Gold.Protein.RotatedAtoms>
  151.0875  133.5341  159.2616 H   0  0  0  0  0  0  0  0  0  0  0  0  # atno 6907 bound_to 6896
  151.2221  135.0522  159.8964 H   0  0  0  0  0  0  0  0  0  0  0  0  # atno 6908 bound_to 6896
  152.5430  134.0676  159.8233 H   0  0  0  0  0  0  0  0  0  0  0  0  # atno 6909 bound_to 6896
  146.2423  140.1327  142.8337 H   0  0  0  0  0  0  0  0  0  0  0  0  # atno 7974 bound_to 7965
  154.4396  140.1883  156.0871 H   0  0  0  0  0  0  0  0  0  0  0  0  # atno 8008 bound_to 7997
  156.0394  140.3321  155.7201 H   0  0  0  0  0  0  0  0  0  0  0  0  # atno 8009 bound_to 7997
  155.5722  140.0613  157.2794 H   0  0  0  0  0  0  0  0  0  0  0  0  # atno 8010 bound_to 7997
  139.8809  143.6840  152.2627 H   0  0  0  0  0  0  0  0  0  0  0  0  # atno 10167 bound_to 10162
  157.6510  131.0926  150.6552 H   0  0  0  0  0  0  0  0  0  0  0  0  # atno 10718 bound_to 10713
  153.8846  135.3040  155.3446 H   0  0  0  0  0  0  0  0  0  0  0  0  # atno 10763 bound_to 10752
  154.7745  135.4868  153.9719 H   0  0  0  0  0  0  0  0  0  0  0  0  # atno 10764 bound_to 10752
  153.1332  135.6808  153.9243 H   0  0  0  0  0  0  0  0  0  0  0  0  # atno 10765 bound_to 10752
  140.9688  133.7121  156.1489 H   0  0  0  0  0  0  0  0  0  0  0  0  # atno 11005 bound_to 11000
  145.0312  140.8872  143.5108 LP  0  0  0  0  0  0  0  0  0  0  0  0  # atno 17320 bound_to 7965
  145.1392  139.2583  143.5499 LP  0  0  0  0  0  0  0  0  0  0  0  0  # atno 17321 bound_to 7965
  139.7196  144.7605  151.0976 LP  0  0  0  0  0  0  0  0  0  0  0  0  # atno 17342 bound_to 10162
  140.7744  143.5224  150.9520 LP  0  0  0  0  0  0  0  0  0  0  0  0  # atno 17343 bound_to 10162
  156.6864  130.4582  149.5613 LP  0  0  0  0  0  0  0  0  0  0  0  0  # atno 17370 bound_to 10713
  156.1893  130.6549  151.1042 LP  0  0  0  0  0  0  0  0  0  0  0  0  # atno 17371 bound_to 10713
  140.7359  134.4203  157.5560 LP  0  0  0  0  0  0  0  0  0  0  0  0  # atno 17394 bound_to 11000
  139.8904  134.8805  156.2370 LP  0  0  0  0  0  0  0  0  0  0  0  0  # atno 17395 bound_to 11000

$$$$
