AV-unprocessed.smi:2433|AV-procd|sdf|9589|dock8
  -GOLD-   2272013223D 1   1.00000     0.00000
 Structure written by MMmdl.
 38 40  0  0  0  0  0  0  0  0  1 V2000
  151.2863  140.6771  154.9504 O   0  0  0  0  0  0  0  0  0  0  0  0
  150.6641  141.0514  155.9449 C   0  0  0  0  0  0  0  0  0  0  0  0
  151.2028  142.0289  156.8904 C   0  0  0  0  0  0  0  0  0  0  0  0
  150.4839  142.4277  157.9662 C   0  0  0  0  0  0  0  0  0  0  0  0
  151.0627  143.4437  158.9496 C   0  0  0  0  0  0  0  0  0  0  0  0
  151.1514  144.9134  158.4899 C   0  0  0  0  0  0  0  0  0  0  0  0
  152.5989  144.6494  158.0627 C   0  0  0  0  0  0  0  0  0  0  0  0
  152.5996  143.4383  159.0022 C   0  0  0  0  0  0  0  0  0  0  0  0
  149.2081  141.8986  158.2000 N   0  0  0  0  0  0  0  0  0  0  0  0
  148.7076  141.0309  157.3796 C   0  0  0  0  0  0  0  0  0  0  0  0
  149.4168  140.5875  156.2475 N   0  0  0  0  0  0  0  0  0  0  0  0
  148.7392  139.5949  155.3976 C   0  0  0  0  0  0  0  0  0  0  0  0
  148.0527  140.2392  154.1731 C   0  0  2  0  0  0  0  0  0  0  0  0
  149.0270  140.9339  153.4194 O   0  0  0  0  0  0  0  0  0  0  0  0
  146.9255  141.1630  154.6087 C   0  0  0  0  0  0  0  0  0  0  0  0
  145.9697  140.7120  155.5443 C   0  0  0  0  0  0  0  0  0  0  0  0
  144.9304  141.5645  155.9649 C   0  0  0  0  0  0  0  0  0  0  0  0
  144.8428  142.8742  155.4554 C   0  0  0  0  0  0  0  0  0  0  0  0
  143.8449  143.6941  155.8622 F   0  0  0  0  0  0  0  0  0  0  0  0
  145.7951  143.3312  154.5244 C   0  0  0  0  0  0  0  0  0  0  0  0
  146.8343  142.4790  154.1027 C   0  0  0  0  0  0  0  0  0  0  0  0
  152.1883  142.4383  156.7215 H   0  0  0  0  0  0  0  0  0  0  0  0
  150.6053  143.3399  159.9343 H   0  0  0  0  0  0  0  0  0  0  0  0
  150.4841  145.2227  157.6859 H   0  0  0  0  0  0  0  0  0  0  0  0
  151.0928  145.6099  159.3278 H   0  0  0  0  0  0  0  0  0  0  0  0
  152.6838  144.3674  157.0120 H   0  0  0  0  0  0  0  0  0  0  0  0
  153.3050  145.4361  158.3297 H   0  0  0  0  0  0  0  0  0  0  0  0
  152.9855  143.6788  159.9941 H   0  0  0  0  0  0  0  0  0  0  0  0
  153.0801  142.5488  158.5924 H   0  0  0  0  0  0  0  0  0  0  0  0
  147.7152  140.5964  157.5121 H   0  0  0  0  0  0  0  0  0  0  0  0
  149.4927  138.8840  155.0515 H   0  0  0  0  0  0  0  0  0  0  0  0
  148.0288  138.9826  155.9574 H   0  0  0  0  0  0  0  0  0  0  0  0
  147.6288  139.4683  153.5280 H   0  0  0  0  0  0  0  0  0  0  0  0
  149.2279  140.4243  152.6492 H   0  0  0  0  0  0  0  0  0  0  0  0
  146.0317  139.7108  155.9456 H   0  0  0  0  0  0  0  0  0  0  0  0
  144.2017  141.2138  156.6809 H   0  0  0  0  0  0  0  0  0  0  0  0
  145.7305  144.3367  154.1353 H   0  0  0  0  0  0  0  0  0  0  0  0
  147.5633  142.8407  153.3925 H   0  0  0  0  0  0  0  0  0  0  0  0
  1  2  2  0  0  0  0
  2 11  1  0  0  0  0
  2  3  1  0  0  0  0
  3  4  2  0  0  0  0
  3 22  1  0  0  0  0
  4  5  1  0  0  0  0
  4  9  1  0  0  0  0
  5  8  1  0  0  0  0
  5  6  1  0  0  0  0
  5 23  1  0  0  0  0
  6  7  1  0  0  0  0
  6 24  1  0  0  0  0
  6 25  1  0  0  0  0
  7  8  1  0  0  0  0
  7 26  1  0  0  0  0
  7 27  1  0  0  0  0
  8 28  1  0  0  0  0
  8 29  1  0  0  0  0
  9 10  2  0  0  0  0
 10 11  1  0  0  0  0
 10 30  1  0  0  0  0
 11 12  1  0  0  0  0
 12 13  1  0  0  0  0
 12 31  1  0  0  0  0
 12 32  1  0  0  0  0
 13 14  1  0  0  0  0
 13 15  1  0  0  0  0
 13 33  1  0  0  0  0
 14 34  1  0  0  0  0
 15 21  1  0  0  0  0
 15 16  2  0  0  0  0
 16 17  1  0  0  0  0
 16 35  1  0  0  0  0
 17 18  2  0  0  0  0
 17 36  1  0  0  0  0
 18 19  1  0  0  0  0
 18 20  1  0  0  0  0
 20 21  2  0  0  0  0
 20 37  1  0  0  0  0
 21 38  1  0  0  0  0
M  END
> <s_m_source_file>
AV-unprocessed.smi

> <i_m_source_file_index>
2433

> <i_lp_mmshare_version>
43012

> <i_f3d_flags>
0

> <s_epik_input>
W0NIMl0xW0NIMl1bQ0gyXVtDSF0xYyhbY0hdYzI9TyluW2NIXW4yW0NIMl1bQ0BIXShbT0hdKWMzW2NIXVtjSF1jKEYpW2NIXVtjSF0z

> <s_epik_cmdline>
J2VwaWtfcHl0aG9uJywgJy1waCcsICc3LjAnLCAnLXRuJywgJzgnLCAnLW1hJywgJzIwMCcsICctbWV0YWxfYmluZGluZycsICctaW1hZScsICc8aW5maWxlLm1hZT4nLCAnLW9tYWUnLCAnPG91dGZpbGUubWFlPic=

> <r_lp_tautomer_probability>
1

> <r_epik_Ionization_Penalty>
2.57762e-05

> <r_epik_Ionization_Penalty_Charging>
5.39435e-08

> <r_epik_Ionization_Penalty_Neutral>
2.57223e-05

> <r_epik_State_Penalty>
-0

> <r_epik_Charging_Adjusted_Penalty>
5.39435e-08

> <i_epik_Tot_Q>
0

> <i_epik_Tot_abs_Q>
0

> <r_epik_Metal_State_Penalty>
-0

> <b_epik_Metal_Only>
0

> <s_lp_Force_Field>
OPLS_2005

> <r_lp_Energy>
28.7145

> <b_lp_Chiralities_Consistent>
1

> <s_lp_Variant>
AV-unprocessed.smi:2433-1

> <Gold.Version>
5.8.1

> <Gold.Id.Protein>
6NUR|6NUR_protein|mol2

> <Gold.PLP.Fitness>
48.7711

> <Gold.PLP.PLP>
-43.2541

> <Gold.PLP.part.hbond>
-3.5017

> <Gold.PLP.part.metal>
0.0000

> <Gold.PLP.part.buried>
-6.9734

> <Gold.PLP.part.nonpolar>
-32.9795

> <Gold.PLP.part.repulsive>
0.1560

> <Gold.PLP.ligand.clash>
0.0000

> <Gold.PLP.ligand.torsion>
1.0217

> <Gold.PLP.Chemscore.Hbond>
2.3900

> <Gold.PLP.Chemscore.CHOScore>
0.0000

> <Gold.PLP.Chemscore.Metal>
0.0000

> <Gold.Chemscore.Hbonds>
donor molecule, donor type, donor heavy atom, donor atom, acceptor molecule, acceptor atom, score
      L1  H    14    34       P1  7957  1.00
      P1  H  7989  7998       L1     1  0.79
      P1  H  8011  8017       L1    14  0.10

> <Gold.PLP.Chemscore.Internal.Correction>
0.3904

> <Gold.Rescore>
     Score         DG    S(hbond)    S(metal)    S(lipo)     H(rot)  DE(clash)    DE(int)     intcor
     16.50     -17.63       1.91        0.00      96.12       2.14       0.06       1.07       ----

> <Gold.Chemscore.Fitness>
16.4995

> <Gold.Chemscore.DG>
-17.6306

> <Gold.Chemscore.ZeroCoef>
-5.4800

> <Gold.Chemscore.Hbond>
1.9087

> <Gold.Chemscore.Metal>
0.0000

> <Gold.Chemscore.Lipo>
96.1211

> <Gold.Chemscore.Internal_Hbond>
0.0000

> <Gold.Chemscore.DEClash>
0.0588

> <Gold.Chemscore.DEInternal>
1.0722

> <Gold.Chemscore.Rot>
2.1370

> <Gold.Chemscore.Internal.Correction>
   9.000000E+99

> <Gold.Chemscore.Hbonds>
donor molecule, donor type, donor heavy atom, donor atom, acceptor molecule, acceptor atom, score
      L1  H    14    34       P1  7957  0.98
      P1  H  7989  7998       L1     1  0.75

> <Gold.Chemscore.Hbond.Weighted>
-6.3751

> <Gold.Chemscore.Metal.Weighted>
-0.0000

> <Gold.Chemscore.Lipo.Weighted>
-11.2462

> <Gold.Chemscore.Internal_Hbond.Weighted>
0.0000

> <Gold.Chemscore.DEClash.Weighted>
0.0588

> <Gold.Chemscore.DEInternal.Weighted>
1.0722

> <Gold.Chemscore.Rot.Weighted>
5.4707

> <Gold.Chemscore.Internal.Correction.Weighted>
   9.000000E+99

> <Gold.Protein.RotatedTorsions>
[ 6907 6896 6895 6894 ] final -110.79 input  -60.11 | X-H torsion
[ 7974 7965 7964 7962 ] final  -99.39 input  175.53 | X-H torsion
[ 8008 7997 7996 7995 ] final   10.87 input   59.86 | X-H torsion
[ 10167 10162 10161 10158 ] final  -40.77 input  -65.29 | X-H torsion
[ 10718 10713 10712 10709 ] final  143.12 input   66.30 | X-H torsion
[ 10763 10752 10751 10750 ] final  157.89 input  -60.55 | X-H torsion
[ 11005 11000 10999 10996 ] final -131.05 input  -57.11 | X-H torsion

> <Gold.Protein.ActiveResidues>
 VAL166  LYS551  ARG553  GLY616  TRP617  ASP618  TYR619  PRO620  LYS621  CYS622 
 ASP623  PHE694  ASN695  SER759  ASP760  ASP761  ALA762  ILE779  LEU786  VAL792 
 PHE793  MET794  SER795  GLU796  ALA797  LYS798  CYS799  TRP800  GLU811  SER814 

> <Gold.Protein.RotatedAtoms>
  150.7648  133.9329  159.3432 H   0  0  0  0  0  0  0  0  0  0  0  0  # atno 6907 bound_to 6896
  151.7230  135.0888  160.0296 H   0  0  0  0  0  0  0  0  0  0  0  0  # atno 6908 bound_to 6896
  152.3638  133.6293  159.6071 H   0  0  0  0  0  0  0  0  0  0  0  0  # atno 6909 bound_to 6896
  145.3082  140.9394  143.2785 H   0  0  0  0  0  0  0  0  0  0  0  0  # atno 7974 bound_to 7965
  154.7992  140.2849  155.5934 H   0  0  0  0  0  0  0  0  0  0  0  0  # atno 8008 bound_to 7997
  156.2975  140.2590  156.2786 H   0  0  0  0  0  0  0  0  0  0  0  0  # atno 8009 bound_to 7997
  154.9578  140.0378  157.2165 H   0  0  0  0  0  0  0  0  0  0  0  0  # atno 8010 bound_to 7997
  140.7024  143.3133  151.2972 H   0  0  0  0  0  0  0  0  0  0  0  0  # atno 10167 bound_to 10162
  157.3727  131.0981  151.0813 H   0  0  0  0  0  0  0  0  0  0  0  0  # atno 10718 bound_to 10713
  154.2074  135.2787  155.2970 H   0  0  0  0  0  0  0  0  0  0  0  0  # atno 10763 bound_to 10752
  154.5806  135.5590  153.7185 H   0  0  0  0  0  0  0  0  0  0  0  0  # atno 10764 bound_to 10752
  153.0072  135.6344  154.2213 H   0  0  0  0  0  0  0  0  0  0  0  0  # atno 10765 bound_to 10752
  140.9292  134.1342  157.4249 H   0  0  0  0  0  0  0  0  0  0  0  0  # atno 11005 bound_to 11000
  144.9037  139.4616  143.6620 LP  0  0  0  0  0  0  0  0  0  0  0  0  # atno 17320 bound_to 7965
  146.3127  139.7806  142.9007 LP  0  0  0  0  0  0  0  0  0  0  0  0  # atno 17321 bound_to 7965
  139.6564  144.0269  152.2662 LP  0  0  0  0  0  0  0  0  0  0  0  0  # atno 17342 bound_to 10162
  139.9822  144.6420  150.7890 LP  0  0  0  0  0  0  0  0  0  0  0  0  # atno 17343 bound_to 10162
  157.1911  130.6352  149.5705 LP  0  0  0  0  0  0  0  0  0  0  0  0  # atno 17370 bound_to 10713
  155.9759  130.4722  150.6490 LP  0  0  0  0  0  0  0  0  0  0  0  0  # atno 17371 bound_to 10713
  139.8792  134.9999  156.5981 LP  0  0  0  0  0  0  0  0  0  0  0  0  # atno 17394 bound_to 11000
  140.7885  133.8602  155.8626 LP  0  0  0  0  0  0  0  0  0  0  0  0  # atno 17395 bound_to 11000

$$$$
