AV-unprocessed.smi:1214|AV-procd|sdf|5092|dock3
  -GOLD-   22720 4143D 1   1.00000     0.00000
 Structure written by MMmdl.
 33 34  0  0  0  0  0  0  0  0  1 V2000
  146.6203  138.6680  152.3781 C   0  0  0  0  0  0  0  0  0  0  0  0
  147.2882  139.6189  153.3585 C   0  0  0  0  0  0  0  0  0  0  0  0
  146.8339  140.9523  153.4411 C   0  0  0  0  0  0  0  0  0  0  0  0
  147.4499  141.8322  154.3471 C   0  0  0  0  0  0  0  0  0  0  0  0
  148.5003  141.3374  155.1376 C   0  0  0  0  0  0  0  0  0  0  0  0
  148.9404  140.0646  155.0646 N   0  0  0  0  0  0  0  0  0  0  0  0
  148.3613  139.2006  154.1916 C   0  0  0  0  0  0  0  0  0  0  0  0
  148.7532  137.8320  154.0641 N   0  0  0  0  0  0  0  0  0  0  0  0
  149.1703  136.9301  154.9782 C   0  0  0  0  0  0  0  0  0  0  0  0
  149.2551  137.2260  156.1689 O   0  0  0  0  0  0  0  0  0  0  0  0
  149.4650  135.7054  154.5127 N   0  0  0  0  0  0  0  0  0  0  0  0
  149.9207  134.5798  155.3203 C   0  0  2  0  0  0  0  0  0  0  0  0
  150.1796  133.3232  154.4651 C   0  0  0  0  0  0  0  0  0  0  0  0
  150.2745  132.1062  155.3938 C   0  0  0  0  0  0  0  0  0  0  0  0
  149.1989  132.4751  156.8315 S   0  0  0  0  0  0  0  0  0  0  0  0
  147.9481  131.7091  156.7230 O   0  0  0  0  0  0  0  0  0  0  0  0
  150.0107  132.4289  158.0569 O   0  0  0  0  0  0  0  0  0  0  0  0
  148.8737  134.2210  156.3831 C   0  0  0  0  0  0  0  0  0  0  0  0
  145.8256  139.1649  151.8208 H   0  0  0  0  0  0  0  0  0  0  0  0
  146.1801  137.8213  152.9056 H   0  0  0  0  0  0  0  0  0  0  0  0
  147.3471  138.2893  151.6589 H   0  0  0  0  0  0  0  0  0  0  0  0
  146.0220  141.3001  152.8193 H   0  0  0  0  0  0  0  0  0  0  0  0
  147.1247  142.8583  154.4343 H   0  0  0  0  0  0  0  0  0  0  0  0
  149.0006  141.9785  155.8482 H   0  0  0  0  0  0  0  0  0  0  0  0
  148.6808  137.4675  153.1257 H   0  0  0  0  0  0  0  0  0  0  0  0
  149.3710  135.5481  153.5190 H   0  0  0  0  0  0  0  0  0  0  0  0
  150.8455  134.8456  155.8360 H   0  0  0  0  0  0  0  0  0  0  0  0
  149.3408  133.1762  153.7830 H   0  0  0  0  0  0  0  0  0  0  0  0
  151.0740  133.4262  153.8499 H   0  0  0  0  0  0  0  0  0  0  0  0
  149.9593  131.1798  154.9140 H   0  0  0  0  0  0  0  0  0  0  0  0
  151.2929  131.9797  155.7613 H   0  0  0  0  0  0  0  0  0  0  0  0
  148.9294  134.8540  157.2688 H   0  0  0  0  0  0  0  0  0  0  0  0
  147.8626  134.2759  155.9776 H   0  0  0  0  0  0  0  0  0  0  0  0
  1  2  1  0  0  0  0
  1 19  1  0  0  0  0
  1 20  1  0  0  0  0
  1 21  1  0  0  0  0
  2  7  1  0  0  0  0
  2  3  2  0  0  0  0
  3  4  1  0  0  0  0
  3 22  1  0  0  0  0
  4  5  2  0  0  0  0
  4 23  1  0  0  0  0
  5  6  1  0  0  0  0
  5 24  1  0  0  0  0
  6  7  2  0  0  0  0
  7  8  1  0  0  0  0
  8  9  1  0  0  0  0
  8 25  1  0  0  0  0
  9 10  2  0  0  0  0
  9 11  1  0  0  0  0
 11 12  1  0  0  0  0
 11 26  1  0  0  0  0
 12 18  1  0  0  0  0
 12 13  1  0  0  0  0
 12 27  1  0  0  0  0
 13 14  1  0  0  0  0
 13 28  1  0  0  0  0
 13 29  1  0  0  0  0
 14 15  1  0  0  0  0
 14 30  1  0  0  0  0
 14 31  1  0  0  0  0
 15 16  2  0  0  0  0
 15 17  2  0  0  0  0
 15 18  1  0  0  0  0
 18 32  1  0  0  0  0
 18 33  1  0  0  0  0
M  END
> <s_m_source_file>
AV-unprocessed.smi

> <i_m_source_file_index>
1214

> <i_lp_mmshare_version>
43012

> <i_f3d_flags>
0

> <s_epik_input>
W0NIM11jMVtjSF1bY0hdW2NIXW5jMVtOSF1DKD1PKVtOSF1bQ0BASF0oW0NIMl0yKVtDSDJdW0NIMl1TMig9Tyk9Tw==

> <s_epik_cmdline>
J2VwaWtfcHl0aG9uJywgJy1waCcsICc3LjAnLCAnLXRuJywgJzgnLCAnLW1hJywgJzIwMCcsICctbWV0YWxfYmluZGluZycsICctaW1hZScsICc8aW5maWxlLm1hZT4nLCAnLW9tYWUnLCAnPG91dGZpbGUubWFlPic=

> <r_lp_tautomer_probability>
1

> <r_epik_Ionization_Penalty>
4.18367e-05

> <r_epik_Ionization_Penalty_Charging>
0

> <r_epik_Ionization_Penalty_Neutral>
4.18367e-05

> <r_epik_State_Penalty>
-0

> <r_epik_Charging_Adjusted_Penalty>
0

> <i_epik_Tot_Q>
0

> <i_epik_Tot_abs_Q>
0

> <r_epik_Metal_State_Penalty>
-0

> <b_epik_Metal_Only>
0

> <s_lp_Force_Field>
OPLS_2005

> <r_lp_Energy>
8.88601

> <b_lp_Chiralities_Consistent>
1

> <s_lp_Variant>
AV-unprocessed.smi:1214-1

> <Gold.Version>
5.8.1

> <Gold.Id.Protein>
6NUR|6NUR_protein|mol2

> <Gold.PLP.Fitness>
36.3879

> <Gold.PLP.PLP>
-25.0850

> <Gold.PLP.part.hbond>
-3.0000

> <Gold.PLP.part.metal>
0.0000

> <Gold.PLP.part.buried>
-2.3037

> <Gold.PLP.part.nonpolar>
-20.1695

> <Gold.PLP.part.repulsive>
0.1262

> <Gold.PLP.ligand.clash>
0.0000

> <Gold.PLP.ligand.torsion>
0.2647

> <Gold.PLP.Chemscore.Hbond>
3.0000

> <Gold.PLP.Chemscore.CHOScore>
0.9438

> <Gold.PLP.Chemscore.Metal>
0.0000

> <Gold.Chemscore.Hbonds>
donor molecule, donor type, donor heavy atom, donor atom, acceptor molecule, acceptor atom, score
      L1  H     8    25       P1  7948  1.00
      L1  H    11    26       P1  7948  0.99
      P1  H  6896  6908       L1    17  1.00
      L1  C     5    24       P1  8028  0.38

> <Gold.PLP.Chemscore.Internal.Correction>
0.0009

> <Gold.Rescore>
     Score         DG    S(hbond)    S(metal)    S(lipo)     H(rot)  DE(clash)    DE(int)     intcor
     17.39     -18.48       2.72        0.00      55.28       1.00       0.06       1.03       ----

> <Gold.Chemscore.Fitness>
17.3925

> <Gold.Chemscore.DG>
-18.4774

> <Gold.Chemscore.ZeroCoef>
-5.4800

> <Gold.Chemscore.Hbond>
2.7215

> <Gold.Chemscore.Metal>
0.0000

> <Gold.Chemscore.Lipo>
55.2795

> <Gold.Chemscore.Internal_Hbond>
0.0000

> <Gold.Chemscore.DEClash>
0.0560

> <Gold.Chemscore.DEInternal>
1.0289

> <Gold.Chemscore.Rot>
1.0000

> <Gold.Chemscore.Internal.Correction>
   9.000000E+99

> <Gold.Chemscore.Hbonds>
donor molecule, donor type, donor heavy atom, donor atom, acceptor molecule, acceptor atom, score
      L1  H     8    25       P1  7948  0.98
      L1  H    11    26       P1  7948  0.28
      P1  H  6896  6908       L1    17  1.00

> <Gold.Chemscore.Hbond.Weighted>
-9.0897

> <Gold.Chemscore.Metal.Weighted>
-0.0000

> <Gold.Chemscore.Lipo.Weighted>
-6.4677

> <Gold.Chemscore.Internal_Hbond.Weighted>
0.0000

> <Gold.Chemscore.DEClash.Weighted>
0.0560

> <Gold.Chemscore.DEInternal.Weighted>
1.0289

> <Gold.Chemscore.Rot.Weighted>
2.5600

> <Gold.Chemscore.Internal.Correction.Weighted>
   9.000000E+99

> <Gold.Protein.RotatedTorsions>
[ 6907 6896 6895 6894 ] final  106.03 input  -60.11 | X-H torsion
[ 7974 7965 7964 7962 ] final   16.75 input  175.53 | X-H torsion
[ 8008 7997 7996 7995 ] final   52.86 input   59.86 | X-H torsion
[ 10167 10162 10161 10158 ] final   55.46 input  -65.29 | X-H torsion
[ 10718 10713 10712 10709 ] final   76.20 input   66.30 | X-H torsion
[ 10763 10752 10751 10750 ] final  -65.15 input  -60.55 | X-H torsion
[ 11005 11000 10999 10996 ] final  -69.35 input  -57.11 | X-H torsion

> <Gold.Protein.ActiveResidues>
 VAL166  LYS551  ARG553  GLY616  TRP617  ASP618  TYR619  PRO620  LYS621  CYS622 
 ASP623  PHE694  ASN695  SER759  ASP760  ASP761  ALA762  ILE779  LEU786  VAL792 
 PHE793  MET794  SER795  GLU796  ALA797  LYS798  CYS799  TRP800  GLU811  SER814 

> <Gold.Protein.RotatedAtoms>
  152.5209  133.9440  159.7639 H   0  0  0  0  0  0  0  0  0  0  0  0  # atno 6907 bound_to 6896
  150.9764  133.6282  159.2736 H   0  0  0  0  0  0  0  0  0  0  0  0  # atno 6908 bound_to 6896
  151.3475  135.0883  159.9445 H   0  0  0  0  0  0  0  0  0  0  0  0  # atno 6909 bound_to 6896
  146.2240  139.8702  142.8589 H   0  0  0  0  0  0  0  0  0  0  0  0  # atno 7974 bound_to 7965
  155.4588  140.3461  155.4310 H   0  0  0  0  0  0  0  0  0  0  0  0  # atno 8008 bound_to 7997
  156.1174  140.1477  156.9283 H   0  0  0  0  0  0  0  0  0  0  0  0  # atno 8009 bound_to 7997
  154.4798  140.0873  156.7330 H   0  0  0  0  0  0  0  0  0  0  0  0  # atno 8010 bound_to 7997
  140.2192  144.3806  150.6457 H   0  0  0  0  0  0  0  0  0  0  0  0  # atno 10167 bound_to 10162
  157.6664  130.9763  150.1463 H   0  0  0  0  0  0  0  0  0  0  0  0  # atno 10718 bound_to 10713
  154.3407  135.6157  153.5595 H   0  0  0  0  0  0  0  0  0  0  0  0  # atno 10763 bound_to 10752
  152.9804  135.5769  154.4856 H   0  0  0  0  0  0  0  0  0  0  0  0  # atno 10764 bound_to 10752
  154.4559  135.2854  155.1724 H   0  0  0  0  0  0  0  0  0  0  0  0  # atno 10765 bound_to 10752
  141.1552  133.6762  156.6586 H   0  0  0  0  0  0  0  0  0  0  0  0  # atno 11005 bound_to 11000
  145.2615  141.0079  143.3823 LP  0  0  0  0  0  0  0  0  0  0  0  0  # atno 17320 bound_to 7965
  144.9294  139.4316  143.6502 LP  0  0  0  0  0  0  0  0  0  0  0  0  # atno 17321 bound_to 7965
  140.6267  143.2182  151.6581 LP  0  0  0  0  0  0  0  0  0  0  0  0  # atno 17342 bound_to 10162
  139.5150  144.3391  152.0756 LP  0  0  0  0  0  0  0  0  0  0  0  0  # atno 17343 bound_to 10162
  156.2273  130.3679  149.8485 LP  0  0  0  0  0  0  0  0  0  0  0  0  # atno 17370 bound_to 10713
  156.6322  130.8670  151.3497 LP  0  0  0  0  0  0  0  0  0  0  0  0  # atno 17371 bound_to 10713
  140.3265  134.7964  157.4293 LP  0  0  0  0  0  0  0  0  0  0  0  0  # atno 17394 bound_to 11000
  140.1053  134.5418  155.8315 LP  0  0  0  0  0  0  0  0  0  0  0  0  # atno 17395 bound_to 11000

$$$$
