AV-unprocessed.smi:1546|AV-procd|sdf|6218|dock10
  -GOLD-   22720 6393D 1   1.00000     0.00000
 Structure written by MMmdl.
 30 31  0  0  0  0  0  0  0  0  1 V2000
  149.4753  140.5841  157.6470 O   0  0  0  0  0  0  0  0  0  0  0  0
  149.4570  141.7485  157.2484 C   0  0  0  0  0  0  0  0  0  0  0  0
  150.0904  142.8553  158.0939 C   0  0  0  0  0  0  0  0  0  0  0  0
  151.4750  142.5950  158.2665 O   0  0  0  0  0  0  0  0  0  0  0  0
  152.1200  143.5812  159.0532 C   0  0  0  0  0  0  0  0  0  0  0  0
  153.2378  142.9309  159.8396 C   0  0  0  0  0  0  0  0  0  0  0  0
  153.1643  141.4639  160.1981 C   0  0  0  0  0  0  0  0  0  0  0  0
  153.0285  142.5086  161.2762 C   0  0  0  0  0  0  0  0  0  0  0  0
  148.9117  142.1667  156.0894 N   0  0  0  0  0  0  0  0  0  0  0  0
  148.2544  141.4299  155.0897 C   0  0  0  0  0  0  0  0  0  0  0  0
  146.9682  141.6008  154.6886 C   0  0  0  0  0  0  0  0  0  0  0  0
  146.3629  140.8471  153.6926 N   0  0  0  0  0  0  0  0  0  0  0  0
  147.0968  139.8558  153.0617 C   0  0  0  0  0  0  0  0  0  0  0  0
  148.3817  139.5846  153.3632 C   0  0  0  0  0  0  0  0  0  0  0  0
  149.0605  140.3724  154.4165 C   0  0  0  0  0  0  0  0  0  0  0  0
  150.2355  140.1543  154.7124 O   0  0  0  0  0  0  0  0  0  0  0  0
  149.9486  143.8172  157.5980 H   0  0  0  0  0  0  0  0  0  0  0  0
  149.5881  142.8967  159.0615 H   0  0  0  0  0  0  0  0  0  0  0  0
  152.5236  144.3750  158.4224 H   0  0  0  0  0  0  0  0  0  0  0  0
  151.4124  144.0320  159.7505 H   0  0  0  0  0  0  0  0  0  0  0  0
  154.2282  143.3043  159.5860 H   0  0  0  0  0  0  0  0  0  0  0  0
  152.2675  140.9159  159.9156 H   0  0  0  0  0  0  0  0  0  0  0  0
  154.0896  140.8922  160.1657 H   0  0  0  0  0  0  0  0  0  0  0  0
  153.8630  142.6358  161.9628 H   0  0  0  0  0  0  0  0  0  0  0  0
  152.0414  142.6559  161.7104 H   0  0  0  0  0  0  0  0  0  0  0  0
  148.9872  143.1551  155.8958 H   0  0  0  0  0  0  0  0  0  0  0  0
  146.2979  142.3371  155.1010 H   0  0  0  0  0  0  0  0  0  0  0  0
  146.5495  139.3147  152.3039 H   0  0  0  0  0  0  0  0  0  0  0  0
  148.9283  138.8042  152.8543 H   0  0  0  0  0  0  0  0  0  0  0  0
  145.4020  141.0196  153.4325 H   0  0  0  0  0  0  0  0  0  0  0  0
  1  2  2  0  0  0  0
  2  3  1  0  0  0  0
  2  9  1  0  0  0  0
  3  4  1  0  0  0  0
  3 17  1  0  0  0  0
  3 18  1  0  0  0  0
  4  5  1  0  0  0  0
  5  6  1  0  0  0  0
  5 19  1  0  0  0  0
  5 20  1  0  0  0  0
  6  8  1  0  0  0  0
  6  7  1  0  0  0  0
  6 21  1  0  0  0  0
  7  8  1  0  0  0  0
  7 22  1  0  0  0  0
  7 23  1  0  0  0  0
  8 24  1  0  0  0  0
  8 25  1  0  0  0  0
  9 26  1  0  0  0  0
  9 10  1  0  0  0  0
 10 15  1  0  0  0  0
 10 11  2  0  0  0  0
 11 27  1  0  0  0  0
 11 12  1  0  0  0  0
 12 30  1  0  0  0  0
 12 13  1  0  0  0  0
 13 28  1  0  0  0  0
 13 14  2  0  0  0  0
 14 15  1  0  0  0  0
 14 29  1  0  0  0  0
 15 16  2  0  0  0  0
M  END
> <s_m_source_file>
AV-unprocessed.smi

> <i_m_source_file_index>
1546

> <i_lp_mmshare_version>
43012

> <i_f3d_flags>
0

> <s_epik_input>
W0NIMl0xW0NIMl1bQ0hdMVtDSDJdT1tDSDJdQyg9TylbTkhdYzJbY0hdbltjSF1bY0hdYzJbT0hd

> <s_epik_cmdline>
J2VwaWtfcHl0aG9uJywgJy1waCcsICc3LjAnLCAnLXRuJywgJzgnLCAnLW1hJywgJzIwMCcsICctbWV0YWxfYmluZGluZycsICctaW1hZScsICc8aW5maWxlLm1hZT4nLCAnLW9tYWUnLCAnPG91dGZpbGUubWFlPic=

> <r_lp_tautomer_probability>
1

> <r_epik_Ionization_Penalty>
0.000226134

> <r_epik_Ionization_Penalty_Charging>
0.000226086

> <r_epik_Ionization_Penalty_Neutral>
4.85517e-08

> <r_epik_State_Penalty>
-0

> <r_epik_Charging_Adjusted_Penalty>
0.000226086

> <i_epik_Tot_Q>
0

> <i_epik_Tot_abs_Q>
0

> <r_epik_Metal_State_Penalty>
0.0890487

> <b_epik_Metal_Only>
0

> <s_lp_Force_Field>
OPLS_2005

> <r_lp_Energy>
13.4663

> <b_lp_Chiralities_Consistent>
1

> <s_lp_Variant>
AV-unprocessed.smi:1546-1

> <Gold.Version>
5.8.1

> <Gold.Id.Protein>
6NUR|6NUR_protein|mol2

> <Gold.PLP.Fitness>
38.7025

> <Gold.PLP.PLP>
-31.7018

> <Gold.PLP.part.hbond>
-3.0000

> <Gold.PLP.part.metal>
0.0000

> <Gold.PLP.part.buried>
0.0088

> <Gold.PLP.part.nonpolar>
-29.4615

> <Gold.PLP.part.repulsive>
0.2345

> <Gold.PLP.ligand.clash>
0.0000

> <Gold.PLP.ligand.torsion>
1.2666

> <Gold.PLP.Chemscore.Hbond>
2.9913

> <Gold.PLP.Chemscore.CHOScore>
0.0000

> <Gold.PLP.Chemscore.Metal>
0.0000

> <Gold.Chemscore.Hbonds>
donor molecule, donor type, donor heavy atom, donor atom, acceptor molecule, acceptor atom, score
      L1  H     9    26       P1  8028  1.00
      L1  H    12    30       P1 10175  1.00
      P1  H  7989  7998       L1    16  1.00

> <Gold.PLP.Chemscore.Internal.Correction>
0.5602

> <Gold.Rescore>
     Score         DG    S(hbond)    S(metal)    S(lipo)     H(rot)  DE(clash)    DE(int)     intcor
     17.33     -20.20       2.89        0.00      81.66       1.75       1.61       1.26       ----

> <Gold.Chemscore.Fitness>
17.3295

> <Gold.Chemscore.DG>
-20.2040

> <Gold.Chemscore.ZeroCoef>
-5.4800

> <Gold.Chemscore.Hbond>
2.8923

> <Gold.Chemscore.Metal>
0.0000

> <Gold.Chemscore.Lipo>
81.6567

> <Gold.Chemscore.Internal_Hbond>
0.0000

> <Gold.Chemscore.DEClash>
1.6129

> <Gold.Chemscore.DEInternal>
1.2616

> <Gold.Chemscore.Rot>
1.7540

> <Gold.Chemscore.Internal.Correction>
   9.000000E+99

> <Gold.Chemscore.Hbonds>
donor molecule, donor type, donor heavy atom, donor atom, acceptor molecule, acceptor atom, score
      L1  H     9    26       P1  8028  0.98
      L1  H    12    30       P1 10175  0.50
      P1  H  7989  7998       L1    16  0.90

> <Gold.Chemscore.Hbond.Weighted>
-9.6603

> <Gold.Chemscore.Metal.Weighted>
-0.0000

> <Gold.Chemscore.Lipo.Weighted>
-9.5538

> <Gold.Chemscore.Internal_Hbond.Weighted>
0.0000

> <Gold.Chemscore.DEClash.Weighted>
1.6129

> <Gold.Chemscore.DEInternal.Weighted>
1.2616

> <Gold.Chemscore.Rot.Weighted>
4.4901

> <Gold.Chemscore.Internal.Correction.Weighted>
   9.000000E+99

> <Gold.Protein.RotatedTorsions>
[ 6907 6896 6895 6894 ] final  -50.49 input  -60.11 | X-H torsion
[ 7974 7965 7964 7962 ] final  171.60 input  175.53 | X-H torsion
[ 8008 7997 7996 7995 ] final   40.80 input   59.86 | X-H torsion
[ 10167 10162 10161 10158 ] final  -29.81 input  -65.29 | X-H torsion
[ 10718 10713 10712 10709 ] final  -62.68 input   66.30 | X-H torsion
[ 10763 10752 10751 10750 ] final -131.00 input  -60.55 | X-H torsion
[ 11005 11000 10999 10996 ] final   75.29 input  -57.11 | X-H torsion

> <Gold.Protein.ActiveResidues>
 VAL166  LYS551  ARG553  GLY616  TRP617  ASP618  TYR619  PRO620  LYS621  CYS622 
 ASP623  PHE694  ASN695  SER759  ASP760  ASP761  ALA762  ILE779  LEU786  VAL792 
 PHE793  MET794  SER795  GLU796  ALA797  LYS798  CYS799  TRP800  GLU811  SER814 

> <Gold.Protein.RotatedAtoms>
  150.8702  134.8074  159.7148 H   0  0  0  0  0  0  0  0  0  0  0  0  # atno 6907 bound_to 6896
  152.4709  134.4959  159.9719 H   0  0  0  0  0  0  0  0  0  0  0  0  # atno 6908 bound_to 6896
  151.5049  133.3458  159.2910 H   0  0  0  0  0  0  0  0  0  0  0  0  # atno 6909 bound_to 6896
  144.7290  139.9374  143.6427 H   0  0  0  0  0  0  0  0  0  0  0  0  # atno 7974 bound_to 7965
  155.2590  140.3358  155.4275 H   0  0  0  0  0  0  0  0  0  0  0  0  # atno 8008 bound_to 7997
  156.2183  140.1798  156.7581 H   0  0  0  0  0  0  0  0  0  0  0  0  # atno 8009 bound_to 7997
  154.5786  140.0657  156.9056 H   0  0  0  0  0  0  0  0  0  0  0  0  # atno 8010 bound_to 7997
  140.7256  143.3899  151.1449 H   0  0  0  0  0  0  0  0  0  0  0  0  # atno 10167 bound_to 10162
  156.0840  130.4212  150.1169 H   0  0  0  0  0  0  0  0  0  0  0  0  # atno 10718 bound_to 10713
  154.8753  135.3844  154.4175 H   0  0  0  0  0  0  0  0  0  0  0  0  # atno 10763 bound_to 10752
  153.4882  135.7030  153.5904 H   0  0  0  0  0  0  0  0  0  0  0  0  # atno 10764 bound_to 10752
  153.4290  135.3883  155.2126 H   0  0  0  0  0  0  0  0  0  0  0  0  # atno 10765 bound_to 10752
  139.9350  134.7505  156.1253 H   0  0  0  0  0  0  0  0  0  0  0  0  # atno 11005 bound_to 11000
  146.0811  139.3799  143.0464 LP  0  0  0  0  0  0  0  0  0  0  0  0  # atno 17320 bound_to 7965
  145.7839  140.9844  143.1084 LP  0  0  0  0  0  0  0  0  0  0  0  0  # atno 17321 bound_to 7965
  139.7502  143.8791  152.3074 LP  0  0  0  0  0  0  0  0  0  0  0  0  # atno 17342 bound_to 10162
  139.8641  144.7102  150.9064 LP  0  0  0  0  0  0  0  0  0  0  0  0  # atno 17343 bound_to 10162
  156.9194  130.9678  151.3551 LP  0  0  0  0  0  0  0  0  0  0  0  0  # atno 17370 bound_to 10713
  157.5967  130.8483  149.8740 LP  0  0  0  0  0  0  0  0  0  0  0  0  # atno 17371 bound_to 10713
  141.0960  133.6695  156.2645 LP  0  0  0  0  0  0  0  0  0  0  0  0  # atno 17394 bound_to 11000
  140.6099  134.5469  157.5532 LP  0  0  0  0  0  0  0  0  0  0  0  0  # atno 17395 bound_to 11000

$$$$
