AV-unprocessed.smi:3185|AV-procd|sdf|12166|dock9
  -GOLD-   2272018 03D 1   1.00000     0.00000
 Structure written by MMmdl.
 38 39  0  0  0  0  0  0  0  0  2 V2000
  153.3257  142.2280  160.1882 N   0  0  0  0  0  0  0  0  0  0  0  0
  152.8347  143.2383  159.9133 C   0  0  0  0  0  0  0  0  0  0  0  0
  152.2092  144.5224  159.5640 C   0  0  0  0  0  0  0  0  0  0  0  0
  151.2163  144.3974  158.4029 C   0  0  0  0  0  0  0  0  0  0  0  0
  151.9031  144.0036  157.0898 C   0  0  0  0  0  0  0  0  0  0  0  0
  151.0248  143.1376  156.2759 N   0  3  0  0  0  0  0  0  0  0  0  0
  151.0332  141.6982  156.6294 C   0  0  1  0  0  0  0  0  0  0  0  0
  150.5597  141.4489  158.0837 C   0  0  0  0  0  0  0  0  0  0  0  0
  150.4988  139.9499  158.4183 C   0  0  0  0  0  0  0  0  0  0  0  0
  149.6488  139.1742  157.4020 C   0  0  0  0  0  0  0  0  0  0  0  0
  150.1818  139.3793  155.9752 C   0  0  0  0  0  0  0  0  0  0  0  0
  150.2434  140.8682  155.5748 C   0  0  1  0  0  0  0  0  0  0  0  0
  148.9149  141.3838  155.2345 N   0  0  0  0  0  0  0  0  0  0  0  0
  148.4452  141.7035  153.9760 C   0  0  0  0  0  0  0  0  0  0  0  0
  147.1481  142.1091  154.1061 C   0  0  0  0  0  0  0  0  0  0  0  0
  146.8958  141.9853  155.4993 C   0  0  0  0  0  0  0  0  0  0  0  0
  147.9491  141.5461  156.1676 N   0  0  0  0  0  0  0  0  0  0  0  0
  151.7094  144.9034  160.4551 H   0  0  0  0  0  0  0  0  0  0  0  0
  153.0057  145.2236  159.3133 H   0  0  0  0  0  0  0  0  0  0  0  0
  150.4575  143.6557  158.6561 H   0  0  0  0  0  0  0  0  0  0  0  0
  150.6922  145.3456  158.2736 H   0  0  0  0  0  0  0  0  0  0  0  0
  152.1558  144.9002  156.5222 H   0  0  0  0  0  0  0  0  0  0  0  0
  152.8358  143.4848  157.3100 H   0  0  0  0  0  0  0  0  0  0  0  0
  150.0746  143.4766  156.3350 H   0  0  0  0  0  0  0  0  0  0  0  0
  152.0697  141.3622  156.5675 H   0  0  0  0  0  0  0  0  0  0  0  0
  151.2382  141.9285  158.7887 H   0  0  0  0  0  0  0  0  0  0  0  0
  149.5851  141.9011  158.2617 H   0  0  0  0  0  0  0  0  0  0  0  0
  151.5091  139.5394  158.4336 H   0  0  0  0  0  0  0  0  0  0  0  0
  150.0957  139.8111  159.4220 H   0  0  0  0  0  0  0  0  0  0  0  0
  149.6588  138.1123  157.6495 H   0  0  0  0  0  0  0  0  0  0  0  0
  148.6081  139.4927  157.4662 H   0  0  0  0  0  0  0  0  0  0  0  0
  151.1825  138.9503  155.9087 H   0  0  0  0  0  0  0  0  0  0  0  0
  149.5698  138.8218  155.2652 H   0  0  0  0  0  0  0  0  0  0  0  0
  150.8168  140.9190  154.6476 H   0  0  0  0  0  0  0  0  0  0  0  0
  149.0678  141.6168  153.0976 H   0  0  0  0  0  0  0  0  0  0  0  0
  146.4788  142.4351  153.3237 H   0  0  0  0  0  0  0  0  0  0  0  0
  145.9851  142.1961  156.0406 H   0  0  0  0  0  0  0  0  0  0  0  0
  151.3302  143.2158  155.3165 H   0  0  0  0  0  0  0  0  0  0  0  0
  1  2  3  0  0  0  0
  2  3  1  0  0  0  0
  3  4  1  0  0  0  0
  3 18  1  0  0  0  0
  3 19  1  0  0  0  0
  4  5  1  0  0  0  0
  4 20  1  0  0  0  0
  4 21  1  0  0  0  0
  5  6  1  0  0  0  0
  5 22  1  0  0  0  0
  5 23  1  0  0  0  0
  6  7  1  0  0  0  0
  6 24  1  0  0  0  0
  6 38  1  0  0  0  0
  7 12  1  0  0  0  0
  7  8  1  0  0  0  0
  7 25  1  0  0  0  0
  8  9  1  0  0  0  0
  8 26  1  0  0  0  0
  8 27  1  0  0  0  0
  9 10  1  0  0  0  0
  9 28  1  0  0  0  0
  9 29  1  0  0  0  0
 10 11  1  0  0  0  0
 10 30  1  0  0  0  0
 10 31  1  0  0  0  0
 11 12  1  0  0  0  0
 11 32  1  0  0  0  0
 11 33  1  0  0  0  0
 12 13  1  0  0  0  0
 12 34  1  0  0  0  0
 13 17  1  0  0  0  0
 13 14  1  0  0  0  0
 14 15  2  0  0  0  0
 14 35  1  0  0  0  0
 15 16  1  0  0  0  0
 15 36  1  0  0  0  0
 16 17  2  0  0  0  0
 16 37  1  0  0  0  0
M  CHG  1   6   1
M  END
> <s_m_source_file>
AV-unprocessed.smi

> <i_m_source_file_index>
3185

> <i_lp_mmshare_version>
43012

> <i_f3d_flags>
0

> <s_epik_input>
TiNDW0NIMl1bQ0gyXVtDSDJdW05IXVtDQEBIXTFbQ0gyXVtDSDJdW0NIMl1bQ0gyXVtDQEhdMW4yW2NIXVtjSF1bY0hdbjI=

> <s_epik_cmdline>
J2VwaWtfcHl0aG9uJywgJy1waCcsICc3LjAnLCAnLXRuJywgJzgnLCAnLW1hJywgJzIwMCcsICctbWV0YWxfYmluZGluZycsICctaW1hZScsICc8aW5maWxlLm1hZT4nLCAnLW9tYWUnLCAnPG91dGZpbGUubWFlPic=

> <r_lp_tautomer_probability>
1

> <r_epik_Ionization_Penalty>
0.0143465

> <r_epik_Ionization_Penalty_Charging>
0.0143338

> <r_epik_Ionization_Penalty_Neutral>
1.27047e-05

> <r_epik_State_Penalty>
0.0112058

> <r_epik_Charging_Adjusted_Penalty>
0.0255397

> <i_epik_Tot_Q>
1

> <i_epik_Tot_abs_Q>
1

> <r_epik_Metal_State_Penalty>
0.0112253

> <b_epik_Metal_Only>
0

> <s_lp_Force_Field>
OPLS_2005

> <r_lp_Energy>
18.1439

> <b_lp_Chiralities_Consistent>
1

> <s_lp_Variant>
AV-unprocessed.smi:3185-2

> <Gold.Version>
5.8.1

> <Gold.Id.Protein>
6NUR|6NUR_protein|mol2

> <Gold.PLP.Fitness>
43.1593

> <Gold.PLP.PLP>
-35.6249

> <Gold.PLP.part.hbond>
-1.0000

> <Gold.PLP.part.metal>
0.0000

> <Gold.PLP.part.buried>
-3.3258

> <Gold.PLP.part.nonpolar>
-31.5865

> <Gold.PLP.part.repulsive>
0.2182

> <Gold.PLP.ligand.clash>
0.0000

> <Gold.PLP.ligand.torsion>
0.4848

> <Gold.PLP.Chemscore.Hbond>
1.7920

> <Gold.PLP.Chemscore.CHOScore>
1.0000

> <Gold.PLP.Chemscore.Metal>
0.0000

> <Gold.Chemscore.Hbonds>
donor molecule, donor type, donor heavy atom, donor atom, acceptor molecule, acceptor atom, score
      L1  H     6    24       P1  8028  1.73
      L1  C    14    35       P1  7957  0.97

> <Gold.PLP.Chemscore.Internal.Correction>
0.1280

> <Gold.Rescore>
     Score         DG    S(hbond)    S(metal)    S(lipo)     H(rot)  DE(clash)    DE(int)     intcor
     11.52     -13.37       0.88        0.00      83.39       1.88       0.12       1.73       ----

> <Gold.Chemscore.Fitness>
11.5196

> <Gold.Chemscore.DG>
-13.3692

> <Gold.Chemscore.ZeroCoef>
-5.4800

> <Gold.Chemscore.Hbond>
0.8797

> <Gold.Chemscore.Metal>
0.0000

> <Gold.Chemscore.Lipo>
83.3856

> <Gold.Chemscore.Internal_Hbond>
0.0000

> <Gold.Chemscore.DEClash>
0.1195

> <Gold.Chemscore.DEInternal>
1.7302

> <Gold.Chemscore.Rot>
1.8769

> <Gold.Chemscore.Internal.Correction>
   9.000000E+99

> <Gold.Chemscore.Hbonds>
donor molecule, donor type, donor heavy atom, donor atom, acceptor molecule, acceptor atom, score
      L1  H     6    24       P1  8028  0.87

> <Gold.Chemscore.Hbond.Weighted>
-2.9380

> <Gold.Chemscore.Metal.Weighted>
-0.0000

> <Gold.Chemscore.Lipo.Weighted>
-9.7561

> <Gold.Chemscore.Internal_Hbond.Weighted>
0.0000

> <Gold.Chemscore.DEClash.Weighted>
0.1195

> <Gold.Chemscore.DEInternal.Weighted>
1.7302

> <Gold.Chemscore.Rot.Weighted>
4.8049

> <Gold.Chemscore.Internal.Correction.Weighted>
   9.000000E+99

> <Gold.Protein.RotatedTorsions>
[ 6907 6896 6895 6894 ] final  -57.70 input  -60.11 | X-H torsion
[ 7974 7965 7964 7962 ] final -178.25 input  175.53 | X-H torsion
[ 8008 7997 7996 7995 ] final  111.23 input   59.86 | X-H torsion
[ 10167 10162 10161 10158 ] final  -45.12 input  -65.29 | X-H torsion
[ 10718 10713 10712 10709 ] final  -50.50 input   66.30 | X-H torsion
[ 10763 10752 10751 10750 ] final -128.40 input  -60.55 | X-H torsion
[ 11005 11000 10999 10996 ] final   27.34 input  -57.11 | X-H torsion

> <Gold.Protein.ActiveResidues>
 VAL166  LYS551  ARG553  GLY616  TRP617  ASP618  TYR619  PRO620  LYS621  CYS622 
 ASP623  PHE694  ASN695  SER759  ASP760  ASP761  ALA762  ILE779  LEU786  VAL792 
 PHE793  MET794  SER795  GLU796  ALA797  LYS798  CYS799  TRP800  GLU811  SER814 

> <Gold.Protein.RotatedAtoms>
  150.8065  134.7193  159.6648 H   0  0  0  0  0  0  0  0  0  0  0  0  # atno 6907 bound_to 6896
  152.4184  134.5996  160.0006 H   0  0  0  0  0  0  0  0  0  0  0  0  # atno 6908 bound_to 6896
  151.6219  133.3301  159.3126 H   0  0  0  0  0  0  0  0  0  0  0  0  # atno 6909 bound_to 6896
  144.7130  140.0897  143.6422 H   0  0  0  0  0  0  0  0  0  0  0  0  # atno 7974 bound_to 7965
  156.2109  140.3023  155.9730 H   0  0  0  0  0  0  0  0  0  0  0  0  # atno 8008 bound_to 7997
  155.2726  140.0434  157.3025 H   0  0  0  0  0  0  0  0  0  0  0  0  # atno 8009 bound_to 7997
  154.5698  140.2345  155.8217 H   0  0  0  0  0  0  0  0  0  0  0  0  # atno 8010 bound_to 7997
  140.6870  143.2895  151.3594 H   0  0  0  0  0  0  0  0  0  0  0  0  # atno 10167 bound_to 10162
  156.1795  130.4150  149.9528 H   0  0  0  0  0  0  0  0  0  0  0  0  # atno 10718 bound_to 10713
  154.8756  135.3930  154.3750 H   0  0  0  0  0  0  0  0  0  0  0  0  # atno 10763 bound_to 10752
  153.4505  135.7028  153.6117 H   0  0  0  0  0  0  0  0  0  0  0  0  # atno 10764 bound_to 10752
  153.4659  135.3801  155.2333 H   0  0  0  0  0  0  0  0  0  0  0  0  # atno 10765 bound_to 10752
  140.3273  134.2476  155.7707 H   0  0  0  0  0  0  0  0  0  0  0  0  # atno 11005 bound_to 11000
  145.9630  139.2814  143.1144 LP  0  0  0  0  0  0  0  0  0  0  0  0  # atno 17320 bound_to 7965
  145.9199  140.9122  143.0410 LP  0  0  0  0  0  0  0  0  0  0  0  0  # atno 17321 bound_to 7965
  139.6238  144.0855  152.2415 LP  0  0  0  0  0  0  0  0  0  0  0  0  # atno 17342 bound_to 10162
  140.0308  144.6082  150.7490 LP  0  0  0  0  0  0  0  0  0  0  0  0  # atno 17343 bound_to 10162
  156.7303  130.9040  151.3625 LP  0  0  0  0  0  0  0  0  0  0  0  0  # atno 17370 bound_to 10713
  157.6858  130.9184  150.0384 LP  0  0  0  0  0  0  0  0  0  0  0  0  # atno 17371 bound_to 10713
  141.2072  133.7812  157.0133 LP  0  0  0  0  0  0  0  0  0  0  0  0  # atno 17394 bound_to 11000
  140.0890  134.9603  157.1746 LP  0  0  0  0  0  0  0  0  0  0  0  0  # atno 17395 bound_to 11000

$$$$
