AV-unprocessed.smi:834|AV-procd|sdf|3885|dock6
  -GOLD-   22720 1343D 1   1.00000     0.00000
 Structure written by MMmdl.
 38 39  0  0  0  0  0  0  0  0  2 V2000
  145.6205  134.9105  162.6840 C   0  0  0  0  0  0  0  0  0  0  0  0
  146.6172  135.5283  161.7645 C   0  0  0  0  0  0  0  0  0  0  0  0
  146.7738  136.8493  161.6502 N   0  0  0  0  0  0  0  0  0  0  0  0
  147.7596  137.1814  160.7324 N   0  0  0  0  0  0  0  0  0  0  0  0
  148.3252  136.1106  160.1576 C   0  0  0  0  0  0  0  0  0  0  0  0
  149.3039  136.2168  159.2437 N   0  5  0  0  0  0  0  0  0  0  0  0
  149.4253  137.3469  158.5106 C   0  0  0  0  0  0  0  0  0  0  0  0
  148.5325  137.8952  157.8601 O   0  0  0  0  0  0  0  0  0  0  0  0
  150.6590  137.8713  158.5282 N   0  0  0  0  0  0  0  0  0  0  0  0
  151.0873  139.0755  157.8237 C   0  0  0  0  0  0  0  0  0  0  0  0
  150.0368  140.1978  157.9377 C   0  0  0  0  0  0  0  0  0  0  0  0
  150.5909  141.5060  158.5111 C   0  0  0  0  0  0  0  0  0  0  0  0
  149.8389  142.3879  158.9281 O   0  0  0  0  0  0  0  0  0  0  0  0
  151.9283  141.6132  158.5316 N   0  0  0  0  0  0  0  0  0  0  0  0
  152.6728  142.7648  159.0344 C   0  0  0  0  0  0  0  0  0  0  0  0
  152.3112  143.0531  160.5043 C   0  0  0  0  0  0  0  0  0  0  0  0
  152.0492  144.5578  160.5890 C   0  0  0  0  0  0  0  0  0  0  0  0
  151.5227  144.9263  159.2059 C   0  0  0  0  0  0  0  0  0  0  0  0
  152.3335  144.0497  158.2510 C   0  0  0  0  0  0  0  0  0  0  0  0
  147.6784  134.5767  160.7396 S   0  0  0  0  0  0  0  0  0  0  0  0
  144.6363  134.9052  162.2156 H   0  0  0  0  0  0  0  0  0  0  0  0
  145.5645  135.4736  163.6158 H   0  0  0  0  0  0  0  0  0  0  0  0
  145.9050  133.8838  162.9147 H   0  0  0  0  0  0  0  0  0  0  0  0
  151.3580  137.3907  159.0752 H   0  0  0  0  0  0  0  0  0  0  0  0
  152.0548  139.4076  158.2048 H   0  0  0  0  0  0  0  0  0  0  0  0
  151.2398  138.8076  156.7778 H   0  0  0  0  0  0  0  0  0  0  0  0
  149.6149  140.4077  156.9539 H   0  0  0  0  0  0  0  0  0  0  0  0
  149.2103  139.8687  158.5689 H   0  0  0  0  0  0  0  0  0  0  0  0
  152.4697  140.8417  158.1691 H   0  0  0  0  0  0  0  0  0  0  0  0
  153.7435  142.5651  158.9583 H   0  0  0  0  0  0  0  0  0  0  0  0
  151.4020  142.5203  160.7876 H   0  0  0  0  0  0  0  0  0  0  0  0
  153.0964  142.7366  161.1918 H   0  0  0  0  0  0  0  0  0  0  0  0
  151.3538  144.8194  161.3871 H   0  0  0  0  0  0  0  0  0  0  0  0
  152.9859  145.0845  160.7767 H   0  0  0  0  0  0  0  0  0  0  0  0
  150.4652  144.6684  159.1340 H   0  0  0  0  0  0  0  0  0  0  0  0
  151.6230  145.9896  158.9865 H   0  0  0  0  0  0  0  0  0  0  0  0
  153.2596  144.5635  157.9903 H   0  0  0  0  0  0  0  0  0  0  0  0
  151.7992  143.8644  157.3181 H   0  0  0  0  0  0  0  0  0  0  0  0
  1  2  1  0  0  0  0
  1 21  1  0  0  0  0
  1 22  1  0  0  0  0
  1 23  1  0  0  0  0
  2 20  1  0  0  0  0
  2  3  2  0  0  0  0
  3  4  1  0  0  0  0
  4  5  2  0  0  0  0
  5  6  1  0  0  0  0
  5 20  1  0  0  0  0
  6  7  1  0  0  0  0
  7  8  2  0  0  0  0
  7  9  1  0  0  0  0
  9 10  1  0  0  0  0
  9 24  1  0  0  0  0
 10 11  1  0  0  0  0
 10 25  1  0  0  0  0
 10 26  1  0  0  0  0
 11 12  1  0  0  0  0
 11 27  1  0  0  0  0
 11 28  1  0  0  0  0
 12 13  2  0  0  0  0
 12 14  1  0  0  0  0
 14 15  1  0  0  0  0
 14 29  1  0  0  0  0
 15 19  1  0  0  0  0
 15 16  1  0  0  0  0
 15 30  1  0  0  0  0
 16 17  1  0  0  0  0
 16 31  1  0  0  0  0
 16 32  1  0  0  0  0
 17 18  1  0  0  0  0
 17 33  1  0  0  0  0
 17 34  1  0  0  0  0
 18 19  1  0  0  0  0
 18 35  1  0  0  0  0
 18 36  1  0  0  0  0
 19 37  1  0  0  0  0
 19 38  1  0  0  0  0
M  CHG  1   6  -1
M  END
> <s_m_source_file>
AV-unprocessed.smi

> <i_m_source_file_index>
834

> <i_lp_mmshare_version>
43012

> <i_f3d_flags>
0

> <s_epik_input>
W0NIM11jMW5uYyhzMSlbTkhdQyg9TylbTkhdW0NIMl1bQ0gyXUMoPU8pW05IXVtDSF0yW0NIMl1bQ0gyXVtDSDJdW0NIMl0y

> <s_epik_cmdline>
J2VwaWtfcHl0aG9uJywgJy1waCcsICc3LjAnLCAnLXRuJywgJzgnLCAnLW1hJywgJzIwMCcsICctbWV0YWxfYmluZGluZycsICctaW1hZScsICc8aW5maWxlLm1hZT4nLCAnLW9tYWUnLCAnPG91dGZpbGUubWFlPic=

> <r_lp_tautomer_probability>
1

> <r_epik_Ionization_Penalty>
3.40129

> <r_epik_Ionization_Penalty_Charging>
3.26946

> <r_epik_Ionization_Penalty_Neutral>
0.131835

> <r_epik_State_Penalty>
3.26707

> <r_epik_Charging_Adjusted_Penalty>
6.53653

> <i_epik_Tot_Q>
-1

> <i_epik_Tot_abs_Q>
1

> <r_epik_Metal_State_Penalty>
0.478667

> <b_epik_Metal_Only>
1

> <s_lp_Force_Field>
OPLS_2005

> <r_lp_Energy>
15.9775

> <b_lp_Chiralities_Consistent>
1

> <s_lp_Variant>
AV-unprocessed.smi:834-2

> <Gold.Version>
5.8.1

> <Gold.Id.Protein>
6NUR|6NUR_protein|mol2

> <Gold.PLP.Fitness>
47.5799

> <Gold.PLP.PLP>
-40.6698

> <Gold.PLP.part.hbond>
-4.3380

> <Gold.PLP.part.metal>
0.0000

> <Gold.PLP.part.buried>
-6.5252

> <Gold.PLP.part.nonpolar>
-31.2998

> <Gold.PLP.part.repulsive>
0.3130

> <Gold.PLP.ligand.clash>
0.0000

> <Gold.PLP.ligand.torsion>
1.2725

> <Gold.PLP.Chemscore.Hbond>
3.1136

> <Gold.PLP.Chemscore.CHOScore>
0.0000

> <Gold.PLP.Chemscore.Metal>
0.0000

> <Gold.Chemscore.Hbonds>
donor molecule, donor type, donor heavy atom, donor atom, acceptor molecule, acceptor atom, score
      P1  H  6896  6907       L1     6  1.62
      P1  H  6931  6943       L1     4  0.83
      P1  H  6934  6947       L1     4  0.35

> <Gold.PLP.Chemscore.Internal.Correction>
0.1143

> <Gold.Rescore>
     Score         DG    S(hbond)    S(metal)    S(lipo)     H(rot)  DE(clash)    DE(int)     intcor
     12.83     -16.86       1.65        0.00      92.80       1.95       0.14       3.89       ----

> <Gold.Chemscore.Fitness>
12.8263

> <Gold.Chemscore.DG>
-16.8580

> <Gold.Chemscore.ZeroCoef>
-5.4800

> <Gold.Chemscore.Hbond>
1.6471

> <Gold.Chemscore.Metal>
0.0000

> <Gold.Chemscore.Lipo>
92.7962

> <Gold.Chemscore.Internal_Hbond>
0.0000

> <Gold.Chemscore.DEClash>
0.1442

> <Gold.Chemscore.DEInternal>
3.8875

> <Gold.Chemscore.Rot>
1.9455

> <Gold.Chemscore.Internal.Correction>
   9.000000E+99

> <Gold.Chemscore.Hbonds>
donor molecule, donor type, donor heavy atom, donor atom, acceptor molecule, acceptor atom, score
      P1  H  6896  6907       L1     6  0.60
      P1  H  6931  6943       L1     4  0.20
      P1  H  6934  6947       L1     4  0.01

> <Gold.Chemscore.Hbond.Weighted>
-5.5013

> <Gold.Chemscore.Metal.Weighted>
-0.0000

> <Gold.Chemscore.Lipo.Weighted>
-10.8572

> <Gold.Chemscore.Internal_Hbond.Weighted>
0.0000

> <Gold.Chemscore.DEClash.Weighted>
0.1442

> <Gold.Chemscore.DEInternal.Weighted>
3.8875

> <Gold.Chemscore.Rot.Weighted>
4.9805

> <Gold.Chemscore.Internal.Correction.Weighted>
   9.000000E+99

> <Gold.Protein.RotatedTorsions>
[ 6907 6896 6895 6894 ] final  -44.47 input  -60.11 | X-H torsion
[ 7974 7965 7964 7962 ] final  116.67 input  175.53 | X-H torsion
[ 8008 7997 7996 7995 ] final   48.73 input   59.86 | X-H torsion
[ 10167 10162 10161 10158 ] final  -31.70 input  -65.29 | X-H torsion
[ 10718 10713 10712 10709 ] final  -23.67 input   66.30 | X-H torsion
[ 10763 10752 10751 10750 ] final  -39.45 input  -60.55 | X-H torsion
[ 11005 11000 10999 10996 ] final   85.41 input  -57.11 | X-H torsion

> <Gold.Protein.ActiveResidues>
 VAL166  LYS551  ARG553  GLY616  TRP617  ASP618  TYR619  PRO620  LYS621  CYS622 
 ASP623  PHE694  ASN695  SER759  ASP760  ASP761  ALA762  ILE779  LEU786  VAL792 
 PHE793  MET794  SER795  GLU796  ALA797  LYS798  CYS799  TRP800  GLU811  SER814 

> <Gold.Protein.RotatedAtoms>
  150.9325  134.8739  159.7560 H   0  0  0  0  0  0  0  0  0  0  0  0  # atno 6907 bound_to 6896
  152.5044  134.4058  159.9442 H   0  0  0  0  0  0  0  0  0  0  0  0  # atno 6908 bound_to 6896
  151.4084  133.3695  159.2776 H   0  0  0  0  0  0  0  0  0  0  0  0  # atno 6909 bound_to 6896
  145.1768  139.3071  143.4439 H   0  0  0  0  0  0  0  0  0  0  0  0  # atno 7974 bound_to 7965
  155.3905  140.3433  155.4251 H   0  0  0  0  0  0  0  0  0  0  0  0  # atno 8008 bound_to 7997
  156.1560  140.1586  156.8724 H   0  0  0  0  0  0  0  0  0  0  0  0  # atno 8009 bound_to 7997
  154.5095  140.0793  156.7944 H   0  0  0  0  0  0  0  0  0  0  0  0  # atno 8010 bound_to 7997
  140.7232  143.3750  151.1706 H   0  0  0  0  0  0  0  0  0  0  0  0  # atno 10167 bound_to 10162
  156.4880  130.4560  149.6772 H   0  0  0  0  0  0  0  0  0  0  0  0  # atno 10718 bound_to 10713
  153.9296  135.6773  153.4746 H   0  0  0  0  0  0  0  0  0  0  0  0  # atno 10763 bound_to 10752
  153.0986  135.4839  154.8823 H   0  0  0  0  0  0  0  0  0  0  0  0  # atno 10764 bound_to 10752
  154.7435  135.3166  154.8643 H   0  0  0  0  0  0  0  0  0  0  0  0  # atno 10765 bound_to 10752
  139.8972  134.8285  156.2579 H   0  0  0  0  0  0  0  0  0  0  0  0  # atno 11005 bound_to 11000
  146.3460  140.1933  142.8589 LP  0  0  0  0  0  0  0  0  0  0  0  0  # atno 17320 bound_to 7965
  145.0177  140.8767  143.5186 LP  0  0  0  0  0  0  0  0  0  0  0  0  # atno 17321 bound_to 7965
  139.7329  143.9045  152.3025 LP  0  0  0  0  0  0  0  0  0  0  0  0  # atno 17342 bound_to 10162
  139.8840  144.7002  150.8846 LP  0  0  0  0  0  0  0  0  0  0  0  0  # atno 17343 bound_to 10162
  156.3455  130.7404  151.2356 LP  0  0  0  0  0  0  0  0  0  0  0  0  # atno 17370 bound_to 10713
  157.7477  131.0391  150.4537 LP  0  0  0  0  0  0  0  0  0  0  0  0  # atno 17371 bound_to 10713
  141.0182  133.7056  156.1223 LP  0  0  0  0  0  0  0  0  0  0  0  0  # atno 17394 bound_to 11000
  140.7272  134.4294  157.5569 LP  0  0  0  0  0  0  0  0  0  0  0  0  # atno 17395 bound_to 11000

$$$$
