AV-unprocessed.smi:1958|AV-procd|sdf|7910|dock2
  -GOLD-   2272010 73D 1   1.00000     0.00000
 Structure written by MMmdl.
 47 48  0  0  0  0  0  0  0  0  3 V2000
  152.1192  141.8766  159.0512 C   0  0  0  0  0  0  0  0  0  0  0  0
  151.0372  140.9854  159.2563 O   0  0  0  0  0  0  0  0  0  0  0  0
  150.6140  140.3591  158.0569 C   0  0  0  0  0  0  0  0  0  0  0  0
  151.7749  139.5211  157.5011 C   0  0  0  0  0  0  0  0  0  0  0  0
  151.3014  138.4725  156.5922 N   0  0  0  0  0  0  0  0  0  0  0  0
  150.4265  137.5728  157.1764 N   0  0  0  0  0  0  0  0  0  0  0  0
  149.9513  136.5829  156.4911 C   0  0  0  0  0  0  0  0  0  0  0  0
  149.0328  135.5787  157.1128 C   0  0  0  0  0  0  0  0  0  0  0  0
  148.8718  135.6697  158.3364 O   0  0  0  0  0  0  0  0  0  0  0  0
  148.4339  134.6651  156.2905 N   0  5  0  0  0  0  0  0  0  0  0  0
  147.6750  134.9784  155.0763 C   0  0  0  0  0  0  0  0  0  0  0  0
  147.4392  133.6995  154.2283 C   0  0  2  0  0  0  0  0  0  0  0  0
  148.6910  132.8009  154.0719 C   0  0  0  0  0  0  0  0  0  0  0  0
  146.7517  134.0273  152.9375 N   0  3  0  0  0  0  0  0  0  0  0  0
  146.4005  132.8811  152.0544 C   0  0  0  0  0  0  0  0  0  0  0  0
  145.8931  133.4002  150.7014 C   0  0  0  0  0  0  0  0  0  0  0  0
  144.7615  134.2359  150.9135 O   0  0  0  0  0  0  0  0  0  0  0  0
  145.0799  135.3760  151.7027 C   0  0  0  0  0  0  0  0  0  0  0  0
  145.5870  134.9334  153.0864 C   0  0  0  0  0  0  0  0  0  0  0  0
  150.3179  136.4086  155.0927 C   0  0  0  0  0  0  0  0  0  0  0  0
  151.1644  137.3007  154.5337 C   0  0  0  0  0  0  0  0  0  0  0  0
  151.7188  138.4227  155.2917 C   0  0  0  0  0  0  0  0  0  0  0  0
  152.4924  139.2470  154.8047 O   0  0  0  0  0  0  0  0  0  0  0  0
  152.4023  142.3339  159.9991 H   0  0  0  0  0  0  0  0  0  0  0  0
  151.8473  142.6748  158.3596 H   0  0  0  0  0  0  0  0  0  0  0  0
  152.9913  141.3534  158.6568 H   0  0  0  0  0  0  0  0  0  0  0  0
  149.7505  139.7216  158.2532 H   0  0  0  0  0  0  0  0  0  0  0  0
  150.3081  141.1153  157.3321 H   0  0  0  0  0  0  0  0  0  0  0  0
  152.4916  140.1673  156.9916 H   0  0  0  0  0  0  0  0  0  0  0  0
  152.3267  139.0739  158.3302 H   0  0  0  0  0  0  0  0  0  0  0  0
  146.7116  135.4274  155.3179 H   0  0  0  0  0  0  0  0  0  0  0  0
  148.1808  135.7133  154.4483 H   0  0  0  0  0  0  0  0  0  0  0  0
  146.7411  133.1072  154.8215 H   0  0  0  0  0  0  0  0  0  0  0  0
  149.0805  132.4809  155.0401 H   0  0  0  0  0  0  0  0  0  0  0  0
  149.5069  133.2973  153.5439 H   0  0  0  0  0  0  0  0  0  0  0  0
  148.4472  131.8917  153.5215 H   0  0  0  0  0  0  0  0  0  0  0  0
  147.2664  132.2400  151.8898 H   0  0  0  0  0  0  0  0  0  0  0  0
  145.6281  132.2673  152.5190 H   0  0  0  0  0  0  0  0  0  0  0  0
  146.6768  133.9471  150.1746 H   0  0  0  0  0  0  0  0  0  0  0  0
  145.6024  132.5653  150.0639 H   0  0  0  0  0  0  0  0  0  0  0  0
  145.8279  135.9853  151.1930 H   0  0  0  0  0  0  0  0  0  0  0  0
  144.1870  135.9921  151.8094 H   0  0  0  0  0  0  0  0  0  0  0  0
  144.7950  134.4237  153.6374 H   0  0  0  0  0  0  0  0  0  0  0  0
  145.8687  135.8146  153.6639 H   0  0  0  0  0  0  0  0  0  0  0  0
  149.9239  135.5942  154.5025 H   0  0  0  0  0  0  0  0  0  0  0  0
  151.4407  137.1842  153.4960 H   0  0  0  0  0  0  0  0  0  0  0  0
  147.4415  134.5603  152.4261 H   0  0  0  0  0  0  0  0  0  0  0  0
  1  2  1  0  0  0  0
  1 24  1  0  0  0  0
  1 25  1  0  0  0  0
  1 26  1  0  0  0  0
  2  3  1  0  0  0  0
  3  4  1  0  0  0  0
  3 27  1  0  0  0  0
  3 28  1  0  0  0  0
  4  5  1  0  0  0  0
  4 29  1  0  0  0  0
  4 30  1  0  0  0  0
  5 22  1  0  0  0  0
  5  6  1  0  0  0  0
  6  7  2  0  0  0  0
  7  8  1  0  0  0  0
  7 20  1  0  0  0  0
  8  9  2  0  0  0  0
  8 10  1  0  0  0  0
 10 11  1  0  0  0  0
 11 12  1  0  0  0  0
 11 31  1  0  0  0  0
 11 32  1  0  0  0  0
 12 13  1  0  0  0  0
 12 14  1  0  0  0  0
 12 33  1  0  0  0  0
 13 34  1  0  0  0  0
 13 35  1  0  0  0  0
 13 36  1  0  0  0  0
 14 19  1  0  0  0  0
 14 15  1  0  0  0  0
 14 47  1  0  0  0  0
 15 16  1  0  0  0  0
 15 37  1  0  0  0  0
 15 38  1  0  0  0  0
 16 17  1  0  0  0  0
 16 39  1  0  0  0  0
 16 40  1  0  0  0  0
 17 18  1  0  0  0  0
 18 19  1  0  0  0  0
 18 41  1  0  0  0  0
 18 42  1  0  0  0  0
 19 43  1  0  0  0  0
 19 44  1  0  0  0  0
 20 21  2  0  0  0  0
 20 45  1  0  0  0  0
 21 22  1  0  0  0  0
 21 46  1  0  0  0  0
 22 23  2  0  0  0  0
M  CHG  1  10  -1
M  CHG  1  14   1
M  END
> <s_m_source_file>
AV-unprocessed.smi

> <i_m_source_file_index>
1958

> <i_lp_mmshare_version>
43012

> <i_f3d_flags>
0

> <s_epik_input>
W0NIM11PW0NIMl1bQ0gyXW4xbmMoW2NIXVtjSF1jMT1PKUMoPU8pW05IXVtDSDJdW0NASF0oW0NIM10pTjJbQ0gyXVtDSDJdT1tDSDJdW0NIMl0y

> <s_epik_cmdline>
J2VwaWtfcHl0aG9uJywgJy1waCcsICc3LjAnLCAnLXRuJywgJzgnLCAnLW1hJywgJzIwMCcsICctbWV0YWxfYmluZGluZycsICctaW1hZScsICc8aW5maWxlLm1hZT4nLCAnLW9tYWUnLCAnPG91dGZpbGUubWFlPic=

> <r_lp_tautomer_probability>
1

> <r_epik_Ionization_Penalty>
6.89388

> <r_epik_Ionization_Penalty_Charging>
6.89388

> <r_epik_Ionization_Penalty_Neutral>
1.08445e-11

> <r_epik_State_Penalty>
7.53214

> <r_epik_Charging_Adjusted_Penalty>
14.426

> <i_epik_Tot_Q>
0

> <i_epik_Tot_abs_Q>
2

> <r_epik_Metal_State_Penalty>
3.44743

> <b_epik_Metal_Only>
1

> <s_lp_Force_Field>
OPLS_2005

> <r_lp_Energy>
42.3217

> <b_lp_Chiralities_Consistent>
1

> <s_lp_Variant>
AV-unprocessed.smi:1958-5

> <Gold.Version>
5.8.1

> <Gold.Id.Protein>
6NUR|6NUR_protein|mol2

> <Gold.PLP.Fitness>
46.5242

> <Gold.PLP.PLP>
-34.3226

> <Gold.PLP.part.hbond>
-4.2251

> <Gold.PLP.part.metal>
0.0000

> <Gold.PLP.part.buried>
-4.8085

> <Gold.PLP.part.nonpolar>
-25.8300

> <Gold.PLP.part.repulsive>
0.1876

> <Gold.PLP.ligand.clash>
0.0000

> <Gold.PLP.ligand.torsion>
0.8186

> <Gold.PLP.Chemscore.Hbond>
4.4480

> <Gold.PLP.Chemscore.CHOScore>
0.0000

> <Gold.PLP.Chemscore.Metal>
0.0000

> <Gold.Chemscore.Hbonds>
donor molecule, donor type, donor heavy atom, donor atom, acceptor molecule, acceptor atom, score
      L1  H    14    47       P1  7948  0.75
      P1  H  7989  7998       L1    23  0.35

> <Gold.PLP.Chemscore.Internal.Correction>
0.4948

> <Gold.Rescore>
     Score         DG    S(hbond)    S(metal)    S(lipo)     H(rot)  DE(clash)    DE(int)     intcor
     16.87     -17.99       2.97        0.00      67.34       2.07       0.01       1.11       ----

> <Gold.Chemscore.Fitness>
16.8673

> <Gold.Chemscore.DG>
-17.9937

> <Gold.Chemscore.ZeroCoef>
-5.4800

> <Gold.Chemscore.Hbond>
2.9723

> <Gold.Chemscore.Metal>
0.0000

> <Gold.Chemscore.Lipo>
67.3373

> <Gold.Chemscore.Internal_Hbond>
0.0000

> <Gold.Chemscore.DEClash>
0.0126

> <Gold.Chemscore.DEInternal>
1.1138

> <Gold.Chemscore.Rot>
2.0673

> <Gold.Chemscore.Internal.Correction>
   9.000000E+99

> <Gold.Chemscore.Hbonds>
donor molecule, donor type, donor heavy atom, donor atom, acceptor molecule, acceptor atom, score
      L1  H    14    47       P1  7948  0.32
      P1  H  6896  6907       L1     9  0.01
      P1  H  7989  7998       L1    23  0.34
      P1  H  7997  8008       L1    23  0.02

> <Gold.Chemscore.Hbond.Weighted>
-9.9276

> <Gold.Chemscore.Metal.Weighted>
-0.0000

> <Gold.Chemscore.Lipo.Weighted>
-7.8785

> <Gold.Chemscore.Internal_Hbond.Weighted>
0.0000

> <Gold.Chemscore.DEClash.Weighted>
0.0126

> <Gold.Chemscore.DEInternal.Weighted>
1.1138

> <Gold.Chemscore.Rot.Weighted>
5.2923

> <Gold.Chemscore.Internal.Correction.Weighted>
   9.000000E+99

> <Gold.Protein.RotatedTorsions>
[ 6907 6896 6895 6894 ] final  -48.42 input  -60.11 | X-H torsion
[ 7974 7965 7964 7962 ] final  -35.07 input  175.53 | X-H torsion
[ 8008 7997 7996 7995 ] final   -1.25 input   59.86 | X-H torsion
[ 10167 10162 10161 10158 ] final    7.10 input  -65.29 | X-H torsion
[ 10718 10713 10712 10709 ] final  133.28 input   66.30 | X-H torsion
[ 10763 10752 10751 10750 ] final  -38.07 input  -60.55 | X-H torsion
[ 11005 11000 10999 10996 ] final  160.82 input  -57.11 | X-H torsion

> <Gold.Protein.ActiveResidues>
 VAL166  LYS551  ARG553  GLY616  TRP617  ASP618  TYR619  PRO620  LYS621  CYS622 
 ASP623  PHE694  ASN695  SER759  ASP760  ASP761  ALA762  ILE779  LEU786  VAL792 
 PHE793  MET794  SER795  GLU796  ALA797  LYS798  CYS799  TRP800  GLU811  SER814 

> <Gold.Protein.RotatedAtoms>
  150.8907  134.8310  159.7290 H   0  0  0  0  0  0  0  0  0  0  0  0  # atno 6907 bound_to 6896
  152.4835  134.4653  159.9628 H   0  0  0  0  0  0  0  0  0  0  0  0  # atno 6908 bound_to 6896
  151.4716  133.3529  159.2859 H   0  0  0  0  0  0  0  0  0  0  0  0  # atno 6909 bound_to 6896
  146.0777  140.6114  142.8923 H   0  0  0  0  0  0  0  0  0  0  0  0  # atno 7974 bound_to 7965
  154.6489  140.2564  155.7237 H   0  0  0  0  0  0  0  0  0  0  0  0  # atno 8008 bound_to 7997
  156.2565  140.2872  156.0835 H   0  0  0  0  0  0  0  0  0  0  0  0  # atno 8009 bound_to 7997
  155.1482  140.0381  157.2805 H   0  0  0  0  0  0  0  0  0  0  0  0  # atno 8010 bound_to 7997
  140.6391  143.7817  150.7402 H   0  0  0  0  0  0  0  0  0  0  0  0  # atno 10167 bound_to 10162
  157.4789  131.1084  150.9708 H   0  0  0  0  0  0  0  0  0  0  0  0  # atno 10718 bound_to 10713
  153.9068  135.6796  153.4752 H   0  0  0  0  0  0  0  0  0  0  0  0  # atno 10763 bound_to 10752
  153.1100  135.4787  154.9015 H   0  0  0  0  0  0  0  0  0  0  0  0  # atno 10764 bound_to 10752
  154.7547  135.3194  154.8446 H   0  0  0  0  0  0  0  0  0  0  0  0  # atno 10765 bound_to 10752
  140.2096  134.8277  157.3107 H   0  0  0  0  0  0  0  0  0  0  0  0  # atno 11005 bound_to 11000
  144.7272  140.4563  143.6964 LP  0  0  0  0  0  0  0  0  0  0  0  0  # atno 17320 bound_to 7965
  145.6275  139.1532  143.2988 LP  0  0  0  0  0  0  0  0  0  0  0  0  # atno 17321 bound_to 7965
  140.1444  143.4412  152.2172 LP  0  0  0  0  0  0  0  0  0  0  0  0  # atno 17342 bound_to 10162
  139.5600  144.7399  151.4181 LP  0  0  0  0  0  0  0  0  0  0  0  0  # atno 17343 bound_to 10162
  157.0447  130.5763  149.5361 LP  0  0  0  0  0  0  0  0  0  0  0  0  # atno 17370 bound_to 10713
  156.0111  130.5202  150.7991 LP  0  0  0  0  0  0  0  0  0  0  0  0  # atno 17371 bound_to 10713
  140.1965  134.4307  155.7686 LP  0  0  0  0  0  0  0  0  0  0  0  0  # atno 17394 bound_to 11000
  141.2226  133.7051  156.8113 LP  0  0  0  0  0  0  0  0  0  0  0  0  # atno 17395 bound_to 11000

$$$$
