AV-unprocessed.smi:2708|AV-procd|sdf|10458|dock4
  -GOLD-   2272014493D 1   1.00000     0.00000
 Structure written by MMmdl.
 35 35  0  0  0  0  0  0  0  0  2 V2000
  150.1960  140.4755  157.3567 C   0  0  0  0  0  0  0  0  0  0  0  0
  151.5026  139.6953  157.1338 C   0  0  2  0  0  0  0  0  0  0  0  0
  152.5823  140.2476  157.9464 N   0  0  0  0  0  0  0  0  0  0  0  0
  153.3559  139.5617  158.8025 C   0  0  0  0  0  0  0  0  0  0  0  0
  153.2410  138.3531  159.0063 O   0  0  0  0  0  0  0  0  0  0  0  0
  154.4256  140.3646  159.5443 C   0  0  0  0  0  0  0  0  0  0  0  0
  153.8525  141.6618  160.0370 C   0  0  0  0  0  0  0  0  0  0  0  0
  153.9679  142.1862  161.3000 C   0  0  0  0  0  0  0  0  0  0  0  0
  153.1588  143.7209  161.4412 S   0  0  0  0  0  0  0  0  0  0  0  0
  152.6712  143.5979  159.7467 C   0  0  0  0  0  0  0  0  0  0  0  0
  151.8564  144.6288  159.0028 C   0  0  0  0  0  0  0  0  0  0  0  0
  152.5693  145.0125  157.6916 C   0  0  0  0  0  0  0  0  0  0  0  0
  151.6487  145.8706  159.8915 C   0  0  0  0  0  0  0  0  0  0  0  0
  150.4610  144.0811  158.6327 C   0  0  0  0  0  0  0  0  0  0  0  0
  153.1089  142.4713  159.1728 N   0  0  0  0  0  0  0  0  0  0  0  0
  151.9324  139.6224  155.6655 C   0  0  0  0  0  0  0  0  0  0  0  0
  153.1353  139.3681  155.4330 O   0  0  0  0  0  0  0  0  0  0  0  0
  151.0530  139.8203  154.7987 O   0  5  0  0  0  0  0  0  0  0  0  0
  151.3295  138.6672  157.4584 H   0  0  0  0  0  0  0  0  0  0  0  0
  149.3884  140.0700  156.7462 H   0  0  0  0  0  0  0  0  0  0  0  0
  150.3122  141.5284  157.0980 H   0  0  0  0  0  0  0  0  0  0  0  0
  149.8770  140.4224  158.3979 H   0  0  0  0  0  0  0  0  0  0  0  0
  152.7541  141.2370  157.8385 H   0  0  0  0  0  0  0  0  0  0  0  0
  154.8129  139.7713  160.3739 H   0  0  0  0  0  0  0  0  0  0  0  0
  155.2682  140.5444  158.8753 H   0  0  0  0  0  0  0  0  0  0  0  0
  154.4858  141.7675  162.1501 H   0  0  0  0  0  0  0  0  0  0  0  0
  151.9942  145.7460  157.1254 H   0  0  0  0  0  0  0  0  0  0  0  0
  152.7162  144.1421  157.0509 H   0  0  0  0  0  0  0  0  0  0  0  0
  153.5504  145.4486  157.8829 H   0  0  0  0  0  0  0  0  0  0  0  0
  152.5989  146.3346  160.1583 H   0  0  0  0  0  0  0  0  0  0  0  0
  151.1373  145.6128  160.8198 H   0  0  0  0  0  0  0  0  0  0  0  0
  151.0498  146.6279  159.3841 H   0  0  0  0  0  0  0  0  0  0  0  0
  149.8736  144.8264  158.0950 H   0  0  0  0  0  0  0  0  0  0  0  0
  149.8901  143.8012  159.5189 H   0  0  0  0  0  0  0  0  0  0  0  0
  150.5305  143.2029  157.9895 H   0  0  0  0  0  0  0  0  0  0  0  0
  1  2  1  0  0  0  0
  1 20  1  0  0  0  0
  1 21  1  0  0  0  0
  1 22  1  0  0  0  0
  2 19  1  0  0  0  0
  2  3  1  0  0  0  0
  2 16  1  0  0  0  0
  3  4  1  0  0  0  0
  3 23  1  0  0  0  0
  4  5  2  0  0  0  0
  4  6  1  0  0  0  0
  6  7  1  0  0  0  0
  6 24  1  0  0  0  0
  6 25  1  0  0  0  0
  7 15  1  0  0  0  0
  7  8  2  0  0  0  0
  8  9  1  0  0  0  0
  8 26  1  0  0  0  0
  9 10  1  0  0  0  0
 10 11  1  0  0  0  0
 10 15  2  0  0  0  0
 11 12  1  0  0  0  0
 11 13  1  0  0  0  0
 11 14  1  0  0  0  0
 12 27  1  0  0  0  0
 12 28  1  0  0  0  0
 12 29  1  0  0  0  0
 13 30  1  0  0  0  0
 13 31  1  0  0  0  0
 13 32  1  0  0  0  0
 14 33  1  0  0  0  0
 14 34  1  0  0  0  0
 14 35  1  0  0  0  0
 16 17  2  0  0  0  0
 16 18  1  0  0  0  0
M  CHG  1  18  -1
M  END
> <s_m_source_file>
AV-unprocessed.smi

> <i_m_source_file_index>
2708

> <i_lp_mmshare_version>
43012

> <i_f3d_flags>
0

> <s_epik_input>
Tz1DKFtPSF0pW0NASF0oW0NIM10pW05IXUMoPU8pW0NIMl1jMVtjSF1zYyhuMSlDKFtDSDNdKShbQ0gzXSlbQ0gzXQ==

> <s_epik_cmdline>
J2VwaWtfcHl0aG9uJywgJy1waCcsICc3LjAnLCAnLXRuJywgJzgnLCAnLW1hJywgJzIwMCcsICctbWV0YWxfYmluZGluZycsICctaW1hZScsICc8aW5maWxlLm1hZT4nLCAnLW9tYWUnLCAnPG91dGZpbGUubWFlPic=

> <r_lp_tautomer_probability>
1

> <r_epik_Ionization_Penalty>
0.000214174

> <r_epik_Ionization_Penalty_Charging>
0.000167453

> <r_epik_Ionization_Penalty_Neutral>
4.67216e-05

> <r_epik_State_Penalty>
-0

> <r_epik_Charging_Adjusted_Penalty>
0.000167453

> <i_epik_Tot_Q>
-1

> <i_epik_Tot_abs_Q>
1

> <r_epik_Metal_State_Penalty>
-0

> <b_epik_Metal_Only>
0

> <s_lp_Force_Field>
OPLS_2005

> <r_lp_Energy>
-5.26793

> <b_lp_Chiralities_Consistent>
1

> <s_lp_Variant>
AV-unprocessed.smi:2708-1

> <Gold.Version>
5.8.1

> <Gold.Id.Protein>
6NUR|6NUR_protein|mol2

> <Gold.PLP.Fitness>
51.2406

> <Gold.PLP.PLP>
-44.6067

> <Gold.PLP.part.hbond>
-2.0000

> <Gold.PLP.part.metal>
0.0000

> <Gold.PLP.part.buried>
-7.6020

> <Gold.PLP.part.nonpolar>
-35.2087

> <Gold.PLP.part.repulsive>
0.1618

> <Gold.PLP.ligand.clash>
0.0000

> <Gold.PLP.ligand.torsion>
1.2248

> <Gold.PLP.Chemscore.Hbond>
3.0000

> <Gold.PLP.Chemscore.CHOScore>
0.0000

> <Gold.PLP.Chemscore.Metal>
0.0000

> <Gold.Chemscore.Hbonds>
donor molecule, donor type, donor heavy atom, donor atom, acceptor molecule, acceptor atom, score
      P1  H  7989  7998       L1    18  1.00
      P1  H  7997  8009       L1    17  2.00

> <Gold.PLP.Chemscore.Internal.Correction>
0.0835

> <Gold.Rescore>
     Score         DG    S(hbond)    S(metal)    S(lipo)     H(rot)  DE(clash)    DE(int)     intcor
     16.55     -19.21       1.95        0.00     110.85       2.25       0.00       2.66       ----

> <Gold.Chemscore.Fitness>
16.5517

> <Gold.Chemscore.DG>
-19.2112

> <Gold.Chemscore.ZeroCoef>
-5.4800

> <Gold.Chemscore.Hbond>
1.9510

> <Gold.Chemscore.Metal>
0.0000

> <Gold.Chemscore.Lipo>
110.8499

> <Gold.Chemscore.Internal_Hbond>
0.0000

> <Gold.Chemscore.DEClash>
0.0000

> <Gold.Chemscore.DEInternal>
2.6595

> <Gold.Chemscore.Rot>
2.2478

> <Gold.Chemscore.Internal.Correction>
   9.000000E+99

> <Gold.Chemscore.Hbonds>
donor molecule, donor type, donor heavy atom, donor atom, acceptor molecule, acceptor atom, score
      P1  H  7989  7998       L1    18  0.82
      P1  H  7997  8009       L1    17  0.98

> <Gold.Chemscore.Hbond.Weighted>
-6.5162

> <Gold.Chemscore.Metal.Weighted>
-0.0000

> <Gold.Chemscore.Lipo.Weighted>
-12.9694

> <Gold.Chemscore.Internal_Hbond.Weighted>
0.0000

> <Gold.Chemscore.DEClash.Weighted>
0.0000

> <Gold.Chemscore.DEInternal.Weighted>
2.6595

> <Gold.Chemscore.Rot.Weighted>
5.7544

> <Gold.Chemscore.Internal.Correction.Weighted>
   9.000000E+99

> <Gold.Protein.RotatedTorsions>
[ 6907 6896 6895 6894 ] final   21.38 input  -60.11 | X-H torsion
[ 7974 7965 7964 7962 ] final -177.02 input  175.53 | X-H torsion
[ 8008 7997 7996 7995 ] final -146.98 input   59.86 | X-H torsion
[ 10167 10162 10161 10158 ] final  110.05 input  -65.29 | X-H torsion
[ 10718 10713 10712 10709 ] final    4.76 input   66.30 | X-H torsion
[ 10763 10752 10751 10750 ] final -124.80 input  -60.55 | X-H torsion
[ 11005 11000 10999 10996 ] final  -81.05 input  -57.11 | X-H torsion

> <Gold.Protein.ActiveResidues>
 VAL166  LYS551  ARG553  GLY616  TRP617  ASP618  TYR619  PRO620  LYS621  CYS622 
 ASP623  PHE694  ASN695  SER759  ASP760  ASP761  ALA762  ILE779  LEU786  VAL792 
 PHE793  MET794  SER795  GLU796  ALA797  LYS798  CYS799  TRP800  GLU811  SER814 

> <Gold.Protein.RotatedAtoms>
  151.9110  135.0339  160.0514 H   0  0  0  0  0  0  0  0  0  0  0  0  # atno 6907 bound_to 6896
  152.2280  133.5031  159.5208 H   0  0  0  0  0  0  0  0  0  0  0  0  # atno 6908 bound_to 6896
  150.7017  134.1171  159.4064 H   0  0  0  0  0  0  0  0  0  0  0  0  # atno 6909 bound_to 6896
  144.7127  140.1082  143.6412 H   0  0  0  0  0  0  0  0  0  0  0  0  # atno 7974 bound_to 7965
  155.5681  140.0631  157.2813 H   0  0  0  0  0  0  0  0  0  0  0  0  # atno 8008 bound_to 7997
  154.4369  140.1874  156.0897 H   0  0  0  0  0  0  0  0  0  0  0  0  # atno 8009 bound_to 7997
  156.0397  140.3297  155.7233 H   0  0  0  0  0  0  0  0  0  0  0  0  # atno 8010 bound_to 7997
  139.6718  144.7125  151.1674 H   0  0  0  0  0  0  0  0  0  0  0  0  # atno 10167 bound_to 10162
  156.8973  130.5709  149.5648 H   0  0  0  0  0  0  0  0  0  0  0  0  # atno 10718 bound_to 10713
  154.8728  135.4051  154.3165 H   0  0  0  0  0  0  0  0  0  0  0  0  # atno 10763 bound_to 10752
  153.4000  135.7017  153.6438 H   0  0  0  0  0  0  0  0  0  0  0  0  # atno 10764 bound_to 10752
  153.5185  135.3692  155.2591 H   0  0  0  0  0  0  0  0  0  0  0  0  # atno 10765 bound_to 10752
  141.1667  133.7178  156.8365 H   0  0  0  0  0  0  0  0  0  0  0  0  # atno 11005 bound_to 11000
  145.9478  139.2713  143.1230 LP  0  0  0  0  0  0  0  0  0  0  0  0  # atno 17320 bound_to 7965
  145.9355  140.9017  143.0334 LP  0  0  0  0  0  0  0  0  0  0  0  0  # atno 17321 bound_to 7965
  140.7621  143.5832  150.8873 LP  0  0  0  0  0  0  0  0  0  0  0  0  # atno 17342 bound_to 10162
  139.9498  143.6285  152.3032 LP  0  0  0  0  0  0  0  0  0  0  0  0  # atno 17343 bound_to 10162
  156.0599  130.5654  150.9171 LP  0  0  0  0  0  0  0  0  0  0  0  0  # atno 17370 bound_to 10713
  157.6047  131.0939  150.8899 LP  0  0  0  0  0  0  0  0  0  0  0  0  # atno 17371 bound_to 10713
  140.2014  134.8894  157.3173 LP  0  0  0  0  0  0  0  0  0  0  0  0  # atno 17394 bound_to 11000
  140.2184  134.4053  155.7578 LP  0  0  0  0  0  0  0  0  0  0  0  0  # atno 17395 bound_to 11000

$$$$
