AV-unprocessed.smi:2083|AV-procd|sdf|8503|dock8
  -GOLD-   2272011213D 1   1.00000     0.00000
 Structure written by MMmdl.
 44 45  0  0  0  0  0  0  0  0  3 V2000
  146.6566  138.7131  157.6958 C   0  0  0  0  0  0  0  0  0  0  0  0
  147.7876  138.1147  158.4599 C   0  0  0  0  0  0  0  0  0  0  0  0
  149.0762  137.8111  158.1233 C   0  0  0  0  0  0  0  0  0  0  0  0
  149.6030  137.2586  159.3226 C   0  0  0  0  0  0  0  0  0  0  0  0
  150.8546  136.8093  159.5020 N   0  5  0  0  0  0  0  0  0  0  0  0
  151.8913  137.4254  158.8907 C   0  0  0  0  0  0  0  0  0  0  0  0
  152.5387  136.9945  157.9334 O   0  0  0  0  0  0  0  0  0  0  0  0
  152.1957  138.6200  159.4177 N   0  0  0  0  0  0  0  0  0  0  0  0
  153.2563  139.5100  158.9541 C   0  0  0  0  0  0  0  0  0  0  0  0
  153.3062  140.8506  159.7392 C   0  0  1  0  0  0  0  0  0  0  0  0
  154.7705  141.3125  159.9157 C   0  0  0  0  0  0  0  0  0  0  0  0
  152.4974  141.9558  159.1273 N   0  3  1  0  0  0  0  0  0  0  0  0
  151.0701  141.6383  158.8287 C   0  0  0  0  0  0  0  0  0  0  0  0
  150.3794  142.7864  158.0734 C   0  0  0  0  0  0  0  0  0  0  0  0
  150.4981  144.1126  158.8329 C   0  0  0  0  0  0  0  0  0  0  0  0
  151.9645  144.4186  159.1778 C   0  0  2  0  0  0  0  0  0  0  0  0
  152.7910  144.8605  157.9571 C   0  0  0  0  0  0  0  0  0  0  0  0
  152.6009  143.2214  159.9110 C   0  0  0  0  0  0  0  0  0  0  0  0
  148.7182  137.2459  160.3052 N   0  0  0  0  0  0  0  0  0  0  0  0
  147.5491  137.7882  159.7584 O   0  0  0  0  0  0  0  0  0  0  0  0
  146.8570  139.7604  157.4700 H   0  0  0  0  0  0  0  0  0  0  0  0
  145.7269  138.6605  158.2628 H   0  0  0  0  0  0  0  0  0  0  0  0
  146.5070  138.1856  156.7537 H   0  0  0  0  0  0  0  0  0  0  0  0
  149.5635  137.9562  157.1708 H   0  0  0  0  0  0  0  0  0  0  0  0
  151.6444  138.9330  160.2037 H   0  0  0  0  0  0  0  0  0  0  0  0
  154.2032  138.9786  159.0551 H   0  0  0  0  0  0  0  0  0  0  0  0
  153.0982  139.6756  157.8874 H   0  0  0  0  0  0  0  0  0  0  0  0
  152.8888  140.6556  160.7283 H   0  0  0  0  0  0  0  0  0  0  0  0
  155.3736  140.5600  160.4241 H   0  0  0  0  0  0  0  0  0  0  0  0
  154.8558  142.2193  160.5120 H   0  0  0  0  0  0  0  0  0  0  0  0
  155.2370  141.5100  158.9503 H   0  0  0  0  0  0  0  0  0  0  0  0
  150.9911  140.7571  158.1933 H   0  0  0  0  0  0  0  0  0  0  0  0
  150.5403  141.4200  159.7577 H   0  0  0  0  0  0  0  0  0  0  0  0
  150.8176  142.8871  157.0801 H   0  0  0  0  0  0  0  0  0  0  0  0
  149.3275  142.5454  157.9166 H   0  0  0  0  0  0  0  0  0  0  0  0
  150.0619  144.9254  158.2511 H   0  0  0  0  0  0  0  0  0  0  0  0
  149.9169  144.0490  159.7540 H   0  0  0  0  0  0  0  0  0  0  0  0
  151.9635  145.2624  159.8692 H   0  0  0  0  0  0  0  0  0  0  0  0
  152.8782  144.0681  157.2139 H   0  0  0  0  0  0  0  0  0  0  0  0
  153.8014  145.1442  158.2531 H   0  0  0  0  0  0  0  0  0  0  0  0
  152.3388  145.7247  157.4693 H   0  0  0  0  0  0  0  0  0  0  0  0
  152.1068  143.0794  160.8738 H   0  0  0  0  0  0  0  0  0  0  0  0
  153.6383  143.4614  160.1385 H   0  0  0  0  0  0  0  0  0  0  0  0
  152.9231  142.1356  158.2294 H   0  0  0  0  0  0  0  0  0  0  0  0
  1  2  1  0  0  0  0
  1 21  1  0  0  0  0
  1 22  1  0  0  0  0
  1 23  1  0  0  0  0
  2 20  1  0  0  0  0
  2  3  2  0  0  0  0
  3  4  1  0  0  0  0
  3 24  1  0  0  0  0
  4  5  1  0  0  0  0
  4 19  2  0  0  0  0
  5  6  1  0  0  0  0
  6  7  2  0  0  0  0
  6  8  1  0  0  0  0
  8  9  1  0  0  0  0
  8 25  1  0  0  0  0
  9 10  1  0  0  0  0
  9 26  1  0  0  0  0
  9 27  1  0  0  0  0
 10 11  1  0  0  0  0
 10 12  1  0  0  0  0
 10 28  1  0  0  0  0
 11 29  1  0  0  0  0
 11 30  1  0  0  0  0
 11 31  1  0  0  0  0
 12 18  1  0  0  0  0
 12 13  1  0  0  0  0
 12 44  1  0  0  0  0
 13 14  1  0  0  0  0
 13 32  1  0  0  0  0
 13 33  1  0  0  0  0
 14 15  1  0  0  0  0
 14 34  1  0  0  0  0
 14 35  1  0  0  0  0
 15 16  1  0  0  0  0
 15 36  1  0  0  0  0
 15 37  1  0  0  0  0
 16 17  1  0  0  0  0
 16 18  1  0  0  0  0
 16 38  1  0  0  0  0
 17 39  1  0  0  0  0
 17 40  1  0  0  0  0
 17 41  1  0  0  0  0
 18 42  1  0  0  0  0
 18 43  1  0  0  0  0
 19 20  1  0  0  0  0
M  CHG  1   5  -1
M  CHG  1  12   1
M  END
> <s_m_source_file>
AV-unprocessed.smi

> <i_m_source_file_index>
2083

> <i_lp_mmshare_version>
43012

> <i_f3d_flags>
0

> <s_epik_input>
W0NIM11jMVtjSF1jKG5vMSlbTkhdQyg9TylbTkhdW0NIMl1bQ0BIXShbQ0gzXSlOMltDSDJdW0NIMl1bQ0gyXVtDQEBIXShbQ0gzXSlbQ0gyXTI=

> <s_epik_cmdline>
J2VwaWtfcHl0aG9uJywgJy1waCcsICc3LjAnLCAnLXRuJywgJzgnLCAnLW1hJywgJzIwMCcsICctbWV0YWxfYmluZGluZycsICctaW1hZScsICc8aW5maWxlLm1hZT4nLCAnLW9tYWUnLCAnPG91dGZpbGUubWFlPic=

> <r_epik_Ionization_Penalty>
6.22434

> <r_epik_Ionization_Penalty_Charging>
6.22425

> <r_epik_Ionization_Penalty_Neutral>
9.62407e-05

> <r_epik_State_Penalty>
6.22423

> <r_epik_Charging_Adjusted_Penalty>
12.4485

> <i_epik_Tot_Q>
0

> <i_epik_Tot_abs_Q>
2

> <r_epik_Metal_State_Penalty>
2.16764

> <b_epik_Metal_Only>
1

> <s_lp_Force_Field>
OPLS_2005

> <r_lp_Energy>
12.2098

> <b_lp_Chiralities_Consistent>
1

> <s_lp_Variant>
AV-unprocessed.smi:2083-14

> <Gold.Version>
5.8.1

> <Gold.Id.Protein>
6NUR|6NUR_protein|mol2

> <Gold.PLP.Fitness>
41.4792

> <Gold.PLP.PLP>
-34.5430

> <Gold.PLP.part.hbond>
-3.5638

> <Gold.PLP.part.metal>
0.0000

> <Gold.PLP.part.buried>
-5.8617

> <Gold.PLP.part.nonpolar>
-26.1084

> <Gold.PLP.part.repulsive>
0.1882

> <Gold.PLP.ligand.clash>
0.0000

> <Gold.PLP.ligand.torsion>
1.4222

> <Gold.PLP.Chemscore.Hbond>
3.2270

> <Gold.PLP.Chemscore.CHOScore>
0.0000

> <Gold.PLP.Chemscore.Metal>
0.0000

> <Gold.Chemscore.Hbonds>
donor molecule, donor type, donor heavy atom, donor atom, acceptor molecule, acceptor atom, score
      P1  H  6896  6907       L1     5  2.00
      P1  H  6931  6943       L1    19  0.59
      P1  H  6934  6947       L1    20  0.69

> <Gold.PLP.Chemscore.Internal.Correction>
0.0998

> <Gold.Rescore>
     Score         DG    S(hbond)    S(metal)    S(lipo)     H(rot)  DE(clash)    DE(int)     intcor
     15.64     -17.19       1.53        0.00      89.65       1.52       0.01       1.53       ----

> <Gold.Chemscore.Fitness>
15.6445

> <Gold.Chemscore.DG>
-17.1854

> <Gold.Chemscore.ZeroCoef>
-5.4800

> <Gold.Chemscore.Hbond>
1.5283

> <Gold.Chemscore.Metal>
0.0000

> <Gold.Chemscore.Lipo>
89.6545

> <Gold.Chemscore.Internal_Hbond>
0.0000

> <Gold.Chemscore.DEClash>
0.0132

> <Gold.Chemscore.DEInternal>
1.5277

> <Gold.Chemscore.Rot>
1.5190

> <Gold.Chemscore.Internal.Correction>
   9.000000E+99

> <Gold.Chemscore.Hbonds>
donor molecule, donor type, donor heavy atom, donor atom, acceptor molecule, acceptor atom, score
      P1  H  6896  6907       L1     5  0.81
      P1  H  6931  6943       L1    19  0.29
      P1  H  6934  6947       L1    20  0.20

> <Gold.Chemscore.Hbond.Weighted>
-5.1044

> <Gold.Chemscore.Metal.Weighted>
-0.0000

> <Gold.Chemscore.Lipo.Weighted>
-10.4896

> <Gold.Chemscore.Internal_Hbond.Weighted>
0.0000

> <Gold.Chemscore.DEClash.Weighted>
0.0132

> <Gold.Chemscore.DEInternal.Weighted>
1.5277

> <Gold.Chemscore.Rot.Weighted>
3.8886

> <Gold.Chemscore.Internal.Correction.Weighted>
   9.000000E+99

> <Gold.Protein.RotatedTorsions>
[ 6907 6896 6895 6894 ] final  -22.77 input  -60.11 | X-H torsion
[ 7974 7965 7964 7962 ] final  -71.66 input  175.53 | X-H torsion
[ 8008 7997 7996 7995 ] final  -38.41 input   59.86 | X-H torsion
[ 10167 10162 10161 10158 ] final   48.67 input  -65.29 | X-H torsion
[ 10718 10713 10712 10709 ] final   34.97 input   66.30 | X-H torsion
[ 10763 10752 10751 10750 ] final  126.10 input  -60.55 | X-H torsion
[ 11005 11000 10999 10996 ] final -110.89 input  -57.11 | X-H torsion

> <Gold.Protein.ActiveResidues>
 VAL166  LYS551  ARG553  GLY616  TRP617  ASP618  TYR619  PRO620  LYS621  CYS622 
 ASP623  PHE694  ASN695  SER759  ASP760  ASP761  ALA762  ILE779  LEU786  VAL792 
 PHE793  MET794  SER795  GLU796  ALA797  LYS798  CYS799  TRP800  GLU811  SER814 

> <Gold.Protein.RotatedAtoms>
  151.2138  135.0492  159.8921 H   0  0  0  0  0  0  0  0  0  0  0  0  # atno 6907 bound_to 6896
  152.5422  134.0715  159.8206 H   0  0  0  0  0  0  0  0  0  0  0  0  # atno 6908 bound_to 6896
  151.0872  133.5296  159.2649 H   0  0  0  0  0  0  0  0  0  0  0  0  # atno 6909 bound_to 6896
  145.6752  140.9207  143.0862 H   0  0  0  0  0  0  0  0  0  0  0  0  # atno 7974 bound_to 7965
  154.4037  140.1578  156.2695 H   0  0  0  0  0  0  0  0  0  0  0  0  # atno 8008 bound_to 7997
  155.8966  140.3435  155.5973 H   0  0  0  0  0  0  0  0  0  0  0  0  # atno 8009 bound_to 7997
  155.7497  140.0803  157.2197 H   0  0  0  0  0  0  0  0  0  0  0  0  # atno 8010 bound_to 7997
  140.2909  144.3047  150.6241 H   0  0  0  0  0  0  0  0  0  0  0  0  # atno 10167 bound_to 10162
  157.3169  130.7428  149.6760 H   0  0  0  0  0  0  0  0  0  0  0  0  # atno 10718 bound_to 10713
  153.6880  135.3303  155.3195 H   0  0  0  0  0  0  0  0  0  0  0  0  # atno 10763 bound_to 10752
  154.8448  135.4425  154.1538 H   0  0  0  0  0  0  0  0  0  0  0  0  # atno 10764 bound_to 10752
  153.2572  135.6987  153.7694 H   0  0  0  0  0  0  0  0  0  0  0  0  # atno 10765 bound_to 10752
  141.0766  133.9291  157.2377 H   0  0  0  0  0  0  0  0  0  0  0  0  # atno 11005 bound_to 11000
  144.7044  139.8624  143.7434 LP  0  0  0  0  0  0  0  0  0  0  0  0  # atno 17320 bound_to 7965
  146.1012  139.4007  143.0346 LP  0  0  0  0  0  0  0  0  0  0  0  0  # atno 17321 bound_to 7965
  140.5733  143.2179  151.7560 LP  0  0  0  0  0  0  0  0  0  0  0  0  # atno 17342 bound_to 10162
  139.4938  144.4186  152.0003 LP  0  0  0  0  0  0  0  0  0  0  0  0  # atno 17343 bound_to 10162
  155.9682  130.4234  150.4563 LP  0  0  0  0  0  0  0  0  0  0  0  0  # atno 17370 bound_to 10713
  157.2572  131.0559  151.2343 LP  0  0  0  0  0  0  0  0  0  0  0  0  # atno 17371 bound_to 10713
  139.9578  135.0161  156.9177 LP  0  0  0  0  0  0  0  0  0  0  0  0  # atno 17394 bound_to 11000
  140.5561  134.0580  155.7384 LP  0  0  0  0  0  0  0  0  0  0  0  0  # atno 17395 bound_to 11000

$$$$
