AV-unprocessed.smi:2732|AV-procd|sdf|10532|dock7
  -GOLD-   2272014573D 1   1.00000     0.00000
 Structure written by MMmdl.
 34 35  0  0  0  0  0  0  0  0  1 V2000
  151.4915  144.3581  157.6751 C   0  0  0  0  0  0  0  0  0  0  0  0
  150.6713  143.3785  158.5273 C   0  0  2  0  0  0  0  0  0  0  0  0
  151.4407  143.0744  159.6877 O   0  0  0  0  0  0  0  0  0  0  0  0
  152.7680  142.6267  159.4403 C   0  0  0  0  0  0  0  0  0  0  0  0
  153.1111  141.5506  160.4475 C   0  0  0  0  0  0  0  0  0  0  0  0
  153.7760  141.9105  161.7567 C   0  0  0  0  0  0  0  0  0  0  0  0
  154.5517  141.1669  160.6992 C   0  0  0  0  0  0  0  0  0  0  0  0
  150.3508  142.0914  157.7498 C   0  0  0  0  0  0  0  0  0  0  0  0
  150.6963  141.0018  158.2067 O   0  0  0  0  0  0  0  0  0  0  0  0
  149.6969  142.2587  156.5855 N   0  0  0  0  0  0  0  0  0  0  0  0
  149.2276  141.2654  155.6843 C   0  0  0  0  0  0  0  0  0  0  0  0
  149.7664  139.9598  155.5910 C   0  0  0  0  0  0  0  0  0  0  0  0
  149.1969  139.0524  154.6767 C   0  0  0  0  0  0  0  0  0  0  0  0
  148.1045  139.4786  153.8957 C   0  0  0  0  0  0  0  0  0  0  0  0
  147.5152  138.6070  152.9835 N   0  0  0  0  0  0  0  0  0  0  0  0
  147.5736  140.7160  153.9845 N   0  0  0  0  0  0  0  0  0  0  0  0
  148.1243  141.5809  154.8635 C   0  0  0  0  0  0  0  0  0  0  0  0
  150.9667  144.6211  156.7559 H   0  0  0  0  0  0  0  0  0  0  0  0
  152.4604  143.9385  157.4007 H   0  0  0  0  0  0  0  0  0  0  0  0
  151.6776  145.2822  158.2229 H   0  0  0  0  0  0  0  0  0  0  0  0
  149.7458  143.8749  158.8267 H   0  0  0  0  0  0  0  0  0  0  0  0
  152.8447  142.2092  158.4356 H   0  0  0  0  0  0  0  0  0  0  0  0
  153.4904  143.4400  159.5212 H   0  0  0  0  0  0  0  0  0  0  0  0
  152.3894  140.7367  160.4851 H   0  0  0  0  0  0  0  0  0  0  0  0
  154.0297  142.9553  161.9257 H   0  0  0  0  0  0  0  0  0  0  0  0
  153.4710  141.3566  162.6421 H   0  0  0  0  0  0  0  0  0  0  0  0
  154.7681  140.1161  160.8809 H   0  0  0  0  0  0  0  0  0  0  0  0
  155.3243  141.7167  160.1651 H   0  0  0  0  0  0  0  0  0  0  0  0
  149.5631  143.2142  156.2872 H   0  0  0  0  0  0  0  0  0  0  0  0
  150.5878  139.6325  156.2094 H   0  0  0  0  0  0  0  0  0  0  0  0
  149.5901  138.0506  154.5852 H   0  0  0  0  0  0  0  0  0  0  0  0
  147.8510  137.6625  152.8609 H   0  0  0  0  0  0  0  0  0  0  0  0
  146.7267  138.8908  152.4199 H   0  0  0  0  0  0  0  0  0  0  0  0
  147.6689  142.5594  154.9096 H   0  0  0  0  0  0  0  0  0  0  0  0
  1  2  1  0  0  0  0
  1 18  1  0  0  0  0
  1 19  1  0  0  0  0
  1 20  1  0  0  0  0
  2  3  1  0  0  0  0
  2  8  1  0  0  0  0
  2 21  1  0  0  0  0
  3  4  1  0  0  0  0
  4  5  1  0  0  0  0
  4 22  1  0  0  0  0
  4 23  1  0  0  0  0
  5  7  1  0  0  0  0
  5  6  1  0  0  0  0
  5 24  1  0  0  0  0
  6  7  1  0  0  0  0
  6 25  1  0  0  0  0
  6 26  1  0  0  0  0
  7 27  1  0  0  0  0
  7 28  1  0  0  0  0
  8  9  2  0  0  0  0
  8 10  1  0  0  0  0
 10 11  1  0  0  0  0
 10 29  1  0  0  0  0
 11 17  1  0  0  0  0
 11 12  2  0  0  0  0
 12 13  1  0  0  0  0
 12 30  1  0  0  0  0
 13 14  2  0  0  0  0
 13 31  1  0  0  0  0
 14 15  1  0  0  0  0
 14 16  1  0  0  0  0
 15 32  1  0  0  0  0
 15 33  1  0  0  0  0
 16 17  2  0  0  0  0
 17 34  1  0  0  0  0
M  END
> <s_m_source_file>
AV-unprocessed.smi

> <i_m_source_file_index>
2732

> <i_lp_mmshare_version>
43012

> <i_f3d_flags>
0

> <s_epik_input>
W0NIMl0xW0NIMl1bQ0hdMVtDSDJdT1tDQEBIXShbQ0gzXSlDKD1PKVtOSF1jMltjSF1bY0hdYyhbTkgyXSluW2NIXTI=

> <s_epik_cmdline>
J2VwaWtfcHl0aG9uJywgJy1waCcsICc3LjAnLCAnLXRuJywgJzgnLCAnLW1hJywgJzIwMCcsICctbWV0YWxfYmluZGluZycsICctaW1hZScsICc8aW5maWxlLm1hZT4nLCAnLW9tYWUnLCAnPG91dGZpbGUubWFlPic=

> <r_lp_tautomer_probability>
1

> <r_epik_Ionization_Penalty>
0.0764773

> <r_epik_Ionization_Penalty_Charging>
0

> <r_epik_Ionization_Penalty_Neutral>
0.0764773

> <r_epik_State_Penalty>
0.0673619

> <r_epik_Charging_Adjusted_Penalty>
0.0673619

> <i_epik_Tot_Q>
0

> <i_epik_Tot_abs_Q>
0

> <r_epik_Metal_State_Penalty>
0.0594329

> <b_epik_Metal_Only>
0

> <s_lp_Force_Field>
OPLS_2005

> <r_lp_Energy>
19.1894

> <b_lp_Chiralities_Consistent>
1

> <s_lp_Variant>
AV-unprocessed.smi:2732-1

> <Gold.Version>
5.8.1

> <Gold.Id.Protein>
6NUR|6NUR_protein|mol2

> <Gold.PLP.Fitness>
45.8993

> <Gold.PLP.PLP>
-37.8269

> <Gold.PLP.part.hbond>
-3.0000

> <Gold.PLP.part.metal>
0.0000

> <Gold.PLP.part.buried>
-2.6388

> <Gold.PLP.part.nonpolar>
-33.5571

> <Gold.PLP.part.repulsive>
0.5652

> <Gold.PLP.ligand.clash>
0.0000

> <Gold.PLP.ligand.torsion>
0.7324

> <Gold.PLP.Chemscore.Hbond>
2.0000

> <Gold.PLP.Chemscore.CHOScore>
0.9932

> <Gold.PLP.Chemscore.Metal>
0.0000

> <Gold.Chemscore.Hbonds>
donor molecule, donor type, donor heavy atom, donor atom, acceptor molecule, acceptor atom, score
      L1  H    10    29       P1  8028  1.00
      L1  H    15    32       P1  7948  0.94
      L1  C    17    34       P1  8028  0.85

> <Gold.PLP.Chemscore.Internal.Correction>
0.5577

> <Gold.Rescore>
     Score         DG    S(hbond)    S(metal)    S(lipo)     H(rot)  DE(clash)    DE(int)     intcor
     14.39     -17.85       1.98        0.00      87.02       1.72       0.08       3.38       ----

> <Gold.Chemscore.Fitness>
14.3864

> <Gold.Chemscore.DG>
-17.8539

> <Gold.Chemscore.ZeroCoef>
-5.4800

> <Gold.Chemscore.Hbond>
1.9777

> <Gold.Chemscore.Metal>
0.0000

> <Gold.Chemscore.Lipo>
87.0164

> <Gold.Chemscore.Internal_Hbond>
0.0000

> <Gold.Chemscore.DEClash>
0.0830

> <Gold.Chemscore.DEInternal>
3.3845

> <Gold.Chemscore.Rot>
1.7237

> <Gold.Chemscore.Internal.Correction>
   9.000000E+99

> <Gold.Chemscore.Hbonds>
donor molecule, donor type, donor heavy atom, donor atom, acceptor molecule, acceptor atom, score
      L1  H    10    29       P1  8028  1.00
      L1  H    15    32       P1  7948  0.86

> <Gold.Chemscore.Hbond.Weighted>
-6.6056

> <Gold.Chemscore.Metal.Weighted>
-0.0000

> <Gold.Chemscore.Lipo.Weighted>
-10.1809

> <Gold.Chemscore.Internal_Hbond.Weighted>
0.0000

> <Gold.Chemscore.DEClash.Weighted>
0.0830

> <Gold.Chemscore.DEInternal.Weighted>
3.3845

> <Gold.Chemscore.Rot.Weighted>
4.4127

> <Gold.Chemscore.Internal.Correction.Weighted>
   9.000000E+99

> <Gold.Protein.RotatedTorsions>
[ 6907 6896 6895 6894 ] final  -29.07 input  -60.11 | X-H torsion
[ 7974 7965 7964 7962 ] final    1.12 input  175.53 | X-H torsion
[ 8008 7997 7996 7995 ] final    3.12 input   59.86 | X-H torsion
[ 10167 10162 10161 10158 ] final  121.23 input  -65.29 | X-H torsion
[ 10718 10713 10712 10709 ] final -164.62 input   66.30 | X-H torsion
[ 10763 10752 10751 10750 ] final   17.37 input  -60.55 | X-H torsion
[ 11005 11000 10999 10996 ] final   52.39 input  -57.11 | X-H torsion

> <Gold.Protein.ActiveResidues>
 VAL166  LYS551  ARG553  GLY616  TRP617  ASP618  TYR619  PRO620  LYS621  CYS622 
 ASP623  PHE694  ASN695  SER759  ASP760  ASP761  ALA762  ILE779  LEU786  VAL792 
 PHE793  MET794  SER795  GLU796  ALA797  LYS798  CYS799  TRP800  GLU811  SER814 

> <Gold.Protein.RotatedAtoms>
  151.1243  135.0096  159.8552 H   0  0  0  0  0  0  0  0  0  0  0  0  # atno 6907 bound_to 6896
  152.5449  134.1686  159.8597 H   0  0  0  0  0  0  0  0  0  0  0  0  # atno 6908 bound_to 6896
  151.1747  133.4717  159.2627 H   0  0  0  0  0  0  0  0  0  0  0  0  # atno 6909 bound_to 6896
  146.2438  140.1035  142.8346 H   0  0  0  0  0  0  0  0  0  0  0  0  # atno 7974 bound_to 7965
  154.6998  140.2670  155.6731 H   0  0  0  0  0  0  0  0  0  0  0  0  # atno 8008 bound_to 7997
  156.2761  140.2774  156.1528 H   0  0  0  0  0  0  0  0  0  0  0  0  # atno 8009 bound_to 7997
  155.0780  140.0372  157.2620 H   0  0  0  0  0  0  0  0  0  0  0  0  # atno 8010 bound_to 7997
  139.5933  144.7033  151.3238 H   0  0  0  0  0  0  0  0  0  0  0  0  # atno 10167 bound_to 10162
  156.6417  130.8971  151.2997 H   0  0  0  0  0  0  0  0  0  0  0  0  # atno 10718 bound_to 10713
  153.1345  135.6747  153.9125 H   0  0  0  0  0  0  0  0  0  0  0  0  # atno 10763 bound_to 10752
  153.8601  135.3082  155.3438 H   0  0  0  0  0  0  0  0  0  0  0  0  # atno 10764 bound_to 10752
  154.7735  135.4926  153.9780 H   0  0  0  0  0  0  0  0  0  0  0  0  # atno 10765 bound_to 10752
  140.0853  134.5282  155.8905 H   0  0  0  0  0  0  0  0  0  0  0  0  # atno 11005 bound_to 11000
  145.0548  140.9044  143.4974 LP  0  0  0  0  0  0  0  0  0  0  0  0  # atno 17320 bound_to 7965
  145.1139  139.2738  143.5623 LP  0  0  0  0  0  0  0  0  0  0  0  0  # atno 17321 bound_to 7965
  140.7191  143.7186  150.7714 LP  0  0  0  0  0  0  0  0  0  0  0  0  # atno 17342 bound_to 10162
  140.0746  143.5027  152.2562 LP  0  0  0  0  0  0  0  0  0  0  0  0  # atno 17343 bound_to 10162
  157.7169  130.9508  150.1288 LP  0  0  0  0  0  0  0  0  0  0  0  0  # atno 17370 bound_to 10713
  156.2154  130.3670  149.8620 LP  0  0  0  0  0  0  0  0  0  0  0  0  # atno 17371 bound_to 10713
  141.2060  133.6652  156.6218 LP  0  0  0  0  0  0  0  0  0  0  0  0  # atno 17394 bound_to 11000
  140.3429  134.7834  157.4411 LP  0  0  0  0  0  0  0  0  0  0  0  0  # atno 17395 bound_to 11000

$$$$
