#       Name:                AV-unprocessed.smi:2446
#       Creating user name   scv26
#       Creation time:       Fri Mar 27 13:28:12 2020


#       File generated by GOLD software.
#

@<TRIPOS>MOLECULE
AV-unprocessed.smi:2446
    42    43     1
SMALL
NO_CHARGES


@<TRIPOS>ATOM
      1 ****        -2.5120  -1.8130  -0.5974 C.3            1 S1                 0.0000
      2 ****        -3.2950  -0.5113  -0.6180 C.ar           1 S1                 0.0000
      3 ****        -4.7063  -0.5496  -0.6065 C.ar           1 S1                 0.0000
      4 ****        -5.4159   0.5981  -0.6286 N.pl3          1 S1                 1.0000
      5 ****        -4.8342   1.8147  -0.6682 C.ar           1 S1                 0.0000
      6 ****        -3.4294   1.9222  -0.6815 C.ar           1 S1                 0.0000
      7 ****        -2.6377   0.7457  -0.6423 C.ar           1 S1                 0.0000
      8 ****        -1.2148   0.7643  -0.6680 N.am           1 S1                 0.0000
      9 ****        -0.3706   1.7436  -0.2884 C.2            1 S1                 0.0000
     10 ****        -0.7188   2.8467   0.1262 O.2            1 S1                 0.0000
     11 ****         0.9313   1.4175  -0.3862 N.am           1 S1                 0.0000
     12 ****         2.1080   2.2316  -0.0621 C.3            1 S1                 0.0000
     13 ****         3.3257   1.3231   0.1936 C.3            1 S1                 0.0000
     14 ****         3.8392   0.6626  -1.0970 C.3            1 S1                 0.0000
     15 ****         4.1470   1.7096  -2.1788 C.3            1 S1                 0.0000
     16 ****         2.9210   2.5972  -2.4780 C.3            1 S1                 0.0000
     17 ****         3.2140   3.6393  -3.5770 C.3            1 S1                 0.0000
     18 ****         4.1773   4.4770  -3.1921 F              1 S1                 0.0000
     19 ****         3.5969   3.0268  -4.6972 F              1 S1                 0.0000
     20 ****         2.1126   4.3418  -3.8431 F              1 S1                 0.0000
     21 ****         2.4157   3.2586  -1.1756 C.3            1 S1                 0.0000
     22 ****        -3.1779  -2.6761  -0.6230 H              1 S1                 0.0000
     23 ****        -1.9089  -1.8797   0.3084 H              1 S1                 0.0000
     24 ****        -1.8484  -1.8746  -1.4606 H              1 S1                 0.0000
     25 ****        -5.2881  -1.4597  -0.5820 H              1 S1                 0.0000
     26 ****        -5.5051   2.6611  -0.6937 H              1 S1                 0.0000
     27 ****        -2.9893   2.9059  -0.7344 H              1 S1                 0.0000
     28 ****        -0.7787  -0.1090  -0.9255 H              1 S1                 0.0000
     29 ****         1.1311   0.4945  -0.7446 H              1 S1                 0.0000
     30 ****         1.9100   2.7704   0.8661 H              1 S1                 0.0000
     31 ****         4.1290   1.9179   0.6305 H              1 S1                 0.0000
     32 ****         3.0801   0.5593   0.9327 H              1 S1                 0.0000
     33 ****         4.7351   0.0797  -0.8813 H              1 S1                 0.0000
     34 ****         3.0979  -0.0438  -1.4724 H              1 S1                 0.0000
     35 ****         4.9839   2.3302  -1.8556 H              1 S1                 0.0000
     36 ****         4.4736   1.2026  -3.0872 H              1 S1                 0.0000
     37 ****         2.1281   1.9493  -2.8547 H              1 S1                 0.0000
     38 ****         1.5335   3.8642  -1.3826 H              1 S1                 0.0000
     39 ****         3.1730   3.9536  -0.8112 H              1 S1                 0.0000
     40 ****        -6.4348   0.5435  -0.6207 H              1 S1                 0.0000
     41 ****        -1.6910   3.0689   0.2007 LP             1 S1                 0.0000
     42 ****        -0.0300   3.5223   0.3891 LP             1 S1                 0.0000
@<TRIPOS>BOND
    1    1    2 1     
    2    1   22 1     
    3    1   23 1     
    4    1   24 1     
    5    2    7 ar    
    6    2    3 ar    
    7    3    4 ar    
    8    3   25 1     
    9    4    5 ar    
   10    4   40 1     
   11    5    6 ar    
   12    5   26 1     
   13    6    7 ar    
   14    6   27 1     
   15    7    8 1     
   16    8    9 am    
   17    8   28 1     
   18    9   10 2     
   19    9   11 am    
   20   11   12 1     
   21   11   29 1     
   22   12   21 1     
   23   12   13 1     
   24   12   30 1     
   25   13   14 1     
   26   13   31 1     
   27   13   32 1     
   28   14   15 1     
   29   14   33 1     
   30   14   34 1     
   31   15   16 1     
   32   15   35 1     
   33   15   36 1     
   34   16   17 1     
   35   16   21 1     
   36   16   37 1     
   37   17   18 1     
   38   17   19 1     
   39   17   20 1     
   40   21   38 1     
   41   21   39 1     
   42   10   41 1     
   43   10   42 1     
@<TRIPOS>SUBSTRUCTURE
      1 S1             1
@<TRIPOS>SET
LONE_PAIRS      STATIC     ATOMS    <user>   **** ""
2 41 42
DONOR_HYDROGENS      STATIC     ATOMS    <user>   **** ""
3 40 28 29
ATOM$BLUE        STATIC     ATOMS    COLORGROUP SYSTEM
2 41 42
ATOM$RED        STATIC     ATOMS    COLORGROUP SYSTEM
3 40 28 29
