AV-unprocessed.smi:157|AV-procd|sdf|1309|dock8
  -GOLD-   2262019 03D 1   1.00000     0.00000
 Structure written by MMmdl.
 36 38  0  0  0  0  0  0  0  0  2 V2000
  148.0353  136.8165  154.4970 O   0  0  0  0  0  0  0  0  0  0  0  0
  148.7328  137.0983  155.6912 C   0  0  0  0  0  0  0  0  0  0  0  0
  149.6050  138.3481  155.5026 C   0  0  1  0  0  0  0  0  0  0  0  0
  150.3077  138.6334  156.7089 O   0  0  0  0  0  0  0  0  0  0  0  0
  151.4945  139.3150  156.4259 C   0  0  2  0  0  0  0  0  0  0  0  0
  151.3563  140.7341  156.8801 N   0  0  0  0  0  0  0  0  0  0  0  0
  150.5823  141.6918  156.3252 C   0  0  0  0  0  0  0  0  0  0  0  0
  150.6549  142.8671  156.9266 N   0  3  0  0  0  0  0  0  0  0  0  0
  151.5405  142.7171  157.9726 C   0  0  0  0  0  0  0  0  0  0  0  0
  151.9728  141.3895  157.9205 C   0  0  0  0  0  0  0  0  0  0  0  0
  152.8843  140.7069  158.7405 N   0  0  0  0  0  0  0  0  0  0  0  0
  153.6979  141.3102  159.5451 C   0  0  0  0  0  0  0  0  0  0  0  0
  153.7970  142.6603  159.8385 N   0  0  0  0  0  0  0  0  0  0  0  0
  152.6465  143.4993  160.1238 C   0  0  0  0  0  0  0  0  0  0  0  0
  151.8330  143.8724  158.8778 C   0  0  1  0  0  0  0  0  0  0  0  0
  152.4886  144.9316  158.2114 O   0  0  0  0  0  0  0  0  0  0  0  0
  151.6958  139.2690  154.9079 C   0  0  0  0  0  0  0  0  0  0  0  0
  150.7468  138.1593  154.5026 C   0  0  2  0  0  0  0  0  0  0  0  0
  150.3252  138.3159  153.1633 O   0  0  0  0  0  0  0  0  0  0  0  0
  149.0030  139.2130  155.2159 H   0  0  0  0  0  0  0  0  0  0  0  0
  152.3226  138.9021  157.0033 H   0  0  0  0  0  0  0  0  0  0  0  0
  150.8781  144.2764  159.2160 H   0  0  0  0  0  0  0  0  0  0  0  0
  151.2235  137.1871  154.6380 H   0  0  0  0  0  0  0  0  0  0  0  0
  148.6649  136.7045  153.8011 H   0  0  0  0  0  0  0  0  0  0  0  0
  148.0355  137.2209  156.5204 H   0  0  0  0  0  0  0  0  0  0  0  0
  149.3577  136.2340  155.9178 H   0  0  0  0  0  0  0  0  0  0  0  0
  149.9577  141.5119  155.4687 H   0  0  0  0  0  0  0  0  0  0  0  0
  154.4252  140.7172  160.1014 H   0  0  0  0  0  0  0  0  0  0  0  0
  154.6233  142.9921  160.3155 H   0  0  0  0  0  0  0  0  0  0  0  0
  152.0047  142.9501  160.8145 H   0  0  0  0  0  0  0  0  0  0  0  0
  152.9692  144.3941  160.6571 H   0  0  0  0  0  0  0  0  0  0  0  0
  152.2326  144.9234  157.3020 H   0  0  0  0  0  0  0  0  0  0  0  0
  151.3978  140.2212  154.4639 H   0  0  0  0  0  0  0  0  0  0  0  0
  152.7373  139.0702  154.6533 H   0  0  0  0  0  0  0  0  0  0  0  0
  149.9657  137.4961  152.8602 H   0  0  0  0  0  0  0  0  0  0  0  0
  150.1505  143.7059  156.6692 H   0  0  0  0  0  0  0  0  0  0  0  0
  1  2  1  0  0  0  0
  1 24  1  0  0  0  0
  2  3  1  0  0  0  0
  2 25  1  0  0  0  0
  2 26  1  0  0  0  0
  3 20  1  0  0  0  0
  3 18  1  0  0  0  0
  3  4  1  0  0  0  0
  4  5  1  0  0  0  0
  5 21  1  0  0  0  0
  5  6  1  0  0  0  0
  5 17  1  0  0  0  0
  6 10  1  0  0  0  0
  6  7  1  0  0  0  0
  7  8  2  0  0  0  0
  7 27  1  0  0  0  0
  8  9  1  0  0  0  0
  8 36  1  0  0  0  0
  9 15  1  0  0  0  0
  9 10  2  0  0  0  0
 10 11  1  0  0  0  0
 11 12  2  0  0  0  0
 12 13  1  0  0  0  0
 12 28  1  0  0  0  0
 13 14  1  0  0  0  0
 13 29  1  0  0  0  0
 14 15  1  0  0  0  0
 14 30  1  0  0  0  0
 14 31  1  0  0  0  0
 15 22  1  0  0  0  0
 15 16  1  0  0  0  0
 16 32  1  0  0  0  0
 17 18  1  0  0  0  0
 17 33  1  0  0  0  0
 17 34  1  0  0  0  0
 18 23  1  0  0  0  0
 18 19  1  0  0  0  0
 19 35  1  0  0  0  0
M  CHG  1   8   1
M  END
> <s_m_source_file>
AV-unprocessed.smi

> <i_m_source_file_index>
157

> <i_lp_mmshare_version>
43012

> <i_f3d_flags>
0

> <s_epik_input>
W09IXVtDSDJdW0NASF0xT1tDQEhdKFtDSDJdW0NAQEhdMVtPSF0pbihbY0hdbjIpYyhjMjMpTj1bQ0hdW05IXVtDSDJdW0NASF0zW09IXQ==

> <s_epik_cmdline>
J2VwaWtfcHl0aG9uJywgJy1waCcsICc3LjAnLCAnLXRuJywgJzgnLCAnLW1hJywgJzIwMCcsICctbWV0YWxfYmluZGluZycsICctaW1hZScsICc8aW5maWxlLm1hZT4nLCAnLW9tYWUnLCAnPG91dGZpbGUubWFlPic=

> <r_epik_Ionization_Penalty>
1.68594

> <r_epik_Ionization_Penalty_Charging>
0

> <r_epik_Ionization_Penalty_Neutral>
1.68594

> <r_epik_State_Penalty>
1.79006

> <r_epik_Charging_Adjusted_Penalty>
1.79006

> <i_epik_Tot_Q>
1

> <i_epik_Tot_abs_Q>
1

> <r_epik_Metal_State_Penalty>
5.85324

> <b_epik_Metal_Only>
0

> <s_epik_Chemistry_Notes>
This compound has an imine and may undergo hydrolysis. This compound contains an acetal/aminal-like group ( X-CH(R)-Y where X, Y are N, S, or O) that may be acid/base labile, releasing an aldehyde.

> <s_lp_Force_Field>
OPLS_2005

> <r_lp_Energy>
51.4634

> <b_lp_Chiralities_Consistent>
1

> <s_lp_Variant>
AV-unprocessed.smi:157-19

> <Gold.Version>
5.8.1

> <Gold.Id.Protein>
6NUR|6NUR_protein|mol2

> <Gold.PLP.Fitness>
44.8193

> <Gold.PLP.PLP>
-33.3589

> <Gold.PLP.part.hbond>
-5.0000

> <Gold.PLP.part.metal>
0.0000

> <Gold.PLP.part.buried>
-2.6539

> <Gold.PLP.part.nonpolar>
-25.3820

> <Gold.PLP.part.repulsive>
0.0598

> <Gold.PLP.ligand.clash>
0.0000

> <Gold.PLP.ligand.torsion>
0.2541

> <Gold.PLP.Chemscore.Hbond>
3.9833

> <Gold.PLP.Chemscore.CHOScore>
0.0000

> <Gold.PLP.Chemscore.Metal>
0.0000

> <Gold.Chemscore.Hbonds>
donor molecule, donor type, donor heavy atom, donor atom, acceptor molecule, acceptor atom, score
      L1  H     1    24       P1  7948  0.94
      L1  H     8    36       P1  8028  2.00
      L1  H    19    35       P1  7948  0.90

> <Gold.PLP.Chemscore.Internal.Correction>
0.0185

> <Gold.Rescore>
     Score         DG    S(hbond)    S(metal)    S(lipo)     H(rot)  DE(clash)    DE(int)     intcor
     10.62     -10.85       2.58        0.00      52.31       3.67       0.16       0.07       ----

> <Gold.Chemscore.Fitness>
10.6193

> <Gold.Chemscore.DG>
-10.8468

> <Gold.Chemscore.ZeroCoef>
-5.4800

> <Gold.Chemscore.Hbond>
2.5841

> <Gold.Chemscore.Metal>
0.0000

> <Gold.Chemscore.Lipo>
52.3148

> <Gold.Chemscore.Internal_Hbond>
0.0000

> <Gold.Chemscore.DEClash>
0.1550

> <Gold.Chemscore.DEInternal>
0.0724

> <Gold.Chemscore.Rot>
3.6659

> <Gold.Chemscore.Internal.Correction>
   9.000000E+99

> <Gold.Chemscore.Hbonds>
donor molecule, donor type, donor heavy atom, donor atom, acceptor molecule, acceptor atom, score
      L1  H     1    24       P1  7948  0.87
      L1  H     8    36       P1  8028  0.98
      L1  H    19    35       P1  7948  0.18

> <Gold.Chemscore.Hbond.Weighted>
-8.6308

> <Gold.Chemscore.Metal.Weighted>
-0.0000

> <Gold.Chemscore.Lipo.Weighted>
-6.1208

> <Gold.Chemscore.Internal_Hbond.Weighted>
0.0000

> <Gold.Chemscore.DEClash.Weighted>
0.1550

> <Gold.Chemscore.DEInternal.Weighted>
0.0724

> <Gold.Chemscore.Rot.Weighted>
9.3848

> <Gold.Chemscore.Internal.Correction.Weighted>
   9.000000E+99

> <Gold.Protein.RotatedTorsions>
[ 6907 6896 6895 6894 ] final  142.68 input  -60.11 | X-H torsion
[ 7974 7965 7964 7962 ] final  -81.69 input  175.53 | X-H torsion
[ 8008 7997 7996 7995 ] final  158.88 input   59.86 | X-H torsion
[ 10167 10162 10161 10158 ] final  175.27 input  -65.29 | X-H torsion
[ 10718 10713 10712 10709 ] final -110.29 input   66.30 | X-H torsion
[ 10763 10752 10751 10750 ] final  139.89 input  -60.55 | X-H torsion
[ 11005 11000 10999 10996 ] final   53.61 input  -57.11 | X-H torsion

> <Gold.Protein.ActiveResidues>
 VAL166  LYS551  ARG553  GLY616  TRP617  ASP618  TYR619  PRO620  LYS621  CYS622 
 ASP623  PHE694  ASN695  SER759  ASP760  ASP761  ALA762  ILE779  LEU786  VAL792 
 PHE793  MET794  SER795  GLU796  ALA797  LYS798  CYS799  TRP800  GLU811  SER814 

> <Gold.Protein.RotatedAtoms>
  152.2157  133.4944  159.5134 H   0  0  0  0  0  0  0  0  0  0  0  0  # atno 6907 bound_to 6896
  150.7000  134.1409  159.4113 H   0  0  0  0  0  0  0  0  0  0  0  0  # atno 6908 bound_to 6896
  151.9329  135.0248  160.0581 H   0  0  0  0  0  0  0  0  0  0  0  0  # atno 6909 bound_to 6896
  145.5433  140.9507  143.1539 H   0  0  0  0  0  0  0  0  0  0  0  0  # atno 7974 bound_to 7965
  156.2275  140.1846  156.7327 H   0  0  0  0  0  0  0  0  0  0  0  0  # atno 8008 bound_to 7997
  154.5965  140.0642  156.9339 H   0  0  0  0  0  0  0  0  0  0  0  0  # atno 8009 bound_to 7997
  155.2246  140.3310  155.4313 H   0  0  0  0  0  0  0  0  0  0  0  0  # atno 8010 bound_to 7997
  139.5171  144.3051  152.0343 H   0  0  0  0  0  0  0  0  0  0  0  0  # atno 10167 bound_to 10162
  156.0583  130.5807  150.8216 H   0  0  0  0  0  0  0  0  0  0  0  0  # atno 10718 bound_to 10713
  153.9135  135.3008  155.3448 H   0  0  0  0  0  0  0  0  0  0  0  0  # atno 10763 bound_to 10752
  154.7611  135.4933  153.9469 H   0  0  0  0  0  0  0  0  0  0  0  0  # atno 10764 bound_to 10752
  153.1180  135.6775  153.9487 H   0  0  0  0  0  0  0  0  0  0  0  0  # atno 10765 bound_to 10752
  140.0753  134.5413  155.9003 H   0  0  0  0  0  0  0  0  0  0  0  0  # atno 11005 bound_to 11000
  144.7566  139.7060  143.7251 LP  0  0  0  0  0  0  0  0  0  0  0  0  # atno 17320 bound_to 7965
  146.1966  139.5236  142.9770 LP  0  0  0  0  0  0  0  0  0  0  0  0  # atno 17321 bound_to 7965
  140.2497  144.4182  150.6227 LP  0  0  0  0  0  0  0  0  0  0  0  0  # atno 17342 bound_to 10162
  140.6233  143.2178  151.6648 LP  0  0  0  0  0  0  0  0  0  0  0  0  # atno 17343 bound_to 10162
  157.5570  131.0945  150.9613 LP  0  0  0  0  0  0  0  0  0  0  0  0  # atno 17370 bound_to 10713
  156.9860  130.5545  149.5299 LP  0  0  0  0  0  0  0  0  0  0  0  0  # atno 17371 bound_to 10713
  141.2027  133.6627  156.6021 LP  0  0  0  0  0  0  0  0  0  0  0  0  # atno 17394 bound_to 11000
  140.3567  134.7722  157.4505 LP  0  0  0  0  0  0  0  0  0  0  0  0  # atno 17395 bound_to 11000

$$$$
