AV-unprocessed.smi:2456|AV-procd|sdf|9703|dock5
  -GOLD-   2272013343D 1   1.00000     0.00000
 Structure written by MMmdl.
 33 34  0  0  0  0  0  0  0  0  2 V2000
  151.7595  138.6486  156.2400 C   0  0  0  0  0  0  0  0  0  0  0  0
  151.4421  138.9599  157.7123 C   0  0  1  0  0  0  0  0  0  0  0  0
  150.9471  137.7312  158.3345 N   0  0  0  0  0  0  0  0  0  0  0  0
  149.7278  137.5545  158.8663 C   0  0  0  0  0  0  0  0  0  0  0  0
  148.9117  138.4793  158.8526 O   0  0  0  0  0  0  0  0  0  0  0  0
  149.5312  136.3195  159.3814 N   0  5  0  0  0  0  0  0  0  0  0  0
  148.6052  136.1297  160.3351 C   0  0  0  0  0  0  0  0  0  0  0  0
  148.0205  137.1361  160.9950 N   0  0  0  0  0  0  0  0  0  0  0  0
  147.0834  136.7114  161.9385 C   0  0  0  0  0  0  0  0  0  0  0  0
  146.9443  135.3501  161.9917 C   0  0  0  0  0  0  0  0  0  0  0  0
  147.9930  134.5561  160.8518 S   0  0  0  0  0  0  0  0  0  0  0  0
  152.7462  139.4323  158.3934 C   0  0  0  0  0  0  0  0  0  0  0  0
  153.7579  138.7329  158.3091 O   0  0  0  0  0  0  0  0  0  0  0  0
  152.7537  140.6132  159.0489 N   0  0  0  0  0  0  0  0  0  0  0  0
  153.8897  141.2036  159.7564 C   0  0  0  0  0  0  0  0  0  0  0  0
  153.3269  142.4018  160.5215 C   0  0  0  0  0  0  0  0  0  0  0  0
  152.0921  142.8027  159.7277 C   0  0  0  0  0  0  0  0  0  0  0  0
  151.5843  141.4861  159.1397 C   0  0  0  0  0  0  0  0  0  0  0  0
  152.1236  139.5332  155.7163 H   0  0  0  0  0  0  0  0  0  0  0  0
  150.8672  138.3063  155.7147 H   0  0  0  0  0  0  0  0  0  0  0  0
  152.5169  137.8689  156.1438 H   0  0  0  0  0  0  0  0  0  0  0  0
  150.6570  139.7146  157.7626 H   0  0  0  0  0  0  0  0  0  0  0  0
  151.5866  136.9514  158.3745 H   0  0  0  0  0  0  0  0  0  0  0  0
  146.5594  137.4485  162.5284 H   0  0  0  0  0  0  0  0  0  0  0  0
  146.2927  134.7688  162.6264 H   0  0  0  0  0  0  0  0  0  0  0  0
  154.3675  140.4965  160.4355 H   0  0  0  0  0  0  0  0  0  0  0  0
  154.6303  141.5335  159.0261 H   0  0  0  0  0  0  0  0  0  0  0  0
  153.0300  142.0890  161.5235 H   0  0  0  0  0  0  0  0  0  0  0  0
  154.0468  143.2143  160.6240 H   0  0  0  0  0  0  0  0  0  0  0  0
  151.3436  143.3117  160.3357 H   0  0  0  0  0  0  0  0  0  0  0  0
  152.3815  143.4759  158.9195 H   0  0  0  0  0  0  0  0  0  0  0  0
  151.1123  141.6429  158.1685 H   0  0  0  0  0  0  0  0  0  0  0  0
  150.8503  141.0273  159.8039 H   0  0  0  0  0  0  0  0  0  0  0  0
  1  2  1  0  0  0  0
  1 19  1  0  0  0  0
  1 20  1  0  0  0  0
  1 21  1  0  0  0  0
  2  3  1  0  0  0  0
  2 12  1  0  0  0  0
  2 22  1  0  0  0  0
  3  4  1  0  0  0  0
  3 23  1  0  0  0  0
  4  5  2  0  0  0  0
  4  6  1  0  0  0  0
  6  7  1  0  0  0  0
  7 11  1  0  0  0  0
  7  8  2  0  0  0  0
  8  9  1  0  0  0  0
  9 10  2  0  0  0  0
  9 24  1  0  0  0  0
 10 11  1  0  0  0  0
 10 25  1  0  0  0  0
 12 13  2  0  0  0  0
 12 14  1  0  0  0  0
 14 18  1  0  0  0  0
 14 15  1  0  0  0  0
 15 16  1  0  0  0  0
 15 26  1  0  0  0  0
 15 27  1  0  0  0  0
 16 17  1  0  0  0  0
 16 28  1  0  0  0  0
 16 29  1  0  0  0  0
 17 18  1  0  0  0  0
 17 30  1  0  0  0  0
 17 31  1  0  0  0  0
 18 32  1  0  0  0  0
 18 33  1  0  0  0  0
M  CHG  1   6  -1
M  END
> <s_m_source_file>
AV-unprocessed.smi

> <i_m_source_file_index>
2456

> <i_lp_mmshare_version>
43012

> <i_f3d_flags>
0

> <s_epik_input>
W0NIMl0xW0NIMl1bQ0gyXVtDSDJdTjFDKD1PKVtDQEhdKFtDSDNdKVtOSF1DKD1PKVtOSF1jMm5bY0hdW2NIXXMy

> <s_epik_cmdline>
J2VwaWtfcHl0aG9uJywgJy1waCcsICc3LjAnLCAnLXRuJywgJzgnLCAnLW1hJywgJzIwMCcsICctbWV0YWxfYmluZGluZycsICctaW1hZScsICc8aW5maWxlLm1hZT4nLCAnLW9tYWUnLCAnPG91dGZpbGUubWFlPic=

> <r_lp_tautomer_probability>
1

> <r_epik_Ionization_Penalty>
5.99337

> <r_epik_Ionization_Penalty_Charging>
5.23786

> <r_epik_Ionization_Penalty_Neutral>
0.755512

> <r_epik_State_Penalty>
5.23778

> <r_epik_Charging_Adjusted_Penalty>
10.4756

> <i_epik_Tot_Q>
-1

> <i_epik_Tot_abs_Q>
1

> <r_epik_Metal_State_Penalty>
1.29566

> <b_epik_Metal_Only>
1

> <s_lp_Force_Field>
OPLS_2005

> <r_lp_Energy>
24.1286

> <b_lp_Chiralities_Consistent>
1

> <s_lp_Variant>
AV-unprocessed.smi:2456-4

> <Gold.Version>
5.8.1

> <Gold.Id.Protein>
6NUR|6NUR_protein|mol2

> <Gold.PLP.Fitness>
47.0815

> <Gold.PLP.PLP>
-34.2306

> <Gold.PLP.part.hbond>
-5.4555

> <Gold.PLP.part.metal>
0.0000

> <Gold.PLP.part.buried>
-3.6027

> <Gold.PLP.part.nonpolar>
-25.7479

> <Gold.PLP.part.repulsive>
0.0999

> <Gold.PLP.ligand.clash>
0.0000

> <Gold.PLP.ligand.torsion>
0.2369

> <Gold.PLP.Chemscore.Hbond>
4.4353

> <Gold.PLP.Chemscore.CHOScore>
0.0000

> <Gold.PLP.Chemscore.Metal>
0.0000

> <Gold.Chemscore.Hbonds>
donor molecule, donor type, donor heavy atom, donor atom, acceptor molecule, acceptor atom, score
      P1  H  6896  6907       L1     6  2.00
      P1  H  6931  6943       L1     8  0.98
      P1  H  6934  6947       L1     8  0.41
      P1  H  7997  8010       L1    13  0.95

> <Gold.PLP.Chemscore.Internal.Correction>
0.0185

> <Gold.Rescore>
     Score         DG    S(hbond)    S(metal)    S(lipo)     H(rot)  DE(clash)    DE(int)     intcor
     16.53     -18.42       2.35        0.00      72.70       1.33       0.05       1.84       ----

> <Gold.Chemscore.Fitness>
16.5319

> <Gold.Chemscore.DG>
-18.4248

> <Gold.Chemscore.ZeroCoef>
-5.4800

> <Gold.Chemscore.Hbond>
2.3476

> <Gold.Chemscore.Metal>
0.0000

> <Gold.Chemscore.Lipo>
72.6967

> <Gold.Chemscore.Internal_Hbond>
0.0000

> <Gold.Chemscore.DEClash>
0.0501

> <Gold.Chemscore.DEInternal>
1.8428

> <Gold.Chemscore.Rot>
1.3288

> <Gold.Chemscore.Internal.Correction>
   9.000000E+99

> <Gold.Chemscore.Hbonds>
donor molecule, donor type, donor heavy atom, donor atom, acceptor molecule, acceptor atom, score
      P1  H  6896  6907       L1     6  0.39
      P1  H  6931  6943       L1     8  0.41
      P1  H  6934  6947       L1     8  0.03
      P1  H  7997  8010       L1    13  0.20

> <Gold.Chemscore.Hbond.Weighted>
-7.8409

> <Gold.Chemscore.Metal.Weighted>
-0.0000

> <Gold.Chemscore.Lipo.Weighted>
-8.5055

> <Gold.Chemscore.Internal_Hbond.Weighted>
0.0000

> <Gold.Chemscore.DEClash.Weighted>
0.0501

> <Gold.Chemscore.DEInternal.Weighted>
1.8428

> <Gold.Chemscore.Rot.Weighted>
3.4017

> <Gold.Chemscore.Internal.Correction.Weighted>
   9.000000E+99

> <Gold.Protein.RotatedTorsions>
[ 6907 6896 6895 6894 ] final  -54.04 input  -60.11 | X-H torsion
[ 7974 7965 7964 7962 ] final -161.97 input  175.53 | X-H torsion
[ 8008 7997 7996 7995 ] final   10.92 input   59.86 | X-H torsion
[ 10167 10162 10161 10158 ] final  147.39 input  -65.29 | X-H torsion
[ 10718 10713 10712 10709 ] final  158.07 input   66.30 | X-H torsion
[ 10763 10752 10751 10750 ] final   -0.68 input  -60.55 | X-H torsion
[ 11005 11000 10999 10996 ] final  114.46 input  -57.11 | X-H torsion

> <Gold.Protein.ActiveResidues>
 VAL166  LYS551  ARG553  GLY616  TRP617  ASP618  TYR619  PRO620  LYS621  CYS622 
 ASP623  PHE694  ASN695  SER759  ASP760  ASP761  ALA762  ILE779  LEU786  VAL792 
 PHE793  MET794  SER795  GLU796  ALA797  LYS798  CYS799  TRP800  GLU811  SER814 

> <Gold.Protein.RotatedAtoms>
  150.8373  134.7651  159.6903 H   0  0  0  0  0  0  0  0  0  0  0  0  # atno 6907 bound_to 6896
  152.4467  134.5476  159.9867 H   0  0  0  0  0  0  0  0  0  0  0  0  # atno 6908 bound_to 6896
  151.5623  133.3363  159.3009 H   0  0  0  0  0  0  0  0  0  0  0  0  # atno 6909 bound_to 6896
  144.7373  140.3320  143.6151 H   0  0  0  0  0  0  0  0  0  0  0  0  # atno 7974 bound_to 7965
  154.7998  140.2850  155.5929 H   0  0  0  0  0  0  0  0  0  0  0  0  # atno 8008 bound_to 7997
  156.2976  140.2588  156.2793 H   0  0  0  0  0  0  0  0  0  0  0  0  # atno 8009 bound_to 7997
  154.9571  140.0378  157.2161 H   0  0  0  0  0  0  0  0  0  0  0  0  # atno 8010 bound_to 7997
  139.4891  144.5759  151.6966 H   0  0  0  0  0  0  0  0  0  0  0  0  # atno 10167 bound_to 10162
  157.1828  131.0636  151.2122 H   0  0  0  0  0  0  0  0  0  0  0  0  # atno 10718 bound_to 10713
  153.3350  135.6977  153.6915 H   0  0  0  0  0  0  0  0  0  0  0  0  # atno 10763 bound_to 10752
  153.5703  135.3517  155.2835 H   0  0  0  0  0  0  0  0  0  0  0  0  # atno 10764 bound_to 10752
  154.8625  135.4270  154.2548 H   0  0  0  0  0  0  0  0  0  0  0  0  # atno 10765 bound_to 10752
  139.8981  134.9568  156.6895 H   0  0  0  0  0  0  0  0  0  0  0  0  # atno 11005 bound_to 11000
  145.7462  139.1779  143.2348 LP  0  0  0  0  0  0  0  0  0  0  0  0  # atno 17320 bound_to 7965
  146.1096  140.7444  142.9509 LP  0  0  0  0  0  0  0  0  0  0  0  0  # atno 17321 bound_to 7965
  140.5355  144.0662  150.6069 LP  0  0  0  0  0  0  0  0  0  0  0  0  # atno 17342 bound_to 10162
  140.3667  143.2877  152.0324 LP  0  0  0  0  0  0  0  0  0  0  0  0  # atno 17343 bound_to 10162
  157.3936  130.7295  149.6715 LP  0  0  0  0  0  0  0  0  0  0  0  0  # atno 17370 bound_to 10713
  155.9722  130.4140  150.4109 LP  0  0  0  0  0  0  0  0  0  0  0  0  # atno 17371 bound_to 10713
  140.7236  133.9119  155.8163 LP  0  0  0  0  0  0  0  0  0  0  0  0  # atno 17394 bound_to 11000
  141.0208  134.0891  157.4122 LP  0  0  0  0  0  0  0  0  0  0  0  0  # atno 17395 bound_to 11000

$$$$
