AV-unprocessed.smi:816|AV-procd|sdf|3827|dock2
  -GOLD-   22720 1263D 1   1.00000     0.00000
 Structure written by MMmdl.
 40 41  0  0  0  0  0  0  0  0  1 V2000
  151.1253  144.4710  158.2195 C   0  0  0  0  0  0  0  0  0  0  0  0
  151.4124  142.9935  158.2152 C   0  0  0  0  0  0  0  0  0  0  0  0
  151.0301  142.3313  157.1733 N   0  0  0  0  0  0  0  0  0  0  0  0
  151.2436  140.9707  157.0671 N   0  0  0  0  0  0  0  0  0  0  0  0
  150.7611  140.3879  155.8097 C   0  0  0  0  0  0  0  0  0  0  0  0
  149.8433  141.3623  155.0391 C   0  0  1  0  0  0  0  0  0  0  0  0
  149.6844  140.8997  153.7127 O   0  0  0  0  0  0  0  0  0  0  0  0
  148.4392  141.4480  155.6574 C   0  0  0  0  0  0  0  0  0  0  0  0
  147.5047  141.7694  154.6350 O   0  0  0  0  0  0  0  0  0  0  0  0
  146.4622  142.6160  154.9440 C   0  0  0  0  0  0  0  0  0  0  0  0
  145.8865  143.3370  153.8777 C   0  0  0  0  0  0  0  0  0  0  0  0
  144.8192  144.2281  154.1016 C   0  0  0  0  0  0  0  0  0  0  0  0
  144.3112  144.4067  155.4034 C   0  0  0  0  0  0  0  0  0  0  0  0
  143.2102  145.3260  155.6382 C   0  0  0  0  0  0  0  0  0  0  0  0
  142.3337  146.0579  155.8248 N   0  0  0  0  0  0  0  0  0  0  0  0
  144.8757  143.6894  156.4767 C   0  0  0  0  0  0  0  0  0  0  0  0
  145.9443  142.7997  156.2510 C   0  0  0  0  0  0  0  0  0  0  0  0
  151.8589  140.2049  158.0125 C   0  0  0  0  0  0  0  0  0  0  0  0
  152.0340  138.9933  157.8751 O   0  0  0  0  0  0  0  0  0  0  0  0
  152.2863  140.9607  159.1921 C   0  0  0  0  0  0  0  0  0  0  0  0
  152.9287  140.1950  160.2114 C   0  0  0  0  0  0  0  0  0  0  0  0
  153.4607  139.5638  161.0233 N   0  0  0  0  0  0  0  0  0  0  0  0
  152.0843  142.2973  159.3076 C   0  0  0  0  0  0  0  0  0  0  0  0
  152.5100  143.1278  160.5106 C   0  0  0  0  0  0  0  0  0  0  0  0
  150.5102  144.7439  159.0770 H   0  0  0  0  0  0  0  0  0  0  0  0
  150.5930  144.7841  157.3202 H   0  0  0  0  0  0  0  0  0  0  0  0
  152.0509  145.0445  158.2688 H   0  0  0  0  0  0  0  0  0  0  0  0
  151.5766  140.0328  155.1767 H   0  0  0  0  0  0  0  0  0  0  0  0
  150.1999  139.4863  156.0620 H   0  0  0  0  0  0  0  0  0  0  0  0
  150.2774  142.3627  155.0091 H   0  0  0  0  0  0  0  0  0  0  0  0
  149.5111  139.9710  153.7348 H   0  0  0  0  0  0  0  0  0  0  0  0
  148.1715  140.4860  156.0982 H   0  0  0  0  0  0  0  0  0  0  0  0
  148.4240  142.2000  156.4483 H   0  0  0  0  0  0  0  0  0  0  0  0
  146.2693  143.2073  152.8759 H   0  0  0  0  0  0  0  0  0  0  0  0
  144.3952  144.7723  153.2696 H   0  0  0  0  0  0  0  0  0  0  0  0
  144.4933  143.8169  157.4795 H   0  0  0  0  0  0  0  0  0  0  0  0
  146.3487  142.2689  157.0994 H   0  0  0  0  0  0  0  0  0  0  0  0
  153.0670  142.5411  161.2405 H   0  0  0  0  0  0  0  0  0  0  0  0
  151.6368  143.5414  161.0160 H   0  0  0  0  0  0  0  0  0  0  0  0
  153.1519  143.9534  160.2016 H   0  0  0  0  0  0  0  0  0  0  0  0
  1  2  1  0  0  0  0
  1 25  1  0  0  0  0
  1 26  1  0  0  0  0
  1 27  1  0  0  0  0
  2 23  1  0  0  0  0
  2  3  2  0  0  0  0
  3  4  1  0  0  0  0
  4  5  1  0  0  0  0
  4 18  1  0  0  0  0
  5  6  1  0  0  0  0
  5 28  1  0  0  0  0
  5 29  1  0  0  0  0
  6  7  1  0  0  0  0
  6  8  1  0  0  0  0
  6 30  1  0  0  0  0
  7 31  1  0  0  0  0
  8  9  1  0  0  0  0
  8 32  1  0  0  0  0
  8 33  1  0  0  0  0
  9 10  1  0  0  0  0
 10 17  1  0  0  0  0
 10 11  2  0  0  0  0
 11 12  1  0  0  0  0
 11 34  1  0  0  0  0
 12 13  2  0  0  0  0
 12 35  1  0  0  0  0
 13 14  1  0  0  0  0
 13 16  1  0  0  0  0
 14 15  3  0  0  0  0
 16 17  2  0  0  0  0
 16 36  1  0  0  0  0
 17 37  1  0  0  0  0
 18 19  2  0  0  0  0
 18 20  1  0  0  0  0
 20 21  1  0  0  0  0
 20 23  2  0  0  0  0
 21 22  3  0  0  0  0
 23 24  1  0  0  0  0
 24 38  1  0  0  0  0
 24 39  1  0  0  0  0
 24 40  1  0  0  0  0
M  END
> <s_m_source_file>
AV-unprocessed.smi

> <i_m_source_file_index>
816

> <i_lp_mmshare_version>
43012

> <i_f3d_flags>
0

> <s_epik_input>
TiNDYyhjMVtDSDNdKWMoPU8pbihuYzFbQ0gzXSlbQ0gyXVtDQEhdKFtPSF0pW0NIMl1PYzJbY0hdW2NIXWMoQyNOKVtjSF1bY0hdMg==

> <s_epik_cmdline>
J2VwaWtfcHl0aG9uJywgJy1waCcsICc3LjAnLCAnLXRuJywgJzgnLCAnLW1hJywgJzIwMCcsICctbWV0YWxfYmluZGluZycsICctaW1hZScsICc8aW5maWxlLm1hZT4nLCAnLW9tYWUnLCAnPG91dGZpbGUubWFlPic=

> <r_lp_tautomer_probability>
1

> <r_epik_Ionization_Penalty>
1.1732e-07

> <r_epik_Ionization_Penalty_Charging>
1.4567e-10

> <r_epik_Ionization_Penalty_Neutral>
1.17174e-07

> <r_epik_State_Penalty>
-0

> <r_epik_Charging_Adjusted_Penalty>
1.4567e-10

> <i_epik_Tot_Q>
0

> <i_epik_Tot_abs_Q>
0

> <r_epik_Metal_State_Penalty>
-0

> <b_epik_Metal_Only>
0

> <s_lp_Force_Field>
OPLS_2005

> <r_lp_Energy>
30.507

> <b_lp_Chiralities_Consistent>
1

> <s_lp_Variant>
AV-unprocessed.smi:816-2

> <Gold.Version>
5.8.1

> <Gold.Id.Protein>
6NUR|6NUR_protein|mol2

> <Gold.PLP.Fitness>
46.5220

> <Gold.PLP.PLP>
-45.5691

> <Gold.PLP.part.hbond>
-3.0000

> <Gold.PLP.part.metal>
0.0000

> <Gold.PLP.part.buried>
-5.1314

> <Gold.PLP.part.nonpolar>
-36.8858

> <Gold.PLP.part.repulsive>
0.2221

> <Gold.PLP.ligand.clash>
0.0000

> <Gold.PLP.ligand.torsion>
1.2009

> <Gold.PLP.Chemscore.Hbond>
1.1007

> <Gold.PLP.Chemscore.CHOScore>
0.0000

> <Gold.PLP.Chemscore.Metal>
0.0000

> <Gold.Chemscore.Hbonds>
donor molecule, donor type, donor heavy atom, donor atom, acceptor molecule, acceptor atom, score
      P1  H  7989  7998       L1     7  0.21
      P1  H  8011  8017       L1     7  0.96

> <Gold.PLP.Chemscore.Internal.Correction>
0.0527

> <Gold.Rescore>
     Score         DG    S(hbond)    S(metal)    S(lipo)     H(rot)  DE(clash)    DE(int)     intcor
     10.02     -11.76       0.74        0.00      89.99       2.62       1.18       0.56       ----

> <Gold.Chemscore.Fitness>
10.0169

> <Gold.Chemscore.DG>
-11.7633

> <Gold.Chemscore.ZeroCoef>
-5.4800

> <Gold.Chemscore.Hbond>
0.7386

> <Gold.Chemscore.Metal>
0.0000

> <Gold.Chemscore.Lipo>
89.9915

> <Gold.Chemscore.Internal_Hbond>
0.0000

> <Gold.Chemscore.DEClash>
1.1829

> <Gold.Chemscore.DEInternal>
0.5636

> <Gold.Chemscore.Rot>
2.6222

> <Gold.Chemscore.Internal.Correction>
   9.000000E+99

> <Gold.Chemscore.Hbonds>
donor molecule, donor type, donor heavy atom, donor atom, acceptor molecule, acceptor atom, score
      P1  H  8011  8017       L1     7  0.72

> <Gold.Chemscore.Hbond.Weighted>
-2.4670

> <Gold.Chemscore.Metal.Weighted>
-0.0000

> <Gold.Chemscore.Lipo.Weighted>
-10.5290

> <Gold.Chemscore.Internal_Hbond.Weighted>
0.0000

> <Gold.Chemscore.DEClash.Weighted>
1.1829

> <Gold.Chemscore.DEInternal.Weighted>
0.5636

> <Gold.Chemscore.Rot.Weighted>
6.7127

> <Gold.Chemscore.Internal.Correction.Weighted>
   9.000000E+99

> <Gold.Protein.RotatedTorsions>
[ 6907 6896 6895 6894 ] final  138.45 input  -60.11 | X-H torsion
[ 7974 7965 7964 7962 ] final -111.26 input  175.53 | X-H torsion
[ 8008 7997 7996 7995 ] final -177.19 input   59.86 | X-H torsion
[ 10167 10162 10161 10158 ] final -132.22 input  -65.29 | X-H torsion
[ 10718 10713 10712 10709 ] final  120.40 input   66.30 | X-H torsion
[ 10763 10752 10751 10750 ] final  153.06 input  -60.55 | X-H torsion
[ 11005 11000 10999 10996 ] final   32.89 input  -57.11 | X-H torsion

> <Gold.Protein.ActiveResidues>
 VAL166  LYS551  ARG553  GLY616  TRP617  ASP618  TYR619  PRO620  LYS621  CYS622 
 ASP623  PHE694  ASN695  SER759  ASP760  ASP761  ALA762  ILE779  LEU786  VAL792 
 PHE793  MET794  SER795  GLU796  ALA797  LYS798  CYS799  TRP800  GLU811  SER814 

> <Gold.Protein.RotatedAtoms>
  152.2664  133.5343  159.5412 H   0  0  0  0  0  0  0  0  0  0  0  0  # atno 6907 bound_to 6896
  150.7143  134.0758  159.3889 H   0  0  0  0  0  0  0  0  0  0  0  0  # atno 6908 bound_to 6896
  151.8674  135.0502  160.0526 H   0  0  0  0  0  0  0  0  0  0  0  0  # atno 6909 bound_to 6896
  145.1582  140.8865  143.3606 H   0  0  0  0  0  0  0  0  0  0  0  0  # atno 7974 bound_to 7965
  156.0039  140.1226  157.0520 H   0  0  0  0  0  0  0  0  0  0  0  0  # atno 8008 bound_to 7997
  154.4252  140.1101  156.5804 H   0  0  0  0  0  0  0  0  0  0  0  0  # atno 8009 bound_to 7997
  155.6174  140.3472  155.4643 H   0  0  0  0  0  0  0  0  0  0  0  0  # atno 8010 bound_to 7997
  139.9109  143.6496  152.2575 H   0  0  0  0  0  0  0  0  0  0  0  0  # atno 10167 bound_to 10162
  157.5893  131.1066  150.8030 H   0  0  0  0  0  0  0  0  0  0  0  0  # atno 10718 bound_to 10713
  154.1301  135.2827  155.3187 H   0  0  0  0  0  0  0  0  0  0  0  0  # atno 10763 bound_to 10752
  154.6361  135.5418  153.7739 H   0  0  0  0  0  0  0  0  0  0  0  0  # atno 10764 bound_to 10752
  153.0284  135.6475  154.1452 H   0  0  0  0  0  0  0  0  0  0  0  0  # atno 10765 bound_to 10752
  140.2688  134.3106  155.7834 H   0  0  0  0  0  0  0  0  0  0  0  0  # atno 11005 bound_to 11000
  145.0359  139.3301  143.6001 LP  0  0  0  0  0  0  0  0  0  0  0  0  # atno 17320 bound_to 7965
  146.3486  139.9713  142.8706 LP  0  0  0  0  0  0  0  0  0  0  0  0  # atno 17321 bound_to 7965
  139.6944  144.7643  151.1382 LP  0  0  0  0  0  0  0  0  0  0  0  0  # atno 17342 bound_to 10162
  140.7685  143.5544  150.9168 LP  0  0  0  0  0  0  0  0  0  0  0  0  # atno 17343 bound_to 10162
  156.8456  130.5063  149.5317 LP  0  0  0  0  0  0  0  0  0  0  0  0  # atno 17370 bound_to 10713
  156.0946  130.5922  150.9791 LP  0  0  0  0  0  0  0  0  0  0  0  0  # atno 17371 bound_to 10713
  141.2180  133.7454  156.9302 LP  0  0  0  0  0  0  0  0  0  0  0  0  # atno 17394 bound_to 11000
  140.1393  134.9304  157.2445 LP  0  0  0  0  0  0  0  0  0  0  0  0  # atno 17395 bound_to 11000

$$$$
