AV-unprocessed.smi:20|AV-procd|sdf|115|dock1
  -GOLD-   2262015283D 1   1.00000     0.00000
 Structure written by MMmdl.
 57 61  0  0  0  0  0  0  0  0  1 V2000
  142.9504  136.6595  152.9215 O   0  0  0  0  0  0  0  0  0  0  0  0
  143.5016  135.9696  152.0670 C   0  0  0  0  0  0  0  0  0  0  0  0
  143.6833  134.4656  152.1837 C   0  0  0  0  0  0  0  0  0  0  0  0
  144.7303  134.1471  151.0905 C   0  0  2  0  0  0  0  0  0  0  0  0
  144.4767  132.7975  150.3804 C   0  0  0  0  0  0  0  0  0  0  0  0
  144.7500  131.6099  151.3172 C   0  0  0  0  0  0  0  0  0  0  0  0
  146.1704  131.6822  151.8959 C   0  0  0  0  0  0  0  0  0  0  0  0
  146.4037  132.9780  152.5269 N   0  0  0  0  0  0  0  0  0  0  0  0
  147.4070  133.0978  153.4330 C   0  0  0  0  0  0  0  0  0  0  0  0
  148.1984  132.0111  153.6288 N   0  0  0  0  0  0  0  0  0  0  0  0
  149.2081  132.0555  154.5018 C   0  0  0  0  0  0  0  0  0  0  0  0
  149.5938  133.0680  155.2788 N   0  0  0  0  0  0  0  0  0  0  0  0
  148.7996  134.1609  155.0968 C   0  0  0  0  0  0  0  0  0  0  0  0
  147.6986  134.2670  154.1981 C   0  0  0  0  0  0  0  0  0  0  0  0
  147.1382  135.5365  154.2989 N   0  0  0  0  0  0  0  0  0  0  0  0
  147.8642  136.1428  155.1972 C   0  0  0  0  0  0  0  0  0  0  0  0
  148.8698  135.3812  155.7462 N   0  0  0  0  0  0  0  0  0  0  0  0
  149.8189  135.8005  156.7624 C   0  0  0  0  0  0  0  0  0  0  0  0
  149.6754  137.2778  157.2262 C   0  0  1  0  0  0  0  0  0  0  0  0
  149.6181  137.3176  158.7728 C   0  0  0  0  0  0  0  0  0  0  0  0
  150.8704  136.9988  159.3445 O   0  0  0  0  0  0  0  0  0  0  0  0
  150.7966  138.2087  156.6719 C   0  0  2  0  0  0  0  0  0  0  0  0
  150.7650  139.6396  157.1901 C   0  0  0  0  0  0  0  0  0  0  0  0
  151.6175  140.3753  156.1677 C   0  0  0  0  0  0  0  0  0  0  0  0
  151.2665  139.7806  154.9294 O   0  0  0  0  0  0  0  0  0  0  0  0
  150.7639  138.4668  155.1545 C   0  0  0  0  0  0  0  0  0  0  0  0
  146.1630  134.1506  151.6839 C   0  0  0  0  0  0  0  0  0  0  0  0
  144.5768  135.3381  150.1161 C   0  0  0  0  0  0  0  0  0  0  0  0
  144.0188  136.4075  150.9215 N   0  0  0  0  0  0  0  0  0  0  0  0
  144.0035  134.1770  153.1855 H   0  0  0  0  0  0  0  0  0  0  0  0
  142.7257  133.9850  151.9804 H   0  0  0  0  0  0  0  0  0  0  0  0
  143.4535  132.7478  150.0061 H   0  0  0  0  0  0  0  0  0  0  0  0
  145.1256  132.7187  149.5068 H   0  0  0  0  0  0  0  0  0  0  0  0
  144.0237  131.6072  152.1309 H   0  0  0  0  0  0  0  0  0  0  0  0
  144.6153  130.6706  150.7803 H   0  0  0  0  0  0  0  0  0  0  0  0
  146.3064  130.8789  152.6210 H   0  0  0  0  0  0  0  0  0  0  0  0
  146.9012  131.5337  151.1000 H   0  0  0  0  0  0  0  0  0  0  0  0
  149.7887  131.1493  154.5917 H   0  0  0  0  0  0  0  0  0  0  0  0
  147.6732  137.1628  155.4969 H   0  0  0  0  0  0  0  0  0  0  0  0
  149.6940  135.1211  157.6059 H   0  0  0  0  0  0  0  0  0  0  0  0
  150.8272  135.6299  156.3831 H   0  0  0  0  0  0  0  0  0  0  0  0
  148.7213  137.6635  156.8647 H   0  0  0  0  0  0  0  0  0  0  0  0
  149.2998  138.2997  159.1242 H   0  0  0  0  0  0  0  0  0  0  0  0
  148.9088  136.5909  159.1661 H   0  0  0  0  0  0  0  0  0  0  0  0
  151.2670  137.7949  159.6643 H   0  0  0  0  0  0  0  0  0  0  0  0
  151.7690  137.7863  156.9304 H   0  0  0  0  0  0  0  0  0  0  0  0
  149.7466  140.0310  157.1769 H   0  0  0  0  0  0  0  0  0  0  0  0
  151.1610  139.7417  158.2008 H   0  0  0  0  0  0  0  0  0  0  0  0
  151.4397  141.4508  156.1626 H   0  0  0  0  0  0  0  0  0  0  0  0
  152.6778  140.2030  156.3575 H   0  0  0  0  0  0  0  0  0  0  0  0
  151.3645  137.7451  154.6026 H   0  0  0  0  0  0  0  0  0  0  0  0
  149.7457  138.4280  154.7659 H   0  0  0  0  0  0  0  0  0  0  0  0
  146.8977  134.1346  150.8775 H   0  0  0  0  0  0  0  0  0  0  0  0
  146.3332  135.0780  152.2319 H   0  0  0  0  0  0  0  0  0  0  0  0
  145.5202  135.6376  149.6581 H   0  0  0  0  0  0  0  0  0  0  0  0
  143.8738  135.1117  149.3131 H   0  0  0  0  0  0  0  0  0  0  0  0
  144.0154  137.3731  150.6258 H   0  0  0  0  0  0  0  0  0  0  0  0
  1  2  2  0  0  0  0
  2 29  1  0  0  0  0
  2  3  1  0  0  0  0
  3  4  1  0  0  0  0
  3 30  1  0  0  0  0
  3 31  1  0  0  0  0
  4 27  1  0  0  0  0
  4  5  1  0  0  0  0
  4 28  1  0  0  0  0
  5  6  1  0  0  0  0
  5 32  1  0  0  0  0
  5 33  1  0  0  0  0
  6  7  1  0  0  0  0
  6 34  1  0  0  0  0
  6 35  1  0  0  0  0
  7  8  1  0  0  0  0
  7 36  1  0  0  0  0
  7 37  1  0  0  0  0
  8  9  1  0  0  0  0
  8 27  1  0  0  0  0
  9 14  1  0  0  0  0
  9 10  2  0  0  0  0
 10 11  1  0  0  0  0
 11 12  2  0  0  0  0
 11 38  1  0  0  0  0
 12 13  1  0  0  0  0
 13 17  1  0  0  0  0
 13 14  2  0  0  0  0
 14 15  1  0  0  0  0
 15 16  2  0  0  0  0
 16 17  1  0  0  0  0
 16 39  1  0  0  0  0
 17 18  1  0  0  0  0
 18 19  1  0  0  0  0
 18 40  1  0  0  0  0
 18 41  1  0  0  0  0
 19 20  1  0  0  0  0
 19 22  1  0  0  0  0
 19 42  1  0  0  0  0
 20 21  1  0  0  0  0
 20 43  1  0  0  0  0
 20 44  1  0  0  0  0
 21 45  1  0  0  0  0
 22 26  1  0  0  0  0
 22 23  1  0  0  0  0
 22 46  1  0  0  0  0
 23 24  1  0  0  0  0
 23 47  1  0  0  0  0
 23 48  1  0  0  0  0
 24 25  1  0  0  0  0
 24 49  1  0  0  0  0
 24 50  1  0  0  0  0
 25 26  1  0  0  0  0
 26 51  1  0  0  0  0
 26 52  1  0  0  0  0
 27 53  1  0  0  0  0
 27 54  1  0  0  0  0
 28 29  1  0  0  0  0
 28 55  1  0  0  0  0
 28 56  1  0  0  0  0
 29 57  1  0  0  0  0
M  END
> <s_m_source_file>
AV-unprocessed.smi

> <i_m_source_file_index>
20

> <i_lp_mmshare_version>
43012

> <i_f3d_flags>
0

> <s_epik_input>
W0NIMl0xW05IXUMoPU8pW0NIMl1bQ0BAXTEyW0NIMl1bQ0gyXVtDSDJdTihbQ0gyXTIpYyhuW2NIXW4zKWMoYzM0KW5bY0hdbjRbQ0gyXVtDQEhdKFtDSDJdW09IXSlbQ0BASF01W0NIMl1bQ0gyXU9bQ0gyXTU=

> <s_epik_cmdline>
J2VwaWtfcHl0aG9uJywgJy1waCcsICc3LjAnLCAnLXRuJywgJzgnLCAnLW1hJywgJzIwMCcsICctbWV0YWxfYmluZGluZycsICctaW1hZScsICc8aW5maWxlLm1hZT4nLCAnLW9tYWUnLCAnPG91dGZpbGUubWFlPic=

> <r_lp_tautomer_probability>
1

> <r_epik_Ionization_Penalty>
0.0019697

> <r_epik_Ionization_Penalty_Charging>
0

> <r_epik_Ionization_Penalty_Neutral>
0.0019697

> <r_epik_State_Penalty>
0.00113613

> <r_epik_Charging_Adjusted_Penalty>
0.00113613

> <i_epik_Tot_Q>
0

> <i_epik_Tot_abs_Q>
0

> <r_epik_Metal_State_Penalty>
-0

> <b_epik_Metal_Only>
0

> <s_lp_Force_Field>
OPLS_2005

> <r_lp_Energy>
60.5509

> <b_lp_Chiralities_Consistent>
1

> <s_lp_Variant>
AV-unprocessed.smi:20-3

> <Gold.Version>
5.8.1

> <Gold.Id.Protein>
6NUR|6NUR_protein|mol2

> <Gold.PLP.Fitness>
49.9931

> <Gold.PLP.PLP>
-42.8497

> <Gold.PLP.part.hbond>
-3.0000

> <Gold.PLP.part.metal>
0.0000

> <Gold.PLP.part.buried>
-6.9585

> <Gold.PLP.part.nonpolar>
-33.9376

> <Gold.PLP.part.repulsive>
1.4850

> <Gold.PLP.ligand.clash>
0.0000

> <Gold.PLP.ligand.torsion>
1.1009

> <Gold.PLP.Chemscore.Hbond>
2.9760

> <Gold.PLP.Chemscore.CHOScore>
0.0000

> <Gold.PLP.Chemscore.Metal>
0.0000

> <Gold.Chemscore.Hbonds>
donor molecule, donor type, donor heavy atom, donor atom, acceptor molecule, acceptor atom, score
      L1  H    29    57       P1 10171  0.83
      P1  H  6896  6907       L1    21  1.00
      P1  H  7989  7998       L1    25  1.00

> <Gold.PLP.Chemscore.Internal.Correction>
0.4172

> <Gold.Rescore>
     Score         DG    S(hbond)    S(metal)    S(lipo)     H(rot)  DE(clash)    DE(int)     intcor
     16.96     -18.98       2.92        0.00      85.30       2.43       0.34       1.68       ----

> <Gold.Chemscore.Fitness>
16.9617

> <Gold.Chemscore.DG>
-18.9754

> <Gold.Chemscore.ZeroCoef>
-5.4800

> <Gold.Chemscore.Hbond>
2.9157

> <Gold.Chemscore.Metal>
0.0000

> <Gold.Chemscore.Lipo>
85.2992

> <Gold.Chemscore.Internal_Hbond>
0.0000

> <Gold.Chemscore.DEClash>
0.3372

> <Gold.Chemscore.DEInternal>
1.6766

> <Gold.Chemscore.Rot>
2.4309

> <Gold.Chemscore.Internal.Correction>
   9.000000E+99

> <Gold.Chemscore.Hbonds>
donor molecule, donor type, donor heavy atom, donor atom, acceptor molecule, acceptor atom, score
      L1  H    29    57       P1 10171  0.80
      P1  H  6896  6907       L1    21  0.96
      P1  H  7989  7998       L1    25  0.82

> <Gold.Chemscore.Hbond.Weighted>
-9.7386

> <Gold.Chemscore.Metal.Weighted>
-0.0000

> <Gold.Chemscore.Lipo.Weighted>
-9.9800

> <Gold.Chemscore.Internal_Hbond.Weighted>
0.0000

> <Gold.Chemscore.DEClash.Weighted>
0.3372

> <Gold.Chemscore.DEInternal.Weighted>
1.6766

> <Gold.Chemscore.Rot.Weighted>
6.2231

> <Gold.Chemscore.Internal.Correction.Weighted>
   9.000000E+99

> <Gold.Protein.RotatedTorsions>
[ 6907 6896 6895 6894 ] final  -12.79 input  -60.11 | X-H torsion
[ 7974 7965 7964 7962 ] final  117.91 input  175.53 | X-H torsion
[ 8008 7997 7996 7995 ] final  148.86 input   59.86 | X-H torsion
[ 10167 10162 10161 10158 ] final   56.95 input  -65.29 | X-H torsion
[ 10718 10713 10712 10709 ] final   71.43 input   66.30 | X-H torsion
[ 10763 10752 10751 10750 ] final   71.53 input  -60.55 | X-H torsion
[ 11005 11000 10999 10996 ] final  149.68 input  -57.11 | X-H torsion

> <Gold.Protein.ActiveResidues>
 VAL166  LYS551  ARG553  GLY616  TRP617  ASP618  TYR619  PRO620  LYS621  CYS622 
 ASP623  PHE694  ASN695  SER759  ASP760  ASP761  ALA762  ILE779  LEU786  VAL792 
 PHE793  MET794  SER795  GLU796  ALA797  LYS798  CYS799  TRP800  GLU811  SER814 

> <Gold.Protein.RotatedAtoms>
  151.3650  135.0911  159.9446 H   0  0  0  0  0  0  0  0  0  0  0  0  # atno 6907 bound_to 6896
  152.5151  133.9221  159.7550 H   0  0  0  0  0  0  0  0  0  0  0  0  # atno 6908 bound_to 6896
  150.9623  133.6377  159.2781 H   0  0  0  0  0  0  0  0  0  0  0  0  # atno 6909 bound_to 6896
  145.1616  139.3152  143.4514 H   0  0  0  0  0  0  0  0  0  0  0  0  # atno 7974 bound_to 7965
  156.2776  140.2117  156.5766 H   0  0  0  0  0  0  0  0  0  0  0  0  # atno 8008 bound_to 7997
  154.7092  140.0513  157.0557 H   0  0  0  0  0  0  0  0  0  0  0  0  # atno 8009 bound_to 7997
  155.0628  140.3168  155.4658 H   0  0  0  0  0  0  0  0  0  0  0  0  # atno 8010 bound_to 7997
  140.2032  144.3966  150.6520 H   0  0  0  0  0  0  0  0  0  0  0  0  # atno 10167 bound_to 10162
  157.6451  130.9528  150.0789 H   0  0  0  0  0  0  0  0  0  0  0  0  # atno 10718 bound_to 10713
  153.0404  135.5133  154.7607 H   0  0  0  0  0  0  0  0  0  0  0  0  # atno 10763 bound_to 10752
  154.6549  135.2930  154.9942 H   0  0  0  0  0  0  0  0  0  0  0  0  # atno 10764 bound_to 10752
  154.0814  135.6663  153.4891 H   0  0  0  0  0  0  0  0  0  0  0  0  # atno 10765 bound_to 10752
  140.1065  134.8950  157.1874 H   0  0  0  0  0  0  0  0  0  0  0  0  # atno 11005 bound_to 11000
  146.3481  140.1729  142.8589 LP  0  0  0  0  0  0  0  0  0  0  0  0  # atno 17320 bound_to 7965
  145.0325  140.8882  143.5101 LP  0  0  0  0  0  0  0  0  0  0  0  0  # atno 17321 bound_to 7965
  140.6375  143.2197  151.6362 LP  0  0  0  0  0  0  0  0  0  0  0  0  # atno 17342 bound_to 10162
  139.5209  144.3210  152.0910 LP  0  0  0  0  0  0  0  0  0  0  0  0  # atno 17343 bound_to 10162
  156.1771  130.3648  149.9086 LP  0  0  0  0  0  0  0  0  0  0  0  0  # atno 17370 bound_to 10713
  156.7047  130.8947  151.3603 LP  0  0  0  0  0  0  0  0  0  0  0  0  # atno 17371 bound_to 10713
  140.3148  134.2983  155.7259 LP  0  0  0  0  0  0  0  0  0  0  0  0  # atno 17394 bound_to 11000
  141.2119  133.7673  156.9828 LP  0  0  0  0  0  0  0  0  0  0  0  0  # atno 17395 bound_to 11000

$$$$
