AV-unprocessed.smi:414|AV-procd|sdf|2517|dock5
  -GOLD-   2262022463D 1   1.00000     0.00000
 Structure written by MMmdl.
 37 38  0  0  0  0  0  0  0  0  2 V2000
  145.3087  135.5048  151.3066 C   0  0  0  0  0  0  0  0  0  0  0  0
  145.5206  136.9128  151.8808 C   0  0  2  0  0  0  0  0  0  0  0  0
  146.5690  137.6995  151.0711 C   0  0  0  0  0  0  0  0  0  0  0  0
  146.7886  139.1105  151.6451 C   0  0  0  0  0  0  0  0  0  0  0  0
  147.1671  139.0804  153.1407 C   0  0  2  0  0  0  0  0  0  0  0  0
  148.5098  138.5377  153.3384 N   0  0  0  0  0  0  0  0  0  0  0  0
  149.4816  139.1055  154.0685 C   0  0  0  0  0  0  0  0  0  0  0  0
  149.3495  140.1835  154.6497 O   0  0  0  0  0  0  0  0  0  0  0  0
  150.8169  138.3518  154.1186 C   0  0  0  0  0  0  0  0  0  0  0  0
  151.2052  137.9805  155.4885 N   0  0  0  0  0  0  0  0  0  0  0  0
  150.4140  137.0325  156.1611 C   0  0  0  0  0  0  0  0  0  0  0  0
  150.6986  136.6306  157.4145 C   0  0  0  0  0  0  0  0  0  0  0  0
  151.8624  137.2072  158.0767 C   0  0  0  0  0  0  0  0  0  0  0  0
  152.1335  136.8574  159.2237 O   0  0  0  0  0  0  0  0  0  0  0  0
  152.6019  138.1194  157.3803 N   0  5  0  0  0  0  0  0  0  0  0  0
  152.3026  138.5156  156.1043 C   0  0  0  0  0  0  0  0  0  0  0  0
  152.9857  139.3377  155.4924 O   0  0  0  0  0  0  0  0  0  0  0  0
  146.1389  138.2669  153.9501 C   0  0  0  0  0  0  0  0  0  0  0  0
  145.9190  136.8592  153.3680 C   0  0  0  0  0  0  0  0  0  0  0  0
  146.2283  134.9197  151.3416 H   0  0  0  0  0  0  0  0  0  0  0  0
  144.9819  135.5493  150.2673 H   0  0  0  0  0  0  0  0  0  0  0  0
  144.5475  134.9621  151.8682 H   0  0  0  0  0  0  0  0  0  0  0  0
  144.5706  137.4439  151.8067 H   0  0  0  0  0  0  0  0  0  0  0  0
  147.5150  137.1564  151.0647 H   0  0  0  0  0  0  0  0  0  0  0  0
  146.2540  137.7766  150.0299 H   0  0  0  0  0  0  0  0  0  0  0  0
  147.5526  139.6333  151.0685 H   0  0  0  0  0  0  0  0  0  0  0  0
  145.8720  139.6888  151.5226 H   0  0  0  0  0  0  0  0  0  0  0  0
  147.1541  140.1027  153.5230 H   0  0  0  0  0  0  0  0  0  0  0  0
  148.7117  137.6536  152.8944 H   0  0  0  0  0  0  0  0  0  0  0  0
  150.7714  137.4627  153.4863 H   0  0  0  0  0  0  0  0  0  0  0  0
  151.5800  138.9855  153.6649 H   0  0  0  0  0  0  0  0  0  0  0  0
  149.5750  136.6506  155.5981 H   0  0  0  0  0  0  0  0  0  0  0  0
  150.0833  135.8977  157.9154 H   0  0  0  0  0  0  0  0  0  0  0  0
  146.4512  138.1956  154.9928 H   0  0  0  0  0  0  0  0  0  0  0  0
  145.1876  138.8006  153.9555 H   0  0  0  0  0  0  0  0  0  0  0  0
  145.1463  136.3466  153.9420 H   0  0  0  0  0  0  0  0  0  0  0  0
  146.8283  136.2682  153.4853 H   0  0  0  0  0  0  0  0  0  0  0  0
  1  2  1  0  0  0  0
  1 20  1  0  0  0  0
  1 21  1  0  0  0  0
  1 22  1  0  0  0  0
  2 19  1  0  0  0  0
  2  3  1  0  0  0  0
  2 23  1  0  0  0  0
  3  4  1  0  0  0  0
  3 24  1  0  0  0  0
  3 25  1  0  0  0  0
  4  5  1  0  0  0  0
  4 26  1  0  0  0  0
  4 27  1  0  0  0  0
  5  6  1  0  0  0  0
  5 18  1  0  0  0  0
  5 28  1  0  0  0  0
  6  7  1  0  0  0  0
  6 29  1  0  0  0  0
  7  8  2  0  0  0  0
  7  9  1  0  0  0  0
  9 10  1  0  0  0  0
  9 30  1  0  0  0  0
  9 31  1  0  0  0  0
 10 16  1  0  0  0  0
 10 11  1  0  0  0  0
 11 12  2  0  0  0  0
 11 32  1  0  0  0  0
 12 13  1  0  0  0  0
 12 33  1  0  0  0  0
 13 14  2  0  0  0  0
 13 15  1  0  0  0  0
 15 16  1  0  0  0  0
 16 17  2  0  0  0  0
 18 19  1  0  0  0  0
 18 34  1  0  0  0  0
 18 35  1  0  0  0  0
 19 36  1  0  0  0  0
 19 37  1  0  0  0  0
M  CHG  1  15  -1
M  END
> <s_m_source_file>
AV-unprocessed.smi

> <i_m_source_file_index>
414

> <i_lp_mmshare_version>
43012

> <i_f3d_flags>
0

> <s_epik_input>
W0NIM11bQ0BASF0xW0NIMl1bQ0gyXVtDQEhdKFtDSDJdW0NIMl0xKVtOSF1DKD1PKVtDSDJdbjJbY0hdW2NIXWMoPU8pW25IXWMyPU8=

> <s_epik_cmdline>
J2VwaWtfcHl0aG9uJywgJy1waCcsICc3LjAnLCAnLXRuJywgJzgnLCAnLW1hJywgJzIwMCcsICctbWV0YWxfYmluZGluZycsICctaW1hZScsICc8aW5maWxlLm1hZT4nLCAnLW9tYWUnLCAnPG91dGZpbGUubWFlPic=

> <r_lp_tautomer_probability>
0.999537

> <r_epik_Ionization_Penalty>
3.11551

> <r_epik_Ionization_Penalty_Charging>
2.90498e-08

> <r_epik_Ionization_Penalty_Neutral>
3.11551

> <r_epik_State_Penalty>
3.11459

> <r_epik_Charging_Adjusted_Penalty>
3.11459

> <i_epik_Tot_Q>
-1

> <i_epik_Tot_abs_Q>
1

> <r_epik_Metal_State_Penalty>
0.463083

> <b_epik_Metal_Only>
1

> <s_lp_Force_Field>
OPLS_2005

> <r_lp_Energy>
16.6581

> <b_lp_Chiralities_Consistent>
1

> <s_lp_Variant>
AV-unprocessed.smi:414-4

> <Gold.Version>
5.8.1

> <Gold.Id.Protein>
6NUR|6NUR_protein|mol2

> <Gold.PLP.Fitness>
36.5461

> <Gold.PLP.PLP>
-27.8669

> <Gold.PLP.part.hbond>
-4.0000

> <Gold.PLP.part.metal>
0.0000

> <Gold.PLP.part.buried>
2.8537

> <Gold.PLP.part.nonpolar>
-25.8107

> <Gold.PLP.part.repulsive>
0.1512

> <Gold.PLP.ligand.clash>
0.0000

> <Gold.PLP.ligand.torsion>
0.1649

> <Gold.PLP.Chemscore.Hbond>
3.0000

> <Gold.PLP.Chemscore.CHOScore>
0.0000

> <Gold.PLP.Chemscore.Metal>
0.0000

> <Gold.Chemscore.Hbonds>
donor molecule, donor type, donor heavy atom, donor atom, acceptor molecule, acceptor atom, score
      L1  H     6    29       P1  7948  1.00
      P1  H  6896  6907       L1    14  1.00
      P1  H  7997  8010       L1    17  1.00

> <Gold.PLP.Chemscore.Internal.Correction>
0.0089

> <Gold.Rescore>
     Score         DG    S(hbond)    S(metal)    S(lipo)     H(rot)  DE(clash)    DE(int)     intcor
     16.90     -17.62       2.93        0.00      56.40       1.65       0.61       0.11       ----

> <Gold.Chemscore.Fitness>
16.8999

> <Gold.Chemscore.DG>
-17.6187

> <Gold.Chemscore.ZeroCoef>
-5.4800

> <Gold.Chemscore.Hbond>
2.9271

> <Gold.Chemscore.Metal>
0.0000

> <Gold.Chemscore.Lipo>
56.3989

> <Gold.Chemscore.Internal_Hbond>
0.0000

> <Gold.Chemscore.DEClash>
0.6092

> <Gold.Chemscore.DEInternal>
0.1096

> <Gold.Chemscore.Rot>
1.6549

> <Gold.Chemscore.Internal.Correction>
   9.000000E+99

> <Gold.Chemscore.Hbonds>
donor molecule, donor type, donor heavy atom, donor atom, acceptor molecule, acceptor atom, score
      L1  H     6    29       P1  7948  1.00
      P1  H  6896  6907       L1    14  0.96
      P1  H  7997  8010       L1    17  0.98

> <Gold.Chemscore.Hbond.Weighted>
-9.7765

> <Gold.Chemscore.Metal.Weighted>
-0.0000

> <Gold.Chemscore.Lipo.Weighted>
-6.5987

> <Gold.Chemscore.Internal_Hbond.Weighted>
0.0000

> <Gold.Chemscore.DEClash.Weighted>
0.6092

> <Gold.Chemscore.DEInternal.Weighted>
0.1096

> <Gold.Chemscore.Rot.Weighted>
4.2364

> <Gold.Chemscore.Internal.Correction.Weighted>
   9.000000E+99

> <Gold.Protein.RotatedTorsions>
[ 6907 6896 6895 6894 ] final   11.19 input  -60.11 | X-H torsion
[ 7974 7965 7964 7962 ] final   34.25 input  175.53 | X-H torsion
[ 8008 7997 7996 7995 ] final   80.34 input   59.86 | X-H torsion
[ 10167 10162 10161 10158 ] final -121.21 input  -65.29 | X-H torsion
[ 10718 10713 10712 10709 ] final -165.57 input   66.30 | X-H torsion
[ 10763 10752 10751 10750 ] final  114.53 input  -60.55 | X-H torsion
[ 11005 11000 10999 10996 ] final -165.98 input  -57.11 | X-H torsion

> <Gold.Protein.ActiveResidues>
 VAL166  LYS551  ARG553  GLY616  TRP617  ASP618  TYR619  PRO620  LYS621  CYS622 
 ASP623  PHE694  ASN695  SER759  ASP760  ASP761  ALA762  ILE779  LEU786  VAL792 
 PHE793  MET794  SER795  GLU796  ALA797  LYS798  CYS799  TRP800  GLU811  SER814 

> <Gold.Protein.RotatedAtoms>
  151.7504  135.0834  160.0329 H   0  0  0  0  0  0  0  0  0  0  0  0  # atno 6907 bound_to 6896
  152.3420  133.6074  159.5892 H   0  0  0  0  0  0  0  0  0  0  0  0  # atno 6908 bound_to 6896
  150.7485  133.9623  159.3561 H   0  0  0  0  0  0  0  0  0  0  0  0  # atno 6909 bound_to 6896
  146.1365  139.6293  142.9191 H   0  0  0  0  0  0  0  0  0  0  0  0  # atno 7974 bound_to 7965
  155.8821  140.3443  155.5895 H   0  0  0  0  0  0  0  0  0  0  0  0  # atno 8008 bound_to 7997
  155.7707  140.0845  157.2128 H   0  0  0  0  0  0  0  0  0  0  0  0  # atno 8009 bound_to 7997
  154.4025  140.1519  156.2926 H   0  0  0  0  0  0  0  0  0  0  0  0  # atno 8010 bound_to 7997
  140.0275  143.5281  152.2192 H   0  0  0  0  0  0  0  0  0  0  0  0  # atno 10167 bound_to 10162
  156.6553  130.9024  151.3020 H   0  0  0  0  0  0  0  0  0  0  0  0  # atno 10718 bound_to 10713
  153.5086  135.3622  155.2575 H   0  0  0  0  0  0  0  0  0  0  0  0  # atno 10763 bound_to 10752
  154.8743  135.4017  154.3395 H   0  0  0  0  0  0  0  0  0  0  0  0  # atno 10764 bound_to 10752
  153.4044  135.7076  153.6470 H   0  0  0  0  0  0  0  0  0  0  0  0  # atno 10765 bound_to 10752
  140.5696  134.5251  157.5159 H   0  0  0  0  0  0  0  0  0  0  0  0  # atno 11005 bound_to 11000
  145.5143  141.0434  143.2470 LP  0  0  0  0  0  0  0  0  0  0  0  0  # atno 17320 bound_to 7965
  144.7746  139.6659  143.7180 LP  0  0  0  0  0  0  0  0  0  0  0  0  # atno 17321 bound_to 7965
  139.6098  144.7606  151.2978 LP  0  0  0  0  0  0  0  0  0  0  0  0  # atno 17342 bound_to 10162
  140.7316  143.6847  150.7972 LP  0  0  0  0  0  0  0  0  0  0  0  0  # atno 17343 bound_to 10162
  157.7127  130.9460  150.1147 LP  0  0  0  0  0  0  0  0  0  0  0  0  # atno 17370 bound_to 10713
  156.2053  130.3663  149.8737 LP  0  0  0  0  0  0  0  0  0  0  0  0  # atno 17371 bound_to 10713
  139.9368  134.7860  156.0781 LP  0  0  0  0  0  0  0  0  0  0  0  0  # atno 17394 bound_to 11000
  141.1064  133.6658  156.2875 LP  0  0  0  0  0  0  0  0  0  0  0  0  # atno 17395 bound_to 11000

$$$$
