AV-unprocessed.smi:109|AV-procd|sdf|1051|dock8
  -GOLD-   2262018103D 1   1.00000     0.00000
 Structure written by MMmdl.
 58 61  0  0  0  0  0  0  0  0  1 V2000
  148.5928  142.0393  155.3524 O   0  0  0  0  0  0  0  0  0  0  0  0
  149.4507  141.1208  155.9941 C   0  0  0  0  0  0  0  0  0  0  0  0
  150.0682  141.7682  157.2459 C   0  0  0  0  0  0  0  0  0  0  0  0
  151.6148  141.8460  157.2231 C   0  0  2  0  0  0  0  0  0  0  0  0
  152.1720  140.5174  157.4887 N   0  0  0  0  0  0  0  0  0  0  0  0
  152.1681  139.5323  156.5626 C   0  0  0  0  0  0  0  0  0  0  0  0
  153.0013  139.5609  155.4905 N   0  0  0  0  0  0  0  0  0  0  0  0
  152.9693  138.5728  154.5921 C   0  0  0  0  0  0  0  0  0  0  0  0
  152.1966  137.4850  154.5771 N   0  0  0  0  0  0  0  0  0  0  0  0
  151.3555  137.4493  155.6508 C   0  0  0  0  0  0  0  0  0  0  0  0
  151.2823  138.4301  156.6794 C   0  0  0  0  0  0  0  0  0  0  0  0
  150.3120  138.0709  157.6051 N   0  0  0  0  0  0  0  0  0  0  0  0
  149.8416  136.9425  157.1465 C   0  0  0  0  0  0  0  0  0  0  0  0
  150.4103  136.4947  155.9747 N   0  0  0  0  0  0  0  0  0  0  0  0
  150.0711  135.2385  155.2289 C   0  0  2  0  0  0  0  0  0  0  0  0
  148.6849  135.1459  155.0819 O   0  0  0  0  0  0  0  0  0  0  0  0
  148.1991  133.9473  155.6806 C   0  0  1  0  0  0  0  0  0  0  0  0
  146.9318  133.4530  154.9617 C   0  0  0  0  0  0  0  0  0  0  0  0
  145.9545  134.4713  154.9298 O   0  0  0  0  0  0  0  0  0  0  0  0
  149.4076  132.9999  155.6995 C   0  0  1  0  0  0  0  0  0  0  0  0
  149.5572  132.3237  154.4648 O   0  0  0  0  0  0  0  0  0  0  0  0
  150.5689  133.9549  155.9262 C   0  0  2  0  0  0  0  0  0  0  0  0
  150.8241  134.1120  157.3111 O   0  0  0  0  0  0  0  0  0  0  0  0
  152.2026  142.8651  158.2415 C   0  0  0  0  0  0  0  0  0  0  0  0
  152.2431  142.3259  159.6936 C   0  0  0  0  0  0  0  0  0  0  0  0
  152.7886  143.3615  160.6908 C   0  0  0  0  0  0  0  0  0  0  0  0
  151.9870  144.6676  160.6408 C   0  0  0  0  0  0  0  0  0  0  0  0
  151.9598  145.2294  159.2145 C   0  0  0  0  0  0  0  0  0  0  0  0
  151.4060  144.1956  158.2215 C   0  0  0  0  0  0  0  0  0  0  0  0
  150.5155  135.3767  154.2423 H   0  0  0  0  0  0  0  0  0  0  0  0
  147.9425  134.1876  156.7128 H   0  0  0  0  0  0  0  0  0  0  0  0
  149.3236  132.2487  156.4861 H   0  0  0  0  0  0  0  0  0  0  0  0
  151.4904  133.6138  155.4525 H   0  0  0  0  0  0  0  0  0  0  0  0
  148.9524  142.9074  155.4528 H   0  0  0  0  0  0  0  0  0  0  0  0
  148.8740  140.2322  156.2506 H   0  0  0  0  0  0  0  0  0  0  0  0
  150.2297  140.8159  155.2948 H   0  0  0  0  0  0  0  0  0  0  0  0
  149.6488  142.7702  157.3180 H   0  0  0  0  0  0  0  0  0  0  0  0
  149.7405  141.2320  158.1376 H   0  0  0  0  0  0  0  0  0  0  0  0
  151.9090  142.1966  156.2342 H   0  0  0  0  0  0  0  0  0  0  0  0
  152.5180  140.3754  158.4269 H   0  0  0  0  0  0  0  0  0  0  0  0
  153.6606  138.6668  153.7679 H   0  0  0  0  0  0  0  0  0  0  0  0
  149.0579  136.4004  157.6554 H   0  0  0  0  0  0  0  0  0  0  0  0
  147.1740  133.1795  153.9346 H   0  0  0  0  0  0  0  0  0  0  0  0
  146.5211  132.5621  155.4370 H   0  0  0  0  0  0  0  0  0  0  0  0
  145.1293  134.1035  155.2069 H   0  0  0  0  0  0  0  0  0  0  0  0
  150.1725  132.8073  153.9346 H   0  0  0  0  0  0  0  0  0  0  0  0
  150.6604  135.0127  157.5448 H   0  0  0  0  0  0  0  0  0  0  0  0
  153.2291  143.0847  157.9432 H   0  0  0  0  0  0  0  0  0  0  0  0
  151.2432  142.0155  159.9994 H   0  0  0  0  0  0  0  0  0  0  0  0
  152.8779  141.4442  159.7630 H   0  0  0  0  0  0  0  0  0  0  0  0
  152.7648  142.9518  161.7012 H   0  0  0  0  0  0  0  0  0  0  0  0
  153.8360  143.5674  160.4661 H   0  0  0  0  0  0  0  0  0  0  0  0
  150.9677  144.4875  160.9850 H   0  0  0  0  0  0  0  0  0  0  0  0
  152.4212  145.3992  161.3228 H   0  0  0  0  0  0  0  0  0  0  0  0
  151.3524  146.1345  159.1851 H   0  0  0  0  0  0  0  0  0  0  0  0
  152.9668  145.5225  158.9150 H   0  0  0  0  0  0  0  0  0  0  0  0
  151.4176  144.6393  157.2258 H   0  0  0  0  0  0  0  0  0  0  0  0
  150.3587  143.9969  158.4533 H   0  0  0  0  0  0  0  0  0  0  0  0
  1  2  1  0  0  0  0
  1 34  1  0  0  0  0
  2  3  1  0  0  0  0
  2 35  1  0  0  0  0
  2 36  1  0  0  0  0
  3  4  1  0  0  0  0
  3 37  1  0  0  0  0
  3 38  1  0  0  0  0
  4  5  1  0  0  0  0
  4 24  1  0  0  0  0
  4 39  1  0  0  0  0
  5  6  1  0  0  0  0
  5 40  1  0  0  0  0
  6 11  1  0  0  0  0
  6  7  2  0  0  0  0
  7  8  1  0  0  0  0
  8  9  2  0  0  0  0
  8 41  1  0  0  0  0
  9 10  1  0  0  0  0
 10 14  1  0  0  0  0
 10 11  2  0  0  0  0
 11 12  1  0  0  0  0
 12 13  2  0  0  0  0
 13 14  1  0  0  0  0
 13 42  1  0  0  0  0
 14 15  1  0  0  0  0
 15 30  1  0  0  0  0
 15 22  1  0  0  0  0
 15 16  1  0  0  0  0
 16 17  1  0  0  0  0
 17 31  1  0  0  0  0
 17 18  1  0  0  0  0
 17 20  1  0  0  0  0
 18 19  1  0  0  0  0
 18 43  1  0  0  0  0
 18 44  1  0  0  0  0
 19 45  1  0  0  0  0
 20 32  1  0  0  0  0
 20 21  1  0  0  0  0
 20 22  1  0  0  0  0
 21 46  1  0  0  0  0
 22 33  1  0  0  0  0
 22 23  1  0  0  0  0
 23 47  1  0  0  0  0
 24 29  1  0  0  0  0
 24 25  1  0  0  0  0
 24 48  1  0  0  0  0
 25 26  1  0  0  0  0
 25 49  1  0  0  0  0
 25 50  1  0  0  0  0
 26 27  1  0  0  0  0
 26 51  1  0  0  0  0
 26 52  1  0  0  0  0
 27 28  1  0  0  0  0
 27 53  1  0  0  0  0
 27 54  1  0  0  0  0
 28 29  1  0  0  0  0
 28 55  1  0  0  0  0
 28 56  1  0  0  0  0
 29 57  1  0  0  0  0
 29 58  1  0  0  0  0
M  END
> <s_m_source_file>
AV-unprocessed.smi

> <i_m_source_file_index>
109

> <i_lp_mmshare_version>
43012

> <i_f3d_flags>
0

> <s_epik_input>
W0NIMl0xW0NIMl1bQ0gyXVtDSDJdW0NIMl1bQ0hdMVtDQEhdKFtDSDJdW0NIMl1bT0hdKVtOSF1jKG5bY0hdbjIpYyhjMjMpbltjSF1uM1tDQEBIXTRPW0NASF0oW0NIMl1bT0hdKVtDQEBIXShbT0hdKVtDQEhdNFtPSF0=

> <s_epik_cmdline>
J2VwaWtfcHl0aG9uJywgJy1waCcsICc3LjAnLCAnLXRuJywgJzgnLCAnLW1hJywgJzIwMCcsICctbWV0YWxfYmluZGluZycsICctaW1hZScsICc8aW5maWxlLm1hZT4nLCAnLW9tYWUnLCAnPG91dGZpbGUubWFlPic=

> <r_lp_tautomer_probability>
1

> <r_epik_Ionization_Penalty>
0.000793976

> <r_epik_Ionization_Penalty_Charging>
0

> <r_epik_Ionization_Penalty_Neutral>
0.000793976

> <r_epik_State_Penalty>
-0

> <r_epik_Charging_Adjusted_Penalty>
0

> <i_epik_Tot_Q>
0

> <i_epik_Tot_abs_Q>
0

> <r_epik_Metal_State_Penalty>
-0

> <b_epik_Metal_Only>
0

> <s_epik_Chemistry_Notes>
This compound contains an acetal/aminal-like group ( X-CH(R)-Y where X, Y are N, S, or O) that may be acid/base labile, releasing an aldehyde.

> <s_lp_Force_Field>
OPLS_2005

> <r_lp_Energy>
55.8609

> <b_lp_Chiralities_Consistent>
1

> <s_lp_Variant>
AV-unprocessed.smi:109-21

> <Gold.Version>
5.8.1

> <Gold.Id.Protein>
6NUR|6NUR_protein|mol2

> <Gold.PLP.Fitness>
52.0028

> <Gold.PLP.PLP>
-47.0500

> <Gold.PLP.part.hbond>
-4.0000

> <Gold.PLP.part.metal>
0.0000

> <Gold.PLP.part.buried>
-8.8129

> <Gold.PLP.part.nonpolar>
-34.9200

> <Gold.PLP.part.repulsive>
0.6765

> <Gold.PLP.ligand.clash>
0.0000

> <Gold.PLP.ligand.torsion>
1.9580

> <Gold.PLP.Chemscore.Hbond>
2.9199

> <Gold.PLP.Chemscore.CHOScore>
0.0000

> <Gold.PLP.Chemscore.Metal>
0.0000

> <Gold.Chemscore.Hbonds>
donor molecule, donor type, donor heavy atom, donor atom, acceptor molecule, acceptor atom, score
      L1  H     1    34       P1  8028  1.00
      P1  H  6896  6909       L1    23  0.31
      P1  H  7997  8008       L1     7  1.00
      P1  H 10752 10763       L1     9  0.75

> <Gold.PLP.Chemscore.Internal.Correction>
0.1093

> <Gold.Rescore>
     Score         DG    S(hbond)    S(metal)    S(lipo)     H(rot)  DE(clash)    DE(int)     intcor
      9.67     -12.87       2.67        0.00     106.36       5.47       0.16       3.04       ----

> <Gold.Chemscore.Fitness>
9.6722

> <Gold.Chemscore.DG>
-12.8655

> <Gold.Chemscore.ZeroCoef>
-5.4800

> <Gold.Chemscore.Hbond>
2.6750

> <Gold.Chemscore.Metal>
0.0000

> <Gold.Chemscore.Lipo>
106.3644

> <Gold.Chemscore.Internal_Hbond>
0.0000

> <Gold.Chemscore.DEClash>
0.1578

> <Gold.Chemscore.DEInternal>
3.0356

> <Gold.Chemscore.Rot>
5.4662

> <Gold.Chemscore.Internal.Correction>
   9.000000E+99

> <Gold.Chemscore.Hbonds>
donor molecule, donor type, donor heavy atom, donor atom, acceptor molecule, acceptor atom, score
      L1  H     1    34       P1  8028  0.98
      P1  H  6896  6909       L1    23  0.03
      P1  H  7997  8008       L1     7  0.67
      P1  H 10752 10763       L1     9  0.51

> <Gold.Chemscore.Hbond.Weighted>
-8.9344

> <Gold.Chemscore.Metal.Weighted>
-0.0000

> <Gold.Chemscore.Lipo.Weighted>
-12.4446

> <Gold.Chemscore.Internal_Hbond.Weighted>
0.0000

> <Gold.Chemscore.DEClash.Weighted>
0.1578

> <Gold.Chemscore.DEInternal.Weighted>
3.0356

> <Gold.Chemscore.Rot.Weighted>
13.9935

> <Gold.Chemscore.Internal.Correction.Weighted>
   9.000000E+99

> <Gold.Protein.RotatedTorsions>
[ 6907 6896 6895 6894 ] final  -21.39 input  -60.11 | X-H torsion
[ 7974 7965 7964 7962 ] final -113.83 input  175.53 | X-H torsion
[ 8008 7997 7996 7995 ] final  -18.58 input   59.86 | X-H torsion
[ 10167 10162 10161 10158 ] final   68.51 input  -65.29 | X-H torsion
[ 10718 10713 10712 10709 ] final -166.11 input   66.30 | X-H torsion
[ 10763 10752 10751 10750 ] final   40.88 input  -60.55 | X-H torsion
[ 11005 11000 10999 10996 ] final -169.22 input  -57.11 | X-H torsion

> <Gold.Protein.ActiveResidues>
 VAL166  LYS551  ARG553  GLY616  TRP617  ASP618  TYR619  PRO620  LYS621  CYS622 
 ASP623  PHE694  ASN695  SER759  ASP760  ASP761  ALA762  ILE779  LEU786  VAL792 
 PHE793  MET794  SER795  GLU796  ALA797  LYS798  CYS799  TRP800  GLU811  SER814 

> <Gold.Protein.RotatedAtoms>
  151.2340  135.0565  159.8998 H   0  0  0  0  0  0  0  0  0  0  0  0  # atno 6907 bound_to 6896
  152.5401  134.0506  159.8118 H   0  0  0  0  0  0  0  0  0  0  0  0  # atno 6908 bound_to 6896
  151.0690  133.5433  159.2660 H   0  0  0  0  0  0  0  0  0  0  0  0  # atno 6909 bound_to 6896
  145.1273  140.8704  143.3778 H   0  0  0  0  0  0  0  0  0  0  0  0  # atno 7974 bound_to 7965
  154.4896  140.2112  155.9578 H   0  0  0  0  0  0  0  0  0  0  0  0  # atno 8008 bound_to 7997
  156.1286  140.3201  155.8283 H   0  0  0  0  0  0  0  0  0  0  0  0  # atno 8009 bound_to 7997
  155.4338  140.0505  157.3007 H   0  0  0  0  0  0  0  0  0  0  0  0  # atno 8010 bound_to 7997
  140.0778  144.5097  150.7182 H   0  0  0  0  0  0  0  0  0  0  0  0  # atno 10167 bound_to 10162
  156.6631  130.9054  151.3032 H   0  0  0  0  0  0  0  0  0  0  0  0  # atno 10718 bound_to 10713
  152.9923  135.6178  154.2698 H   0  0  0  0  0  0  0  0  0  0  0  0  # atno 10763 bound_to 10752
  154.2431  135.2788  155.2848 H   0  0  0  0  0  0  0  0  0  0  0  0  # atno 10764 bound_to 10752
  154.5352  135.5776  153.6850 H   0  0  0  0  0  0  0  0  0  0  0  0  # atno 10765 bound_to 10752
  140.5331  134.5596  157.5080 H   0  0  0  0  0  0  0  0  0  0  0  0  # atno 11005 bound_to 11000
  145.0674  139.3058  143.5849 LP  0  0  0  0  0  0  0  0  0  0  0  0  # atno 17320 bound_to 7965
  146.3516  140.0137  142.8665 LP  0  0  0  0  0  0  0  0  0  0  0  0  # atno 17321 bound_to 7965
  140.7093  143.2492  151.4631 LP  0  0  0  0  0  0  0  0  0  0  0  0  # atno 17342 bound_to 10162
  139.5797  144.1737  152.1952 LP  0  0  0  0  0  0  0  0  0  0  0  0  # atno 17343 bound_to 10162
  157.7103  130.9432  150.1066 LP  0  0  0  0  0  0  0  0  0  0  0  0  # atno 17370 bound_to 10713
  156.1996  130.3659  149.8806 LP  0  0  0  0  0  0  0  0  0  0  0  0  # atno 17371 bound_to 10713
  139.9543  134.7562  156.0376 LP  0  0  0  0  0  0  0  0  0  0  0  0  # atno 17394 bound_to 11000
  141.1270  133.6596  156.3362 LP  0  0  0  0  0  0  0  0  0  0  0  0  # atno 17395 bound_to 11000

$$$$
