AV-unprocessed.smi:2953|AV-procd|sdf|11293|dock10
  -GOLD-   2272016183D 1   1.00000     0.00000
 Structure written by MMmdl.
 45 47  0  0  0  0  0  0  0  0  1 V2000
  151.5971  145.4828  159.6313 C   0  0  0  0  0  0  0  0  0  0  0  0
  152.1244  144.0849  159.8929 C   0  0  0  0  0  0  0  0  0  0  0  0
  152.9450  143.8519  161.0164 C   0  0  0  0  0  0  0  0  0  0  0  0
  153.4385  142.5611  161.2791 C   0  0  0  0  0  0  0  0  0  0  0  0
  153.1112  141.4988  160.4182 C   0  0  0  0  0  0  0  0  0  0  0  0
  152.2919  141.7259  159.2961 C   0  0  0  0  0  0  0  0  0  0  0  0
  151.7889  143.0235  159.0195 C   0  0  0  0  0  0  0  0  0  0  0  0
  150.9835  143.3178  157.9380 O   0  0  0  0  0  0  0  0  0  0  0  0
  150.2633  142.2578  157.3227 C   0  0  0  0  0  0  0  0  0  0  0  0
  151.0976  141.6512  156.1861 C   0  0  0  0  0  0  0  0  0  0  0  0
  150.4112  140.5516  155.5217 N   0  0  0  0  0  0  0  0  0  0  0  0
  150.7745  139.2440  155.4376 C   0  0  0  0  0  0  0  0  0  0  0  0
  152.0276  138.7099  156.0895 C   0  0  2  0  0  0  0  0  0  0  0  0
  153.0386  138.0988  155.0997 C   0  0  0  0  0  0  0  0  0  0  0  0
  151.6635  137.7847  157.1631 N   0  0  0  0  0  0  0  0  0  0  0  0
  151.1288  136.5655  157.0063 C   0  0  0  0  0  0  0  0  0  0  0  0
  150.8793  136.0794  155.9061 O   0  0  0  0  0  0  0  0  0  0  0  0
  149.9072  138.4495  154.8044 N   0  0  0  0  0  0  0  0  0  0  0  0
  148.9176  139.3252  154.4065 C   0  0  0  0  0  0  0  0  0  0  0  0
  147.7282  139.0979  153.6777 C   0  0  0  0  0  0  0  0  0  0  0  0
  146.8537  140.1659  153.3883 C   0  0  0  0  0  0  0  0  0  0  0  0
  147.1544  141.4726  153.8241 C   0  0  0  0  0  0  0  0  0  0  0  0
  148.3330  141.7193  154.5543 C   0  0  0  0  0  0  0  0  0  0  0  0
  149.2035  140.6500  154.8384 C   0  0  0  0  0  0  0  0  0  0  0  0
  152.0735  146.2175  160.2812 H   0  0  0  0  0  0  0  0  0  0  0  0
  150.5225  145.5149  159.8116 H   0  0  0  0  0  0  0  0  0  0  0  0
  151.7842  145.7774  158.5982 H   0  0  0  0  0  0  0  0  0  0  0  0
  153.1988  144.6632  161.6829 H   0  0  0  0  0  0  0  0  0  0  0  0
  154.0664  142.3863  162.1404 H   0  0  0  0  0  0  0  0  0  0  0  0
  153.4886  140.5067  160.6186 H   0  0  0  0  0  0  0  0  0  0  0  0
  152.0645  140.8834  158.6617 H   0  0  0  0  0  0  0  0  0  0  0  0
  150.0375  141.4793  158.0530 H   0  0  0  0  0  0  0  0  0  0  0  0
  149.3183  142.6307  156.9244 H   0  0  0  0  0  0  0  0  0  0  0  0
  151.3683  142.4149  155.4583 H   0  0  0  0  0  0  0  0  0  0  0  0
  152.0402  141.2740  156.5843 H   0  0  0  0  0  0  0  0  0  0  0  0
  152.5451  139.5435  156.5628 H   0  0  0  0  0  0  0  0  0  0  0  0
  153.3315  138.8262  154.3432 H   0  0  0  0  0  0  0  0  0  0  0  0
  152.6302  137.2329  154.5778 H   0  0  0  0  0  0  0  0  0  0  0  0
  153.9437  137.7773  155.6152 H   0  0  0  0  0  0  0  0  0  0  0  0
  151.8293  138.1020  158.1070 H   0  0  0  0  0  0  0  0  0  0  0  0
  150.9460  136.0666  157.9705 H   0  0  0  0  0  0  0  0  0  0  0  0
  147.4884  138.1002  153.3408 H   0  0  0  0  0  0  0  0  0  0  0  0
  145.9477  139.9813  152.8298 H   0  0  0  0  0  0  0  0  0  0  0  0
  146.4794  142.2851  153.5987 H   0  0  0  0  0  0  0  0  0  0  0  0
  148.5656  142.7186  154.8909 H   0  0  0  0  0  0  0  0  0  0  0  0
  1  2  1  0  0  0  0
  1 25  1  0  0  0  0
  1 26  1  0  0  0  0
  1 27  1  0  0  0  0
  2  7  1  0  0  0  0
  2  3  2  0  0  0  0
  3  4  1  0  0  0  0
  3 28  1  0  0  0  0
  4  5  2  0  0  0  0
  4 29  1  0  0  0  0
  5  6  1  0  0  0  0
  5 30  1  0  0  0  0
  6  7  2  0  0  0  0
  6 31  1  0  0  0  0
  7  8  1  0  0  0  0
  8  9  1  0  0  0  0
  9 10  1  0  0  0  0
  9 32  1  0  0  0  0
  9 33  1  0  0  0  0
 10 11  1  0  0  0  0
 10 34  1  0  0  0  0
 10 35  1  0  0  0  0
 11 24  1  0  0  0  0
 11 12  1  0  0  0  0
 12 13  1  0  0  0  0
 12 18  2  0  0  0  0
 13 14  1  0  0  0  0
 13 15  1  0  0  0  0
 13 36  1  0  0  0  0
 14 37  1  0  0  0  0
 14 38  1  0  0  0  0
 14 39  1  0  0  0  0
 15 16  1  0  0  0  0
 15 40  1  0  0  0  0
 16 17  2  0  0  0  0
 16 41  1  0  0  0  0
 18 19  1  0  0  0  0
 19 24  2  0  0  0  0
 19 20  1  0  0  0  0
 20 21  2  0  0  0  0
 20 42  1  0  0  0  0
 21 22  1  0  0  0  0
 21 43  1  0  0  0  0
 22 23  2  0  0  0  0
 22 44  1  0  0  0  0
 23 24  1  0  0  0  0
 23 45  1  0  0  0  0
M  END
> <s_m_source_file>
AV-unprocessed.smi

> <i_m_source_file_index>
2953

> <i_lp_mmshare_version>
43012

> <i_f3d_flags>
0

> <s_epik_input>
W0NIM11jMVtjSF1bY0hdW2NIXVtjSF1jMU9bQ0gyXVtDSDJdbihjKG4yKVtDQEhdKFtDSDNdKVtOSF1bQ0hdPU8pYyhjMjMpW2NIXVtjSF1bY0hdW2NIXTM=

> <s_epik_cmdline>
J2VwaWtfcHl0aG9uJywgJy1waCcsICc3LjAnLCAnLXRuJywgJzgnLCAnLW1hJywgJzIwMCcsICctbWV0YWxfYmluZGluZycsICctaW1hZScsICc8aW5maWxlLm1hZT4nLCAnLW9tYWUnLCAnPG91dGZpbGUubWFlPic=

> <r_lp_tautomer_probability>
1

> <r_epik_Ionization_Penalty>
0.0924205

> <r_epik_Ionization_Penalty_Charging>
0

> <r_epik_Ionization_Penalty_Neutral>
0.0924205

> <r_epik_State_Penalty>
0.0827154

> <r_epik_Charging_Adjusted_Penalty>
0.0827154

> <i_epik_Tot_Q>
0

> <i_epik_Tot_abs_Q>
0

> <r_epik_Metal_State_Penalty>
0.071464

> <b_epik_Metal_Only>
0

> <s_lp_Force_Field>
OPLS_2005

> <r_lp_Energy>
13.673

> <b_lp_Chiralities_Consistent>
1

> <s_lp_Variant>
AV-unprocessed.smi:2953-1

> <Gold.Version>
5.8.1

> <Gold.Id.Protein>
6NUR|6NUR_protein|mol2

> <Gold.PLP.Fitness>
54.5701

> <Gold.PLP.PLP>
-52.5831

> <Gold.PLP.part.hbond>
-1.0000

> <Gold.PLP.part.metal>
0.0000

> <Gold.PLP.part.buried>
-3.0855

> <Gold.PLP.part.nonpolar>
-49.2778

> <Gold.PLP.part.repulsive>
0.5224

> <Gold.PLP.ligand.clash>
0.0000

> <Gold.PLP.ligand.torsion>
0.5943

> <Gold.PLP.Chemscore.Hbond>
1.0000

> <Gold.PLP.Chemscore.CHOScore>
0.0000

> <Gold.PLP.Chemscore.Metal>
0.0000

> <Gold.PLP.Chemscore.Internal.Correction>
0.1757

> <Gold.Rescore>
     Score         DG    S(hbond)    S(metal)    S(lipo)     H(rot)  DE(clash)    DE(int)     intcor
     17.33     -19.47       0.94        0.00     142.28       2.26       0.18       1.96       ----

> <Gold.Chemscore.Fitness>
17.3272

> <Gold.Chemscore.DG>
-19.4723

> <Gold.Chemscore.ZeroCoef>
-5.4800

> <Gold.Chemscore.Hbond>
0.9389

> <Gold.Chemscore.Metal>
0.0000

> <Gold.Chemscore.Lipo>
142.2817

> <Gold.Chemscore.Internal_Hbond>
0.0000

> <Gold.Chemscore.DEClash>
0.1848

> <Gold.Chemscore.DEInternal>
1.9603

> <Gold.Chemscore.Rot>
2.2619

> <Gold.Chemscore.Internal.Correction>
   9.000000E+99

> <Gold.Chemscore.Hbonds>
donor molecule, donor type, donor heavy atom, donor atom, acceptor molecule, acceptor atom, score
      P1  H 10752 10763       L1    17  0.01

> <Gold.Chemscore.Hbond.Weighted>
-3.1359

> <Gold.Chemscore.Metal.Weighted>
-0.0000

> <Gold.Chemscore.Lipo.Weighted>
-16.6470

> <Gold.Chemscore.Internal_Hbond.Weighted>
0.0000

> <Gold.Chemscore.DEClash.Weighted>
0.1848

> <Gold.Chemscore.DEInternal.Weighted>
1.9603

> <Gold.Chemscore.Rot.Weighted>
5.7906

> <Gold.Chemscore.Internal.Correction.Weighted>
   9.000000E+99

> <Gold.Protein.RotatedTorsions>
[ 6907 6896 6895 6894 ] final  125.15 input  -60.11 | X-H torsion
[ 7974 7965 7964 7962 ] final  -82.03 input  175.53 | X-H torsion
[ 8008 7997 7996 7995 ] final  -73.98 input   59.86 | X-H torsion
[ 10167 10162 10161 10158 ] final  176.92 input  -65.29 | X-H torsion
[ 10718 10713 10712 10709 ] final  102.61 input   66.30 | X-H torsion
[ 10763 10752 10751 10750 ] final   55.21 input  -60.55 | X-H torsion
[ 11005 11000 10999 10996 ] final  -48.15 input  -57.11 | X-H torsion

> <Gold.Protein.ActiveResidues>
 VAL166  LYS551  ARG553  GLY616  TRP617  ASP618  TYR619  PRO620  LYS621  CYS622 
 ASP623  PHE694  ASN695  SER759  ASP760  ASP761  ALA762  ILE779  LEU786  VAL792 
 PHE793  MET794  SER795  GLU796  ALA797  LYS798  CYS799  TRP800  GLU811  SER814 

> <Gold.Protein.RotatedAtoms>
  152.4017  133.6827  159.6321 H   0  0  0  0  0  0  0  0  0  0  0  0  # atno 6907 bound_to 6896
  150.7907  133.8780  159.3286 H   0  0  0  0  0  0  0  0  0  0  0  0  # atno 6908 bound_to 6896
  151.6544  135.0999  160.0218 H   0  0  0  0  0  0  0  0  0  0  0  0  # atno 6909 bound_to 6896
  145.5388  140.9512  143.1562 H   0  0  0  0  0  0  0  0  0  0  0  0  # atno 7974 bound_to 7965
  154.5292  140.0769  156.8314 H   0  0  0  0  0  0  0  0  0  0  0  0  # atno 8008 bound_to 7997
  155.3410  140.3407  155.4221 H   0  0  0  0  0  0  0  0  0  0  0  0  # atno 8009 bound_to 7997
  156.1764  140.1637  156.8342 H   0  0  0  0  0  0  0  0  0  0  0  0  # atno 8010 bound_to 7997
  139.5233  144.2859  152.0506 H   0  0  0  0  0  0  0  0  0  0  0  0  # atno 10167 bound_to 10162
  157.6797  131.0757  150.5430 H   0  0  0  0  0  0  0  0  0  0  0  0  # atno 10718 bound_to 10713
  152.9814  135.5718  154.5030 H   0  0  0  0  0  0  0  0  0  0  0  0  # atno 10763 bound_to 10752
  154.4546  135.2779  155.1758 H   0  0  0  0  0  0  0  0  0  0  0  0  # atno 10764 bound_to 10752
  154.3372  135.6237  153.5632 H   0  0  0  0  0  0  0  0  0  0  0  0  # atno 10765 bound_to 10752
  141.0683  133.6687  156.3399 H   0  0  0  0  0  0  0  0  0  0  0  0  # atno 11005 bound_to 11000
  144.7588  139.7009  143.7243 LP  0  0  0  0  0  0  0  0  0  0  0  0  # atno 17320 bound_to 7965
  146.1995  139.5281  142.9752 LP  0  0  0  0  0  0  0  0  0  0  0  0  # atno 17321 bound_to 7965
  140.2312  144.4366  150.6299 LP  0  0  0  0  0  0  0  0  0  0  0  0  # atno 17342 bound_to 10162
  140.6354  143.2194  151.6406 LP  0  0  0  0  0  0  0  0  0  0  0  0  # atno 17343 bound_to 10162
  156.5737  130.4286  149.6008 LP  0  0  0  0  0  0  0  0  0  0  0  0  # atno 17370 bound_to 10713
  156.2719  130.7022  151.1822 LP  0  0  0  0  0  0  0  0  0  0  0  0  # atno 17371 bound_to 10713
  140.5726  134.5825  157.5461 LP  0  0  0  0  0  0  0  0  0  0  0  0  # atno 17394 bound_to 11000
  139.9498  134.7637  156.0474 LP  0  0  0  0  0  0  0  0  0  0  0  0  # atno 17395 bound_to 11000

$$$$
