AV-unprocessed.smi:175|AV-procd|sdf|1429|dock5
  -GOLD-   2262019203D 1   1.00000     0.00000
 Structure written by MMmdl.
 47 50  0  0  0  0  0  0  0  0  1 V2000
  148.2328  141.4622  153.8279 C   0  0  0  0  0  0  0  0  0  0  0  0
  147.6978  141.0725  155.2148 C   0  0  2  0  0  0  0  0  0  0  0  0
  146.9200  142.1663  155.6962 O   0  0  0  0  0  0  0  0  0  0  0  0
  147.0236  142.2227  157.1080 C   0  0  0  0  0  0  0  0  0  0  0  0
  148.4873  141.8846  157.3443 C   0  0  0  0  0  0  0  0  0  0  0  0
  148.7557  140.7874  156.3182 C   0  0  1  0  0  0  0  0  0  0  0  0
  148.4270  139.5442  156.9165 O   0  0  0  0  0  0  0  0  0  0  0  0
  150.2345  140.7154  155.8555 C   0  0  0  0  0  0  0  0  0  0  0  0
  151.1623  140.4011  156.9318 N   0  0  0  0  0  0  0  0  0  0  0  0
  151.8873  139.2417  157.0809 C   0  0  0  0  0  0  0  0  0  0  0  0
  152.6541  139.1987  158.1355 N   0  0  0  0  0  0  0  0  0  0  0  0
  152.4519  140.4239  158.7624 C   0  0  0  0  0  0  0  0  0  0  0  0
  152.9611  141.0429  159.9432 C   0  0  0  0  0  0  0  0  0  0  0  0
  153.8614  140.4763  160.7879 N   0  0  0  0  0  0  0  0  0  0  0  0
  154.5037  141.1805  161.8881 C   0  0  0  0  0  0  0  0  0  0  0  0
  155.2805  140.0577  162.5512 C   0  0  0  0  0  0  0  0  0  0  0  0
  156.0033  140.2294  163.5314 O   0  0  0  0  0  0  0  0  0  0  0  0
  155.0631  138.8999  161.9175 N   0  0  0  0  0  0  0  0  0  0  0  0
  155.6370  137.5981  162.2514 C   0  0  0  0  0  0  0  0  0  0  0  0
  154.8958  136.9095  163.4117 C   0  0  0  0  0  0  0  0  0  0  0  0
  155.1524  137.5680  164.5411 F   0  0  0  0  0  0  0  0  0  0  0  0
  153.5783  136.9120  163.2120 F   0  0  0  0  0  0  0  0  0  0  0  0
  155.3157  135.6519  163.5491 F   0  0  0  0  0  0  0  0  0  0  0  0
  154.1770  139.0525  160.7755 C   0  0  0  0  0  0  0  0  0  0  0  0
  152.5042  142.2890  160.2370 N   0  0  0  0  0  0  0  0  0  0  0  0
  151.6219  142.8962  159.4393 C   0  0  0  0  0  0  0  0  0  0  0  0
  151.0694  142.4449  158.3131 N   0  0  0  0  0  0  0  0  0  0  0  0
  151.5149  141.1920  158.0115 C   0  0  0  0  0  0  0  0  0  0  0  0
  148.8325  140.6628  153.3922 H   0  0  0  0  0  0  0  0  0  0  0  0
  148.8444  142.3636  153.8733 H   0  0  0  0  0  0  0  0  0  0  0  0
  147.4097  141.6615  153.1417 H   0  0  0  0  0  0  0  0  0  0  0  0
  147.0299  140.2169  155.0970 H   0  0  0  0  0  0  0  0  0  0  0  0
  146.7492  143.2047  157.4937 H   0  0  0  0  0  0  0  0  0  0  0  0
  146.3676  141.4759  157.5581 H   0  0  0  0  0  0  0  0  0  0  0  0
  149.0878  142.7662  157.1174 H   0  0  0  0  0  0  0  0  0  0  0  0
  148.7022  141.5912  158.3730 H   0  0  0  0  0  0  0  0  0  0  0  0
  149.0947  139.3322  157.5509 H   0  0  0  0  0  0  0  0  0  0  0  0
  150.3530  139.9624  155.0753 H   0  0  0  0  0  0  0  0  0  0  0  0
  150.5457  141.6641  155.4180 H   0  0  0  0  0  0  0  0  0  0  0  0
  151.8246  138.4213  156.3806 H   0  0  0  0  0  0  0  0  0  0  0  0
  155.1773  141.9597  161.5296 H   0  0  0  0  0  0  0  0  0  0  0  0
  153.7743  141.6028  162.5805 H   0  0  0  0  0  0  0  0  0  0  0  0
  155.6047  136.9602  161.3675 H   0  0  0  0  0  0  0  0  0  0  0  0
  156.6927  137.7180  162.5003 H   0  0  0  0  0  0  0  0  0  0  0  0
  153.2806  138.4436  160.9013 H   0  0  0  0  0  0  0  0  0  0  0  0
  154.6814  138.7701  159.8502 H   0  0  0  0  0  0  0  0  0  0  0  0
  151.3150  143.8845  159.7477 H   0  0  0  0  0  0  0  0  0  0  0  0
  1  2  1  0  0  0  0
  1 29  1  0  0  0  0
  1 30  1  0  0  0  0
  1 31  1  0  0  0  0
  2  6  1  0  0  0  0
  2  3  1  0  0  0  0
  2 32  1  0  0  0  0
  3  4  1  0  0  0  0
  4  5  1  0  0  0  0
  4 33  1  0  0  0  0
  4 34  1  0  0  0  0
  5  6  1  0  0  0  0
  5 35  1  0  0  0  0
  5 36  1  0  0  0  0
  6  7  1  0  0  0  0
  6  8  1  0  0  0  0
  7 37  1  0  0  0  0
  8  9  1  0  0  0  0
  8 38  1  0  0  0  0
  8 39  1  0  0  0  0
  9 28  1  0  0  0  0
  9 10  1  0  0  0  0
 10 11  2  0  0  0  0
 10 40  1  0  0  0  0
 11 12  1  0  0  0  0
 12 28  2  0  0  0  0
 12 13  1  0  0  0  0
 13 14  1  0  0  0  0
 13 25  2  0  0  0  0
 14 24  1  0  0  0  0
 14 15  1  0  0  0  0
 15 16  1  0  0  0  0
 15 41  1  0  0  0  0
 15 42  1  0  0  0  0
 16 17  2  0  0  0  0
 16 18  1  0  0  0  0
 18 19  1  0  0  0  0
 18 24  1  0  0  0  0
 19 20  1  0  0  0  0
 19 43  1  0  0  0  0
 19 44  1  0  0  0  0
 20 21  1  0  0  0  0
 20 22  1  0  0  0  0
 20 23  1  0  0  0  0
 24 45  1  0  0  0  0
 24 46  1  0  0  0  0
 25 26  1  0  0  0  0
 26 27  2  0  0  0  0
 26 47  1  0  0  0  0
 27 28  1  0  0  0  0
M  END
> <s_m_source_file>
AV-unprocessed.smi

> <i_m_source_file_index>
175

> <i_lp_mmshare_version>
43012

> <i_f3d_flags>
0

> <s_epik_input>
W0NIMl0xW0NIMl1PW0NAQEhdKFtDSDNdKVtDQEBdMShbT0hdKVtDSDJdbihbY0hdbjIpYyhjMjMpbltjSF1uYzNONFtDSDJdQyg9TylOKFtDSDJdNClbQ0gyXUMoRikoRilG

> <s_epik_cmdline>
J2VwaWtfcHl0aG9uJywgJy1waCcsICc3LjAnLCAnLXRuJywgJzgnLCAnLW1hJywgJzIwMCcsICctbWV0YWxfYmluZGluZycsICctaW1hZScsICc8aW5maWxlLm1hZT4nLCAnLW9tYWUnLCAnPG91dGZpbGUubWFlPic=

> <r_lp_tautomer_probability>
1

> <r_epik_Ionization_Penalty>
0.000307802

> <r_epik_Ionization_Penalty_Charging>
0

> <r_epik_Ionization_Penalty_Neutral>
0.000307802

> <r_epik_State_Penalty>
-0

> <r_epik_Charging_Adjusted_Penalty>
0

> <i_epik_Tot_Q>
0

> <i_epik_Tot_abs_Q>
0

> <r_epik_Metal_State_Penalty>
-0

> <b_epik_Metal_Only>
0

> <s_epik_Chemistry_Notes>
This compound contains an acetal/aminal-like group ( X-CH(R)-Y where X, Y are N, S, or O) that may be acid/base labile, releasing an aldehyde.

> <s_lp_Force_Field>
OPLS_2005

> <r_lp_Energy>
32.9701

> <b_lp_Chiralities_Consistent>
1

> <s_lp_Variant>
AV-unprocessed.smi:175-1

> <Gold.Version>
5.8.1

> <Gold.Id.Protein>
6NUR|6NUR_protein|mol2

> <Gold.PLP.Fitness>
41.7707

> <Gold.PLP.PLP>
-42.5788

> <Gold.PLP.part.hbond>
0.0000

> <Gold.PLP.part.metal>
0.0000

> <Gold.PLP.part.buried>
-3.8038

> <Gold.PLP.part.nonpolar>
-38.7333

> <Gold.PLP.part.repulsive>
0.5768

> <Gold.PLP.ligand.clash>
0.0000

> <Gold.PLP.ligand.torsion>
0.5013

> <Gold.PLP.Chemscore.Hbond>
0.0000

> <Gold.PLP.Chemscore.CHOScore>
0.0000

> <Gold.PLP.Chemscore.Metal>
0.0000

> <Gold.PLP.Chemscore.Internal.Correction>
0.1945

> <Gold.Rescore>
     Score         DG    S(hbond)    S(metal)    S(lipo)     H(rot)  DE(clash)    DE(int)     intcor
      2.76      -5.55       0.00        0.00      56.14       2.54       0.10       2.69       ----

> <Gold.Chemscore.Fitness>
2.7586

> <Gold.Chemscore.DG>
-5.5525

> <Gold.Chemscore.ZeroCoef>
-5.4800

> <Gold.Chemscore.Hbond>
0.0000

> <Gold.Chemscore.Metal>
0.0000

> <Gold.Chemscore.Lipo>
56.1420

> <Gold.Chemscore.Internal_Hbond>
0.0000

> <Gold.Chemscore.DEClash>
0.0997

> <Gold.Chemscore.DEInternal>
2.6942

> <Gold.Chemscore.Rot>
2.5375

> <Gold.Chemscore.Internal.Correction>
   9.000000E+99

> <Gold.Chemscore.Hbond.Weighted>
-0.0000

> <Gold.Chemscore.Metal.Weighted>
-0.0000

> <Gold.Chemscore.Lipo.Weighted>
-6.5686

> <Gold.Chemscore.Internal_Hbond.Weighted>
0.0000

> <Gold.Chemscore.DEClash.Weighted>
0.0997

> <Gold.Chemscore.DEInternal.Weighted>
2.6942

> <Gold.Chemscore.Rot.Weighted>
6.4961

> <Gold.Chemscore.Internal.Correction.Weighted>
   9.000000E+99

> <Gold.Protein.RotatedTorsions>
[ 6907 6896 6895 6894 ] final   24.42 input  -60.11 | X-H torsion
[ 7974 7965 7964 7962 ] final  164.87 input  175.53 | X-H torsion
[ 8008 7997 7996 7995 ] final -143.77 input   59.86 | X-H torsion
[ 10167 10162 10161 10158 ] final  -67.42 input  -65.29 | X-H torsion
[ 10718 10713 10712 10709 ] final -118.55 input   66.30 | X-H torsion
[ 10763 10752 10751 10750 ] final   80.67 input  -60.55 | X-H torsion
[ 11005 11000 10999 10996 ] final -144.01 input  -57.11 | X-H torsion

> <Gold.Protein.ActiveResidues>
 VAL166  LYS551  ARG553  GLY616  TRP617  ASP618  TYR619  PRO620  LYS621  CYS622 
 ASP623  PHE694  ASN695  SER759  ASP760  ASP761  ALA762  ILE779  LEU786  VAL792 
 PHE793  MET794  SER795  GLU796  ALA797  LYS798  CYS799  TRP800  GLU811  SER814 

> <Gold.Protein.RotatedAtoms>
  151.9572  135.0141  160.0545 H   0  0  0  0  0  0  0  0  0  0  0  0  # atno 6907 bound_to 6896
  152.1901  133.4762  159.5012 H   0  0  0  0  0  0  0  0  0  0  0  0  # atno 6908 bound_to 6896
  150.6933  134.1640  159.4230 H   0  0  0  0  0  0  0  0  0  0  0  0  # atno 6909 bound_to 6896
  144.7526  139.8388  143.6361 H   0  0  0  0  0  0  0  0  0  0  0  0  # atno 7974 bound_to 7965
  155.5160  140.0587  157.2915 H   0  0  0  0  0  0  0  0  0  0  0  0  # atno 8008 bound_to 7997
  154.4535  140.1961  156.0396 H   0  0  0  0  0  0  0  0  0  0  0  0  # atno 8009 bound_to 7997
  156.0752  140.3254  155.7629 H   0  0  0  0  0  0  0  0  0  0  0  0  # atno 8010 bound_to 7997
  140.5584  143.2312  151.6775 H   0  0  0  0  0  0  0  0  0  0  0  0  # atno 10167 bound_to 10162
  156.1114  130.6252  150.9305 H   0  0  0  0  0  0  0  0  0  0  0  0  # atno 10718 bound_to 10713
  153.1053  135.4794  154.8939 H   0  0  0  0  0  0  0  0  0  0  0  0  # atno 10763 bound_to 10752
  154.7423  135.3085  154.8709 H   0  0  0  0  0  0  0  0  0  0  0  0  # atno 10764 bound_to 10752
  153.9313  135.6844  153.4799 H   0  0  0  0  0  0  0  0  0  0  0  0  # atno 10765 bound_to 10752
  140.8067  134.2792  157.4957 H   0  0  0  0  0  0  0  0  0  0  0  0  # atno 11005 bound_to 11000
  146.1497  139.4577  143.0056 LP  0  0  0  0  0  0  0  0  0  0  0  0  # atno 17320 bound_to 7965
  145.6889  141.0170  143.1566 LP  0  0  0  0  0  0  0  0  0  0  0  0  # atno 17321 bound_to 7965
  139.5059  144.3702  152.0477 LP  0  0  0  0  0  0  0  0  0  0  0  0  # atno 17342 bound_to 10162
  140.2826  144.3843  150.6114 LP  0  0  0  0  0  0  0  0  0  0  0  0  # atno 17343 bound_to 10162
  157.6296  131.0922  150.8468 LP  0  0  0  0  0  0  0  0  0  0  0  0  # atno 17370 bound_to 10713
  156.8578  130.5102  149.5306 LP  0  0  0  0  0  0  0  0  0  0  0  0  # atno 17371 bound_to 10713
  139.8717  134.9460  156.3926 LP  0  0  0  0  0  0  0  0  0  0  0  0  # atno 17394 bound_to 11000
  140.9239  133.7626  155.9941 LP  0  0  0  0  0  0  0  0  0  0  0  0  # atno 17395 bound_to 11000

$$$$
