AV-unprocessed.smi:71|AV-procd|sdf|662|dock1
  -GOLD-   2262016563D 1   1.00000     0.00000
 Structure written by MMmdl.
 31 32  0  0  0  0  0  0  0  0  1 V2000
  150.6005  145.2232  158.4527 N   0  0  0  0  0  0  0  0  0  0  0  0
  151.1665  143.9533  158.5246 C   0  0  0  0  0  0  0  0  0  0  0  0
  152.4083  143.7672  159.1645 C   0  0  0  0  0  0  0  0  0  0  0  0
  152.9494  142.4685  159.2103 C   0  0  0  0  0  0  0  0  0  0  0  0
  152.2291  141.4118  158.6214 C   0  0  0  0  0  0  0  0  0  0  0  0
  150.9844  141.6953  158.0144 C   0  0  0  0  0  0  0  0  0  0  0  0
  150.1911  140.6055  157.3551 C   0  0  0  0  0  0  0  0  0  0  0  0
  149.0478  140.3729  157.7488 O   0  0  0  0  0  0  0  0  0  0  0  0
  150.7802  139.9148  156.3504 N   0  0  0  0  0  0  0  0  0  0  0  0
  152.1959  139.9954  155.9779 C   0  0  0  0  0  0  0  0  0  0  0  0
  152.3936  139.0011  154.8351 C   0  0  0  0  0  0  0  0  0  0  0  0
  151.2541  138.0081  155.0025 C   0  0  0  0  0  0  0  0  0  0  0  0
  150.1144  138.8291  155.6199 C   0  0  2  0  0  0  0  0  0  0  0  0
  149.1405  139.3968  154.5658 C   0  0  0  0  0  0  0  0  0  0  0  0
  149.8328  140.2177  153.6491 O   0  0  0  0  0  0  0  0  0  0  0  0
  150.4700  142.9452  157.9584 N   0  0  0  0  0  0  0  0  0  0  0  0
  149.7124  145.3820  157.9990 H   0  0  0  0  0  0  0  0  0  0  0  0
  151.0459  146.0211  158.8823 H   0  0  0  0  0  0  0  0  0  0  0  0
  152.9383  144.5982  159.6066 H   0  0  0  0  0  0  0  0  0  0  0  0
  153.9019  142.2867  159.6857 H   0  0  0  0  0  0  0  0  0  0  0  0
  152.6268  140.4073  158.6341 H   0  0  0  0  0  0  0  0  0  0  0  0
  152.4901  140.9959  155.6622 H   0  0  0  0  0  0  0  0  0  0  0  0
  152.8090  139.7151  156.8361 H   0  0  0  0  0  0  0  0  0  0  0  0
  152.2902  139.5164  153.8792 H   0  0  0  0  0  0  0  0  0  0  0  0
  153.3749  138.5261  154.8526 H   0  0  0  0  0  0  0  0  0  0  0  0
  150.9827  137.5181  154.0670 H   0  0  0  0  0  0  0  0  0  0  0  0
  151.5579  137.2285  155.7024 H   0  0  0  0  0  0  0  0  0  0  0  0
  149.5591  138.1996  156.3186 H   0  0  0  0  0  0  0  0  0  0  0  0
  148.6707  138.5930  153.9987 H   0  0  0  0  0  0  0  0  0  0  0  0
  148.3394  139.9676  155.0365 H   0  0  0  0  0  0  0  0  0  0  0  0
  149.6301  139.9277  152.7728 H   0  0  0  0  0  0  0  0  0  0  0  0
  1  2  1  0  0  0  0
  1 17  1  0  0  0  0
  1 18  1  0  0  0  0
  2 16  1  0  0  0  0
  2  3  2  0  0  0  0
  3  4  1  0  0  0  0
  3 19  1  0  0  0  0
  4  5  2  0  0  0  0
  4 20  1  0  0  0  0
  5  6  1  0  0  0  0
  5 21  1  0  0  0  0
  6  7  1  0  0  0  0
  6 16  2  0  0  0  0
  7  8  2  0  0  0  0
  7  9  1  0  0  0  0
  9 13  1  0  0  0  0
  9 10  1  0  0  0  0
 10 11  1  0  0  0  0
 10 22  1  0  0  0  0
 10 23  1  0  0  0  0
 11 12  1  0  0  0  0
 11 24  1  0  0  0  0
 11 25  1  0  0  0  0
 12 13  1  0  0  0  0
 12 26  1  0  0  0  0
 12 27  1  0  0  0  0
 13 14  1  0  0  0  0
 13 28  1  0  0  0  0
 14 15  1  0  0  0  0
 14 29  1  0  0  0  0
 14 30  1  0  0  0  0
 15 31  1  0  0  0  0
M  END
> <s_m_source_file>
AV-unprocessed.smi

> <i_m_source_file_index>
71

> <i_lp_mmshare_version>
43012

> <i_f3d_flags>
0

> <s_epik_input>
W05IMl1jMVtjSF1bY0hdW2NIXWMobjEpQyg9TylOMltDSDJdW0NIMl1bQ0gyXVtDQEhdMltDSDJdW09IXQ==

> <s_epik_cmdline>
J2VwaWtfcHl0aG9uJywgJy1waCcsICc3LjAnLCAnLXRuJywgJzgnLCAnLW1hJywgJzIwMCcsICctbWV0YWxfYmluZGluZycsICctaW1hZScsICc8aW5maWxlLm1hZT4nLCAnLW9tYWUnLCAnPG91dGZpbGUubWFlPic=

> <r_lp_tautomer_probability>
1

> <r_epik_Ionization_Penalty>
2.21614e-05

> <r_epik_Ionization_Penalty_Charging>
0

> <r_epik_Ionization_Penalty_Neutral>
2.21614e-05

> <r_epik_State_Penalty>
-0

> <r_epik_Charging_Adjusted_Penalty>
0

> <i_epik_Tot_Q>
0

> <i_epik_Tot_abs_Q>
0

> <r_epik_Metal_State_Penalty>
-0

> <b_epik_Metal_Only>
0

> <s_lp_Force_Field>
OPLS_2005

> <r_lp_Energy>
36.7339

> <b_lp_Chiralities_Consistent>
1

> <s_lp_Variant>
AV-unprocessed.smi:71-2

> <Gold.Version>
5.8.1

> <Gold.Id.Protein>
6NUR|6NUR_protein|mol2

> <Gold.PLP.Fitness>
38.1906

> <Gold.PLP.PLP>
-31.4681

> <Gold.PLP.part.hbond>
-3.1323

> <Gold.PLP.part.metal>
0.0000

> <Gold.PLP.part.buried>
-3.7987

> <Gold.PLP.part.nonpolar>
-25.4647

> <Gold.PLP.part.repulsive>
0.3622

> <Gold.PLP.ligand.clash>
0.0250

> <Gold.PLP.ligand.torsion>
1.1271

> <Gold.PLP.Chemscore.Hbond>
2.6060

> <Gold.PLP.Chemscore.CHOScore>
0.0000

> <Gold.PLP.Chemscore.Metal>
0.0000

> <Gold.Chemscore.Hbonds>
donor molecule, donor type, donor heavy atom, donor atom, acceptor molecule, acceptor atom, score
      L1  H     1    17       P1  8029  0.95
      L1  H    15    31       P1  7957  1.00
      P1  H  7989  7998       L1    15  0.66

> <Gold.PLP.Chemscore.Internal.Correction>
1.1836

> <Gold.Rescore>
     Score         DG    S(hbond)    S(metal)    S(lipo)     H(rot)  DE(clash)    DE(int)     intcor
     14.90     -18.03       2.39        0.00      71.68       1.50       0.08       3.04       ----

> <Gold.Chemscore.Fitness>
14.9048

> <Gold.Chemscore.DG>
-18.0312

> <Gold.Chemscore.ZeroCoef>
-5.4800

> <Gold.Chemscore.Hbond>
2.3934

> <Gold.Chemscore.Metal>
0.0000

> <Gold.Chemscore.Lipo>
71.6828

> <Gold.Chemscore.Internal_Hbond>
0.0000

> <Gold.Chemscore.DEClash>
0.0824

> <Gold.Chemscore.DEInternal>
3.0440

> <Gold.Chemscore.Rot>
1.4959

> <Gold.Chemscore.Internal.Correction>
   9.000000E+99

> <Gold.Chemscore.Hbonds>
donor molecule, donor type, donor heavy atom, donor atom, acceptor molecule, acceptor atom, score
      L1  H     1    17       P1  8029  0.20
      L1  H    15    31       P1  7957  0.97
      P1  H  7989  7998       L1    15  0.22

> <Gold.Chemscore.Hbond.Weighted>
-7.9938

> <Gold.Chemscore.Metal.Weighted>
-0.0000

> <Gold.Chemscore.Lipo.Weighted>
-8.3869

> <Gold.Chemscore.Internal_Hbond.Weighted>
0.0000

> <Gold.Chemscore.DEClash.Weighted>
0.0824

> <Gold.Chemscore.DEInternal.Weighted>
3.0440

> <Gold.Chemscore.Rot.Weighted>
3.8295

> <Gold.Chemscore.Internal.Correction.Weighted>
   9.000000E+99

> <Gold.Protein.RotatedTorsions>
[ 6907 6896 6895 6894 ] final -142.66 input  -60.11 | X-H torsion
[ 7974 7965 7964 7962 ] final  -46.55 input  175.53 | X-H torsion
[ 8008 7997 7996 7995 ] final  118.72 input   59.86 | X-H torsion
[ 10167 10162 10161 10158 ] final  119.53 input  -65.29 | X-H torsion
[ 10718 10713 10712 10709 ] final   81.71 input   66.30 | X-H torsion
[ 10763 10752 10751 10750 ] final   62.02 input  -60.55 | X-H torsion
[ 11005 11000 10999 10996 ] final   26.35 input  -57.11 | X-H torsion

> <Gold.Protein.ActiveResidues>
 VAL166  LYS551  ARG553  GLY616  TRP617  ASP618  TYR619  PRO620  LYS621  CYS622 
 ASP623  PHE694  ASN695  SER759  ASP760  ASP761  ALA762  ILE779  LEU786  VAL792 
 PHE793  MET794  SER795  GLU796  ALA797  LYS798  CYS799  TRP800  GLU811  SER814 

> <Gold.Protein.RotatedAtoms>
  151.0900  133.5323  159.2615 H   0  0  0  0  0  0  0  0  0  0  0  0  # atno 6907 bound_to 6896
  151.2194  135.0512  159.8953 H   0  0  0  0  0  0  0  0  0  0  0  0  # atno 6908 bound_to 6896
  152.5433  134.0704  159.8245 H   0  0  0  0  0  0  0  0  0  0  0  0  # atno 6909 bound_to 6896
  145.9707  140.7386  142.9412 H   0  0  0  0  0  0  0  0  0  0  0  0  # atno 7974 bound_to 7965
  156.2560  140.2868  156.0879 H   0  0  0  0  0  0  0  0  0  0  0  0  # atno 8008 bound_to 7997
  155.1495  140.0397  157.2835 H   0  0  0  0  0  0  0  0  0  0  0  0  # atno 8009 bound_to 7997
  154.6471  140.2536  155.7262 H   0  0  0  0  0  0  0  0  0  0  0  0  # atno 8010 bound_to 7997
  139.6040  144.7065  151.2996 H   0  0  0  0  0  0  0  0  0  0  0  0  # atno 10167 bound_to 10162
  157.6840  131.0016  150.2267 H   0  0  0  0  0  0  0  0  0  0  0  0  # atno 10718 bound_to 10713
  152.9969  135.5480  154.6127 H   0  0  0  0  0  0  0  0  0  0  0  0  # atno 10763 bound_to 10752
  154.5444  135.2822  155.1068 H   0  0  0  0  0  0  0  0  0  0  0  0  # atno 10764 bound_to 10752
  154.2333  135.6429  153.5235 H   0  0  0  0  0  0  0  0  0  0  0  0  # atno 10765 bound_to 10752
  140.3380  134.2364  155.7693 H   0  0  0  0  0  0  0  0  0  0  0  0  # atno 11005 bound_to 11000
  144.6836  140.2744  143.7301 LP  0  0  0  0  0  0  0  0  0  0  0  0  # atno 17320 bound_to 7965
  145.7910  139.1927  143.2103 LP  0  0  0  0  0  0  0  0  0  0  0  0  # atno 17321 bound_to 7965
  140.7271  143.6972  150.7874 LP  0  0  0  0  0  0  0  0  0  0  0  0  # atno 17342 bound_to 10162
  140.0554  143.5208  152.2654 LP  0  0  0  0  0  0  0  0  0  0  0  0  # atno 17343 bound_to 10162
  156.2908  130.3745  149.7844 LP  0  0  0  0  0  0  0  0  0  0  0  0  # atno 17370 bound_to 10713
  156.5504  130.8339  151.3297 LP  0  0  0  0  0  0  0  0  0  0  0  0  # atno 17371 bound_to 10713
  141.2046  133.7882  157.0278 LP  0  0  0  0  0  0  0  0  0  0  0  0  # atno 17394 bound_to 11000
  140.0805  134.9651  157.1616 LP  0  0  0  0  0  0  0  0  0  0  0  0  # atno 17395 bound_to 11000

$$$$
