AV-unprocessed.smi:3273|AV-procd|sdf|12521|dock4
  -GOLD-   2272018433D 1   1.00000     0.00000
 Structure written by MMmdl.
 41 42  0  0  0  0  0  0  0  0  1 V2000
  150.3706  138.9346  154.4867 C   0  0  0  0  0  0  0  0  0  0  0  0
  151.4540  139.6047  155.3557 C   0  0  0  0  0  0  0  0  0  0  0  0
  152.6649  138.6582  155.4613 C   0  0  0  0  0  0  0  0  0  0  0  0
  150.8995  140.0457  156.7444 C   0  0  1  0  0  0  0  0  0  0  0  0
  149.8326  141.1684  156.6568 C   0  0  0  0  0  0  0  0  0  0  0  0
  150.3896  142.4955  156.9103 N   0  0  0  0  0  0  0  0  0  0  0  0
  151.2413  142.8044  157.9003 C   0  0  0  0  0  0  0  0  0  0  0  0
  151.7058  141.9731  158.6805 O   0  0  0  0  0  0  0  0  0  0  0  0
  151.6116  144.2804  158.0439 C   0  0  0  0  0  0  0  0  0  0  0  0
  151.0304  144.8870  159.3091 C   0  0  0  0  0  0  0  0  0  0  0  0
  151.7935  145.9294  160.0936 C   0  0  0  0  0  0  0  0  0  0  0  0
  151.5942  144.5503  160.6721 C   0  0  0  0  0  0  0  0  0  0  0  0
  150.3950  138.8887  157.5718 C   0  0  0  0  0  0  0  0  0  0  0  0
  149.2783  138.1090  157.4273 C   0  0  0  0  0  0  0  0  0  0  0  0
  149.3202  137.2229  158.5370 C   0  0  0  0  0  0  0  0  0  0  0  0
  150.3698  137.4314  159.3105 N   0  0  0  0  0  0  0  0  0  0  0  0
  151.0270  138.4559  158.7263 N   0  0  0  0  0  0  0  0  0  0  0  0
  152.2447  138.9492  159.3423 C   0  0  0  0  0  0  0  0  0  0  0  0
  149.9661  138.0481  154.9760 H   0  0  0  0  0  0  0  0  0  0  0  0
  150.7771  138.6229  153.5242 H   0  0  0  0  0  0  0  0  0  0  0  0
  149.5372  139.6030  154.2733 H   0  0  0  0  0  0  0  0  0  0  0  0
  151.7904  140.4940  154.8209 H   0  0  0  0  0  0  0  0  0  0  0  0
  152.4323  137.7812  156.0662 H   0  0  0  0  0  0  0  0  0  0  0  0
  153.5312  139.1524  155.8999 H   0  0  0  0  0  0  0  0  0  0  0  0
  152.9751  138.3072  154.4766 H   0  0  0  0  0  0  0  0  0  0  0  0
  151.7472  140.4806  157.2749 H   0  0  0  0  0  0  0  0  0  0  0  0
  149.3438  141.1424  155.6822 H   0  0  0  0  0  0  0  0  0  0  0  0
  149.0293  140.9968  157.3716 H   0  0  0  0  0  0  0  0  0  0  0  0
  150.0668  143.2445  156.3150 H   0  0  0  0  0  0  0  0  0  0  0  0
  152.6988  144.3642  158.0647 H   0  0  0  0  0  0  0  0  0  0  0  0
  151.2654  144.8532  157.1826 H   0  0  0  0  0  0  0  0  0  0  0  0
  149.9505  145.0196  159.2692 H   0  0  0  0  0  0  0  0  0  0  0  0
  152.7944  146.1901  159.7556 H   0  0  0  0  0  0  0  0  0  0  0  0
  151.2219  146.7457  160.5302 H   0  0  0  0  0  0  0  0  0  0  0  0
  150.8877  144.4429  161.4927 H   0  0  0  0  0  0  0  0  0  0  0  0
  152.4624  143.8954  160.7162 H   0  0  0  0  0  0  0  0  0  0  0  0
  148.5335  138.1700  156.6477 H   0  0  0  0  0  0  0  0  0  0  0  0
  148.6218  136.4436  158.8037 H   0  0  0  0  0  0  0  0  0  0  0  0
  152.1146  139.9906  159.6355 H   0  0  0  0  0  0  0  0  0  0  0  0
  153.0713  138.8753  158.6355 H   0  0  0  0  0  0  0  0  0  0  0  0
  152.4912  138.3650  160.2298 H   0  0  0  0  0  0  0  0  0  0  0  0
  1  2  1  0  0  0  0
  1 19  1  0  0  0  0
  1 20  1  0  0  0  0
  1 21  1  0  0  0  0
  2  3  1  0  0  0  0
  2  4  1  0  0  0  0
  2 22  1  0  0  0  0
  3 23  1  0  0  0  0
  3 24  1  0  0  0  0
  3 25  1  0  0  0  0
  4  5  1  0  0  0  0
  4 13  1  0  0  0  0
  4 26  1  0  0  0  0
  5  6  1  0  0  0  0
  5 27  1  0  0  0  0
  5 28  1  0  0  0  0
  6  7  1  0  0  0  0
  6 29  1  0  0  0  0
  7  8  2  0  0  0  0
  7  9  1  0  0  0  0
  9 10  1  0  0  0  0
  9 30  1  0  0  0  0
  9 31  1  0  0  0  0
 10 12  1  0  0  0  0
 10 11  1  0  0  0  0
 10 32  1  0  0  0  0
 11 12  1  0  0  0  0
 11 33  1  0  0  0  0
 11 34  1  0  0  0  0
 12 35  1  0  0  0  0
 12 36  1  0  0  0  0
 13 17  1  0  0  0  0
 13 14  2  0  0  0  0
 14 15  1  0  0  0  0
 14 37  1  0  0  0  0
 15 16  2  0  0  0  0
 15 38  1  0  0  0  0
 16 17  1  0  0  0  0
 17 18  1  0  0  0  0
 18 39  1  0  0  0  0
 18 40  1  0  0  0  0
 18 41  1  0  0  0  0
M  END
> <s_m_source_file>
AV-unprocessed.smi

> <i_m_source_file_index>
3273

> <i_lp_mmshare_version>
43012

> <i_f3d_flags>
0

> <s_epik_input>
W0NIM11uMW5bY0hdW2NIXWMxW0NASF0oW0NIXShbQ0gzXSlbQ0gzXSlbQ0gyXVtOSF1DKD1PKVtDSDJdW0NIXTJbQ0gyXVtDSDJdMg==

> <s_epik_cmdline>
J2VwaWtfcHl0aG9uJywgJy1waCcsICc3LjAnLCAnLXRuJywgJzgnLCAnLW1hJywgJzIwMCcsICctbWV0YWxfYmluZGluZycsICctaW1hZScsICc8aW5maWxlLm1hZT4nLCAnLW9tYWUnLCAnPG91dGZpbGUubWFlPic=

> <r_lp_tautomer_probability>
1

> <r_epik_Ionization_Penalty>
0.00116261

> <r_epik_Ionization_Penalty_Charging>
0

> <r_epik_Ionization_Penalty_Neutral>
0.00116261

> <r_epik_State_Penalty>
-0

> <r_epik_Charging_Adjusted_Penalty>
0

> <i_epik_Tot_Q>
0

> <i_epik_Tot_abs_Q>
0

> <r_epik_Metal_State_Penalty>
-0

> <b_epik_Metal_Only>
0

> <s_lp_Force_Field>
OPLS_2005

> <r_lp_Energy>
15.0656

> <b_lp_Chiralities_Consistent>
1

> <s_lp_Variant>
AV-unprocessed.smi:3273-2

> <Gold.Version>
5.8.1

> <Gold.Id.Protein>
6NUR|6NUR_protein|mol2

> <Gold.PLP.Fitness>
39.6947

> <Gold.PLP.PLP>
-38.3440

> <Gold.PLP.part.hbond>
-1.0000

> <Gold.PLP.part.metal>
0.0000

> <Gold.PLP.part.buried>
-5.3183

> <Gold.PLP.part.nonpolar>
-32.5441

> <Gold.PLP.part.repulsive>
0.0263

> <Gold.PLP.ligand.clash>
0.0000

> <Gold.PLP.ligand.torsion>
1.1840

> <Gold.PLP.Chemscore.Hbond>
1.0000

> <Gold.PLP.Chemscore.CHOScore>
0.0000

> <Gold.PLP.Chemscore.Metal>
0.0000

> <Gold.Chemscore.Hbonds>
donor molecule, donor type, donor heavy atom, donor atom, acceptor molecule, acceptor atom, score
      L1  H     6    29       P1  8028  1.00

> <Gold.PLP.Chemscore.Internal.Correction>
0.7187

> <Gold.Rescore>
     Score         DG    S(hbond)    S(metal)    S(lipo)     H(rot)  DE(clash)    DE(int)     intcor
     12.93     -15.52       0.99        0.00      93.57       1.64       0.09       2.51       ----

> <Gold.Chemscore.Fitness>
12.9260

> <Gold.Chemscore.DG>
-15.5178

> <Gold.Chemscore.ZeroCoef>
-5.4800

> <Gold.Chemscore.Hbond>
0.9868

> <Gold.Chemscore.Metal>
0.0000

> <Gold.Chemscore.Lipo>
93.5725

> <Gold.Chemscore.Internal_Hbond>
0.0000

> <Gold.Chemscore.DEClash>
0.0859

> <Gold.Chemscore.DEInternal>
2.5059

> <Gold.Chemscore.Rot>
1.6430

> <Gold.Chemscore.Internal.Correction>
   9.000000E+99

> <Gold.Chemscore.Hbonds>
donor molecule, donor type, donor heavy atom, donor atom, acceptor molecule, acceptor atom, score
      L1  H     6    29       P1  8028  0.96

> <Gold.Chemscore.Hbond.Weighted>
-3.2960

> <Gold.Chemscore.Metal.Weighted>
-0.0000

> <Gold.Chemscore.Lipo.Weighted>
-10.9480

> <Gold.Chemscore.Internal_Hbond.Weighted>
0.0000

> <Gold.Chemscore.DEClash.Weighted>
0.0859

> <Gold.Chemscore.DEInternal.Weighted>
2.5059

> <Gold.Chemscore.Rot.Weighted>
4.2062

> <Gold.Chemscore.Internal.Correction.Weighted>
   9.000000E+99

> <Gold.Protein.RotatedTorsions>
[ 6907 6896 6895 6894 ] final  -58.03 input  -60.11 | X-H torsion
[ 7974 7965 7964 7962 ] final -123.94 input  175.53 | X-H torsion
[ 8008 7997 7996 7995 ] final  111.83 input   59.86 | X-H torsion
[ 10167 10162 10161 10158 ] final   55.71 input  -65.29 | X-H torsion
[ 10718 10713 10712 10709 ] final  -82.11 input   66.30 | X-H torsion
[ 10763 10752 10751 10750 ] final -175.33 input  -60.55 | X-H torsion
[ 11005 11000 10999 10996 ] final  -14.52 input  -57.11 | X-H torsion

> <Gold.Protein.ActiveResidues>
 VAL166  LYS551  ARG553  GLY616  TRP617  ASP618  TYR619  PRO620  LYS621  CYS622 
 ASP623  PHE694  ASN695  SER759  ASP760  ASP761  ALA762  ILE779  LEU786  VAL792 
 PHE793  MET794  SER795  GLU796  ALA797  LYS798  CYS799  TRP800  GLU811  SER814 

> <Gold.Protein.RotatedAtoms>
  150.8039  134.7150  159.6625 H   0  0  0  0  0  0  0  0  0  0  0  0  # atno 6907 bound_to 6896
  152.4157  134.6042  160.0018 H   0  0  0  0  0  0  0  0  0  0  0  0  # atno 6908 bound_to 6896
  151.6272  133.3297  159.3137 H   0  0  0  0  0  0  0  0  0  0  0  0  # atno 6909 bound_to 6896
  145.0134  140.7925  143.4425 H   0  0  0  0  0  0  0  0  0  0  0  0  # atno 7974 bound_to 7965
  156.2151  140.3011  155.9821 H   0  0  0  0  0  0  0  0  0  0  0  0  # atno 8008 bound_to 7997
  155.2625  140.0430  157.3016 H   0  0  0  0  0  0  0  0  0  0  0  0  # atno 8009 bound_to 7997
  154.5756  140.2360  155.8136 H   0  0  0  0  0  0  0  0  0  0  0  0  # atno 8010 bound_to 7997
  140.2165  144.3833  150.6467 H   0  0  0  0  0  0  0  0  0  0  0  0  # atno 10167 bound_to 10162
  156.0038  130.4624  150.4055 H   0  0  0  0  0  0  0  0  0  0  0  0  # atno 10718 bound_to 10713
  154.5856  135.2840  155.0688 H   0  0  0  0  0  0  0  0  0  0  0  0  # atno 10763 bound_to 10752
  154.2008  135.6425  153.5090 H   0  0  0  0  0  0  0  0  0  0  0  0  # atno 10764 bound_to 10752
  153.0103  135.5468  154.6525 H   0  0  0  0  0  0  0  0  0  0  0  0  # atno 10765 bound_to 10752
  140.7872  133.8316  155.9346 H   0  0  0  0  0  0  0  0  0  0  0  0  # atno 11005 bound_to 11000
  145.1993  139.2260  143.5201 LP  0  0  0  0  0  0  0  0  0  0  0  0  # atno 17320 bound_to 7965
  146.3474  140.1806  142.8589 LP  0  0  0  0  0  0  0  0  0  0  0  0  # atno 17321 bound_to 7965
  140.6286  143.2184  151.6544 LP  0  0  0  0  0  0  0  0  0  0  0  0  # atno 17342 bound_to 10162
  139.5160  144.3361  152.0783 LP  0  0  0  0  0  0  0  0  0  0  0  0  # atno 17343 bound_to 10162
  157.2121  131.0463  151.2593 LP  0  0  0  0  0  0  0  0  0  0  0  0  # atno 17370 bound_to 10713
  157.3879  130.7266  149.6676 LP  0  0  0  0  0  0  0  0  0  0  0  0  # atno 17371 bound_to 10713
  140.9424  134.1883  157.4787 LP  0  0  0  0  0  0  0  0  0  0  0  0  # atno 17394 bound_to 11000
  139.8735  134.9877  156.5380 LP  0  0  0  0  0  0  0  0  0  0  0  0  # atno 17395 bound_to 11000

$$$$
