AV-unprocessed.smi:290|AV-procd|sdf|2244|dock6
  -GOLD-   2262022123D 1   1.00000     0.00000
 Structure written by MMmdl.
 59 62  0  0  0  0  0  0  0  0  2 V2000
  149.7708  137.9840  155.4412 C   0  0  0  0  0  0  0  0  0  0  0  0
  149.6491  139.3927  156.0488 C   0  0  1  0  0  0  0  0  0  0  0  0
  150.7820  139.6743  156.8693 O   0  0  0  0  0  0  0  0  0  0  0  0
  151.4517  140.8332  156.3951 C   0  0  0  0  0  0  0  0  0  0  0  0
  150.3548  141.6481  155.7232 C   0  0  0  0  0  0  0  0  0  0  0  0
  149.5085  140.5747  155.0562 C   0  0  1  0  0  0  0  0  0  0  0  0
  150.1027  140.2604  153.8066 O   0  0  0  0  0  0  0  0  0  0  0  0
  148.0529  141.0392  154.8069 C   0  0  0  0  0  0  0  0  0  0  0  0
  147.1834  139.9795  154.3212 N   0  0  0  0  0  0  0  0  0  0  0  0
  147.1159  139.4971  153.0351 C   0  0  0  0  0  0  0  0  0  0  0  0
  146.2665  138.5246  152.8528 N   0  0  0  0  0  0  0  0  0  0  0  0
  145.6929  138.3225  154.1040 C   0  0  0  0  0  0  0  0  0  0  0  0
  144.7114  137.4260  154.6257 C   0  0  0  0  0  0  0  0  0  0  0  0
  144.0813  136.4587  153.9042 N   0  0  0  0  0  0  0  0  0  0  0  0
  142.6298  136.3081  153.9298 C   0  0  0  0  0  0  0  0  0  0  0  0
  142.3371  134.9498  153.2785 C   0  0  0  0  0  0  0  0  0  0  0  0
  143.6592  134.5678  152.5898 C   0  0  2  0  0  0  0  0  0  0  0  0
  143.8608  133.1126  152.3212 N   0  3  2  0  0  0  0  0  0  0  0  0
  145.2967  132.7756  152.1426 C   0  0  0  0  0  0  0  0  0  0  0  0
  143.0300  132.5735  151.2083 C   0  0  0  0  0  0  0  0  0  0  0  0
  143.7689  132.6093  149.8591 C   0  0  0  0  0  0  0  0  0  0  0  0
  142.8999  132.1972  148.8250 O   0  0  0  0  0  0  0  0  0  0  0  0
  144.7046  135.1943  153.5366 C   0  0  2  0  0  0  0  0  0  0  0  0
  145.0041  134.3359  154.7894 C   0  0  0  0  0  0  0  0  0  0  0  0
  144.3860  137.5639  155.9386 N   0  0  0  0  0  0  0  0  0  0  0  0
  144.9840  138.4858  156.6975 C   0  0  0  0  0  0  0  0  0  0  0  0
  145.9234  139.3660  156.3522 N   0  0  0  0  0  0  0  0  0  0  0  0
  146.2490  139.2487  155.0341 C   0  0  0  0  0  0  0  0  0  0  0  0
  143.6980  135.0958  151.6345 H   0  0  0  0  0  0  0  0  0  0  0  0
  145.6209  135.3737  152.9770 H   0  0  0  0  0  0  0  0  0  0  0  0
  148.9189  137.7489  154.8037 H   0  0  0  0  0  0  0  0  0  0  0  0
  149.8104  137.2296  156.2270 H   0  0  0  0  0  0  0  0  0  0  0  0
  150.6779  137.8808  154.8449 H   0  0  0  0  0  0  0  0  0  0  0  0
  148.7970  139.4005  156.7286 H   0  0  0  0  0  0  0  0  0  0  0  0
  151.9432  141.3723  157.2051 H   0  0  0  0  0  0  0  0  0  0  0  0
  152.2116  140.5367  155.6708 H   0  0  0  0  0  0  0  0  0  0  0  0
  149.7757  142.1666  156.4885 H   0  0  0  0  0  0  0  0  0  0  0  0
  150.7398  142.3980  155.0308 H   0  0  0  0  0  0  0  0  0  0  0  0
  150.2426  139.3266  153.7704 H   0  0  0  0  0  0  0  0  0  0  0  0
  147.6223  141.4411  155.7248 H   0  0  0  0  0  0  0  0  0  0  0  0
  148.0357  141.8540  154.0819 H   0  0  0  0  0  0  0  0  0  0  0  0
  147.7281  139.8851  152.2339 H   0  0  0  0  0  0  0  0  0  0  0  0
  142.2342  136.3452  154.9458 H   0  0  0  0  0  0  0  0  0  0  0  0
  142.1770  137.1173  153.3557 H   0  0  0  0  0  0  0  0  0  0  0  0
  142.0809  134.2202  154.0480 H   0  0  0  0  0  0  0  0  0  0  0  0
  141.4981  135.0143  152.5849 H   0  0  0  0  0  0  0  0  0  0  0  0
  145.7057  133.2733  151.2624 H   0  0  0  0  0  0  0  0  0  0  0  0
  145.4462  131.7038  152.0221 H   0  0  0  0  0  0  0  0  0  0  0  0
  145.8931  133.0765  153.0030 H   0  0  0  0  0  0  0  0  0  0  0  0
  142.7386  131.5398  151.3836 H   0  0  0  0  0  0  0  0  0  0  0  0
  142.0979  133.1368  151.1456 H   0  0  0  0  0  0  0  0  0  0  0  0
  144.0943  133.6276  149.6445 H   0  0  0  0  0  0  0  0  0  0  0  0
  144.6631  131.9873  149.8568 H   0  0  0  0  0  0  0  0  0  0  0  0
  142.1506  132.7740  148.8117 H   0  0  0  0  0  0  0  0  0  0  0  0
  145.4591  133.3815  154.5268 H   0  0  0  0  0  0  0  0  0  0  0  0
  144.1020  134.1235  155.3633 H   0  0  0  0  0  0  0  0  0  0  0  0
  145.7004  134.8401  155.4592 H   0  0  0  0  0  0  0  0  0  0  0  0
  144.6666  138.5203  157.7293 H   0  0  0  0  0  0  0  0  0  0  0  0
  143.5445  132.6359  153.1539 H   0  0  0  0  0  0  0  0  0  0  0  0
  1  2  1  0  0  0  0
  1 31  1  0  0  0  0
  1 32  1  0  0  0  0
  1 33  1  0  0  0  0
  2  6  1  0  0  0  0
  2  3  1  0  0  0  0
  2 34  1  0  0  0  0
  3  4  1  0  0  0  0
  4  5  1  0  0  0  0
  4 35  1  0  0  0  0
  4 36  1  0  0  0  0
  5  6  1  0  0  0  0
  5 37  1  0  0  0  0
  5 38  1  0  0  0  0
  6  7  1  0  0  0  0
  6  8  1  0  0  0  0
  7 39  1  0  0  0  0
  8  9  1  0  0  0  0
  8 40  1  0  0  0  0
  8 41  1  0  0  0  0
  9 28  1  0  0  0  0
  9 10  1  0  0  0  0
 10 11  2  0  0  0  0
 10 42  1  0  0  0  0
 11 12  1  0  0  0  0
 12 28  2  0  0  0  0
 12 13  1  0  0  0  0
 13 14  1  0  0  0  0
 13 25  2  0  0  0  0
 14 23  1  0  0  0  0
 14 15  1  0  0  0  0
 15 16  1  0  0  0  0
 15 43  1  0  0  0  0
 15 44  1  0  0  0  0
 16 17  1  0  0  0  0
 16 45  1  0  0  0  0
 16 46  1  0  0  0  0
 17 29  1  0  0  0  0
 17 18  1  0  0  0  0
 17 23  1  0  0  0  0
 18 19  1  0  0  0  0
 18 20  1  0  0  0  0
 18 59  1  0  0  0  0
 19 47  1  0  0  0  0
 19 48  1  0  0  0  0
 19 49  1  0  0  0  0
 20 21  1  0  0  0  0
 20 50  1  0  0  0  0
 20 51  1  0  0  0  0
 21 22  1  0  0  0  0
 21 52  1  0  0  0  0
 21 53  1  0  0  0  0
 22 54  1  0  0  0  0
 23 30  1  0  0  0  0
 23 24  1  0  0  0  0
 24 55  1  0  0  0  0
 24 56  1  0  0  0  0
 24 57  1  0  0  0  0
 25 26  1  0  0  0  0
 26 27  2  0  0  0  0
 26 58  1  0  0  0  0
 27 28  1  0  0  0  0
M  CHG  1  18   1
M  END
> <s_m_source_file>
AV-unprocessed.smi

> <i_m_source_file_index>
290

> <i_lp_mmshare_version>
43012

> <i_f3d_flags>
0

> <s_epik_input>
W0NIMl0xW0NIMl1PW0NAQEhdKFtDSDNdKVtDQEBdMShbT0hdKVtDSDJdbihbY0hdbjIpYyhjMjMpbltjSF1uYzNONFtDSDJdW0NIMl1bQ0BIXShbQ0BIXTRbQ0gzXSlOKFtDSDNdKVtDSDJdW0NIMl1bT0hd

> <s_epik_cmdline>
J2VwaWtfcHl0aG9uJywgJy1waCcsICc3LjAnLCAnLXRuJywgJzgnLCAnLW1hJywgJzIwMCcsICctbWV0YWxfYmluZGluZycsICctaW1hZScsICc8aW5maWxlLm1hZT4nLCAnLW9tYWUnLCAnPG91dGZpbGUubWFlPic=

> <r_lp_tautomer_probability>
1

> <r_epik_Ionization_Penalty>
0.0036983

> <r_epik_Ionization_Penalty_Charging>
0.0032725

> <r_epik_Ionization_Penalty_Neutral>
0.000425798

> <r_epik_State_Penalty>
-0

> <r_epik_Charging_Adjusted_Penalty>
0.0032725

> <i_epik_Tot_Q>
1

> <i_epik_Tot_abs_Q>
1

> <r_epik_Metal_State_Penalty>
-0

> <b_epik_Metal_Only>
0

> <s_lp_Force_Field>
OPLS_2005

> <r_lp_Energy>
62.044

> <b_lp_Chiralities_Consistent>
1

> <s_lp_Variant>
AV-unprocessed.smi:290-30

> <Gold.Version>
5.8.1

> <Gold.Id.Protein>
6NUR|6NUR_protein|mol2

> <Gold.PLP.Fitness>
47.9814

> <Gold.PLP.PLP>
-35.4019

> <Gold.PLP.part.hbond>
-5.8481

> <Gold.PLP.part.metal>
0.0000

> <Gold.PLP.part.buried>
-7.3450

> <Gold.PLP.part.nonpolar>
-24.5193

> <Gold.PLP.part.repulsive>
0.3120

> <Gold.PLP.ligand.clash>
0.0000

> <Gold.PLP.ligand.torsion>
2.0488

> <Gold.PLP.Chemscore.Hbond>
4.4405

> <Gold.PLP.Chemscore.CHOScore>
1.0000

> <Gold.PLP.Chemscore.Metal>
0.0000

> <Gold.Chemscore.Hbonds>
donor molecule, donor type, donor heavy atom, donor atom, acceptor molecule, acceptor atom, score
      L1  H    18    59       P1 10957  1.98
      L1  H    22    54       P1 10186  0.78
      P1  H  7989  7998       L1     7  0.77
      P1  H 10785 10796       L1    22  0.89
      L1  C    10    42       P1  7957  1.00

> <Gold.PLP.Chemscore.Internal.Correction>
0.3555

> <Gold.Rescore>
     Score         DG    S(hbond)    S(metal)    S(lipo)     H(rot)  DE(clash)    DE(int)     intcor
     14.84     -17.04       3.60        0.00      69.43       3.35       0.06       2.14       ----

> <Gold.Chemscore.Fitness>
14.8409

> <Gold.Chemscore.DG>
-17.0410

> <Gold.Chemscore.ZeroCoef>
-5.4800

> <Gold.Chemscore.Hbond>
3.5983

> <Gold.Chemscore.Metal>
0.0000

> <Gold.Chemscore.Lipo>
69.4277

> <Gold.Chemscore.Internal_Hbond>
0.0000

> <Gold.Chemscore.DEClash>
0.0618

> <Gold.Chemscore.DEInternal>
2.1382

> <Gold.Chemscore.Rot>
3.3518

> <Gold.Chemscore.Internal.Correction>
   9.000000E+99

> <Gold.Chemscore.Hbonds>
donor molecule, donor type, donor heavy atom, donor atom, acceptor molecule, acceptor atom, score
      L1  H    18    59       P1 10957  0.24
      L1  H    22    54       P1 10186  0.75
      P1  H  7989  7998       L1     7  0.29
      P1  H 10785 10796       L1    22  0.38

> <Gold.Chemscore.Hbond.Weighted>
-12.0185

> <Gold.Chemscore.Metal.Weighted>
-0.0000

> <Gold.Chemscore.Lipo.Weighted>
-8.1230

> <Gold.Chemscore.Internal_Hbond.Weighted>
0.0000

> <Gold.Chemscore.DEClash.Weighted>
0.0618

> <Gold.Chemscore.DEInternal.Weighted>
2.1382

> <Gold.Chemscore.Rot.Weighted>
8.5806

> <Gold.Chemscore.Internal.Correction.Weighted>
   9.000000E+99

> <Gold.Protein.RotatedTorsions>
[ 6907 6896 6895 6894 ] final   37.79 input  -60.11 | X-H torsion
[ 7974 7965 7964 7962 ] final  128.04 input  175.53 | X-H torsion
[ 8008 7997 7996 7995 ] final  -43.31 input   59.86 | X-H torsion
[ 10167 10162 10161 10158 ] final -105.63 input  -65.29 | X-H torsion
[ 10718 10713 10712 10709 ] final  141.91 input   66.30 | X-H torsion
[ 10763 10752 10751 10750 ] final  -77.79 input  -60.55 | X-H torsion
[ 11005 11000 10999 10996 ] final -166.15 input  -57.11 | X-H torsion

> <Gold.Protein.ActiveResidues>
 VAL166  LYS551  ARG553  GLY616  TRP617  ASP618  TYR619  PRO620  LYS621  CYS622 
 ASP623  PHE694  ASN695  SER759  ASP760  ASP761  ALA762  ILE779  LEU786  VAL792 
 PHE793  MET794  SER795  GLU796  ALA797  LYS798  CYS799  TRP800  GLU811  SER814 

> <Gold.Protein.RotatedAtoms>
  152.1478  134.9012  160.0549 H   0  0  0  0  0  0  0  0  0  0  0  0  # atno 6907 bound_to 6896
  152.0055  133.3836  159.4207 H   0  0  0  0  0  0  0  0  0  0  0  0  # atno 6908 bound_to 6896
  150.6872  134.3709  159.5035 H   0  0  0  0  0  0  0  0  0  0  0  0  # atno 6909 bound_to 6896
  145.0439  139.3939  143.5088 H   0  0  0  0  0  0  0  0  0  0  0  0  # atno 7974 bound_to 7965
  154.3997  140.1451  156.3498 H   0  0  0  0  0  0  0  0  0  0  0  0  # atno 8008 bound_to 7997
  155.8279  140.3467  155.5533 H   0  0  0  0  0  0  0  0  0  0  0  0  # atno 8009 bound_to 7997
  155.8219  140.0899  157.1834 H   0  0  0  0  0  0  0  0  0  0  0  0  # atno 8010 bound_to 7997
  140.1964  143.3852  152.1165 H   0  0  0  0  0  0  0  0  0  0  0  0  # atno 10167 bound_to 10162
  157.3867  131.0999  151.0687 H   0  0  0  0  0  0  0  0  0  0  0  0  # atno 10718 bound_to 10713
  154.5176  135.5752  153.6654 H   0  0  0  0  0  0  0  0  0  0  0  0  # atno 10763 bound_to 10752
  152.9910  135.6174  154.2797 H   0  0  0  0  0  0  0  0  0  0  0  0  # atno 10764 bound_to 10752
  154.2716  135.2853  155.2715 H   0  0  0  0  0  0  0  0  0  0  0  0  # atno 10765 bound_to 10752
  140.5677  134.5269  157.5156 H   0  0  0  0  0  0  0  0  0  0  0  0  # atno 11005 bound_to 11000
  146.3512  140.0054  142.8672 LP  0  0  0  0  0  0  0  0  0  0  0  0  # atno 17320 bound_to 7965
  145.1612  140.9674  143.4376 LP  0  0  0  0  0  0  0  0  0  0  0  0  # atno 17321 bound_to 7965
  139.5235  144.7072  151.5319 LP  0  0  0  0  0  0  0  0  0  0  0  0  # atno 17342 bound_to 10162
  140.6420  143.8869  150.6701 LP  0  0  0  0  0  0  0  0  0  0  0  0  # atno 17343 bound_to 10162
  157.1736  130.6278  149.5648 LP  0  0  0  0  0  0  0  0  0  0  0  0  # atno 17370 bound_to 10713
  155.9788  130.4777  150.6679 LP  0  0  0  0  0  0  0  0  0  0  0  0  # atno 17371 bound_to 10713
  139.9377  134.7845  156.0760 LP  0  0  0  0  0  0  0  0  0  0  0  0  # atno 17394 bound_to 11000
  141.1075  133.6654  156.2900 LP  0  0  0  0  0  0  0  0  0  0  0  0  # atno 17395 bound_to 11000

$$$$
