AV-unprocessed.smi:274|AV-procd|sdf|2060|dock9
  -GOLD-   2262021303D 1   1.00000     0.00000
 Structure written by MMmdl.
 50 53  0  0  0  0  0  0  0  0  1 V2000
  151.8469  141.7237  157.1068 C   0  0  0  0  0  0  0  0  0  0  0  0
  150.3235  141.8432  156.9013 C   0  0  0  0  0  0  0  0  0  0  0  0
  149.6827  142.3635  158.2042 C   0  0  0  0  0  0  0  0  0  0  0  0
  149.6569  140.5196  156.4091 C   0  0  2  0  0  0  0  0  0  0  0  0
  149.9965  140.1929  154.9324 C   0  0  0  0  0  0  0  0  0  0  0  0
  151.0991  139.7325  154.6439 O   0  0  0  0  0  0  0  0  0  0  0  0
  149.0598  140.3885  153.9866 N   0  0  0  0  0  0  0  0  0  0  0  0
  147.6893  140.8495  154.2104 C   0  0  0  0  0  0  0  0  0  0  0  0
  147.4477  141.3783  155.6355 C   0  0  0  0  0  0  0  0  0  0  0  0
  148.1992  140.5892  156.6088 N   0  0  0  0  0  0  0  0  0  0  0  0
  147.5437  139.4931  157.0719 C   0  0  0  0  0  0  0  0  0  0  0  0
  146.2392  139.2867  156.7482 N   0  0  0  0  0  0  0  0  0  0  0  0
  145.5875  138.2207  157.2215 C   0  0  0  0  0  0  0  0  0  0  0  0
  146.0395  137.2547  158.0233 N   0  0  0  0  0  0  0  0  0  0  0  0
  147.3480  137.4559  158.3514 C   0  0  0  0  0  0  0  0  0  0  0  0
  148.1681  138.5354  157.9182 C   0  0  0  0  0  0  0  0  0  0  0  0
  149.4496  138.3952  158.4367 N   0  0  0  0  0  0  0  0  0  0  0  0
  149.3885  137.2987  159.1415 C   0  0  0  0  0  0  0  0  0  0  0  0
  148.1591  136.6787  159.1606 N   0  0  0  0  0  0  0  0  0  0  0  0
  147.8080  135.4536  159.8638 C   0  0  0  0  0  0  0  0  0  0  0  0
  147.4946  135.6515  161.3696 C   0  0  2  0  0  0  0  0  0  0  0  0
  148.4509  136.5274  161.9377 O   0  0  0  0  0  0  0  0  0  0  0  0
  147.4623  134.3529  162.1794 C   0  0  0  0  0  0  0  0  0  0  0  0
  145.9752  134.0440  162.2734 C   0  0  0  0  0  0  0  0  0  0  0  0
  145.4116  135.3293  162.4588 O   0  0  0  0  0  0  0  0  0  0  0  0
  146.0792  136.2274  161.5811 C   0  0  0  0  0  0  0  0  0  0  0  0
  152.0915  140.9103  157.7905 H   0  0  0  0  0  0  0  0  0  0  0  0
  152.2594  142.6419  157.5258 H   0  0  0  0  0  0  0  0  0  0  0  0
  152.3751  141.5478  156.1702 H   0  0  0  0  0  0  0  0  0  0  0  0
  150.1723  142.6118  156.1427 H   0  0  0  0  0  0  0  0  0  0  0  0
  149.7583  141.6249  159.0027 H   0  0  0  0  0  0  0  0  0  0  0  0
  148.6280  142.6064  158.0735 H   0  0  0  0  0  0  0  0  0  0  0  0
  150.1738  143.2742  158.5481 H   0  0  0  0  0  0  0  0  0  0  0  0
  150.0700  139.7156  157.0211 H   0  0  0  0  0  0  0  0  0  0  0  0
  149.3091  140.1632  153.0345 H   0  0  0  0  0  0  0  0  0  0  0  0
  147.4303  141.6078  153.4716 H   0  0  0  0  0  0  0  0  0  0  0  0
  147.0328  139.9980  154.0279 H   0  0  0  0  0  0  0  0  0  0  0  0
  147.7781  142.4147  155.7030 H   0  0  0  0  0  0  0  0  0  0  0  0
  146.3787  141.3984  155.8490 H   0  0  0  0  0  0  0  0  0  0  0  0
  144.5556  138.1302  156.9158 H   0  0  0  0  0  0  0  0  0  0  0  0
  150.2450  136.9121  159.6747 H   0  0  0  0  0  0  0  0  0  0  0  0
  146.9478  135.0105  159.3597 H   0  0  0  0  0  0  0  0  0  0  0  0
  148.6286  134.7455  159.7412 H   0  0  0  0  0  0  0  0  0  0  0  0
  149.0997  136.0097  162.3896 H   0  0  0  0  0  0  0  0  0  0  0  0
  148.0316  133.5328  161.7457 H   0  0  0  0  0  0  0  0  0  0  0  0
  147.8476  134.5157  163.1875 H   0  0  0  0  0  0  0  0  0  0  0  0
  145.6040  133.6048  161.3459 H   0  0  0  0  0  0  0  0  0  0  0  0
  145.7333  133.3735  163.0982 H   0  0  0  0  0  0  0  0  0  0  0  0
  146.0803  137.2344  162.0000 H   0  0  0  0  0  0  0  0  0  0  0  0
  145.5240  136.2668  160.6430 H   0  0  0  0  0  0  0  0  0  0  0  0
  1  2  1  0  0  0  0
  1 27  1  0  0  0  0
  1 28  1  0  0  0  0
  1 29  1  0  0  0  0
  2  3  1  0  0  0  0
  2  4  1  0  0  0  0
  2 30  1  0  0  0  0
  3 31  1  0  0  0  0
  3 32  1  0  0  0  0
  3 33  1  0  0  0  0
  4 10  1  0  0  0  0
  4  5  1  0  0  0  0
  4 34  1  0  0  0  0
  5  6  2  0  0  0  0
  5  7  1  0  0  0  0
  7  8  1  0  0  0  0
  7 35  1  0  0  0  0
  8  9  1  0  0  0  0
  8 36  1  0  0  0  0
  8 37  1  0  0  0  0
  9 10  1  0  0  0  0
  9 38  1  0  0  0  0
  9 39  1  0  0  0  0
 10 11  1  0  0  0  0
 11 16  1  0  0  0  0
 11 12  2  0  0  0  0
 12 13  1  0  0  0  0
 13 14  2  0  0  0  0
 13 40  1  0  0  0  0
 14 15  1  0  0  0  0
 15 19  1  0  0  0  0
 15 16  2  0  0  0  0
 16 17  1  0  0  0  0
 17 18  2  0  0  0  0
 18 19  1  0  0  0  0
 18 41  1  0  0  0  0
 19 20  1  0  0  0  0
 20 21  1  0  0  0  0
 20 42  1  0  0  0  0
 20 43  1  0  0  0  0
 21 26  1  0  0  0  0
 21 22  1  0  0  0  0
 21 23  1  0  0  0  0
 22 44  1  0  0  0  0
 23 24  1  0  0  0  0
 23 45  1  0  0  0  0
 23 46  1  0  0  0  0
 24 25  1  0  0  0  0
 24 47  1  0  0  0  0
 24 48  1  0  0  0  0
 25 26  1  0  0  0  0
 26 49  1  0  0  0  0
 26 50  1  0  0  0  0
M  END
> <s_m_source_file>
AV-unprocessed.smi

> <i_m_source_file_index>
274

> <i_lp_mmshare_version>
43012

> <i_f3d_flags>
0

> <s_epik_input>
W0NIM11bQ0hdKFtDSDNdKVtDQEBIXTFDKD1PKVtOSF1bQ0gyXVtDSDJdTjFjKG5bY0hdbjIpYyhjMjMpbltjSF1uM1tDSDJdW0NAQF00KFtPSF0pW0NIMl1bQ0gyXU9bQ0gyXTQ=

> <s_epik_cmdline>
J2VwaWtfcHl0aG9uJywgJy1waCcsICc3LjAnLCAnLXRuJywgJzgnLCAnLW1hJywgJzIwMCcsICctbWV0YWxfYmluZGluZycsICctaW1hZScsICc8aW5maWxlLm1hZT4nLCAnLW9tYWUnLCAnPG91dGZpbGUubWFlPic=

> <r_lp_tautomer_probability>
1

> <r_epik_Ionization_Penalty>
0.000690079

> <r_epik_Ionization_Penalty_Charging>
0

> <r_epik_Ionization_Penalty_Neutral>
0.000690079

> <r_epik_State_Penalty>
0.000321372

> <r_epik_Charging_Adjusted_Penalty>
0.000321372

> <i_epik_Tot_Q>
0

> <i_epik_Tot_abs_Q>
0

> <r_epik_Metal_State_Penalty>
-0

> <b_epik_Metal_Only>
0

> <s_lp_Force_Field>
OPLS_2005

> <r_lp_Energy>
42.4

> <b_lp_Chiralities_Consistent>
1

> <s_lp_Variant>
AV-unprocessed.smi:274-3

> <Gold.Version>
5.8.1

> <Gold.Id.Protein>
6NUR|6NUR_protein|mol2

> <Gold.PLP.Fitness>
39.4848

> <Gold.PLP.PLP>
-32.2229

> <Gold.PLP.part.hbond>
-3.0000

> <Gold.PLP.part.metal>
0.0000

> <Gold.PLP.part.buried>
-6.3701

> <Gold.PLP.part.nonpolar>
-23.2369

> <Gold.PLP.part.repulsive>
0.2569

> <Gold.PLP.ligand.clash>
0.0000

> <Gold.PLP.ligand.torsion>
1.1591

> <Gold.PLP.Chemscore.Hbond>
3.0000

> <Gold.PLP.Chemscore.CHOScore>
0.0000

> <Gold.PLP.Chemscore.Metal>
0.0000

> <Gold.Chemscore.Hbonds>
donor molecule, donor type, donor heavy atom, donor atom, acceptor molecule, acceptor atom, score
      L1  H     7    35       P1  7957  1.00
      P1  H  6931  6943       L1    22  1.00
      P1  H  7989  7998       L1     6  1.00

> <Gold.PLP.Chemscore.Internal.Correction>
0.5802

> <Gold.Rescore>
     Score         DG    S(hbond)    S(metal)    S(lipo)     H(rot)  DE(clash)    DE(int)     intcor
     13.23     -16.88       2.88        0.00      69.74       2.50       1.83       1.82       ----

> <Gold.Chemscore.Fitness>
13.2321

> <Gold.Chemscore.DG>
-16.8752

> <Gold.Chemscore.ZeroCoef>
-5.4800

> <Gold.Chemscore.Hbond>
2.8839

> <Gold.Chemscore.Metal>
0.0000

> <Gold.Chemscore.Lipo>
69.7426

> <Gold.Chemscore.Internal_Hbond>
0.0000

> <Gold.Chemscore.DEClash>
1.8260

> <Gold.Chemscore.DEInternal>
1.8171

> <Gold.Chemscore.Rot>
2.4988

> <Gold.Chemscore.Internal.Correction>
   9.000000E+99

> <Gold.Chemscore.Hbonds>
donor molecule, donor type, donor heavy atom, donor atom, acceptor molecule, acceptor atom, score
      L1  H     7    35       P1  7957  1.00
      P1  H  6931  6943       L1    22  0.60
      P1  H  7989  7998       L1     6  0.30

> <Gold.Chemscore.Hbond.Weighted>
-9.6323

> <Gold.Chemscore.Metal.Weighted>
-0.0000

> <Gold.Chemscore.Lipo.Weighted>
-8.1599

> <Gold.Chemscore.Internal_Hbond.Weighted>
0.0000

> <Gold.Chemscore.DEClash.Weighted>
1.8260

> <Gold.Chemscore.DEInternal.Weighted>
1.8171

> <Gold.Chemscore.Rot.Weighted>
6.3970

> <Gold.Chemscore.Internal.Correction.Weighted>
   9.000000E+99

> <Gold.Protein.RotatedTorsions>
[ 6907 6896 6895 6894 ] final -167.78 input  -60.11 | X-H torsion
[ 7974 7965 7964 7962 ] final  134.66 input  175.53 | X-H torsion
[ 8008 7997 7996 7995 ] final -110.16 input   59.86 | X-H torsion
[ 10167 10162 10161 10158 ] final  -52.15 input  -65.29 | X-H torsion
[ 10718 10713 10712 10709 ] final  -57.46 input   66.30 | X-H torsion
[ 10763 10752 10751 10750 ] final   40.42 input  -60.55 | X-H torsion
[ 11005 11000 10999 10996 ] final  146.49 input  -57.11 | X-H torsion

> <Gold.Protein.ActiveResidues>
 VAL166  LYS551  ARG553  GLY616  TRP617  ASP618  TYR619  PRO620  LYS621  CYS622 
 ASP623  PHE694  ASN695  SER759  ASP760  ASP761  ALA762  ILE779  LEU786  VAL792 
 PHE793  MET794  SER795  GLU796  ALA797  LYS798  CYS799  TRP800  GLU811  SER814 

> <Gold.Protein.RotatedAtoms>
  151.4650  133.3583  159.2814 H   0  0  0  0  0  0  0  0  0  0  0  0  # atno 6907 bound_to 6896
  150.8999  134.8412  159.7364 H   0  0  0  0  0  0  0  0  0  0  0  0  # atno 6908 bound_to 6896
  152.4873  134.4569  159.9644 H   0  0  0  0  0  0  0  0  0  0  0  0  # atno 6909 bound_to 6896
  144.9741  139.4574  143.5418 H   0  0  0  0  0  0  0  0  0  0  0  0  # atno 7974 bound_to 7965
  154.9703  140.0397  157.2231 H   0  0  0  0  0  0  0  0  0  0  0  0  # atno 8008 bound_to 7997
  154.7807  140.2818  155.6044 H   0  0  0  0  0  0  0  0  0  0  0  0  # atno 8009 bound_to 7997
  156.2936  140.2592  156.2632 H   0  0  0  0  0  0  0  0  0  0  0  0  # atno 8010 bound_to 7997
  140.6552  143.2594  151.4606 H   0  0  0  0  0  0  0  0  0  0  0  0  # atno 10167 bound_to 10162
  156.1209  130.4166  150.0444 H   0  0  0  0  0  0  0  0  0  0  0  0  # atno 10718 bound_to 10713
  152.9937  135.6192  154.2624 H   0  0  0  0  0  0  0  0  0  0  0  0  # atno 10763 bound_to 10752
  154.2359  135.2790  155.2874 H   0  0  0  0  0  0  0  0  0  0  0  0  # atno 10764 bound_to 10752
  154.5410  135.5761  153.6897 H   0  0  0  0  0  0  0  0  0  0  0  0  # atno 10765 bound_to 10752
  140.0797  134.9104  157.1481 H   0  0  0  0  0  0  0  0  0  0  0  0  # atno 11005 bound_to 11000
  146.3390  139.8973  142.8800 LP  0  0  0  0  0  0  0  0  0  0  0  0  # atno 17320 bound_to 7965
  145.2515  141.0046  143.3878 LP  0  0  0  0  0  0  0  0  0  0  0  0  # atno 17321 bound_to 7965
  139.5774  144.1789  152.1921 LP  0  0  0  0  0  0  0  0  0  0  0  0  # atno 17342 bound_to 10162
  140.1103  144.5463  150.6929 LP  0  0  0  0  0  0  0  0  0  0  0  0  # atno 17343 bound_to 10162
  156.8383  130.9416  151.3633 LP  0  0  0  0  0  0  0  0  0  0  0  0  # atno 17370 bound_to 10713
  157.6392  130.8791  149.9416 LP  0  0  0  0  0  0  0  0  0  0  0  0  # atno 17371 bound_to 10713
  140.3505  134.2603  155.7199 LP  0  0  0  0  0  0  0  0  0  0  0  0  # atno 17394 bound_to 11000
  141.2042  133.7892  157.0298 LP  0  0  0  0  0  0  0  0  0  0  0  0  # atno 17395 bound_to 11000

$$$$
