#       Name:                AV-unprocessed.smi:1662
#       Creating user name   scv26
#       Creation time:       Fri Mar 27 07:37:21 2020


#       File generated by GOLD software.
#

@<TRIPOS>MOLECULE
AV-unprocessed.smi:1662
    53    54     1
SMALL
NO_CHARGES


@<TRIPOS>ATOM
      1 ****        -4.8628   2.8972   2.2223 C.3            1 S1                 0.0000
      2 ****        -4.1582   1.5902   1.9771 C.2            1 S1                 0.0000
      3 ****        -2.8661   1.6138   2.0025 N.2            1 S1                 0.0000
      4 ****        -2.1216   0.4707   1.7848 N.am           1 S1                 0.0000
      5 ****        -0.6675   0.6837   1.8234 C.3            1 S1                 0.0000
      6 ****        -0.0356   0.7407   0.4256 C.2            1 S1                 0.0000
      7 ****        -0.6532   1.2297  -0.5214 O.2            1 S1                 0.0000
      8 ****         1.2079   0.2486   0.3205 N.am           1 S1                 0.0000
      9 ****         1.9887   0.1704  -0.9126 C.3            1 S1                 0.0000
     10 ****         2.8227   1.4563  -1.0654 C.3            1 S1                 0.0000
     11 ****         3.6946   1.4073  -2.3233 C.3            1 S1                 0.0000
     12 ****         4.6031   0.1732  -2.3024 C.3            1 S1                 0.0000
     13 ****         3.7949  -1.1336  -2.1723 C.3            1 S1                 0.0000
     14 ****         4.7558  -2.3367  -2.1914 C.3            1 S1                 0.0000
     15 ****         2.8780  -1.1027  -0.9162 C.3            1 S1                 0.0000
     16 ****         2.0175  -2.3804  -0.7978 C.3            1 S1                 0.0000
     17 ****        -2.6478  -0.7651   1.5445 C.2            1 S1                 0.0000
     18 ****        -1.9447  -1.7617   1.3684 O.2            1 S1                 0.0000
     19 ****        -4.1119  -0.7839   1.5156 C.2            1 S1                 0.0000
     20 ****        -4.7038  -2.0568   1.2573 C.1            1 S1                 0.0000
     21 ****        -5.2020  -3.0807   1.0487 N.1            1 S1                 0.0000
     22 ****        -4.8538   0.3336   1.7182 C.2            1 S1                 0.0000
     23 ****        -6.3758   0.3671   1.6982 C.3            1 S1                 0.0000
     24 ****        -5.5644   2.8109   3.0523 H              1 S1                 0.0000
     25 ****        -5.4205   3.2059   1.3381 H              1 S1                 0.0000
     26 ****        -4.1626   3.6977   2.4665 H              1 S1                 0.0000
     27 ****        -0.4326   1.6177   2.3370 H              1 S1                 0.0000
     28 ****        -0.1942  -0.1027   2.4149 H              1 S1                 0.0000
     29 ****         1.6399  -0.1242   1.1537 H              1 S1                 0.0000
     30 ****         1.3085   0.1003  -1.7640 H              1 S1                 0.0000
     31 ****         2.1670   2.3268  -1.1123 H              1 S1                 0.0000
     32 ****         3.4574   1.5944  -0.1887 H              1 S1                 0.0000
     33 ****         3.0615   1.3858  -3.2112 H              1 S1                 0.0000
     34 ****         4.2980   2.3127  -2.3932 H              1 S1                 0.0000
     35 ****         5.2012   0.1532  -3.2143 H              1 S1                 0.0000
     36 ****         5.3080   0.2554  -1.4739 H              1 S1                 0.0000
     37 ****         3.1560  -1.2127  -3.0534 H              1 S1                 0.0000
     38 ****         5.3664  -2.3717  -1.2888 H              1 S1                 0.0000
     39 ****         5.4313  -2.2834  -3.0457 H              1 S1                 0.0000
     40 ****         4.2223  -3.2830  -2.2746 H              1 S1                 0.0000
     41 ****         3.5224  -1.0597  -0.0364 H              1 S1                 0.0000
     42 ****         1.3905  -2.5164  -1.6793 H              1 S1                 0.0000
     43 ****         1.3605  -2.3521   0.0714 H              1 S1                 0.0000
     44 ****         2.6314  -3.2728  -0.6833 H              1 S1                 0.0000
     45 ****        -6.8066  -0.5967   1.4283 H              1 S1                 0.0000
     46 ****        -6.7353   1.0980   0.9732 H              1 S1                 0.0000
     47 ****        -6.7634   0.6377   2.6810 H              1 S1                 0.0000
     48 ****        -2.3957   2.4774   2.1835 LP             1 S1                 0.0000
     49 ****        -1.5743   1.5938  -0.3831 LP             1 S1                 0.0000
     50 ****        -0.2336   1.2625  -1.4285 LP             1 S1                 0.0000
     51 ****        -0.9483  -1.6824   1.3989 LP             1 S1                 0.0000
     52 ****        -2.3705  -2.6498   1.1949 LP             1 S1                 0.0000
     53 ****        -5.6324  -3.9652   0.8685 LP             1 S1                 0.0000
@<TRIPOS>BOND
    1    1    2 1     
    2    1   24 1     
    3    1   25 1     
    4    1   26 1     
    5    2   22 1     
    6    2    3 2     
    7    3    4 1     
    8    4    5 1     
    9    4   17 am    
   10    5    6 1     
   11    5   27 1     
   12    5   28 1     
   13    6    7 2     
   14    6    8 am    
   15    8    9 1     
   16    8   29 1     
   17    9   15 1     
   18    9   10 1     
   19    9   30 1     
   20   10   11 1     
   21   10   31 1     
   22   10   32 1     
   23   11   12 1     
   24   11   33 1     
   25   11   34 1     
   26   12   13 1     
   27   12   35 1     
   28   12   36 1     
   29   13   14 1     
   30   13   15 1     
   31   13   37 1     
   32   14   38 1     
   33   14   39 1     
   34   14   40 1     
   35   15   16 1     
   36   15   41 1     
   37   16   42 1     
   38   16   43 1     
   39   16   44 1     
   40   17   18 2     
   41   17   19 1     
   42   19   20 1     
   43   19   22 2     
   44   20   21 3     
   45   22   23 1     
   46   23   45 1     
   47   23   46 1     
   48   23   47 1     
   49    3   48 1     
   50    7   49 1     
   51    7   50 1     
   52   18   51 1     
   53   18   52 1     
   54   21   53 1     
@<TRIPOS>SUBSTRUCTURE
      1 S1             1
@<TRIPOS>SET
LONE_PAIRS      STATIC     ATOMS    <user>   **** ""
6 48 49 50 51 52 53
DONOR_HYDROGENS      STATIC     ATOMS    <user>   **** ""
1 29
ATOM$BLUE        STATIC     ATOMS    COLORGROUP SYSTEM
6 48 49 50 51 52 53
ATOM$RED        STATIC     ATOMS    COLORGROUP SYSTEM
1 29
