AV-unprocessed.smi:2353|AV-procd|sdf|9382|dock1
  -GOLD-   2272013 13D 1   1.00000     0.00000
 Structure written by MMmdl.
 46 48  0  0  0  0  0  0  0  0  2 V2000
  146.1201  122.5996  147.9171 C   0  0  0  0  0  0  0  0  0  0  0  0
  147.4807  123.2204  148.1578 C   0  0  0  0  0  0  0  0  0  0  0  0
  148.5957  122.8035  147.4056 C   0  0  0  0  0  0  0  0  0  0  0  0
  149.8540  123.3893  147.6322 C   0  0  0  0  0  0  0  0  0  0  0  0
  150.0061  124.3929  148.6112 C   0  0  0  0  0  0  0  0  0  0  0  0
  151.3717  125.0121  148.8437 C   0  0  0  0  0  0  0  0  0  0  0  0
  148.8952  124.8194  149.3756 C   0  0  0  0  0  0  0  0  0  0  0  0
  149.1135  125.8032  150.3181 O   0  0  0  0  0  0  0  0  0  0  0  0
  148.0259  126.2181  151.1334 C   0  0  0  0  0  0  0  0  0  0  0  0
  148.3347  127.6167  151.6933 C   0  0  2  0  0  0  0  0  0  0  0  0
  149.4845  127.4968  152.5093 O   0  0  0  0  0  0  0  0  0  0  0  0
  147.1838  128.1508  152.5748 C   0  0  0  0  0  0  0  0  0  0  0  0
  147.1354  129.6179  152.5842 N   0  0  0  0  0  0  0  0  0  0  0  0
  146.2046  130.1547  151.7127 N   0  0  0  0  0  0  0  0  0  0  0  0
  146.0363  131.4351  151.6264 C   0  0  0  0  0  0  0  0  0  0  0  0
  145.0659  132.0491  150.7357 N   0  0  0  0  0  0  0  0  0  0  0  0
  145.0967  132.2160  149.3718 C   0  0  0  0  0  0  0  0  0  0  0  0
  143.9309  132.8574  149.0385 C   0  0  0  0  0  0  0  0  0  0  0  0
  143.2422  133.0534  150.2065 N   0  3  0  0  0  0  0  0  0  0  0  0
  143.9326  132.5621  151.2414 C   0  0  0  0  0  0  0  0  0  0  0  0
  146.8407  132.3272  152.4473 C   0  0  0  0  0  0  0  0  0  0  0  0
  147.7467  131.7936  153.2948 C   0  0  0  0  0  0  0  0  0  0  0  0
  147.9401  130.3492  153.4107 C   0  0  0  0  0  0  0  0  0  0  0  0
  148.7486  129.8370  154.1842 O   0  0  0  0  0  0  0  0  0  0  0  0
  147.6305  124.2233  149.1368 C   0  0  0  0  0  0  0  0  0  0  0  0
  146.1908  121.7260  147.2682 H   0  0  0  0  0  0  0  0  0  0  0  0
  145.4549  123.3228  147.4450 H   0  0  0  0  0  0  0  0  0  0  0  0
  145.6727  122.2857  148.8605 H   0  0  0  0  0  0  0  0  0  0  0  0
  148.4912  122.0355  146.6530 H   0  0  0  0  0  0  0  0  0  0  0  0
  150.7037  123.0639  147.0499 H   0  0  0  0  0  0  0  0  0  0  0  0
  151.7111  124.8053  149.8591 H   0  0  0  0  0  0  0  0  0  0  0  0
  151.3261  126.0932  148.7096 H   0  0  0  0  0  0  0  0  0  0  0  0
  152.1139  124.6159  148.1501 H   0  0  0  0  0  0  0  0  0  0  0  0
  147.1325  126.2670  150.5089 H   0  0  0  0  0  0  0  0  0  0  0  0
  147.8317  125.5099  151.9413 H   0  0  0  0  0  0  0  0  0  0  0  0
  148.5325  128.3020  150.8679 H   0  0  0  0  0  0  0  0  0  0  0  0
  150.2445  127.7105  151.9901 H   0  0  0  0  0  0  0  0  0  0  0  0
  146.2277  127.7744  152.2064 H   0  0  0  0  0  0  0  0  0  0  0  0
  147.2628  127.7574  153.5903 H   0  0  0  0  0  0  0  0  0  0  0  0
  145.9099  131.8837  148.7443 H   0  0  0  0  0  0  0  0  0  0  0  0
  143.5495  133.1807  148.0808 H   0  0  0  0  0  0  0  0  0  0  0  0
  143.6237  132.5839  152.2721 H   0  0  0  0  0  0  0  0  0  0  0  0
  146.7291  133.3986  152.3940 H   0  0  0  0  0  0  0  0  0  0  0  0
  148.3464  132.4512  153.9072 H   0  0  0  0  0  0  0  0  0  0  0  0
  146.7553  124.5215  149.6940 H   0  0  0  0  0  0  0  0  0  0  0  0
  142.3396  133.5063  150.2791 H   0  0  0  0  0  0  0  0  0  0  0  0
  1  2  1  0  0  0  0
  1 26  1  0  0  0  0
  1 27  1  0  0  0  0
  1 28  1  0  0  0  0
  2 25  1  0  0  0  0
  2  3  2  0  0  0  0
  3  4  1  0  0  0  0
  3 29  1  0  0  0  0
  4  5  2  0  0  0  0
  4 30  1  0  0  0  0
  5  6  1  0  0  0  0
  5  7  1  0  0  0  0
  6 31  1  0  0  0  0
  6 32  1  0  0  0  0
  6 33  1  0  0  0  0
  7  8  1  0  0  0  0
  7 25  2  0  0  0  0
  8  9  1  0  0  0  0
  9 10  1  0  0  0  0
  9 34  1  0  0  0  0
  9 35  1  0  0  0  0
 10 11  1  0  0  0  0
 10 12  1  0  0  0  0
 10 36  1  0  0  0  0
 11 37  1  0  0  0  0
 12 13  1  0  0  0  0
 12 38  1  0  0  0  0
 12 39  1  0  0  0  0
 13 23  1  0  0  0  0
 13 14  1  0  0  0  0
 14 15  2  0  0  0  0
 15 16  1  0  0  0  0
 15 21  1  0  0  0  0
 16 20  1  0  0  0  0
 16 17  1  0  0  0  0
 17 18  2  0  0  0  0
 17 40  1  0  0  0  0
 18 19  1  0  0  0  0
 18 41  1  0  0  0  0
 19 20  2  0  0  0  0
 19 46  1  0  0  0  0
 20 42  1  0  0  0  0
 21 22  2  0  0  0  0
 21 43  1  0  0  0  0
 22 23  1  0  0  0  0
 22 44  1  0  0  0  0
 23 24  2  0  0  0  0
 25 45  1  0  0  0  0
M  CHG  1  19   1
M  END
> <s_m_source_file>
AV-unprocessed.smi

> <i_m_source_file_index>
2353

> <i_lp_mmshare_version>
43012

> <i_f3d_flags>
0

> <s_epik_input>
W0NIM11jMVtjSF1bY0hdYyhbQ0gzXSljKFtjSF0xKU9bQ0gyXVtDQEhdKFtPSF0pW0NIMl1uMm5jKFtjSF1bY0hdYzI9TyktbjNbY0hdW2NIXW5bY0hdMw==

> <s_epik_cmdline>
J2VwaWtfcHl0aG9uJywgJy1waCcsICc3LjAnLCAnLXRuJywgJzgnLCAnLW1hJywgJzIwMCcsICctbWV0YWxfYmluZGluZycsICctaW1hZScsICc8aW5maWxlLm1hZT4nLCAnLW9tYWUnLCAnPG91dGZpbGUubWFlPic=

> <r_lp_tautomer_probability>
1

> <r_epik_Ionization_Penalty>
1.66053

> <r_epik_Ionization_Penalty_Charging>
2.43903e-09

> <r_epik_Ionization_Penalty_Neutral>
1.66053

> <r_epik_State_Penalty>
1.76336

> <r_epik_Charging_Adjusted_Penalty>
1.76336

> <i_epik_Tot_Q>
1

> <i_epik_Tot_abs_Q>
1

> <r_epik_Metal_State_Penalty>
1.79856

> <b_epik_Metal_Only>
0

> <s_lp_Force_Field>
OPLS_2005

> <r_lp_Energy>
37.6947

> <b_lp_Chiralities_Consistent>
1

> <s_lp_Variant>
AV-unprocessed.smi:2353-3

> <Gold.Version>
5.8.1

> <Gold.Id.Protein>
6NUR|6NUR_protein|mol2

> <Gold.PLP.Fitness>
58.5507

> <Gold.PLP.PLP>
-53.3665

> <Gold.PLP.part.hbond>
-2.0000

> <Gold.PLP.part.metal>
0.0000

> <Gold.PLP.part.buried>
-8.0110

> <Gold.PLP.part.nonpolar>
-44.1367

> <Gold.PLP.part.repulsive>
0.4004

> <Gold.PLP.ligand.clash>
0.0000

> <Gold.PLP.ligand.torsion>
2.1669

> <Gold.PLP.Chemscore.Hbond>
3.0000

> <Gold.PLP.Chemscore.CHOScore>
0.1493

> <Gold.PLP.Chemscore.Metal>
0.0000

> <Gold.Chemscore.Hbonds>
donor molecule, donor type, donor heavy atom, donor atom, acceptor molecule, acceptor atom, score
      L1  H    11    37       P1 10737  1.00
      L1  H    19    46       P1 10186  2.00
      L1  C    20    42       P1 10957  0.18

> <Gold.PLP.Chemscore.Internal.Correction>
0.0700

> <Gold.Rescore>
     Score         DG    S(hbond)    S(metal)    S(lipo)     H(rot)  DE(clash)    DE(int)     intcor
     15.40     -18.68       1.96        0.00     114.82       2.65       0.11       3.17       ----

> <Gold.Chemscore.Fitness>
15.4000

> <Gold.Chemscore.DG>
-18.6823

> <Gold.Chemscore.ZeroCoef>
-5.4800

> <Gold.Chemscore.Hbond>
1.9645

> <Gold.Chemscore.Metal>
0.0000

> <Gold.Chemscore.Lipo>
114.8241

> <Gold.Chemscore.Internal_Hbond>
0.0000

> <Gold.Chemscore.DEClash>
0.1121

> <Gold.Chemscore.DEInternal>
3.1702

> <Gold.Chemscore.Rot>
2.6537

> <Gold.Chemscore.Internal.Correction>
   9.000000E+99

> <Gold.Chemscore.Hbonds>
donor molecule, donor type, donor heavy atom, donor atom, acceptor molecule, acceptor atom, score
      L1  H    11    37       P1 10737  0.97
      L1  H    19    46       P1 10186  0.95

> <Gold.Chemscore.Hbond.Weighted>
-6.5614

> <Gold.Chemscore.Metal.Weighted>
-0.0000

> <Gold.Chemscore.Lipo.Weighted>
-13.4344

> <Gold.Chemscore.Internal_Hbond.Weighted>
0.0000

> <Gold.Chemscore.DEClash.Weighted>
0.1121

> <Gold.Chemscore.DEInternal.Weighted>
3.1702

> <Gold.Chemscore.Rot.Weighted>
6.7935

> <Gold.Chemscore.Internal.Correction.Weighted>
   9.000000E+99

> <Gold.Protein.RotatedTorsions>
[ 6907 6896 6895 6894 ] final  -80.34 input  -60.11 | X-H torsion
[ 7974 7965 7964 7962 ] final  126.73 input  175.53 | X-H torsion
[ 8008 7997 7996 7995 ] final  113.10 input   59.86 | X-H torsion
[ 10167 10162 10161 10158 ] final  -53.70 input  -65.29 | X-H torsion
[ 10718 10713 10712 10709 ] final   27.66 input   66.30 | X-H torsion
[ 10763 10752 10751 10750 ] final   89.05 input  -60.55 | X-H torsion
[ 11005 11000 10999 10996 ] final -128.70 input  -57.11 | X-H torsion

> <Gold.Protein.ActiveResidues>
 VAL166  LYS551  ARG553  GLY616  TRP617  ASP618  TYR619  PRO620  LYS621  CYS622 
 ASP623  PHE694  ASN695  SER759  ASP760  ASP761  ALA762  ILE779  LEU786  VAL792 
 PHE793  MET794  SER795  GLU796  ALA797  LYS798  CYS799  TRP800  GLU811  SER814 

> <Gold.Protein.RotatedAtoms>
  150.6931  134.3984  159.5107 H   0  0  0  0  0  0  0  0  0  0  0  0  # atno 6907 bound_to 6896
  152.1762  134.8790  160.0539 H   0  0  0  0  0  0  0  0  0  0  0  0  # atno 6908 bound_to 6896
  151.9798  133.3719  159.4140 H   0  0  0  0  0  0  0  0  0  0  0  0  # atno 6909 bound_to 6896
  145.0584  139.3825  143.5018 H   0  0  0  0  0  0  0  0  0  0  0  0  # atno 7974 bound_to 7965
  156.2236  140.2986  156.0011 H   0  0  0  0  0  0  0  0  0  0  0  0  # atno 8008 bound_to 7997
  155.2417  140.0422  157.2993 H   0  0  0  0  0  0  0  0  0  0  0  0  # atno 8009 bound_to 7997
  154.5879  140.2393  155.7969 H   0  0  0  0  0  0  0  0  0  0  0  0  # atno 8010 bound_to 7997
  140.6471  143.2542  151.4829 H   0  0  0  0  0  0  0  0  0  0  0  0  # atno 10167 bound_to 10162
  157.2231  130.6988  149.6279 H   0  0  0  0  0  0  0  0  0  0  0  0  # atno 10718 bound_to 10713
  153.1831  135.4484  155.0054 H   0  0  0  0  0  0  0  0  0  0  0  0  # atno 10763 bound_to 10752
  154.8043  135.3268  154.7473 H   0  0  0  0  0  0  0  0  0  0  0  0  # atno 10764 bound_to 10752
  153.7935  135.6968  153.4922 H   0  0  0  0  0  0  0  0  0  0  0  0  # atno 10765 bound_to 10752
  140.9494  134.1086  157.4077 H   0  0  0  0  0  0  0  0  0  0  0  0  # atno 11005 bound_to 11000
  146.3523  140.0270  142.8653 LP  0  0  0  0  0  0  0  0  0  0  0  0  # atno 17320 bound_to 7965
  145.1439  140.9586  143.4472 LP  0  0  0  0  0  0  0  0  0  0  0  0  # atno 17321 bound_to 7965
  139.5682  144.1991  152.1797 LP  0  0  0  0  0  0  0  0  0  0  0  0  # atno 17342 bound_to 10162
  140.1279  144.5314  150.6821 LP  0  0  0  0  0  0  0  0  0  0  0  0  # atno 17343 bound_to 10162
  155.9681  130.4513  150.5731 LP  0  0  0  0  0  0  0  0  0  0  0  0  # atno 17370 bound_to 10713
  157.3555  131.0741  151.1679 LP  0  0  0  0  0  0  0  0  0  0  0  0  # atno 17371 bound_to 10713
  139.8843  135.0061  156.6358 LP  0  0  0  0  0  0  0  0  0  0  0  0  # atno 17394 bound_to 11000
  140.7624  133.8806  155.8428 LP  0  0  0  0  0  0  0  0  0  0  0  0  # atno 17395 bound_to 11000

$$$$
